0
                    3D
 Structure written by MMmdl.
158166  0  0  1  0            999 V2000
  -30.6133  -14.6248   20.5001 C   0  0  0  0  0  0
  -30.4376  -12.3799   19.4523 C   0  0  0  0  0  0
  -29.5117  -12.5070   18.2216 C   0  0  0  0  0  0
  -28.0307  -12.3479   18.6259 C   0  0  0  0  0  0
  -27.6533  -13.2107   19.8605 C   0  0  2  0  0  0
  -28.6941  -13.0523   20.9923 C   0  0  0  0  0  0
  -25.2565  -13.8145   20.5658 C   0  0  0  0  0  0
  -24.1833  -13.0419   20.9169 C   0  0  0  0  0  0
  -24.6384  -11.6887   20.8710 C   0  0  0  0  0  0
  -23.9044  -10.4283   21.0388 C   0  0  0  0  0  0
  -24.3602   -9.4210   21.9174 C   0  0  0  0  0  0
  -23.6288   -8.2239   22.0749 C   0  0  0  0  0  0
  -22.4274   -8.0267   21.3533 C   0  0  0  0  0  0
  -21.9891   -9.0236   20.4639 C   0  0  0  0  0  0
  -22.7211  -10.2122   20.3046 C   0  0  0  0  0  0
  -21.6856   -6.0726   22.5274 C   0  0  0  0  0  0
  -21.4019   -6.5634   23.8206 C   0  0  0  0  0  0
  -21.3657   -5.6789   24.9170 C   0  0  0  0  0  0
  -21.6043   -4.3048   24.7220 C   0  0  0  0  0  0
  -21.8823   -3.8138   23.4344 C   0  0  0  0  0  0
  -21.9198   -4.6950   22.3399 C   0  0  0  0  0  0
  -22.7863  -13.5226   21.1840 C   0  0  0  0  0  0
  -22.1667   -4.2135   21.0980 F   0  0  0  0  0  0
  -21.5628   -3.4537   25.7737 F   0  0  0  0  0  0
  -30.0132  -13.3953   20.4360 N   0  0  0  0  0  0
  -26.2979  -12.9316   20.3262 N   0  0  0  0  0  0
  -25.9307  -11.6471   20.5700 N   0  0  0  0  0  0
  -22.0500  -12.8231   22.0400 N   0  0  0  0  0  0
  -25.4273  -15.1870   20.4076 N   0  0  0  0  0  0
  -31.7755  -14.7894   20.1137 O   0  0  0  0  0  0
  -21.6638   -6.8861   21.4231 O   0  0  0  0  0  0
  -22.3554  -14.5527   20.6677 O   0  0  0  0  0  0
  -24.6245  -31.8603   23.2031 C   0  0  0  0  0  0
  -25.9108  -32.4770   23.8345 C   0  0  1  0  0  0
  -27.2254  -27.3365   20.1176 C   0  0  0  0  0  0
  -25.5930  -33.8568   24.2274 N   0  0  0  0  0  0
  -23.4167  -30.4848   21.5449 C   0  0  2  0  0  0
  -24.8636  -28.9383   20.1130 C   0  0  0  0  0  0
  -22.7462  -29.4632   22.4939 C   0  0  0  0  0  0
  -18.0284  -28.1373   22.8493 C   0  0  0  0  0  0
  -24.1496  -36.7291   23.2637 C   0  0  0  0  0  0
  -25.9559  -30.7986   21.3700 C   0  0  0  0  0  0
  -26.0319  -29.4272   20.7120 C   0  0  0  0  0  0
  -27.2193  -28.6395   20.6994 C   0  0  0  0  0  0
  -26.0357  -26.8904   19.5046 C   0  0  0  0  0  0
  -24.8662  -27.6746   19.5006 C   0  0  0  0  0  0
  -23.6304  -29.8161   20.1612 C   0  0  0  0  0  0
  -25.4118  -36.3074   24.0326 C   0  0  1  0  0  0
  -20.5886  -28.3681   23.1293 C   0  0  2  0  0  0
  -20.6775  -26.9407   22.5415 C   0  0  0  0  0  0
  -19.5751  -26.6381   21.5217 C   0  0  0  0  0  0
  -18.1931  -26.7917   22.1627 C   0  0  0  0  0  0
  -19.1536  -28.8842   23.2888 C   0  0  0  0  0  0
  -18.9458  -30.1446   23.8897 C   0  0  0  0  0  0
  -17.6459  -30.6581   24.0562 C   0  0  0  0  0  0
  -25.9053  -34.9445   23.5100 C   0  0  0  0  0  0
  -16.5350  -29.9080   23.6329 C   0  0  0  0  0  0
  -16.7272  -28.6495   23.0354 C   0  0  0  0  0  0
  -26.4500  -31.6571   25.0706 C   0  0  0  0  0  0
  -25.3738  -31.3713   26.1439 C   0  0  0  0  0  0
  -27.0335  -30.2988   24.6157 C   0  0  0  0  0  0
  -27.6059  -32.4300   25.7484 C   0  0  0  0  0  0
  -27.5580  -37.1802   24.8460 C   0  0  0  0  0  0
  -21.4176  -29.3042   22.3685 N   0  0  0  0  0  0
  -26.4290  -37.3773   23.9407 N   0  0  0  0  0  0
  -24.6844  -31.0642   22.0962 N   0  0  0  0  0  0
  -23.4196  -28.8174   23.3012 O   0  0  0  0  0  0
  -28.3501  -26.5052   20.1223 O   0  0  0  0  0  0
  -26.5623  -34.8914   22.4665 O   0  0  0  0  0  0
  -23.5421  -32.1389   23.7381 O   0  0  0  0  0  0
  -30.8032  -19.1335   19.9639 C   0  0  0  0  0  0
  -28.6028  -17.8068   20.7093 C   0  0  0  0  0  0
  -29.5591  -19.8287   20.0225 C   0  0  0  0  0  0
  -29.8332  -17.0877   20.5963 C   0  0  0  0  0  0
  -29.2364  -19.9509   17.0943 C   0  0  0  0  0  0
  -28.7438  -21.1199   17.9663 C   0  0  0  0  0  0
  -28.7244  -22.4398   20.2252 C   0  0  0  0  0  0
  -28.1763  -25.1054   20.5660 C   0  0  0  0  0  0
  -29.3860  -21.2552   19.3731 C   0  0  1  0  0  0
  -28.6714  -23.9282   19.6181 C   0  0  2  0  0  0
  -28.4553  -19.1382   20.4197 N   0  0  0  0  0  0
  -30.9400  -17.7984   20.2385 N   0  0  0  0  0  0
  -29.7914  -15.6559   20.8620 N   0  0  0  0  0  0
  -27.7515  -23.9395   18.5419 O   0  0  0  0  0  0
  -31.4816  -12.5034   19.1582 H   0  0  0  0  0  0
  -30.3664  -11.3809   19.8856 H   0  0  0  0  0  0
  -29.7780  -11.7591   17.4730 H   0  0  0  0  0  0
  -29.6594  -13.4785   17.7466 H   0  0  0  0  0  0
  -27.8580  -11.2932   18.8445 H   0  0  0  0  0  0
  -27.3824  -12.5914   17.7834 H   0  0  0  0  0  0
  -27.6746  -14.2474   19.5250 H   0  0  0  0  0  0
  -28.7022  -12.0264   21.3636 H   0  0  0  0  0  0
  -28.4374  -13.6733   21.8515 H   0  0  0  0  0  0
  -25.2753   -9.5704   22.4731 H   0  0  0  0  0  0
  -24.0007   -7.4637   22.7474 H   0  0  0  0  0  0
  -21.0820   -8.8742   19.8953 H   0  0  0  0  0  0
  -22.3657  -10.9650   19.6149 H   0  0  0  0  0  0
  -21.2017   -7.6145   23.9704 H   0  0  0  0  0  0
  -21.1477   -6.0521   25.9074 H   0  0  0  0  0  0
  -22.0608   -2.7597   23.2843 H   0  0  0  0  0  0
  -22.4123  -11.9912   22.4813 H   0  0  0  0  0  0
  -21.1111  -13.1255   22.2574 H   0  0  0  0  0  0
  -24.6452  -15.8276   20.4982 H   0  0  0  0  0  0
  -26.2462  -15.6196   20.0027 H   0  0  0  0  0  0
  -26.7167  -32.5455   23.1088 H   0  0  0  0  0  0
  -25.0074  -33.9703   25.0419 H   0  0  0  0  0  0
  -22.7109  -31.3059   21.4014 H   0  0  0  0  0  0
  -23.3752  -35.9629   23.3294 H   0  0  0  0  0  0
  -24.3589  -36.8918   22.2053 H   0  0  0  0  0  0
  -23.7259  -37.6494   23.6665 H   0  0  0  0  0  0
  -26.0864  -31.5664   20.6059 H   0  0  0  0  0  0
  -26.8360  -30.8447   21.9997 H   0  0  0  0  0  0
  -28.1197  -29.0148   21.1652 H   0  0  0  0  0  0
  -26.0007  -25.9205   19.0306 H   0  0  0  0  0  0
  -23.9703  -27.2951   19.0286 H   0  0  0  0  0  0
  -23.7451  -30.5898   19.4014 H   0  0  0  0  0  0
  -22.7515  -29.2419   19.8623 H   0  0  0  0  0  0
  -25.1300  -36.1914   25.0819 H   0  0  0  0  0  0
  -20.9979  -28.3252   24.1413 H   0  0  0  0  0  0
  -20.5688  -26.2288   23.3611 H   0  0  0  0  0  0
  -21.6643  -26.7446   22.1203 H   0  0  0  0  0  0
  -19.6919  -25.6296   21.1241 H   0  0  0  0  0  0
  -19.6684  -27.3198   20.6752 H   0  0  0  0  0  0
  -17.4206  -26.6672   21.4024 H   0  0  0  0  0  0
  -18.0324  -26.0050   22.9012 H   0  0  0  0  0  0
  -19.7934  -30.7260   24.2265 H   0  0  0  0  0  0
  -17.5017  -31.6263   24.5157 H   0  0  0  0  0  0
  -15.5351  -30.2985   23.7647 H   0  0  0  0  0  0
  -15.8671  -28.0815   22.7067 H   0  0  0  0  0  0
  -24.5907  -30.7063   25.7777 H   0  0  0  0  0  0
  -24.8934  -32.2880   26.4868 H   0  0  0  0  0  0
  -25.8069  -30.8890   27.0210 H   0  0  0  0  0  0
  -26.2900  -29.6738   24.1191 H   0  0  0  0  0  0
  -27.4034  -29.7245   25.4664 H   0  0  0  0  0  0
  -27.8774  -30.4256   23.9370 H   0  0  0  0  0  0
  -27.2663  -33.3599   26.2058 H   0  0  0  0  0  0
  -28.3881  -32.6856   25.0322 H   0  0  0  0  0  0
  -28.0710  -31.8417   26.5406 H   0  0  0  0  0  0
  -28.2588  -38.0109   24.7510 H   0  0  0  0  0  0
  -28.1083  -36.2637   24.6276 H   0  0  0  0  0  0
  -27.2296  -37.1440   25.8862 H   0  0  0  0  0  0
  -20.9350  -29.8748   21.6883 H   0  0  0  0  0  0
  -26.0164  -38.2843   24.1406 H   0  0  0  0  0  0
  -31.6916  -19.6321   19.6053 H   0  0  0  0  0  0
  -27.6985  -17.2934   21.0025 H   0  0  0  0  0  0
  -28.8071  -20.0176   16.0939 H   0  0  0  0  0  0
  -28.9411  -18.9834   17.5008 H   0  0  0  0  0  0
  -30.3210  -19.9584   16.9873 H   0  0  0  0  0  0
  -27.6635  -21.0244   18.0786 H   0  0  0  0  0  0
  -28.9165  -22.0365   17.4037 H   0  0  0  0  0  0
  -29.2768  -22.4994   21.1634 H   0  0  0  0  0  0
  -27.7168  -22.1381   20.5127 H   0  0  0  0  0  0
  -28.7565  -25.0285   21.4860 H   0  0  0  0  0  0
  -27.1503  -24.9118   20.8850 H   0  0  0  0  0  0
  -30.4077  -21.5902   19.1897 H   0  0  0  0  0  0
  -29.6633  -24.1817   19.2404 H   0  0  0  0  0  0
  -28.8997  -15.3323   21.2019 H   0  0  0  0  0  0
  -27.8142  -24.7959   18.1291 H   0  0  0  0  0  0
  1 25  1  0  0  0
  1 30  2  0  0  0
  1 83  1  0  0  0
  2  3  1  0  0  0
  2 25  1  0  0  0
  2 85  1  0  0  0
  2 86  1  0  0  0
  3  4  1  0  0  0
  3 87  1  0  0  0
  3 88  1  0  0  0
  4  5  1  0  0  0
  4 89  1  0  0  0
  4 90  1  0  0  0
  5  6  1  0  0  0
  5 26  1  0  0  0
  5 91  1  0  0  0
  6 25  1  0  0  0
  6 92  1  0  0  0
  6 93  1  0  0  0
  7  8  2  0  0  0
  7 26  1  0  0  0
  7 29  1  0  0  0
  8  9  1  0  0  0
  8 22  1  0  0  0
  9 10  1  0  0  0
  9 27  2  0  0  0
 10 11  2  0  0  0
 10 15  1  0  0  0
 11 12  1  0  0  0
 11 94  1  0  0  0
 12 13  2  0  0  0
 12 95  1  0  0  0
 13 14  1  0  0  0
 13 31  1  0  0  0
 14 15  2  0  0  0
 14 96  1  0  0  0
 15 97  1  0  0  0
 16 17  2  0  0  0
 16 21  1  0  0  0
 16 31  1  0  0  0
 17 18  1  0  0  0
 17 98  1  0  0  0
 18 19  2  0  0  0
 18 99  1  0  0  0
 19 20  1  0  0  0
 19 24  1  0  0  0
 20 21  2  0  0  0
 20100  1  0  0  0
 21 23  1  0  0  0
 22 28  1  0  0  0
 22 32  2  0  0  0
 26 27  1  0  0  0
 28101  1  0  0  0
 28102  1  0  0  0
 29103  1  0  0  0
 29104  1  0  0  0
 33 34  1  0  0  0
 33 66  1  0  0  0
 33 70  2  0  0  0
 34 36  1  0  0  0
 34 59  1  0  0  0
 34105  1  0  0  0
 35 44  2  0  0  0
 35 45  1  0  0  0
 35 68  1  0  0  0
 36 56  1  0  0  0
 36106  1  0  0  0
 37 39  1  0  0  0
 37 47  1  0  0  0
 37 66  1  0  0  0
 37107  1  0  0  0
 38 43  2  0  0  0
 38 46  1  0  0  0
 38 47  1  0  0  0
 39 64  1  0  0  0
 39 67  2  0  0  0
 40 52  1  0  0  0
 40 53  2  0  0  0
 40 58  1  0  0  0
 41108  1  0  0  0
 41109  1  0  0  0
 41110  1  0  0  0
 41 48  1  0  0  0
 42 43  1  0  0  0
 42 66  1  0  0  0
 42111  1  0  0  0
 42112  1  0  0  0
 43 44  1  0  0  0
 44113  1  0  0  0
 45 46  2  0  0  0
 45114  1  0  0  0
 46115  1  0  0  0
 47116  1  0  0  0
 47117  1  0  0  0
 48 56  1  0  0  0
 48 65  1  0  0  0
 48118  1  0  0  0
 49 50  1  0  0  0
 49 53  1  0  0  0
 49 64  1  0  0  0
 49119  1  0  0  0
 50 51  1  0  0  0
 50120  1  0  0  0
 50121  1  0  0  0
 51 52  1  0  0  0
 51122  1  0  0  0
 51123  1  0  0  0
 52124  1  0  0  0
 52125  1  0  0  0
 53 54  1  0  0  0
 54 55  2  0  0  0
 54126  1  0  0  0
 55 57  1  0  0  0
 55127  1  0  0  0
 56 69  2  0  0  0
 57 58  2  0  0  0
 57128  1  0  0  0
 58129  1  0  0  0
 59 60  1  0  0  0
 59 61  1  0  0  0
 59 62  1  0  0  0
 60130  1  0  0  0
 60131  1  0  0  0
 60132  1  0  0  0
 61133  1  0  0  0
 61134  1  0  0  0
 61135  1  0  0  0
 62136  1  0  0  0
 62137  1  0  0  0
 62138  1  0  0  0
 63 65  1  0  0  0
 63139  1  0  0  0
 63140  1  0  0  0
 63141  1  0  0  0
 64142  1  0  0  0
 65143  1  0  0  0
 68 78  1  0  0  0
 71 73  2  0  0  0
 71 82  1  0  0  0
 71144  1  0  0  0
 72 74  1  0  0  0
 72 81  2  0  0  0
 72145  1  0  0  0
 73 79  1  0  0  0
 73 81  1  0  0  0
 74 82  2  0  0  0
 74 83  1  0  0  0
 75 76  1  0  0  0
 75146  1  0  0  0
 75147  1  0  0  0
 75148  1  0  0  0
 76149  1  0  0  0
 76150  1  0  0  0
 76 79  1  0  0  0
 77 79  1  0  0  0
 77 80  1  0  0  0
 77151  1  0  0  0
 77152  1  0  0  0
 78 80  1  0  0  0
 78153  1  0  0  0
 78154  1  0  0  0
 79155  1  0  0  0
 80 84  1  0  0  0
 80156  1  0  0  0
 83157  1  0  0  0
 84158  1  0  0  0
M  ISO  4   1 100  68 101  78 101  83 100
M  END
> <chiral flag>
0

> <version>
0

> <s_m_source_file>
/data/baiqing/PycharmProjects/Reinvent-master-3.2/result/LINK_invent/BTK/process_docking_weight1_custom_product_contain_oxygen_bond_distance_aromatic_linkinvent_7_9_3/rearranged_h_0198.sdf

> <i_m_source_file_index>
1

> <r_mmod_Potential_Energy-OPLS-2005>
82.638313293457

> <r_mmod_Stretch_Energy-OPLS-2005>
81.8929443359375

> <r_mmod_Bend_Energy-OPLS-2005>
136.591888427734

> <r_mmod_Torsional_Energy-OPLS-2005>
225.811325073242

> <r_mmod_Improper_Torsional_Energy-OPLS-2005>
6.18690013885498

> <r_mmod_Van_der_Waal_Energy-OPLS-2005>
143.876266479492

> <r_mmod_Electrostatic_Energy-OPLS-2005>
-314.735656738281

> <r_mmod_Solvation_Energy-OPLS-2005>
-238.411819458008

> <b_mmod_Minimization_Converged-OPLS-2005>
0

> <r_mmod_RMS_Derivative-OPLS-2005>
1.39429080486298

$$$$
1
                    3D
 Structure written by MMmdl.
151159  0  0  1  0            999 V2000
  -30.6036  -14.7407   20.4597 C   0  0  0  0  0  0
  -30.4302  -12.4470   19.4724 C   0  0  0  0  0  0
  -29.5113  -12.5079   18.2330 C   0  0  0  0  0  0
  -28.0346  -12.3303   18.6403 C   0  0  0  0  0  0
  -27.6379  -13.2285   19.8436 C   0  0  2  0  0  0
  -28.6822  -13.1598   20.9789 C   0  0  0  0  0  0
  -25.2474  -13.8189   20.5649 C   0  0  0  0  0  0
  -24.1786  -13.0425   20.9192 C   0  0  0  0  0  0
  -24.6382  -11.6909   20.8735 C   0  0  0  0  0  0
  -23.9068  -10.4286   21.0397 C   0  0  0  0  0  0
  -24.3626   -9.4200   21.9171 C   0  0  0  0  0  0
  -23.6297   -8.2236   22.0745 C   0  0  0  0  0  0
  -22.4276   -8.0272   21.3536 C   0  0  0  0  0  0
  -21.9916   -9.0242   20.4636 C   0  0  0  0  0  0
  -22.7247  -10.2117   20.3040 C   0  0  0  0  0  0
  -21.6851   -6.0728   22.5275 C   0  0  0  0  0  0
  -21.4024   -6.5633   23.8208 C   0  0  0  0  0  0
  -21.3669   -5.6785   24.9173 C   0  0  0  0  0  0
  -21.6037   -4.3048   24.7218 C   0  0  0  0  0  0
  -21.8821   -3.8140   23.4343 C   0  0  0  0  0  0
  -21.9192   -4.6957   22.3397 C   0  0  0  0  0  0
  -22.7805  -13.5192   21.1865 C   0  0  0  0  0  0
  -22.1646   -4.2139   21.0974 F   0  0  0  0  0  0
  -21.5639   -3.4532   25.7735 F   0  0  0  0  0  0
  -29.9835  -13.5125   20.3977 N   0  0  0  0  0  0
  -26.2903  -12.9391   20.3224 N   0  0  0  0  0  0
  -25.9309  -11.6545   20.5734 N   0  0  0  0  0  0
  -22.0465  -12.8185   22.0439 N   0  0  0  0  0  0
  -25.4136  -15.1920   20.4063 N   0  0  0  0  0  0
  -31.8022  -14.8310   20.1795 O   0  0  0  0  0  0
  -21.6639   -6.8873   21.4237 O   0  0  0  0  0  0
  -22.3481  -14.5490   20.6706 O   0  0  0  0  0  0
  -24.6319  -31.8538   23.1951 C   0  0  0  0  0  0
  -25.9151  -32.4736   23.8296 C   0  0  1  0  0  0
  -27.2261  -27.2672   20.1305 C   0  0  0  0  0  0
  -25.5956  -33.8538   24.2231 N   0  0  0  0  0  0
  -23.4290  -30.4744   21.5378 C   0  0  2  0  0  0
  -24.8772  -28.9154   20.1118 C   0  0  0  0  0  0
  -22.7497  -29.4602   22.4899 C   0  0  0  0  0  0
  -18.0295  -28.1386   22.8471 C   0  0  0  0  0  0
  -24.1504  -36.7278   23.2637 C   0  0  0  0  0  0
  -25.9746  -30.7669   21.3753 C   0  0  0  0  0  0
  -26.0482  -29.3891   20.7189 C   0  0  0  0  0  0
  -27.2289  -28.5797   20.7110 C   0  0  0  0  0  0
  -26.0347  -26.8542   19.5014 C   0  0  0  0  0  0
  -24.8755  -27.6560   19.4889 C   0  0  0  0  0  0
  -23.6475  -29.8021   20.1562 C   0  0  0  0  0  0
  -25.4130  -36.3051   24.0317 C   0  0  1  0  0  0
  -20.5898  -28.3708   23.1259 C   0  0  2  0  0  0
  -20.6790  -26.9427   22.5399 C   0  0  0  0  0  0
  -19.5769  -26.6384   21.5203 C   0  0  0  0  0  0
  -18.1946  -26.7928   22.1608 C   0  0  0  0  0  0
  -19.1547  -28.8860   23.2860 C   0  0  0  0  0  0
  -18.9466  -30.1459   23.8885 C   0  0  0  0  0  0
  -17.6467  -30.6585   24.0555 C   0  0  0  0  0  0
  -25.9069  -34.9427   23.5073 C   0  0  0  0  0  0
  -16.5360  -29.9081   23.6331 C   0  0  0  0  0  0
  -16.7280  -28.6500   23.0346 C   0  0  0  0  0  0
  -26.4520  -31.6554   25.0685 C   0  0  0  0  0  0
  -25.3738  -31.3706   26.1396 C   0  0  0  0  0  0
  -27.0381  -30.2966   24.6192 C   0  0  0  0  0  0
  -27.6071  -32.4292   25.7471 C   0  0  0  0  0  0
  -27.5583  -37.1793   24.8459 C   0  0  0  0  0  0
  -21.4205  -29.3052   22.3641 N   0  0  0  0  0  0
  -26.4298  -37.3753   23.9398 N   0  0  0  0  0  0
  -24.6972  -31.0507   22.0920 N   0  0  0  0  0  0
  -23.4190  -28.8148   23.3010 O   0  0  0  0  0  0
  -28.3285  -26.3864   20.1208 O   0  0  0  0  0  0
  -26.5636  -34.8912   22.4639 O   0  0  0  0  0  0
  -23.5468  -32.1364   23.7253 O   0  0  0  0  0  0
  -31.0736  -19.6007   20.9417 C   0  0  0  0  0  0
  -29.7659  -19.6849   20.5206 C   0  0  0  0  0  0
  -30.1219  -17.3063   20.6297 C   0  0  0  0  0  0
  -30.1541  -22.5274   21.8254 C   0  0  0  0  0  0
  -28.7392  -23.6403   19.9786 C   0  0  0  0  0  0
  -28.1670  -24.9985   20.6788 C   0  0  0  0  0  0
  -28.9716  -22.2906   20.8724 C   0  0  1  0  0  0
  -29.2502  -18.3423   20.3602 N   0  0  0  0  0  0
  -29.0416  -20.9232   20.1883 N   0  0  0  0  0  0
  -29.7943  -15.8644   20.5719 N   0  0  0  0  0  0
  -31.6805  -17.9543   21.1241 S   0  0  0  0  0  0
  -31.4740  -12.5658   19.1778 H   0  0  0  0  0  0
  -30.3638  -11.4704   19.9541 H   0  0  0  0  0  0
  -29.7991  -11.7444   17.5085 H   0  0  0  0  0  0
  -29.6386  -13.4684   17.7320 H   0  0  0  0  0  0
  -27.8872  -11.2806   18.8964 H   0  0  0  0  0  0
  -27.3818  -12.5251   17.7884 H   0  0  0  0  0  0
  -27.6296  -14.2493   19.4611 H   0  0  0  0  0  0
  -28.7146  -12.1590   21.4123 H   0  0  0  0  0  0
  -28.4168  -13.8373   21.7923 H   0  0  0  0  0  0
  -25.2771   -9.5672   22.4746 H   0  0  0  0  0  0
  -23.9997   -7.4632   22.7466 H   0  0  0  0  0  0
  -21.0845   -8.8768   19.8940 H   0  0  0  0  0  0
  -22.3710  -10.9657   19.6144 H   0  0  0  0  0  0
  -21.2020   -7.6141   23.9714 H   0  0  0  0  0  0
  -21.1491   -6.0513   25.9076 H   0  0  0  0  0  0
  -22.0595   -2.7600   23.2844 H   0  0  0  0  0  0
  -22.4081  -11.9845   22.4826 H   0  0  0  0  0  0
  -21.1069  -13.1191   22.2643 H   0  0  0  0  0  0
  -24.6392  -15.8388   20.5136 H   0  0  0  0  0  0
  -26.2501  -15.6403   20.0556 H   0  0  0  0  0  0
  -26.7219  -32.5385   23.1035 H   0  0  0  0  0  0
  -25.0102  -33.9663   25.0377 H   0  0  0  0  0  0
  -22.7261  -31.2961   21.3861 H   0  0  0  0  0  0
  -23.3760  -35.9617   23.3289 H   0  0  0  0  0  0
  -24.3595  -36.8911   22.2053 H   0  0  0  0  0  0
  -23.7270  -37.6479   23.6675 H   0  0  0  0  0  0
  -26.1188  -31.5278   20.6073 H   0  0  0  0  0  0
  -26.8501  -30.8116   22.0117 H   0  0  0  0  0  0
  -28.1313  -28.9407   21.1843 H   0  0  0  0  0  0
  -25.9989  -25.8885   19.0176 H   0  0  0  0  0  0
  -23.9831  -27.2899   18.9997 H   0  0  0  0  0  0
  -23.7705  -30.5734   19.3949 H   0  0  0  0  0  0
  -22.7679  -29.2307   19.8550 H   0  0  0  0  0  0
  -25.1320  -36.1880   25.0810 H   0  0  0  0  0  0
  -20.9994  -28.3295   24.1378 H   0  0  0  0  0  0
  -20.5690  -26.2324   23.3604 H   0  0  0  0  0  0
  -21.6659  -26.7452   22.1192 H   0  0  0  0  0  0
  -19.6940  -25.6292   21.1240 H   0  0  0  0  0  0
  -19.6711  -27.3184   20.6726 H   0  0  0  0  0  0
  -17.4219  -26.6664   21.4008 H   0  0  0  0  0  0
  -18.0353  -26.0069   22.9004 H   0  0  0  0  0  0
  -19.7947  -30.7270   24.2250 H   0  0  0  0  0  0
  -17.5027  -31.6267   24.5155 H   0  0  0  0  0  0
  -15.5359  -30.2977   23.7672 H   0  0  0  0  0  0
  -15.8678  -28.0818   22.7068 H   0  0  0  0  0  0
  -24.5910  -30.7071   25.7701 H   0  0  0  0  0  0
  -24.8946  -32.2883   26.4816 H   0  0  0  0  0  0
  -25.8044  -30.8860   27.0166 H   0  0  0  0  0  0
  -26.2971  -29.6672   24.1254 H   0  0  0  0  0  0
  -27.4093  -29.7265   25.4717 H   0  0  0  0  0  0
  -27.8832  -30.4218   23.9421 H   0  0  0  0  0  0
  -27.2676  -33.3586   26.2052 H   0  0  0  0  0  0
  -28.3896  -32.6850   25.0315 H   0  0  0  0  0  0
  -28.0731  -31.8408   26.5384 H   0  0  0  0  0  0
  -28.2586  -38.0103   24.7510 H   0  0  0  0  0  0
  -28.1094  -36.2629   24.6285 H   0  0  0  0  0  0
  -27.2296  -37.1438   25.8861 H   0  0  0  0  0  0
  -20.9394  -29.8764   21.6834 H   0  0  0  0  0  0
  -26.0166  -38.2825   24.1386 H   0  0  0  0  0  0
  -31.7582  -20.4144   21.1284 H   0  0  0  0  0  0
  -30.0169  -23.4406   22.4045 H   0  0  0  0  0  0
  -31.0927  -22.6370   21.2814 H   0  0  0  0  0  0
  -30.2610  -21.7210   22.5510 H   0  0  0  0  0  0
  -29.6878  -23.8875   19.5009 H   0  0  0  0  0  0
  -28.0694  -23.4002   19.1527 H   0  0  0  0  0  0
  -28.6378  -25.0673   21.6574 H   0  0  0  0  0  0
  -27.1170  -24.8221   20.9121 H   0  0  0  0  0  0
  -28.0834  -22.2098   21.5010 H   0  0  0  0  0  0
  -28.1624  -20.7085   19.7237 H   0  0  0  0  0  0
  -28.8104  -15.6584   20.6016 H   0  0  0  0  0  0
  1 25  1  0  0  0
  1 30  2  0  0  0
  1 80  1  0  0  0
  2  3  1  0  0  0
  2 25  1  0  0  0
  2 82  1  0  0  0
  2 83  1  0  0  0
  3  4  1  0  0  0
  3 84  1  0  0  0
  3 85  1  0  0  0
  4  5  1  0  0  0
  4 86  1  0  0  0
  4 87  1  0  0  0
  5  6  1  0  0  0
  5 26  1  0  0  0
  5 88  1  0  0  0
  6 25  1  0  0  0
  6 89  1  0  0  0
  6 90  1  0  0  0
  7  8  2  0  0  0
  7 26  1  0  0  0
  7 29  1  0  0  0
  8  9  1  0  0  0
  8 22  1  0  0  0
  9 10  1  0  0  0
  9 27  2  0  0  0
 10 11  2  0  0  0
 10 15  1  0  0  0
 11 12  1  0  0  0
 11 91  1  0  0  0
 12 13  2  0  0  0
 12 92  1  0  0  0
 13 14  1  0  0  0
 13 31  1  0  0  0
 14 15  2  0  0  0
 14 93  1  0  0  0
 15 94  1  0  0  0
 16 17  2  0  0  0
 16 21  1  0  0  0
 16 31  1  0  0  0
 17 18  1  0  0  0
 17 95  1  0  0  0
 18 19  2  0  0  0
 18 96  1  0  0  0
 19 20  1  0  0  0
 19 24  1  0  0  0
 20 21  2  0  0  0
 20 97  1  0  0  0
 21 23  1  0  0  0
 22 28  1  0  0  0
 22 32  2  0  0  0
 26 27  1  0  0  0
 28 98  1  0  0  0
 28 99  1  0  0  0
 29100  1  0  0  0
 29101  1  0  0  0
 33 34  1  0  0  0
 33 66  1  0  0  0
 33 70  2  0  0  0
 34 36  1  0  0  0
 34 59  1  0  0  0
 34102  1  0  0  0
 35 44  2  0  0  0
 35 45  1  0  0  0
 35 68  1  0  0  0
 36 56  1  0  0  0
 36103  1  0  0  0
 37 39  1  0  0  0
 37 47  1  0  0  0
 37 66  1  0  0  0
 37104  1  0  0  0
 38 43  2  0  0  0
 38 46  1  0  0  0
 38 47  1  0  0  0
 39 64  1  0  0  0
 39 67  2  0  0  0
 40 52  1  0  0  0
 40 53  2  0  0  0
 40 58  1  0  0  0
 41105  1  0  0  0
 41106  1  0  0  0
 41107  1  0  0  0
 41 48  1  0  0  0
 42 43  1  0  0  0
 42 66  1  0  0  0
 42108  1  0  0  0
 42109  1  0  0  0
 43 44  1  0  0  0
 44110  1  0  0  0
 45 46  2  0  0  0
 45111  1  0  0  0
 46112  1  0  0  0
 47113  1  0  0  0
 47114  1  0  0  0
 48 56  1  0  0  0
 48 65  1  0  0  0
 48115  1  0  0  0
 49 50  1  0  0  0
 49 53  1  0  0  0
 49 64  1  0  0  0
 49116  1  0  0  0
 50 51  1  0  0  0
 50117  1  0  0  0
 50118  1  0  0  0
 51 52  1  0  0  0
 51119  1  0  0  0
 51120  1  0  0  0
 52121  1  0  0  0
 52122  1  0  0  0
 53 54  1  0  0  0
 54 55  2  0  0  0
 54123  1  0  0  0
 55 57  1  0  0  0
 55124  1  0  0  0
 56 69  2  0  0  0
 57 58  2  0  0  0
 57125  1  0  0  0
 58126  1  0  0  0
 59 60  1  0  0  0
 59 61  1  0  0  0
 59 62  1  0  0  0
 60127  1  0  0  0
 60128  1  0  0  0
 60129  1  0  0  0
 61130  1  0  0  0
 61131  1  0  0  0
 61132  1  0  0  0
 62133  1  0  0  0
 62134  1  0  0  0
 62135  1  0  0  0
 63 65  1  0  0  0
 63136  1  0  0  0
 63137  1  0  0  0
 63138  1  0  0  0
 64139  1  0  0  0
 65140  1  0  0  0
 68 76  1  0  0  0
 71 72  2  0  0  0
 71 81  1  0  0  0
 71141  1  0  0  0
 72 78  1  0  0  0
 72 79  1  0  0  0
 73 78  2  0  0  0
 73 80  1  0  0  0
 73 81  1  0  0  0
 74142  1  0  0  0
 74143  1  0  0  0
 74144  1  0  0  0
 74 77  1  0  0  0
 75 76  1  0  0  0
 75 77  1  0  0  0
 75145  1  0  0  0
 75146  1  0  0  0
 76147  1  0  0  0
 76148  1  0  0  0
 77 79  1  0  0  0
 77149  1  0  0  0
 79150  1  0  0  0
 80151  1  0  0  0
M  ISO  4   1 100  68 101  76 101  80 100
M  END
> <chiral flag>
0

> <version>
0

> <s_m_source_file>
/data/baiqing/PycharmProjects/Reinvent-master-3.2/result/LINK_invent/BTK/process_docking_weight1_custom_product_contain_oxygen_bond_distance_aromatic_linkinvent_7_9_3/rearranged_h_0198.sdf

> <i_m_source_file_index>
2

> <r_mmod_Potential_Energy-OPLS-2005>
55.2330665588379

> <r_mmod_Stretch_Energy-OPLS-2005>
122.493598937988

> <r_mmod_Bend_Energy-OPLS-2005>
173.258117675781

> <r_mmod_Torsional_Energy-OPLS-2005>
239.172897338867

> <r_mmod_Improper_Torsional_Energy-OPLS-2005>
8.94303321838379

> <r_mmod_Van_der_Waal_Energy-OPLS-2005>
116.71484375

> <r_mmod_Electrostatic_Energy-OPLS-2005>
-465.285217285156

> <r_mmod_Solvation_Energy-OPLS-2005>
-221.477401733398

> <b_mmod_Minimization_Converged-OPLS-2005>
0

> <r_mmod_RMS_Derivative-OPLS-2005>
1.74593877792358

$$$$
2
                    3D
 Structure written by MMmdl.
151159  0  0  1  0            999 V2000
  -30.6710  -14.7260   20.4350 C   0  0  0  0  0  0
  -30.4222  -12.4422   19.4754 C   0  0  0  0  0  0
  -29.5094  -12.5193   18.2350 C   0  0  0  0  0  0
  -28.0317  -12.3656   18.6416 C   0  0  0  0  0  0
  -27.6444  -13.2525   19.8573 C   0  0  2  0  0  0
  -28.6955  -13.1916   20.9879 C   0  0  0  0  0  0
  -25.2493  -13.8237   20.5749 C   0  0  0  0  0  0
  -24.1808  -13.0464   20.9236 C   0  0  0  0  0  0
  -24.6431  -11.6950   20.8769 C   0  0  0  0  0  0
  -23.9102  -10.4339   21.0425 C   0  0  0  0  0  0
  -24.3650   -9.4228   21.9185 C   0  0  0  0  0  0
  -23.6316   -8.2268   22.0747 C   0  0  0  0  0  0
  -22.4292   -8.0308   21.3552 C   0  0  0  0  0  0
  -21.9948   -9.0289   20.4644 C   0  0  0  0  0  0
  -22.7282  -10.2167   20.3053 C   0  0  0  0  0  0
  -21.6853   -6.0753   22.5298 C   0  0  0  0  0  0
  -21.4012   -6.5651   23.8234 C   0  0  0  0  0  0
  -21.3648   -5.6793   24.9192 C   0  0  0  0  0  0
  -21.6061   -4.3064   24.7236 C   0  0  0  0  0  0
  -21.8797   -3.8155   23.4351 C   0  0  0  0  0  0
  -21.9196   -4.6982   22.3408 C   0  0  0  0  0  0
  -22.7807  -13.5211   21.1887 C   0  0  0  0  0  0
  -22.1657   -4.2165   21.0984 F   0  0  0  0  0  0
  -21.5631   -3.4537   25.7743 F   0  0  0  0  0  0
  -29.9985  -13.5229   20.3990 N   0  0  0  0  0  0
  -26.2979  -12.9510   20.3387 N   0  0  0  0  0  0
  -25.9381  -11.6622   20.5786 N   0  0  0  0  0  0
  -22.0438  -12.8217   22.0438 N   0  0  0  0  0  0
  -25.4095  -15.1980   20.4111 N   0  0  0  0  0  0
  -31.8610  -14.7584   20.1204 O   0  0  0  0  0  0
  -21.6642   -6.8914   21.4260 O   0  0  0  0  0  0
  -22.3493  -14.5509   20.6707 O   0  0  0  0  0  0
  -24.6362  -31.8546   23.1958 C   0  0  0  0  0  0
  -25.9189  -32.4745   23.8294 C   0  0  1  0  0  0
  -27.2032  -27.2437   20.0832 C   0  0  0  0  0  0
  -25.5965  -33.8535   24.2201 N   0  0  0  0  0  0
  -23.4268  -30.4843   21.5401 C   0  0  2  0  0  0
  -24.8645  -28.9346   20.0994 C   0  0  0  0  0  0
  -22.7509  -29.4619   22.4878 C   0  0  0  0  0  0
  -18.0294  -28.1407   22.8480 C   0  0  0  0  0  0
  -24.1484  -36.7282   23.2628 C   0  0  0  0  0  0
  -25.9777  -30.7556   21.3797 C   0  0  0  0  0  0
  -26.0397  -29.3786   20.7151 C   0  0  0  0  0  0
  -27.2047  -28.5424   20.7048 C   0  0  0  0  0  0
  -25.9997  -26.8823   19.4283 C   0  0  0  0  0  0
  -24.8515  -27.6933   19.4491 C   0  0  0  0  0  0
  -23.6405  -29.8283   20.1534 C   0  0  0  0  0  0
  -25.4114  -36.3061   24.0298 C   0  0  1  0  0  0
  -20.5890  -28.3701   23.1271 C   0  0  2  0  0  0
  -20.6782  -26.9416   22.5415 C   0  0  0  0  0  0
  -19.5772  -26.6385   21.5218 C   0  0  0  0  0  0
  -18.1939  -26.7946   22.1604 C   0  0  0  0  0  0
  -19.1549  -28.8873   23.2866 C   0  0  0  0  0  0
  -18.9468  -30.1474   23.8898 C   0  0  0  0  0  0
  -17.6471  -30.6607   24.0565 C   0  0  0  0  0  0
  -25.9071  -34.9436   23.5057 C   0  0  0  0  0  0
  -16.5356  -29.9110   23.6336 C   0  0  0  0  0  0
  -16.7275  -28.6519   23.0354 C   0  0  0  0  0  0
  -26.4522  -31.6588   25.0711 C   0  0  0  0  0  0
  -25.3695  -31.3777   26.1390 C   0  0  0  0  0  0
  -27.0364  -30.2991   24.6241 C   0  0  0  0  0  0
  -27.6075  -32.4320   25.7506 C   0  0  0  0  0  0
  -27.5561  -37.1798   24.8465 C   0  0  0  0  0  0
  -21.4205  -29.3052   22.3652 N   0  0  0  0  0  0
  -26.4287  -37.3767   23.9403 N   0  0  0  0  0  0
  -24.7003  -31.0503   22.0944 N   0  0  0  0  0  0
  -23.4222  -28.8137   23.2941 O   0  0  0  0  0  0
  -28.3098  -26.3521   20.1387 O   0  0  0  0  0  0
  -26.5655  -34.8919   22.4635 O   0  0  0  0  0  0
  -23.5502  -32.1384   23.7230 O   0  0  0  0  0  0
  -30.0109  -19.8886   19.6597 C   0  0  0  0  0  0
  -28.2736  -20.1355   20.8884 C   0  0  0  0  0  0
  -29.7680  -18.6486   20.2836 C   0  0  0  0  0  0
  -30.5679  -17.2849   20.2065 C   0  0  0  0  0  0
  -28.7117  -22.2354   19.4405 C   0  0  0  0  0  0
  -28.3069  -24.9789   19.5042 C   0  0  0  0  0  0
  -28.9460  -23.6517   20.2002 C   0  0  2  0  0  0
  -28.6468  -18.8563   21.0905 N   0  0  0  0  0  0
  -29.0237  -20.8520   20.0259 N   0  0  0  0  0  0
  -29.9872  -15.9218   20.5774 N   0  0  0  0  0  0
  -30.3522  -23.8239   20.2445 O   0  0  0  0  0  0
  -31.4681  -12.5221   19.1746 H   0  0  0  0  0  0
  -30.3334  -11.4667   19.9544 H   0  0  0  0  0  0
  -29.7805  -11.7478   17.5142 H   0  0  0  0  0  0
  -29.6571  -13.4778   17.7357 H   0  0  0  0  0  0
  -27.8655  -11.3143   18.8776 H   0  0  0  0  0  0
  -27.3834  -12.5992   17.7968 H   0  0  0  0  0  0
  -27.6388  -14.2787   19.4879 H   0  0  0  0  0  0
  -28.7226  -12.1987   21.4419 H   0  0  0  0  0  0
  -28.4424  -13.8884   21.7882 H   0  0  0  0  0  0
  -25.2791   -9.5680   22.4770 H   0  0  0  0  0  0
  -24.0012   -7.4639   22.7455 H   0  0  0  0  0  0
  -21.0881   -8.8829   19.8942 H   0  0  0  0  0  0
  -22.3758  -10.9713   19.6162 H   0  0  0  0  0  0
  -21.1989   -7.6153   23.9746 H   0  0  0  0  0  0
  -21.1493   -6.0523   25.9102 H   0  0  0  0  0  0
  -22.0580   -2.7617   23.2851 H   0  0  0  0  0  0
  -22.4045  -11.9895   22.4881 H   0  0  0  0  0  0
  -21.1029  -13.1216   22.2587 H   0  0  0  0  0  0
  -24.6339  -15.8419   20.5238 H   0  0  0  0  0  0
  -26.2487  -15.6515   20.0717 H   0  0  0  0  0  0
  -26.7235  -32.5383   23.1005 H   0  0  0  0  0  0
  -25.0121  -33.9635   25.0348 H   0  0  0  0  0  0
  -22.7223  -31.3088   21.4036 H   0  0  0  0  0  0
  -23.3737  -35.9633   23.3314 H   0  0  0  0  0  0
  -24.3578  -36.8899   22.2048 H   0  0  0  0  0  0
  -23.7229  -37.6478   23.6655 H   0  0  0  0  0  0
  -26.1245  -31.5135   20.6082 H   0  0  0  0  0  0
  -26.8572  -30.8025   22.0119 H   0  0  0  0  0  0
  -28.1004  -28.8842   21.2023 H   0  0  0  0  0  0
  -25.8789  -25.9664   18.8753 H   0  0  0  0  0  0
  -23.9578  -27.3576   18.9369 H   0  0  0  0  0  0
  -23.7505  -30.6129   19.4038 H   0  0  0  0  0  0
  -22.7582  -29.2619   19.8532 H   0  0  0  0  0  0
  -25.1286  -36.1900   25.0789 H   0  0  0  0  0  0
  -20.9976  -28.3298   24.1391 H   0  0  0  0  0  0
  -20.5678  -26.2313   23.3606 H   0  0  0  0  0  0
  -21.6655  -26.7442   22.1222 H   0  0  0  0  0  0
  -19.6938  -25.6294   21.1268 H   0  0  0  0  0  0
  -19.6744  -27.3175   20.6730 H   0  0  0  0  0  0
  -17.4204  -26.6680   21.4007 H   0  0  0  0  0  0
  -18.0346  -26.0108   22.9016 H   0  0  0  0  0  0
  -19.7948  -30.7283   24.2264 H   0  0  0  0  0  0
  -17.5025  -31.6289   24.5166 H   0  0  0  0  0  0
  -15.5357  -30.3011   23.7650 H   0  0  0  0  0  0
  -15.8664  -28.0830   22.7073 H   0  0  0  0  0  0
  -24.5953  -30.7021   25.7721 H   0  0  0  0  0  0
  -24.8779  -32.2952   26.4665 H   0  0  0  0  0  0
  -25.7983  -30.9094   27.0255 H   0  0  0  0  0  0
  -26.2968  -29.6756   24.1205 H   0  0  0  0  0  0
  -27.3953  -29.7244   25.4788 H   0  0  0  0  0  0
  -27.8884  -30.4246   23.9546 H   0  0  0  0  0  0
  -27.2725  -33.3684   26.1982 H   0  0  0  0  0  0
  -28.3977  -32.6752   25.0388 H   0  0  0  0  0  0
  -28.0632  -31.8479   26.5515 H   0  0  0  0  0  0
  -28.2564  -38.0102   24.7503 H   0  0  0  0  0  0
  -28.1046  -36.2615   24.6300 H   0  0  0  0  0  0
  -27.2278  -37.1488   25.8870 H   0  0  0  0  0  0
  -20.9367  -29.8778   21.6878 H   0  0  0  0  0  0
  -26.0144  -38.2835   24.1421 H   0  0  0  0  0  0
  -30.7845  -20.1447   18.9454 H   0  0  0  0  0  0
  -27.3734  -20.5330   21.3354 H   0  0  0  0  0  0
  -31.4761  -17.4061   20.8001 H   0  0  0  0  0  0
  -30.9453  -17.1741   19.1879 H   0  0  0  0  0  0
  -27.6559  -22.2057   19.1699 H   0  0  0  0  0  0
  -29.2113  -22.2792   18.4710 H   0  0  0  0  0  0
  -27.2920  -24.6627   19.2912 H   0  0  0  0  0  0
  -28.7656  -25.0935   18.5205 H   0  0  0  0  0  0
  -28.5553  -23.5816   21.2156 H   0  0  0  0  0  0
  -29.0207  -15.9053   20.8653 H   0  0  0  0  0  0
  -30.6544  -23.9061   19.3426 H   0  0  0  0  0  0
  1 25  1  0  0  0
  1 30  2  0  0  0
  1 80  1  0  0  0
  2  3  1  0  0  0
  2 25  1  0  0  0
  2 82  1  0  0  0
  2 83  1  0  0  0
  3  4  1  0  0  0
  3 84  1  0  0  0
  3 85  1  0  0  0
  4  5  1  0  0  0
  4 86  1  0  0  0
  4 87  1  0  0  0
  5  6  1  0  0  0
  5 26  1  0  0  0
  5 88  1  0  0  0
  6 25  1  0  0  0
  6 89  1  0  0  0
  6 90  1  0  0  0
  7  8  2  0  0  0
  7 26  1  0  0  0
  7 29  1  0  0  0
  8  9  1  0  0  0
  8 22  1  0  0  0
  9 10  1  0  0  0
  9 27  2  0  0  0
 10 11  2  0  0  0
 10 15  1  0  0  0
 11 12  1  0  0  0
 11 91  1  0  0  0
 12 13  2  0  0  0
 12 92  1  0  0  0
 13 14  1  0  0  0
 13 31  1  0  0  0
 14 15  2  0  0  0
 14 93  1  0  0  0
 15 94  1  0  0  0
 16 17  2  0  0  0
 16 21  1  0  0  0
 16 31  1  0  0  0
 17 18  1  0  0  0
 17 95  1  0  0  0
 18 19  2  0  0  0
 18 96  1  0  0  0
 19 20  1  0  0  0
 19 24  1  0  0  0
 20 21  2  0  0  0
 20 97  1  0  0  0
 21 23  1  0  0  0
 22 28  1  0  0  0
 22 32  2  0  0  0
 26 27  1  0  0  0
 28 98  1  0  0  0
 28 99  1  0  0  0
 29100  1  0  0  0
 29101  1  0  0  0
 33 34  1  0  0  0
 33 66  1  0  0  0
 33 70  2  0  0  0
 34 36  1  0  0  0
 34 59  1  0  0  0
 34102  1  0  0  0
 35 44  2  0  0  0
 35 45  1  0  0  0
 35 68  1  0  0  0
 36 56  1  0  0  0
 36103  1  0  0  0
 37 39  1  0  0  0
 37 47  1  0  0  0
 37 66  1  0  0  0
 37104  1  0  0  0
 38 43  2  0  0  0
 38 46  1  0  0  0
 38 47  1  0  0  0
 39 64  1  0  0  0
 39 67  2  0  0  0
 40 52  1  0  0  0
 40 53  2  0  0  0
 40 58  1  0  0  0
 41105  1  0  0  0
 41106  1  0  0  0
 41107  1  0  0  0
 41 48  1  0  0  0
 42 43  1  0  0  0
 42 66  1  0  0  0
 42108  1  0  0  0
 42109  1  0  0  0
 43 44  1  0  0  0
 44110  1  0  0  0
 45 46  2  0  0  0
 45111  1  0  0  0
 46112  1  0  0  0
 47113  1  0  0  0
 47114  1  0  0  0
 48 56  1  0  0  0
 48 65  1  0  0  0
 48115  1  0  0  0
 49 50  1  0  0  0
 49 53  1  0  0  0
 49 64  1  0  0  0
 49116  1  0  0  0
 50 51  1  0  0  0
 50117  1  0  0  0
 50118  1  0  0  0
 51 52  1  0  0  0
 51119  1  0  0  0
 51120  1  0  0  0
 52121  1  0  0  0
 52122  1  0  0  0
 53 54  1  0  0  0
 54 55  2  0  0  0
 54123  1  0  0  0
 55 57  1  0  0  0
 55124  1  0  0  0
 56 69  2  0  0  0
 57 58  2  0  0  0
 57125  1  0  0  0
 58126  1  0  0  0
 59 60  1  0  0  0
 59 61  1  0  0  0
 59 62  1  0  0  0
 60127  1  0  0  0
 60128  1  0  0  0
 60129  1  0  0  0
 61130  1  0  0  0
 61131  1  0  0  0
 61132  1  0  0  0
 62133  1  0  0  0
 62134  1  0  0  0
 62135  1  0  0  0
 63 65  1  0  0  0
 63136  1  0  0  0
 63137  1  0  0  0
 63138  1  0  0  0
 64139  1  0  0  0
 65140  1  0  0  0
 68 76  1  0  0  0
 71 73  2  0  0  0
 71 79  1  0  0  0
 71141  1  0  0  0
 72 78  2  0  0  0
 72 79  1  0  0  0
 72142  1  0  0  0
 73 74  1  0  0  0
 73 78  1  0  0  0
 74 80  1  0  0  0
 74143  1  0  0  0
 74144  1  0  0  0
 75 77  1  0  0  0
 75 79  1  0  0  0
 75145  1  0  0  0
 75146  1  0  0  0
 76 77  1  0  0  0
 76147  1  0  0  0
 76148  1  0  0  0
 77 81  1  0  0  0
 77149  1  0  0  0
 80150  1  0  0  0
 81151  1  0  0  0
M  ISO  4   1 100  68 101  76 101  80 100
M  END
> <chiral flag>
0

> <version>
0

> <s_m_source_file>
/data/baiqing/PycharmProjects/Reinvent-master-3.2/result/LINK_invent/BTK/process_docking_weight1_custom_product_contain_oxygen_bond_distance_aromatic_linkinvent_7_9_3/rearranged_h_0198.sdf

> <i_m_source_file_index>
3

> <r_mmod_Potential_Energy-OPLS-2005>
53.8482246398926

> <r_mmod_Stretch_Energy-OPLS-2005>
124.283920288086

> <r_mmod_Bend_Energy-OPLS-2005>
191.813400268555

> <r_mmod_Torsional_Energy-OPLS-2005>
216.611663818359

> <r_mmod_Improper_Torsional_Energy-OPLS-2005>
7.20430564880371

> <r_mmod_Van_der_Waal_Energy-OPLS-2005>
121.214027404785

> <r_mmod_Electrostatic_Energy-OPLS-2005>
-437.511505126953

> <r_mmod_Solvation_Energy-OPLS-2005>
-256.329040527344

> <b_mmod_Minimization_Converged-OPLS-2005>
0

> <r_mmod_RMS_Derivative-OPLS-2005>
4.95957517623901

$$$$
3
                    3D
 Structure written by MMmdl.
158166  0  0  1  0            999 V2000
  -30.6697  -14.5261   20.5614 C   0  0  0  0  0  0
  -30.4381  -12.3303   19.4431 C   0  0  0  0  0  0
  -29.5085  -12.5110   18.2224 C   0  0  0  0  0  0
  -28.0295  -12.3624   18.6329 C   0  0  0  0  0  0
  -27.6680  -13.2075   19.8843 C   0  0  2  0  0  0
  -28.7091  -12.9952   21.0081 C   0  0  0  0  0  0
  -25.2620  -13.8155   20.5748 C   0  0  0  0  0  0
  -24.1853  -13.0438   20.9189 C   0  0  0  0  0  0
  -24.6391  -11.6908   20.8746 C   0  0  0  0  0  0
  -23.9052  -10.4278   21.0409 C   0  0  0  0  0  0
  -24.3593   -9.4186   21.9190 C   0  0  0  0  0  0
  -23.6259   -8.2221   22.0747 C   0  0  0  0  0  0
  -22.4240   -8.0264   21.3535 C   0  0  0  0  0  0
  -21.9886   -9.0254   20.4640 C   0  0  0  0  0  0
  -22.7217  -10.2128   20.3061 C   0  0  0  0  0  0
  -21.6834   -6.0711   22.5271 C   0  0  0  0  0  0
  -21.3998   -6.5612   23.8205 C   0  0  0  0  0  0
  -21.3673   -5.6769   24.9176 C   0  0  0  0  0  0
  -21.6066   -4.3025   24.7214 C   0  0  0  0  0  0
  -21.8822   -3.8124   23.4320 C   0  0  0  0  0  0
  -21.9185   -4.6955   22.3384 C   0  0  0  0  0  0
  -22.7885  -13.5279   21.1866 C   0  0  0  0  0  0
  -22.1676   -4.2156   21.0967 F   0  0  0  0  0  0
  -21.5626   -3.4505   25.7711 F   0  0  0  0  0  0
  -30.0412  -13.3176   20.4624 N   0  0  0  0  0  0
  -26.3055  -12.9335   20.3396 N   0  0  0  0  0  0
  -25.9313  -11.6490   20.5766 N   0  0  0  0  0  0
  -22.0498  -12.8282   22.0404 N   0  0  0  0  0  0
  -25.4394  -15.1867   20.4242 N   0  0  0  0  0  0
  -31.7724  -14.7478   20.0552 O   0  0  0  0  0  0
  -21.6610   -6.8856   21.4234 O   0  0  0  0  0  0
  -22.3592  -14.5600   20.6717 O   0  0  0  0  0  0
  -24.6203  -31.8598   23.2062 C   0  0  0  0  0  0
  -25.9061  -32.4782   23.8366 C   0  0  1  0  0  0
  -27.2438  -27.3852   20.0686 C   0  0  0  0  0  0
  -25.5887  -33.8584   24.2276 N   0  0  0  0  0  0
  -23.4111  -30.4784   21.5503 C   0  0  2  0  0  0
  -24.8567  -28.9369   20.1144 C   0  0  0  0  0  0
  -22.7450  -29.4575   22.5006 C   0  0  0  0  0  0
  -18.0262  -28.1371   22.8515 C   0  0  0  0  0  0
  -24.1473  -36.7301   23.2645 C   0  0  0  0  0  0
  -25.9467  -30.8023   21.3703 C   0  0  0  0  0  0
  -26.0201  -29.4363   20.7102 C   0  0  0  0  0  0
  -27.2141  -28.6652   20.6851 C   0  0  0  0  0  0
  -26.0494  -26.9048   19.4854 C   0  0  0  0  0  0
  -24.8676  -27.6711   19.5038 C   0  0  0  0  0  0
  -23.6210  -29.8058   20.1677 C   0  0  0  0  0  0
  -25.4098  -36.3088   24.0327 C   0  0  1  0  0  0
  -20.5865  -28.3632   23.1336 C   0  0  2  0  0  0
  -20.6740  -26.9363   22.5420 C   0  0  0  0  0  0
  -19.5709  -26.6371   21.5222 C   0  0  0  0  0  0
  -18.1896  -26.7907   22.1651 C   0  0  0  0  0  0
  -19.1522  -28.8815   23.2916 C   0  0  0  0  0  0
  -18.9444  -30.1423   23.8914 C   0  0  0  0  0  0
  -17.6448  -30.6573   24.0558 C   0  0  0  0  0  0
  -25.9035  -34.9461   23.5112 C   0  0  0  0  0  0
  -16.5336  -29.9076   23.6321 C   0  0  0  0  0  0
  -16.7250  -28.6491   23.0349 C   0  0  0  0  0  0
  -26.4474  -31.6611   25.0735 C   0  0  0  0  0  0
  -25.3738  -31.3763   26.1493 C   0  0  0  0  0  0
  -27.0311  -30.3038   24.6173 C   0  0  0  0  0  0
  -27.6012  -32.4385   25.7493 C   0  0  0  0  0  0
  -27.5560  -37.1806   24.8464 C   0  0  0  0  0  0
  -21.4160  -29.3008   22.3766 N   0  0  0  0  0  0
  -26.4269  -37.3778   23.9415 N   0  0  0  0  0  0
  -24.6775  -31.0639   22.0990 N   0  0  0  0  0  0
  -23.4199  -28.8093   23.3048 O   0  0  0  0  0  0
  -28.4257  -26.6445   20.0785 O   0  0  0  0  0  0
  -26.5609  -34.8921   22.4682 O   0  0  0  0  0  0
  -23.5378  -32.1383   23.7425 O   0  0  0  0  0  0
  -30.4151  -17.8495   21.7416 C   0  0  0  0  0  0
  -29.9323  -16.8304   20.9482 C   0  0  0  0  0  0
  -29.2364  -19.1685   20.2718 C   0  0  0  0  0  0
  -27.1105  -20.5463   20.3997 C   0  0  0  0  0  0
  -28.5994  -22.6340   17.7989 C   0  0  0  0  0  0
  -28.6005  -24.0787   19.9814 C   0  0  0  0  0  0
  -28.6142  -25.4662   19.2422 C   0  0  0  0  0  0
  -28.4933  -20.3947   19.7374 C   0  0  1  0  0  0
  -29.2220  -22.8566   19.1977 C   0  0  1  0  0  0
  -30.0259  -19.1507   21.3543 N   0  0  0  0  0  0
  -29.9714  -15.4853   21.2070 N   0  0  0  0  0  0
  -29.3714  -21.5819   20.0014 N   0  3  0  0  0  0
  -29.0024  -17.5258   19.6237 S   0  0  0  0  0  0
  -31.4855  -12.4332   19.1488 H   0  0  0  0  0  0
  -30.3422  -11.3212   19.8478 H   0  0  0  0  0  0
  -29.7528  -11.7813   17.4475 H   0  0  0  0  0  0
  -29.6665  -13.4955   17.7786 H   0  0  0  0  0  0
  -27.8529  -11.3064   18.8372 H   0  0  0  0  0  0
  -27.3822  -12.6233   17.7957 H   0  0  0  0  0  0
  -27.7122  -14.2523   19.5792 H   0  0  0  0  0  0
  -28.6953  -11.9581   21.3498 H   0  0  0  0  0  0
  -28.4559  -13.5846   21.8896 H   0  0  0  0  0  0
  -25.2744   -9.5632   22.4768 H   0  0  0  0  0  0
  -23.9959   -7.4606   22.7463 H   0  0  0  0  0  0
  -21.0802   -8.8780   19.8952 H   0  0  0  0  0  0
  -22.3693  -10.9668   19.6164 H   0  0  0  0  0  0
  -21.1976   -7.6116   23.9703 H   0  0  0  0  0  0
  -21.1521   -6.0496   25.9083 H   0  0  0  0  0  0
  -22.0585   -2.7589   23.2815 H   0  0  0  0  0  0
  -22.4116  -11.9944   22.4783 H   0  0  0  0  0  0
  -21.1128  -13.1385   22.2638 H   0  0  0  0  0  0
  -24.6674  -15.8378   20.5161 H   0  0  0  0  0  0
  -26.2901  -15.6219   20.0871 H   0  0  0  0  0  0
  -26.7121  -32.5461   23.1107 H   0  0  0  0  0  0
  -25.0015  -33.9725   25.0406 H   0  0  0  0  0  0
  -22.7027  -31.2963   21.4071 H   0  0  0  0  0  0
  -23.3718  -35.9657   23.3339 H   0  0  0  0  0  0
  -24.3543  -36.8891   22.2052 H   0  0  0  0  0  0
  -23.7247  -37.6517   23.6651 H   0  0  0  0  0  0
  -26.0752  -31.5656   20.6028 H   0  0  0  0  0  0
  -26.8306  -30.8501   21.9946 H   0  0  0  0  0  0
  -28.1153  -29.0493   21.1408 H   0  0  0  0  0  0
  -25.9992  -25.9270   19.0295 H   0  0  0  0  0  0
  -23.9704  -27.2718   19.0502 H   0  0  0  0  0  0
  -23.7343  -30.5773   19.4065 H   0  0  0  0  0  0
  -22.7443  -29.2260   19.8710 H   0  0  0  0  0  0
  -25.1283  -36.1935   25.0816 H   0  0  0  0  0  0
  -20.9943  -28.3172   24.1463 H   0  0  0  0  0  0
  -20.5634  -26.2230   23.3611 H   0  0  0  0  0  0
  -21.6611  -26.7393   22.1213 H   0  0  0  0  0  0
  -19.6863  -25.6293   21.1218 H   0  0  0  0  0  0
  -19.6627  -27.3212   20.6781 H   0  0  0  0  0  0
  -17.4158  -26.6647   21.4057 H   0  0  0  0  0  0
  -18.0292  -26.0034   22.9040 H   0  0  0  0  0  0
  -19.7913  -30.7233   24.2297 H   0  0  0  0  0  0
  -17.4993  -31.6258   24.5163 H   0  0  0  0  0  0
  -15.5329  -30.2985   23.7627 H   0  0  0  0  0  0
  -15.8646  -28.0806   22.7068 H   0  0  0  0  0  0
  -24.5850  -30.7165   25.7854 H   0  0  0  0  0  0
  -24.9006  -32.2952   26.4974 H   0  0  0  0  0  0
  -25.8086  -30.8900   27.0234 H   0  0  0  0  0  0
  -26.2874  -29.6789   24.1208 H   0  0  0  0  0  0
  -27.4024  -29.7284   25.4661 H   0  0  0  0  0  0
  -27.8738  -30.4320   23.9373 H   0  0  0  0  0  0
  -27.2563  -33.3659   26.2079 H   0  0  0  0  0  0
  -28.3799  -32.7009   25.0321 H   0  0  0  0  0  0
  -28.0710  -31.8540   26.5407 H   0  0  0  0  0  0
  -28.2609  -38.0067   24.7475 H   0  0  0  0  0  0
  -28.1017  -36.2606   24.6335 H   0  0  0  0  0  0
  -27.2280  -37.1515   25.8864 H   0  0  0  0  0  0
  -20.9341  -29.8764   21.7011 H   0  0  0  0  0  0
  -26.0155  -38.2855   24.1407 H   0  0  0  0  0  0
  -30.9855  -17.7406   22.6546 H   0  0  0  0  0  0
  -26.4793  -19.6825   20.1826 H   0  0  0  0  0  0
  -26.5842  -21.4307   20.0420 H   0  0  0  0  0  0
  -27.1901  -20.6196   21.4856 H   0  0  0  0  0  0
  -28.6171  -23.5477   17.2044 H   0  0  0  0  0  0
  -27.5629  -22.3022   17.8593 H   0  0  0  0  0  0
  -29.1643  -21.8934   17.2287 H   0  0  0  0  0  0
  -27.5830  -23.8443   20.2841 H   0  0  0  0  0  0
  -29.1690  -24.2010   20.9028 H   0  0  0  0  0  0
  -27.9510  -25.4551   18.3789 H   0  0  0  0  0  0
  -29.6039  -25.5909   18.7999 H   0  0  0  0  0  0
  -28.3648  -20.2276   18.6687 H   0  0  0  0  0  0
  -30.2555  -23.1511   19.0061 H   0  0  0  0  0  0
  -29.1614  -15.1280   21.6922 H   0  0  0  0  0  0
  -30.3027  -21.2388   19.8244 H   0  0  0  0  0  0
  -29.3531  -21.7887   20.9864 H   0  0  0  0  0  0
  1 25  1  0  0  0
  1 30  2  0  0  0
  1 81  1  0  0  0
  2  3  1  0  0  0
  2 25  1  0  0  0
  2 84  1  0  0  0
  2 85  1  0  0  0
  3  4  1  0  0  0
  3 86  1  0  0  0
  3 87  1  0  0  0
  4  5  1  0  0  0
  4 88  1  0  0  0
  4 89  1  0  0  0
  5  6  1  0  0  0
  5 26  1  0  0  0
  5 90  1  0  0  0
  6 25  1  0  0  0
  6 91  1  0  0  0
  6 92  1  0  0  0
  7  8  2  0  0  0
  7 26  1  0  0  0
  7 29  1  0  0  0
  8  9  1  0  0  0
  8 22  1  0  0  0
  9 10  1  0  0  0
  9 27  2  0  0  0
 10 11  2  0  0  0
 10 15  1  0  0  0
 11 12  1  0  0  0
 11 93  1  0  0  0
 12 13  2  0  0  0
 12 94  1  0  0  0
 13 14  1  0  0  0
 13 31  1  0  0  0
 14 15  2  0  0  0
 14 95  1  0  0  0
 15 96  1  0  0  0
 16 17  2  0  0  0
 16 21  1  0  0  0
 16 31  1  0  0  0
 17 18  1  0  0  0
 17 97  1  0  0  0
 18 19  2  0  0  0
 18 98  1  0  0  0
 19 20  1  0  0  0
 19 24  1  0  0  0
 20 21  2  0  0  0
 20 99  1  0  0  0
 21 23  1  0  0  0
 22 28  1  0  0  0
 22 32  2  0  0  0
 26 27  1  0  0  0
 28100  1  0  0  0
 28101  1  0  0  0
 29102  1  0  0  0
 29103  1  0  0  0
 33 34  1  0  0  0
 33 66  1  0  0  0
 33 70  2  0  0  0
 34 36  1  0  0  0
 34 59  1  0  0  0
 34104  1  0  0  0
 35 44  2  0  0  0
 35 45  1  0  0  0
 35 68  1  0  0  0
 36 56  1  0  0  0
 36105  1  0  0  0
 37 39  1  0  0  0
 37 47  1  0  0  0
 37 66  1  0  0  0
 37106  1  0  0  0
 38 43  2  0  0  0
 38 46  1  0  0  0
 38 47  1  0  0  0
 39 64  1  0  0  0
 39 67  2  0  0  0
 40 52  1  0  0  0
 40 53  2  0  0  0
 40 58  1  0  0  0
 41107  1  0  0  0
 41108  1  0  0  0
 41109  1  0  0  0
 41 48  1  0  0  0
 42 43  1  0  0  0
 42 66  1  0  0  0
 42110  1  0  0  0
 42111  1  0  0  0
 43 44  1  0  0  0
 44112  1  0  0  0
 45 46  2  0  0  0
 45113  1  0  0  0
 46114  1  0  0  0
 47115  1  0  0  0
 47116  1  0  0  0
 48 56  1  0  0  0
 48 65  1  0  0  0
 48117  1  0  0  0
 49 50  1  0  0  0
 49 53  1  0  0  0
 49 64  1  0  0  0
 49118  1  0  0  0
 50 51  1  0  0  0
 50119  1  0  0  0
 50120  1  0  0  0
 51 52  1  0  0  0
 51121  1  0  0  0
 51122  1  0  0  0
 52123  1  0  0  0
 52124  1  0  0  0
 53 54  1  0  0  0
 54 55  2  0  0  0
 54125  1  0  0  0
 55 57  1  0  0  0
 55126  1  0  0  0
 56 69  2  0  0  0
 57 58  2  0  0  0
 57127  1  0  0  0
 58128  1  0  0  0
 59 60  1  0  0  0
 59 61  1  0  0  0
 59 62  1  0  0  0
 60129  1  0  0  0
 60130  1  0  0  0
 60131  1  0  0  0
 61132  1  0  0  0
 61133  1  0  0  0
 61134  1  0  0  0
 62135  1  0  0  0
 62136  1  0  0  0
 62137  1  0  0  0
 63 65  1  0  0  0
 63138  1  0  0  0
 63139  1  0  0  0
 63140  1  0  0  0
 64141  1  0  0  0
 65142  1  0  0  0
 68 77  1  0  0  0
 71 72  2  0  0  0
 71 80  1  0  0  0
 71143  1  0  0  0
 72 81  1  0  0  0
 72 83  1  0  0  0
 73 78  1  0  0  0
 73 80  2  0  0  0
 73 83  1  0  0  0
 74144  1  0  0  0
 74145  1  0  0  0
 74146  1  0  0  0
 74 78  1  0  0  0
 75147  1  0  0  0
 75148  1  0  0  0
 75149  1  0  0  0
 75 79  1  0  0  0
 76 77  1  0  0  0
 76 79  1  0  0  0
 76150  1  0  0  0
 76151  1  0  0  0
 77152  1  0  0  0
 77153  1  0  0  0
 78 82  1  0  0  0
 78154  1  0  0  0
 79 82  1  0  0  0
 79155  1  0  0  0
 81156  1  0  0  0
 82157  1  0  0  0
 82158  1  0  0  0
M  CHG  1  82   1
M  ISO  4   1 100  68 101  77 101  81 100
M  END
> <chiral flag>
0

> <version>
0

> <s_m_source_file>
/data/baiqing/PycharmProjects/Reinvent-master-3.2/result/LINK_invent/BTK/process_docking_weight1_custom_product_contain_oxygen_bond_distance_aromatic_linkinvent_7_9_3/rearranged_h_0198.sdf

> <i_m_source_file_index>
4

> <r_mmod_Potential_Energy-OPLS-2005>
-260.024047851562

> <r_mmod_Stretch_Energy-OPLS-2005>
51.862133026123

> <r_mmod_Bend_Energy-OPLS-2005>
130.823272705078

> <r_mmod_Torsional_Energy-OPLS-2005>
232.243392944336

> <r_mmod_Improper_Torsional_Energy-OPLS-2005>
4.93350696563721

> <r_mmod_Van_der_Waal_Energy-OPLS-2005>
121.19221496582

> <r_mmod_Electrostatic_Energy-OPLS-2005>
-350.715850830078

> <r_mmod_Solvation_Energy-OPLS-2005>
-470.807464599609

> <b_mmod_Minimization_Converged-OPLS-2005>
0

> <r_mmod_RMS_Derivative-OPLS-2005>
4.51414251327515

$$$$
4
                    3D
 Structure written by MMmdl.
151159  0  0  1  0            999 V2000
  -30.7428  -14.4495   20.5332 C   0  0  0  0  0  0
  -30.4035  -12.2807   19.4385 C   0  0  0  0  0  0
  -29.4914  -12.4891   18.2122 C   0  0  0  0  0  0
  -28.0121  -12.3633   18.6215 C   0  0  0  0  0  0
  -27.6564  -13.2156   19.8708 C   0  0  2  0  0  0
  -28.6986  -13.0300   21.0004 C   0  0  0  0  0  0
  -25.2562  -13.8178   20.5718 C   0  0  0  0  0  0
  -24.1821  -13.0453   20.9170 C   0  0  0  0  0  0
  -24.6391  -11.6916   20.8744 C   0  0  0  0  0  0
  -23.9066  -10.4299   21.0411 C   0  0  0  0  0  0
  -24.3622   -9.4220   21.9199 C   0  0  0  0  0  0
  -23.6294   -8.2262   22.0765 C   0  0  0  0  0  0
  -22.4285   -8.0302   21.3549 C   0  0  0  0  0  0
  -21.9921   -9.0270   20.4654 C   0  0  0  0  0  0
  -22.7243  -10.2151   20.3056 C   0  0  0  0  0  0
  -21.6859   -6.0744   22.5293 C   0  0  0  0  0  0
  -21.4008   -6.5640   23.8228 C   0  0  0  0  0  0
  -21.3662   -5.6787   24.9182 C   0  0  0  0  0  0
  -21.6045   -4.3054   24.7225 C   0  0  0  0  0  0
  -21.8814   -3.8152   23.4350 C   0  0  0  0  0  0
  -21.9195   -4.6972   22.3408 C   0  0  0  0  0  0
  -22.7847  -13.5255   21.1835 C   0  0  0  0  0  0
  -22.1665   -4.2162   21.0982 F   0  0  0  0  0  0
  -21.5637   -3.4538   25.7737 F   0  0  0  0  0  0
  -30.0307  -13.2956   20.4378 N   0  0  0  0  0  0
  -26.2999  -12.9374   20.3365 N   0  0  0  0  0  0
  -25.9316  -11.6529   20.5756 N   0  0  0  0  0  0
  -22.0472  -12.8262   22.0385 N   0  0  0  0  0  0
  -25.4273  -15.1905   20.4179 N   0  0  0  0  0  0
  -31.8865  -14.5550   20.0829 O   0  0  0  0  0  0
  -21.6645   -6.8907   21.4263 O   0  0  0  0  0  0
  -22.3551  -14.5581   20.6705 O   0  0  0  0  0  0
  -24.6169  -31.8693   23.2075 C   0  0  0  0  0  0
  -25.9078  -32.4824   23.8371 C   0  0  1  0  0  0
  -27.2284  -27.4074   20.0861 C   0  0  0  0  0  0
  -25.5922  -33.8615   24.2308 N   0  0  0  0  0  0
  -23.4020  -30.4933   21.5527 C   0  0  2  0  0  0
  -24.8452  -28.9629   20.1104 C   0  0  0  0  0  0
  -22.7395  -29.4661   22.4984 C   0  0  0  0  0  0
  -18.0247  -28.1389   22.8464 C   0  0  0  0  0  0
  -24.1481  -36.7315   23.2634 C   0  0  0  0  0  0
  -25.9358  -30.8222   21.3663 C   0  0  0  0  0  0
  -26.0084  -29.4558   20.7138 C   0  0  0  0  0  0
  -27.1966  -28.6847   20.7020 C   0  0  0  0  0  0
  -26.0454  -26.9521   19.4532 C   0  0  0  0  0  0
  -24.8625  -27.7126   19.4754 C   0  0  0  0  0  0
  -23.6085  -29.8306   20.1664 C   0  0  0  0  0  0
  -25.4112  -36.3111   24.0328 C   0  0  1  0  0  0
  -20.5834  -28.3682   23.1298 C   0  0  2  0  0  0
  -20.6721  -26.9413   22.5427 C   0  0  0  0  0  0
  -19.5689  -26.6333   21.5243 C   0  0  0  0  0  0
  -18.1882  -26.7894   22.1664 C   0  0  0  0  0  0
  -19.1491  -28.8857   23.2856 C   0  0  0  0  0  0
  -18.9407  -30.1445   23.8899 C   0  0  0  0  0  0
  -17.6391  -30.6581   24.0510 C   0  0  0  0  0  0
  -25.9053  -34.9479   23.5122 C   0  0  0  0  0  0
  -16.5299  -29.9068   23.6299 C   0  0  0  0  0  0
  -16.7233  -28.6495   23.0322 C   0  0  0  0  0  0
  -26.4471  -31.6607   25.0715 C   0  0  0  0  0  0
  -25.3698  -31.3745   26.1429 C   0  0  0  0  0  0
  -27.0309  -30.3047   24.6118 C   0  0  0  0  0  0
  -27.6037  -32.4325   25.7496 C   0  0  0  0  0  0
  -27.5575  -37.1826   24.8469 C   0  0  0  0  0  0
  -21.4137  -29.3028   22.3704 N   0  0  0  0  0  0
  -26.4293  -37.3796   23.9403 N   0  0  0  0  0  0
  -24.6702  -31.0766   22.0997 N   0  0  0  0  0  0
  -23.4164  -28.8194   23.3030 O   0  0  0  0  0  0
  -28.4103  -26.6775   20.1270 O   0  0  0  0  0  0
  -26.5589  -34.8936   22.4673 O   0  0  0  0  0  0
  -23.5365  -32.1460   23.7466 O   0  0  0  0  0  0
  -29.5181  -18.4100   22.3881 C   0  0  0  0  0  0
  -29.9674  -18.1268   21.1173 C   0  0  0  0  0  0
  -29.2970  -20.4917   21.4759 C   0  0  0  0  0  0
  -30.6375  -16.8851   20.5830 C   0  0  0  0  0  0
  -29.0361  -24.3373   20.7902 C   0  0  0  0  0  0
  -29.0344  -22.8476   20.3361 C   0  0  0  0  0  0
  -28.4599  -25.2908   19.7082 C   0  0  0  0  0  0
  -29.1433  -19.7535   22.5753 N   0  0  0  0  0  0
  -29.0614  -21.8675   21.4294 N   0  0  0  0  0  0
  -30.0872  -15.5601   20.9293 N   0  0  0  0  0  0
  -29.8565  -19.5523   20.0946 S   0  0  0  0  0  0
  -31.4541  -12.3333   19.1509 H   0  0  0  0  0  0
  -30.2623  -11.2816   19.8549 H   0  0  0  0  0  0
  -29.7297  -11.7615   17.4361 H   0  0  0  0  0  0
  -29.6748  -13.4732   17.7720 H   0  0  0  0  0  0
  -27.8187  -11.3104   18.8253 H   0  0  0  0  0  0
  -27.3625  -12.6269   17.7869 H   0  0  0  0  0  0
  -27.6939  -14.2594   19.5586 H   0  0  0  0  0  0
  -28.6585  -12.0081   21.3833 H   0  0  0  0  0  0
  -28.4762  -13.6756   21.8526 H   0  0  0  0  0  0
  -25.2777   -9.5695   22.4763 H   0  0  0  0  0  0
  -24.0014   -7.4647   22.7490 H   0  0  0  0  0  0
  -21.0846   -8.8767   19.8957 H   0  0  0  0  0  0
  -22.3705  -10.9676   19.6146 H   0  0  0  0  0  0
  -21.1992   -7.6147   23.9736 H   0  0  0  0  0  0
  -21.1488   -6.0513   25.9087 H   0  0  0  0  0  0
  -22.0591   -2.7617   23.2833 H   0  0  0  0  0  0
  -22.4072  -11.9913   22.4761 H   0  0  0  0  0  0
  -21.1090  -13.1297   22.2588 H   0  0  0  0  0  0
  -24.6604  -15.8436   20.5312 H   0  0  0  0  0  0
  -26.2844  -15.6355   20.1138 H   0  0  0  0  0  0
  -26.7168  -32.5528   23.1145 H   0  0  0  0  0  0
  -25.0091  -33.9760   25.0468 H   0  0  0  0  0  0
  -22.6924  -31.3124   21.4167 H   0  0  0  0  0  0
  -23.3734  -35.9662   23.3326 H   0  0  0  0  0  0
  -24.3553  -36.8902   22.2042 H   0  0  0  0  0  0
  -23.7257  -37.6536   23.6638 H   0  0  0  0  0  0
  -26.0561  -31.5827   20.5938 H   0  0  0  0  0  0
  -26.8220  -30.8744   21.9869 H   0  0  0  0  0  0
  -28.0928  -29.0658   21.1710 H   0  0  0  0  0  0
  -25.9871  -26.0245   18.9082 H   0  0  0  0  0  0
  -23.9767  -27.3363   18.9837 H   0  0  0  0  0  0
  -23.7142  -30.6069   19.4069 H   0  0  0  0  0  0
  -22.7314  -29.2520   19.8710 H   0  0  0  0  0  0
  -25.1300  -36.1976   25.0821 H   0  0  0  0  0  0
  -20.9901  -28.3246   24.1423 H   0  0  0  0  0  0
  -20.5663  -26.2319   23.3654 H   0  0  0  0  0  0
  -21.6567  -26.7412   22.1166 H   0  0  0  0  0  0
  -19.6867  -25.6228   21.1318 H   0  0  0  0  0  0
  -19.6569  -27.3126   20.6759 H   0  0  0  0  0  0
  -17.4120  -26.6522   21.4115 H   0  0  0  0  0  0
  -18.0318  -26.0085   22.9139 H   0  0  0  0  0  0
  -19.7869  -30.7252   24.2319 H   0  0  0  0  0  0
  -17.4914  -31.6245   24.5126 H   0  0  0  0  0  0
  -15.5279  -30.2920   23.7620 H   0  0  0  0  0  0
  -15.8640  -28.0783   22.7067 H   0  0  0  0  0  0
  -24.5862  -30.7116   25.7744 H   0  0  0  0  0  0
  -24.8887  -32.2915   26.4847 H   0  0  0  0  0  0
  -25.7979  -30.8911   27.0217 H   0  0  0  0  0  0
  -26.2870  -29.6821   24.1121 H   0  0  0  0  0  0
  -27.4027  -29.7276   25.4598 H   0  0  0  0  0  0
  -27.8730  -30.4366   23.9314 H   0  0  0  0  0  0
  -27.2654  -33.3627   26.2075 H   0  0  0  0  0  0
  -28.3843  -32.6880   25.0320 H   0  0  0  0  0  0
  -28.0707  -31.8445   26.5405 H   0  0  0  0  0  0
  -28.2631  -38.0080   24.7482 H   0  0  0  0  0  0
  -28.1025  -36.2619   24.6356 H   0  0  0  0  0  0
  -27.2267  -37.1558   25.8858 H   0  0  0  0  0  0
  -20.9309  -29.8775   21.6945 H   0  0  0  0  0  0
  -26.0182  -38.2880   24.1377 H   0  0  0  0  0  0
  -29.5004  -17.7366   23.2342 H   0  0  0  0  0  0
  -31.6808  -16.9228   20.9099 H   0  0  0  0  0  0
  -30.6775  -16.9420   19.4927 H   0  0  0  0  0  0
  -30.0508  -24.6426   21.0495 H   0  0  0  0  0  0
  -28.4375  -24.4543   21.6935 H   0  0  0  0  0  0
  -29.8787  -22.6669   19.6673 H   0  0  0  0  0  0
  -28.1381  -22.6473   19.7463 H   0  0  0  0  0  0
  -27.4998  -24.8650   19.4401 H   0  0  0  0  0  0
  -29.0713  -25.2424   18.8056 H   0  0  0  0  0  0
  -28.7232  -22.2284   22.3150 H   0  0  0  0  0  0
  -29.1360  -15.4813   21.2526 H   0  0  0  0  0  0
  1 25  1  0  0  0
  1 30  2  0  0  0
  1 80  1  0  0  0
  2  3  1  0  0  0
  2 25  1  0  0  0
  2 82  1  0  0  0
  2 83  1  0  0  0
  3  4  1  0  0  0
  3 84  1  0  0  0
  3 85  1  0  0  0
  4  5  1  0  0  0
  4 86  1  0  0  0
  4 87  1  0  0  0
  5  6  1  0  0  0
  5 26  1  0  0  0
  5 88  1  0  0  0
  6 25  1  0  0  0
  6 89  1  0  0  0
  6 90  1  0  0  0
  7  8  2  0  0  0
  7 26  1  0  0  0
  7 29  1  0  0  0
  8  9  1  0  0  0
  8 22  1  0  0  0
  9 10  1  0  0  0
  9 27  2  0  0  0
 10 11  2  0  0  0
 10 15  1  0  0  0
 11 12  1  0  0  0
 11 91  1  0  0  0
 12 13  2  0  0  0
 12 92  1  0  0  0
 13 14  1  0  0  0
 13 31  1  0  0  0
 14 15  2  0  0  0
 14 93  1  0  0  0
 15 94  1  0  0  0
 16 17  2  0  0  0
 16 21  1  0  0  0
 16 31  1  0  0  0
 17 18  1  0  0  0
 17 95  1  0  0  0
 18 19  2  0  0  0
 18 96  1  0  0  0
 19 20  1  0  0  0
 19 24  1  0  0  0
 20 21  2  0  0  0
 20 97  1  0  0  0
 21 23  1  0  0  0
 22 28  1  0  0  0
 22 32  2  0  0  0
 26 27  1  0  0  0
 28 98  1  0  0  0
 28 99  1  0  0  0
 29100  1  0  0  0
 29101  1  0  0  0
 33 34  1  0  0  0
 33 66  1  0  0  0
 33 70  2  0  0  0
 34 36  1  0  0  0
 34 59  1  0  0  0
 34102  1  0  0  0
 35 44  2  0  0  0
 35 45  1  0  0  0
 35 68  1  0  0  0
 36 56  1  0  0  0
 36103  1  0  0  0
 37 39  1  0  0  0
 37 47  1  0  0  0
 37 66  1  0  0  0
 37104  1  0  0  0
 38 43  2  0  0  0
 38 46  1  0  0  0
 38 47  1  0  0  0
 39 64  1  0  0  0
 39 67  2  0  0  0
 40 52  1  0  0  0
 40 53  2  0  0  0
 40 58  1  0  0  0
 41105  1  0  0  0
 41106  1  0  0  0
 41107  1  0  0  0
 41 48  1  0  0  0
 42 43  1  0  0  0
 42 66  1  0  0  0
 42108  1  0  0  0
 42109  1  0  0  0
 43 44  1  0  0  0
 44110  1  0  0  0
 45 46  2  0  0  0
 45111  1  0  0  0
 46112  1  0  0  0
 47113  1  0  0  0
 47114  1  0  0  0
 48 56  1  0  0  0
 48 65  1  0  0  0
 48115  1  0  0  0
 49 50  1  0  0  0
 49 53  1  0  0  0
 49 64  1  0  0  0
 49116  1  0  0  0
 50 51  1  0  0  0
 50117  1  0  0  0
 50118  1  0  0  0
 51 52  1  0  0  0
 51119  1  0  0  0
 51120  1  0  0  0
 52121  1  0  0  0
 52122  1  0  0  0
 53 54  1  0  0  0
 54 55  2  0  0  0
 54123  1  0  0  0
 55 57  1  0  0  0
 55124  1  0  0  0
 56 69  2  0  0  0
 57 58  2  0  0  0
 57125  1  0  0  0
 58126  1  0  0  0
 59 60  1  0  0  0
 59 61  1  0  0  0
 59 62  1  0  0  0
 60127  1  0  0  0
 60128  1  0  0  0
 60129  1  0  0  0
 61130  1  0  0  0
 61131  1  0  0  0
 61132  1  0  0  0
 62133  1  0  0  0
 62134  1  0  0  0
 62135  1  0  0  0
 63 65  1  0  0  0
 63136  1  0  0  0
 63137  1  0  0  0
 63138  1  0  0  0
 64139  1  0  0  0
 65140  1  0  0  0
 68 77  1  0  0  0
 71 72  2  0  0  0
 71 78  1  0  0  0
 71141  1  0  0  0
 72 74  1  0  0  0
 72 81  1  0  0  0
 73 78  2  0  0  0
 73 79  1  0  0  0
 73 81  1  0  0  0
 74 80  1  0  0  0
 74142  1  0  0  0
 74143  1  0  0  0
 75 76  1  0  0  0
 75 77  1  0  0  0
 75144  1  0  0  0
 75145  1  0  0  0
 76 79  1  0  0  0
 76146  1  0  0  0
 76147  1  0  0  0
 77148  1  0  0  0
 77149  1  0  0  0
 79150  1  0  0  0
 80151  1  0  0  0
M  ISO  4   1 100  68 101  77 101  80 100
M  END
> <chiral flag>
0

> <version>
0

> <s_m_source_file>
/data/baiqing/PycharmProjects/Reinvent-master-3.2/result/LINK_invent/BTK/process_docking_weight1_custom_product_contain_oxygen_bond_distance_aromatic_linkinvent_7_9_3/rearranged_h_0198.sdf

> <i_m_source_file_index>
5

> <r_mmod_Potential_Energy-OPLS-2005>
-139.369781494141

> <r_mmod_Stretch_Energy-OPLS-2005>
37.9848594665527

> <r_mmod_Bend_Energy-OPLS-2005>
113.23494720459

> <r_mmod_Torsional_Energy-OPLS-2005>
191.861755371094

> <r_mmod_Improper_Torsional_Energy-OPLS-2005>
6.19413089752197

> <r_mmod_Van_der_Waal_Energy-OPLS-2005>
135.982986450195

> <r_mmod_Electrostatic_Energy-OPLS-2005>
-416.046234130859

> <r_mmod_Solvation_Energy-OPLS-2005>
-226.354034423828

> <b_mmod_Minimization_Converged-OPLS-2005>
0

> <r_mmod_RMS_Derivative-OPLS-2005>
3.9399082660675

$$$$
5
                    3D
 Structure written by MMmdl.
152160  0  0  1  0            999 V2000
  -30.6813  -14.5186   20.6023 C   0  0  0  0  0  0
  -30.4180  -12.3565   19.4250 C   0  0  0  0  0  0
  -29.5047  -12.5842   18.2029 C   0  0  0  0  0  0
  -28.0204  -12.4336   18.5935 C   0  0  0  0  0  0
  -27.6555  -13.2293   19.8754 C   0  0  2  0  0  0
  -28.6948  -13.0056   20.9948 C   0  0  0  0  0  0
  -25.2516  -13.8172   20.5625 C   0  0  0  0  0  0
  -24.1771  -13.0399   20.9098 C   0  0  0  0  0  0
  -24.6314  -11.6909   20.8574 C   0  0  0  0  0  0
  -23.8981  -10.4269   21.0252 C   0  0  0  0  0  0
  -24.3512   -9.4237   21.9040 C   0  0  0  0  0  0
  -23.6247   -8.2281   22.0681 C   0  0  0  0  0  0
  -22.4211   -8.0232   21.3521 C   0  0  0  0  0  0
  -21.9798   -9.0210   20.4610 C   0  0  0  0  0  0
  -22.7092  -10.2074   20.2948 C   0  0  0  0  0  0
  -21.6898   -6.0628   22.5252 C   0  0  0  0  0  0
  -21.4052   -6.5538   23.8180 C   0  0  0  0  0  0
  -21.3671   -5.6697   24.9154 C   0  0  0  0  0  0
  -21.6050   -4.2979   24.7233 C   0  0  0  0  0  0
  -21.8837   -3.8031   23.4345 C   0  0  0  0  0  0
  -21.9226   -4.6860   22.3401 C   0  0  0  0  0  0
  -22.7791  -13.5227   21.1812 C   0  0  0  0  0  0
  -22.1702   -4.2015   21.0971 F   0  0  0  0  0  0
  -21.5616   -3.4476   25.7753 F   0  0  0  0  0  0
  -30.0235  -13.3366   20.4517 N   0  0  0  0  0  0
  -26.2967  -12.9365   20.3297 N   0  0  0  0  0  0
  -25.9284  -11.6504   20.5580 N   0  0  0  0  0  0
  -22.0456  -12.8325   22.0351 N   0  0  0  0  0  0
  -25.4165  -15.1879   20.4077 N   0  0  0  0  0  0
  -31.7978  -14.7189   20.1121 O   0  0  0  0  0  0
  -21.6658   -6.8795   21.4214 O   0  0  0  0  0  0
  -22.3516  -14.5575   20.6640 O   0  0  0  0  0  0
  -24.6210  -31.8679   23.2114 C   0  0  0  0  0  0
  -25.9116  -32.4817   23.8411 C   0  0  1  0  0  0
  -27.2192  -27.3747   20.0681 C   0  0  0  0  0  0
  -25.5993  -33.8610   24.2363 N   0  0  0  0  0  0
  -23.4101  -30.4954   21.5555 C   0  0  2  0  0  0
  -24.8500  -28.9638   20.1197 C   0  0  0  0  0  0
  -22.7452  -29.4649   22.4970 C   0  0  0  0  0  0
  -18.0312  -28.1387   22.8448 C   0  0  0  0  0  0
  -24.1480  -36.7261   23.2614 C   0  0  0  0  0  0
  -25.9517  -30.8050   21.3871 C   0  0  0  0  0  0
  -26.0207  -29.4399   20.7226 C   0  0  0  0  0  0
  -27.2034  -28.6520   20.7016 C   0  0  0  0  0  0
  -26.0158  -26.9376   19.4668 C   0  0  0  0  0  0
  -24.8453  -27.7114   19.4968 C   0  0  0  0  0  0
  -23.6209  -29.8393   20.1667 C   0  0  0  0  0  0
  -25.4099  -36.3083   24.0337 C   0  0  1  0  0  0
  -20.5896  -28.3678   23.1274 C   0  0  2  0  0  0
  -20.6807  -26.9405   22.5421 C   0  0  0  0  0  0
  -19.5804  -26.6355   21.5197 C   0  0  0  0  0  0
  -18.1948  -26.7950   22.1550 C   0  0  0  0  0  0
  -19.1550  -28.8857   23.2852 C   0  0  0  0  0  0
  -18.9490  -30.1462   23.8855 C   0  0  0  0  0  0
  -17.6488  -30.6581   24.0566 C   0  0  0  0  0  0
  -25.9034  -34.9476   23.5131 C   0  0  0  0  0  0
  -16.5368  -29.9063   23.6333 C   0  0  0  0  0  0
  -16.7299  -28.6484   23.0330 C   0  0  0  0  0  0
  -26.4502  -31.6610   25.0770 C   0  0  0  0  0  0
  -25.3746  -31.3874   26.1549 C   0  0  0  0  0  0
  -27.0279  -30.2990   24.6241 C   0  0  0  0  0  0
  -27.6096  -32.4326   25.7509 C   0  0  0  0  0  0
  -27.5639  -37.1722   24.8406 C   0  0  0  0  0  0
  -21.4190  -29.3032   22.3687 N   0  0  0  0  0  0
  -26.4257  -37.3802   23.9469 N   0  0  0  0  0  0
  -24.6792  -31.0736   22.1060 N   0  0  0  0  0  0
  -23.4207  -28.8167   23.3016 O   0  0  0  0  0  0
  -28.3834  -26.5999   20.0679 O   0  0  0  0  0  0
  -26.5537  -34.8910   22.4644 O   0  0  0  0  0  0
  -23.5402  -32.1480   23.7462 O   0  0  0  0  0  0
  -30.1770  -19.3909   21.2814 C   0  0  0  0  0  0
  -29.8453  -18.0740   21.0549 C   0  0  0  0  0  0
  -29.3226  -20.3179   20.5866 C   0  0  0  0  0  0
  -30.5209  -16.8328   21.6366 C   0  0  0  0  0  0
  -28.6190  -22.7645   20.0875 C   0  0  0  0  0  0
  -28.4012  -25.2884   19.4195 C   0  0  0  0  0  0
  -29.3015  -24.1987   20.1060 C   0  0  1  0  0  0
  -28.3784  -19.7784   19.8469 N   0  0  0  0  0  0
  -29.4868  -21.7254   20.6783 N   0  0  0  0  0  0
  -30.0064  -15.5035   21.2452 N   0  0  0  0  0  0
  -29.5570  -24.5768   21.4575 O   0  0  0  0  0  0
  -28.4681  -18.0877   19.9847 S   0  0  0  0  0  0
  -31.4690  -12.4477   19.1443 H   0  0  0  0  0  0
  -30.3033  -11.3427   19.8098 H   0  0  0  0  0  0
  -29.7526  -11.9057   17.3903 H   0  0  0  0  0  0
  -29.6769  -13.5927   17.8178 H   0  0  0  0  0  0
  -27.8151  -11.3735   18.7352 H   0  0  0  0  0  0
  -27.3913  -12.7642   17.7648 H   0  0  0  0  0  0
  -27.6934  -14.2833   19.5977 H   0  0  0  0  0  0
  -28.6827  -11.9631   21.3172 H   0  0  0  0  0  0
  -28.4457  -13.5882   21.8820 H   0  0  0  0  0  0
  -25.2642   -9.5795   22.4627 H   0  0  0  0  0  0
  -23.9972   -7.4676   22.7412 H   0  0  0  0  0  0
  -21.0695   -8.8677   19.8960 H   0  0  0  0  0  0
  -22.3465  -10.9580   19.6057 H   0  0  0  0  0  0
  -21.2053   -7.6041   23.9663 H   0  0  0  0  0  0
  -21.1463   -6.0409   25.9045 H   0  0  0  0  0  0
  -22.0587   -2.7496   23.2904 H   0  0  0  0  0  0
  -22.4012  -12.0053   22.4953 H   0  0  0  0  0  0
  -21.1001  -13.1368   22.2457 H   0  0  0  0  0  0
  -24.6415  -15.8348   20.4888 H   0  0  0  0  0  0
  -26.2712  -15.6365   20.1001 H   0  0  0  0  0  0
  -26.7177  -32.5487   23.1161 H   0  0  0  0  0  0
  -25.0371  -33.9799   25.0677 H   0  0  0  0  0  0
  -22.6959  -31.3103   21.4207 H   0  0  0  0  0  0
  -23.3823  -35.9496   23.3122 H   0  0  0  0  0  0
  -24.3632  -36.9032   22.2062 H   0  0  0  0  0  0
  -23.7095  -37.6362   23.6721 H   0  0  0  0  0  0
  -26.1020  -31.5725   20.6270 H   0  0  0  0  0  0
  -26.8260  -30.8359   22.0265 H   0  0  0  0  0  0
  -28.1037  -29.0161   21.1766 H   0  0  0  0  0  0
  -25.9070  -25.9985   18.9505 H   0  0  0  0  0  0
  -23.9453  -27.3376   19.0286 H   0  0  0  0  0  0
  -23.7459  -30.6199   19.4155 H   0  0  0  0  0  0
  -22.7422  -29.2713   19.8610 H   0  0  0  0  0  0
  -25.1237  -36.1928   25.0814 H   0  0  0  0  0  0
  -20.9980  -28.3305   24.1409 H   0  0  0  0  0  0
  -20.5713  -26.2295   23.3621 H   0  0  0  0  0  0
  -21.6699  -26.7436   22.1247 H   0  0  0  0  0  0
  -19.6962  -25.6246   21.1282 H   0  0  0  0  0  0
  -19.6783  -27.3120   20.6693 H   0  0  0  0  0  0
  -17.4265  -26.6767   21.3893 H   0  0  0  0  0  0
  -18.0262  -26.0073   22.8901 H   0  0  0  0  0  0
  -19.7962  -30.7302   24.2179 H   0  0  0  0  0  0
  -17.5035  -31.6244   24.5180 H   0  0  0  0  0  0
  -15.5377  -30.2948   23.7661 H   0  0  0  0  0  0
  -15.8717  -28.0792   22.7051 H   0  0  0  0  0  0
  -24.5891  -30.7209   25.8002 H   0  0  0  0  0  0
  -24.8986  -32.3106   26.4851 H   0  0  0  0  0  0
  -25.8091  -30.9204   27.0390 H   0  0  0  0  0  0
  -26.2834  -29.6791   24.1238 H   0  0  0  0  0  0
  -27.3916  -29.7216   25.4747 H   0  0  0  0  0  0
  -27.8751  -30.4226   23.9492 H   0  0  0  0  0  0
  -27.2747  -33.3668   26.2016 H   0  0  0  0  0  0
  -28.3928  -32.6795   25.0341 H   0  0  0  0  0  0
  -28.0707  -31.8486   26.5485 H   0  0  0  0  0  0
  -28.2474  -38.0195   24.7732 H   0  0  0  0  0  0
  -28.1309  -36.2767   24.5822 H   0  0  0  0  0  0
  -27.2441  -37.0898   25.8807 H   0  0  0  0  0  0
  -20.9359  -29.8763   21.6907 H   0  0  0  0  0  0
  -26.0148  -38.2831   24.1656 H   0  0  0  0  0  0
  -30.9940  -19.7066   21.9180 H   0  0  0  0  0  0
  -30.4473  -16.8794   22.7262 H   0  0  0  0  0  0
  -31.5950  -16.8952   21.4393 H   0  0  0  0  0  0
  -28.3711  -22.4735   19.0619 H   0  0  0  0  0  0
  -27.6620  -22.7674   20.6151 H   0  0  0  0  0  0
  -27.4350  -24.8034   19.3452 H   0  0  0  0  0  0
  -28.7235  -25.4349   18.3847 H   0  0  0  0  0  0
  -30.2582  -24.1501   19.5711 H   0  0  0  0  0  0
  -30.1850  -22.0754   21.3218 H   0  0  0  0  0  0
  -29.1037  -15.2474   21.6086 H   0  0  0  0  0  0
  -28.8466  -25.1284   21.7717 H   0  0  0  0  0  0
  1 25  1  0  0  0
  1 30  2  0  0  0
  1 80  1  0  0  0
  2  3  1  0  0  0
  2 25  1  0  0  0
  2 83  1  0  0  0
  2 84  1  0  0  0
  3  4  1  0  0  0
  3 85  1  0  0  0
  3 86  1  0  0  0
  4  5  1  0  0  0
  4 87  1  0  0  0
  4 88  1  0  0  0
  5  6  1  0  0  0
  5 26  1  0  0  0
  5 89  1  0  0  0
  6 25  1  0  0  0
  6 90  1  0  0  0
  6 91  1  0  0  0
  7  8  2  0  0  0
  7 26  1  0  0  0
  7 29  1  0  0  0
  8  9  1  0  0  0
  8 22  1  0  0  0
  9 10  1  0  0  0
  9 27  2  0  0  0
 10 11  2  0  0  0
 10 15  1  0  0  0
 11 12  1  0  0  0
 11 92  1  0  0  0
 12 13  2  0  0  0
 12 93  1  0  0  0
 13 14  1  0  0  0
 13 31  1  0  0  0
 14 15  2  0  0  0
 14 94  1  0  0  0
 15 95  1  0  0  0
 16 17  2  0  0  0
 16 21  1  0  0  0
 16 31  1  0  0  0
 17 18  1  0  0  0
 17 96  1  0  0  0
 18 19  2  0  0  0
 18 97  1  0  0  0
 19 20  1  0  0  0
 19 24  1  0  0  0
 20 21  2  0  0  0
 20 98  1  0  0  0
 21 23  1  0  0  0
 22 28  1  0  0  0
 22 32  2  0  0  0
 26 27  1  0  0  0
 28 99  1  0  0  0
 28100  1  0  0  0
 29101  1  0  0  0
 29102  1  0  0  0
 33 34  1  0  0  0
 33 66  1  0  0  0
 33 70  2  0  0  0
 34 36  1  0  0  0
 34 59  1  0  0  0
 34103  1  0  0  0
 35 44  2  0  0  0
 35 45  1  0  0  0
 35 68  1  0  0  0
 36 56  1  0  0  0
 36104  1  0  0  0
 37 39  1  0  0  0
 37 47  1  0  0  0
 37 66  1  0  0  0
 37105  1  0  0  0
 38 43  2  0  0  0
 38 46  1  0  0  0
 38 47  1  0  0  0
 39 64  1  0  0  0
 39 67  2  0  0  0
 40 52  1  0  0  0
 40 53  2  0  0  0
 40 58  1  0  0  0
 41106  1  0  0  0
 41107  1  0  0  0
 41108  1  0  0  0
 41 48  1  0  0  0
 42 43  1  0  0  0
 42 66  1  0  0  0
 42109  1  0  0  0
 42110  1  0  0  0
 43 44  1  0  0  0
 44111  1  0  0  0
 45 46  2  0  0  0
 45112  1  0  0  0
 46113  1  0  0  0
 47114  1  0  0  0
 47115  1  0  0  0
 48 56  1  0  0  0
 48 65  1  0  0  0
 48116  1  0  0  0
 49 50  1  0  0  0
 49 53  1  0  0  0
 49 64  1  0  0  0
 49117  1  0  0  0
 50 51  1  0  0  0
 50118  1  0  0  0
 50119  1  0  0  0
 51 52  1  0  0  0
 51120  1  0  0  0
 51121  1  0  0  0
 52122  1  0  0  0
 52123  1  0  0  0
 53 54  1  0  0  0
 54 55  2  0  0  0
 54124  1  0  0  0
 55 57  1  0  0  0
 55125  1  0  0  0
 56 69  2  0  0  0
 57 58  2  0  0  0
 57126  1  0  0  0
 58127  1  0  0  0
 59 60  1  0  0  0
 59 61  1  0  0  0
 59 62  1  0  0  0
 60128  1  0  0  0
 60129  1  0  0  0
 60130  1  0  0  0
 61131  1  0  0  0
 61132  1  0  0  0
 61133  1  0  0  0
 62134  1  0  0  0
 62135  1  0  0  0
 62136  1  0  0  0
 63 65  1  0  0  0
 63137  1  0  0  0
 63138  1  0  0  0
 63139  1  0  0  0
 64140  1  0  0  0
 65141  1  0  0  0
 68 76  1  0  0  0
 71 72  2  0  0  0
 71 73  1  0  0  0
 71142  1  0  0  0
 72 74  1  0  0  0
 72 82  1  0  0  0
 73 78  2  0  0  0
 73 79  1  0  0  0
 74 80  1  0  0  0
 74143  1  0  0  0
 74144  1  0  0  0
 75 77  1  0  0  0
 75 79  1  0  0  0
 75145  1  0  0  0
 75146  1  0  0  0
 76 77  1  0  0  0
 76147  1  0  0  0
 76148  1  0  0  0
 77 81  1  0  0  0
 77149  1  0  0  0
 78 82  1  0  0  0
 79150  1  0  0  0
 80151  1  0  0  0
 81152  1  0  0  0
M  ISO  4   1 100  68 101  76 101  80 100
M  END
> <chiral flag>
0

> <version>
0

> <s_m_source_file>
/data/baiqing/PycharmProjects/Reinvent-master-3.2/result/LINK_invent/BTK/process_docking_weight1_custom_product_contain_oxygen_bond_distance_aromatic_linkinvent_7_9_3/rearranged_h_0198.sdf

> <i_m_source_file_index>
6

> <r_mmod_Potential_Energy-OPLS-2005>
-201.084106445312

> <r_mmod_Stretch_Energy-OPLS-2005>
51.4583587646484

> <r_mmod_Bend_Energy-OPLS-2005>
123.163558959961

> <r_mmod_Torsional_Energy-OPLS-2005>
235.662292480469

> <r_mmod_Improper_Torsional_Energy-OPLS-2005>
2.82511591911316

> <r_mmod_Van_der_Waal_Energy-OPLS-2005>
133.366165161133

> <r_mmod_Electrostatic_Energy-OPLS-2005>
-523.685363769531

> <r_mmod_Solvation_Energy-OPLS-2005>
-247.118392944336

> <b_mmod_Minimization_Converged-OPLS-2005>
0

> <r_mmod_RMS_Derivative-OPLS-2005>
9.78807544708252

$$$$
6
                    3D
 Structure written by MMmdl.
149157  0  0  1  0            999 V2000
  -30.6813  -14.5315   20.5655 C   0  0  0  0  0  0
  -30.4257  -12.3474   19.4235 C   0  0  0  0  0  0
  -29.4938  -12.5047   18.2046 C   0  0  0  0  0  0
  -28.0169  -12.3549   18.6213 C   0  0  0  0  0  0
  -27.6544  -13.2108   19.8647 C   0  0  2  0  0  0
  -28.6981  -13.0253   20.9870 C   0  0  0  0  0  0
  -25.2561  -13.8166   20.5676 C   0  0  0  0  0  0
  -24.1822  -13.0438   20.9186 C   0  0  0  0  0  0
  -24.6382  -11.6906   20.8737 C   0  0  0  0  0  0
  -23.9052  -10.4291   21.0405 C   0  0  0  0  0  0
  -24.3608   -9.4208   21.9182 C   0  0  0  0  0  0
  -23.6287   -8.2241   22.0753 C   0  0  0  0  0  0
  -22.4270   -8.0277   21.3543 C   0  0  0  0  0  0
  -21.9901   -9.0249   20.4646 C   0  0  0  0  0  0
  -22.7226  -10.2131   20.3054 C   0  0  0  0  0  0
  -21.6851   -6.0732   22.5279 C   0  0  0  0  0  0
  -21.4011   -6.5636   23.8211 C   0  0  0  0  0  0
  -21.3660   -5.6791   24.9175 C   0  0  0  0  0  0
  -21.6046   -4.3053   24.7226 C   0  0  0  0  0  0
  -21.8818   -3.8145   23.4347 C   0  0  0  0  0  0
  -21.9192   -4.6960   22.3403 C   0  0  0  0  0  0
  -22.7846  -13.5236   21.1853 C   0  0  0  0  0  0
  -22.1661   -4.2145   21.0980 F   0  0  0  0  0  0
  -21.5632   -3.4538   25.7739 F   0  0  0  0  0  0
  -30.0181  -13.3485   20.4236 N   0  0  0  0  0  0
  -26.2985  -12.9339   20.3321 N   0  0  0  0  0  0
  -25.9306  -11.6497   20.5749 N   0  0  0  0  0  0
  -22.0486  -12.8228   22.0409 N   0  0  0  0  0  0
  -25.4286  -15.1885   20.4082 N   0  0  0  0  0  0
  -31.8272  -14.6981   20.1395 O   0  0  0  0  0  0
  -21.6637   -6.8872   21.4239 O   0  0  0  0  0  0
  -22.3533  -14.5544   20.6704 O   0  0  0  0  0  0
  -24.6180  -31.8647   23.2057 C   0  0  0  0  0  0
  -25.9057  -32.4805   23.8369 C   0  0  1  0  0  0
  -27.2327  -27.3940   20.1138 C   0  0  0  0  0  0
  -25.5902  -33.8602   24.2307 N   0  0  0  0  0  0
  -23.4085  -30.4859   21.5470 C   0  0  2  0  0  0
  -24.8554  -28.9404   20.1192 C   0  0  0  0  0  0
  -22.7428  -29.4643   22.4975 C   0  0  0  0  0  0
  -18.0275  -28.1382   22.8494 C   0  0  0  0  0  0
  -24.1486  -36.7305   23.2640 C   0  0  0  0  0  0
  -25.9398  -30.8197   21.3616 C   0  0  0  0  0  0
  -26.0179  -29.4488   20.7126 C   0  0  0  0  0  0
  -27.2128  -28.6865   20.6981 C   0  0  0  0  0  0
  -26.0532  -26.9041   19.5179 C   0  0  0  0  0  0
  -24.8697  -27.6694   19.5165 C   0  0  0  0  0  0
  -23.6195  -29.8131   20.1640 C   0  0  0  0  0  0
  -25.4109  -36.3100   24.0336 C   0  0  1  0  0  0
  -20.5869  -28.3672   23.1313 C   0  0  2  0  0  0
  -20.6765  -26.9405   22.5417 C   0  0  0  0  0  0
  -19.5742  -26.6389   21.5213 C   0  0  0  0  0  0
  -18.1922  -26.7928   22.1626 C   0  0  0  0  0  0
  -19.1526  -28.8844   23.2902 C   0  0  0  0  0  0
  -18.9452  -30.1451   23.8911 C   0  0  0  0  0  0
  -17.6454  -30.6587   24.0569 C   0  0  0  0  0  0
  -25.9040  -34.9466   23.5121 C   0  0  0  0  0  0
  -16.5345  -29.9090   23.6329 C   0  0  0  0  0  0
  -16.7265  -28.6508   23.0349 C   0  0  0  0  0  0
  -26.4474  -31.6588   25.0707 C   0  0  0  0  0  0
  -25.3735  -31.3699   26.1453 C   0  0  0  0  0  0
  -27.0307  -30.3030   24.6089 C   0  0  0  0  0  0
  -27.6050  -32.4307   25.7471 C   0  0  0  0  0  0
  -27.5580  -37.1809   24.8468 C   0  0  0  0  0  0
  -21.4151  -29.3035   22.3714 N   0  0  0  0  0  0
  -26.4293  -37.3787   23.9409 N   0  0  0  0  0  0
  -24.6740  -31.0721   22.0966 N   0  0  0  0  0  0
  -23.4182  -28.8193   23.3039 O   0  0  0  0  0  0
  -28.3914  -26.6386   20.0817 O   0  0  0  0  0  0
  -26.5604  -34.8925   22.4685 O   0  0  0  0  0  0
  -23.5364  -32.1407   23.7434 O   0  0  0  0  0  0
  -30.0176  -18.1023   20.9421 C   0  0  0  0  0  0
  -29.1738  -20.3630   20.4837 C   0  0  0  0  0  0
  -29.0476  -22.8590   20.1041 C   0  0  0  0  0  0
  -30.5368  -16.8306   21.6039 C   0  0  0  0  0  0
  -28.0919  -24.0756   19.8981 C   0  0  0  0  0  0
  -28.3796  -25.3539   20.7608 C   0  0  0  0  0  0
  -30.6687  -18.7188   19.9391 N   0  0  0  0  0  0
  -30.1935  -20.0125   19.6796 N   0  0  0  0  0  0
  -28.5189  -21.6435   20.4028 N   0  0  0  0  0  0
  -29.9779  -15.5524   21.1060 N   0  0  0  0  0  0
  -30.2624  -23.0398   19.9840 O   0  0  0  0  0  0
  -28.6602  -19.0609   21.5736 S   0  0  0  0  0  0
  -31.4676  -12.4615   19.1189 H   0  0  0  0  0  0
  -30.3461  -11.3430   19.8424 H   0  0  0  0  0  0
  -29.7427  -11.7655   17.4419 H   0  0  0  0  0  0
  -29.6486  -13.4822   17.7447 H   0  0  0  0  0  0
  -27.8410  -11.3002   18.8360 H   0  0  0  0  0  0
  -27.3618  -12.6065   17.7864 H   0  0  0  0  0  0
  -27.6872  -14.2534   19.5474 H   0  0  0  0  0  0
  -28.6922  -11.9951   21.3463 H   0  0  0  0  0  0
  -28.4526  -13.6390   21.8548 H   0  0  0  0  0  0
  -25.2755   -9.5685   22.4754 H   0  0  0  0  0  0
  -24.0000   -7.4632   22.7470 H   0  0  0  0  0  0
  -21.0834   -8.8762   19.8952 H   0  0  0  0  0  0
  -22.3681  -10.9667   19.6162 H   0  0  0  0  0  0
  -21.1999   -7.6144   23.9712 H   0  0  0  0  0  0
  -21.1485   -6.0522   25.9077 H   0  0  0  0  0  0
  -22.0598   -2.7606   23.2848 H   0  0  0  0  0  0
  -22.4099  -11.9888   22.4796 H   0  0  0  0  0  0
  -21.1104  -13.1254   22.2614 H   0  0  0  0  0  0
  -24.6613  -15.8436   20.5129 H   0  0  0  0  0  0
  -26.2763  -15.6247   20.0683 H   0  0  0  0  0  0
  -26.7129  -32.5510   23.1133 H   0  0  0  0  0  0
  -25.0051  -33.9756   25.0452 H   0  0  0  0  0  0
  -22.6991  -31.3037   21.4039 H   0  0  0  0  0  0
  -23.3743  -35.9644   23.3313 H   0  0  0  0  0  0
  -24.3580  -36.8908   22.2052 H   0  0  0  0  0  0
  -23.7241  -37.6515   23.6646 H   0  0  0  0  0  0
  -26.0537  -31.5817   20.5895 H   0  0  0  0  0  0
  -26.8273  -30.8769   21.9800 H   0  0  0  0  0  0
  -28.1143  -29.0788   21.1477 H   0  0  0  0  0  0
  -26.0498  -25.9323   19.0457 H   0  0  0  0  0  0
  -23.9767  -27.2732   19.0525 H   0  0  0  0  0  0
  -23.7325  -30.5854   19.4023 H   0  0  0  0  0  0
  -22.7421  -29.2352   19.8678 H   0  0  0  0  0  0
  -25.1286  -36.1962   25.0829 H   0  0  0  0  0  0
  -20.9968  -28.3238   24.1432 H   0  0  0  0  0  0
  -20.5666  -26.2281   23.3605 H   0  0  0  0  0  0
  -21.6637  -26.7445   22.1213 H   0  0  0  0  0  0
  -19.6902  -25.6304   21.1233 H   0  0  0  0  0  0
  -19.6681  -27.3210   20.6751 H   0  0  0  0  0  0
  -17.4193  -26.6681   21.4026 H   0  0  0  0  0  0
  -18.0326  -26.0065   22.9020 H   0  0  0  0  0  0
  -19.7928  -30.7268   24.2284 H   0  0  0  0  0  0
  -17.5008  -31.6269   24.5171 H   0  0  0  0  0  0
  -15.5348  -30.2998   23.7642 H   0  0  0  0  0  0
  -15.8665  -28.0835   22.7050 H   0  0  0  0  0  0
  -24.5911  -30.7042   25.7791 H   0  0  0  0  0  0
  -24.8921  -32.2853   26.4903 H   0  0  0  0  0  0
  -25.8086  -30.8867   27.0210 H   0  0  0  0  0  0
  -26.2852  -29.6790   24.1145 H   0  0  0  0  0  0
  -27.4079  -29.7268   25.4548 H   0  0  0  0  0  0
  -27.8685  -30.4351   23.9238 H   0  0  0  0  0  0
  -27.2672  -33.3597   26.2075 H   0  0  0  0  0  0
  -28.3845  -32.6879   25.0288 H   0  0  0  0  0  0
  -28.0732  -31.8410   26.5362 H   0  0  0  0  0  0
  -28.2610  -38.0096   24.7509 H   0  0  0  0  0  0
  -28.1062  -36.2628   24.6301 H   0  0  0  0  0  0
  -27.2300  -37.1473   25.8873 H   0  0  0  0  0  0
  -20.9315  -29.8754   21.6932 H   0  0  0  0  0  0
  -26.0179  -38.2865   24.1404 H   0  0  0  0  0  0
  -30.3127  -16.8949   22.6687 H   0  0  0  0  0  0
  -31.6260  -16.8313   21.5378 H   0  0  0  0  0  0
  -27.0568  -23.7644   20.0396 H   0  0  0  0  0  0
  -28.1726  -24.3474   18.8458 H   0  0  0  0  0  0
  -29.3619  -25.2596   21.2246 H   0  0  0  0  0  0
  -27.6805  -25.3870   21.5986 H   0  0  0  0  0  0
  -27.5341  -21.6300   20.6235 H   0  0  0  0  0  0
  -29.0207  -15.3565   21.3541 H   0  0  0  0  0  0
  1 25  1  0  0  0
  1 30  2  0  0  0
  1 80  1  0  0  0
  2  3  1  0  0  0
  2 25  1  0  0  0
  2 83  1  0  0  0
  2 84  1  0  0  0
  3  4  1  0  0  0
  3 85  1  0  0  0
  3 86  1  0  0  0
  4  5  1  0  0  0
  4 87  1  0  0  0
  4 88  1  0  0  0
  5  6  1  0  0  0
  5 26  1  0  0  0
  5 89  1  0  0  0
  6 25  1  0  0  0
  6 90  1  0  0  0
  6 91  1  0  0  0
  7  8  2  0  0  0
  7 26  1  0  0  0
  7 29  1  0  0  0
  8  9  1  0  0  0
  8 22  1  0  0  0
  9 10  1  0  0  0
  9 27  2  0  0  0
 10 11  2  0  0  0
 10 15  1  0  0  0
 11 12  1  0  0  0
 11 92  1  0  0  0
 12 13  2  0  0  0
 12 93  1  0  0  0
 13 14  1  0  0  0
 13 31  1  0  0  0
 14 15  2  0  0  0
 14 94  1  0  0  0
 15 95  1  0  0  0
 16 17  2  0  0  0
 16 21  1  0  0  0
 16 31  1  0  0  0
 17 18  1  0  0  0
 17 96  1  0  0  0
 18 19  2  0  0  0
 18 97  1  0  0  0
 19 20  1  0  0  0
 19 24  1  0  0  0
 20 21  2  0  0  0
 20 98  1  0  0  0
 21 23  1  0  0  0
 22 28  1  0  0  0
 22 32  2  0  0  0
 26 27  1  0  0  0
 28 99  1  0  0  0
 28100  1  0  0  0
 29101  1  0  0  0
 29102  1  0  0  0
 33 34  1  0  0  0
 33 66  1  0  0  0
 33 70  2  0  0  0
 34 36  1  0  0  0
 34 59  1  0  0  0
 34103  1  0  0  0
 35 44  2  0  0  0
 35 45  1  0  0  0
 35 68  1  0  0  0
 36 56  1  0  0  0
 36104  1  0  0  0
 37 39  1  0  0  0
 37 47  1  0  0  0
 37 66  1  0  0  0
 37105  1  0  0  0
 38 43  2  0  0  0
 38 46  1  0  0  0
 38 47  1  0  0  0
 39 64  1  0  0  0
 39 67  2  0  0  0
 40 52  1  0  0  0
 40 53  2  0  0  0
 40 58  1  0  0  0
 41106  1  0  0  0
 41107  1  0  0  0
 41108  1  0  0  0
 41 48  1  0  0  0
 42 43  1  0  0  0
 42 66  1  0  0  0
 42109  1  0  0  0
 42110  1  0  0  0
 43 44  1  0  0  0
 44111  1  0  0  0
 45 46  2  0  0  0
 45112  1  0  0  0
 46113  1  0  0  0
 47114  1  0  0  0
 47115  1  0  0  0
 48 56  1  0  0  0
 48 65  1  0  0  0
 48116  1  0  0  0
 49 50  1  0  0  0
 49 53  1  0  0  0
 49 64  1  0  0  0
 49117  1  0  0  0
 50 51  1  0  0  0
 50118  1  0  0  0
 50119  1  0  0  0
 51 52  1  0  0  0
 51120  1  0  0  0
 51121  1  0  0  0
 52122  1  0  0  0
 52123  1  0  0  0
 53 54  1  0  0  0
 54 55  2  0  0  0
 54124  1  0  0  0
 55 57  1  0  0  0
 55125  1  0  0  0
 56 69  2  0  0  0
 57 58  2  0  0  0
 57126  1  0  0  0
 58127  1  0  0  0
 59 60  1  0  0  0
 59 61  1  0  0  0
 59 62  1  0  0  0
 60128  1  0  0  0
 60129  1  0  0  0
 60130  1  0  0  0
 61131  1  0  0  0
 61132  1  0  0  0
 61133  1  0  0  0
 62134  1  0  0  0
 62135  1  0  0  0
 62136  1  0  0  0
 63 65  1  0  0  0
 63137  1  0  0  0
 63138  1  0  0  0
 63139  1  0  0  0
 64140  1  0  0  0
 65141  1  0  0  0
 68 76  1  0  0  0
 71 74  1  0  0  0
 71 77  2  0  0  0
 71 82  1  0  0  0
 72 78  2  0  0  0
 72 79  1  0  0  0
 72 82  1  0  0  0
 73 75  1  0  0  0
 73 79  1  0  0  0
 73 81  2  0  0  0
 74 80  1  0  0  0
 74142  1  0  0  0
 74143  1  0  0  0
 75 76  1  0  0  0
 75144  1  0  0  0
 75145  1  0  0  0
 76146  1  0  0  0
 76147  1  0  0  0
 77 78  1  0  0  0
 79148  1  0  0  0
 80149  1  0  0  0
M  ISO  4   1 100  68 101  76 101  80 100
M  END
> <chiral flag>
0

> <version>
0

> <s_m_source_file>
/data/baiqing/PycharmProjects/Reinvent-master-3.2/result/LINK_invent/BTK/process_docking_weight1_custom_product_contain_oxygen_bond_distance_aromatic_linkinvent_7_9_3/rearranged_h_0198.sdf

> <i_m_source_file_index>
7

> <r_mmod_Potential_Energy-OPLS-2005>
-224.265335083008

> <r_mmod_Stretch_Energy-OPLS-2005>
45.6700706481934

> <r_mmod_Bend_Energy-OPLS-2005>
116.215728759766

> <r_mmod_Torsional_Energy-OPLS-2005>
231.232238769531

> <r_mmod_Improper_Torsional_Energy-OPLS-2005>
3.90926861763

> <r_mmod_Van_der_Waal_Energy-OPLS-2005>
123.059844970703

> <r_mmod_Electrostatic_Energy-OPLS-2005>
-481.932647705078

> <r_mmod_Solvation_Energy-OPLS-2005>
-282.6083984375

> <b_mmod_Minimization_Converged-OPLS-2005>
0

> <r_mmod_RMS_Derivative-OPLS-2005>
0.405394226312637

$$$$
7
                    3D
 Structure written by MMmdl.
153161  0  0  1  0            999 V2000
  -30.7265  -14.5018   20.5296 C   0  0  0  0  0  0
  -30.4179  -12.3163   19.4410 C   0  0  0  0  0  0
  -29.4920  -12.4903   18.2208 C   0  0  0  0  0  0
  -28.0163  -12.3524   18.6393 C   0  0  0  0  0  0
  -27.6575  -13.2204   19.8730 C   0  0  2  0  0  0
  -28.7045  -13.0593   21.0009 C   0  0  0  0  0  0
  -25.2581  -13.8212   20.5703 C   0  0  0  0  0  0
  -24.1835  -13.0447   20.9159 C   0  0  0  0  0  0
  -24.6428  -11.6929   20.8765 C   0  0  0  0  0  0
  -23.9084  -10.4312   21.0413 C   0  0  0  0  0  0
  -24.3617   -9.4207   21.9192 C   0  0  0  0  0  0
  -23.6297   -8.2233   22.0749 C   0  0  0  0  0  0
  -22.4275   -8.0293   21.3533 C   0  0  0  0  0  0
  -21.9910   -9.0279   20.4633 C   0  0  0  0  0  0
  -22.7244  -10.2171   20.3054 C   0  0  0  0  0  0
  -21.6860   -6.0741   22.5275 C   0  0  0  0  0  0
  -21.4011   -6.5651   23.8202 C   0  0  0  0  0  0
  -21.3647   -5.6808   24.9172 C   0  0  0  0  0  0
  -21.6040   -4.3063   24.7233 C   0  0  0  0  0  0
  -21.8822   -3.8152   23.4355 C   0  0  0  0  0  0
  -21.9190   -4.6967   22.3405 C   0  0  0  0  0  0
  -22.7853  -13.5206   21.1863 C   0  0  0  0  0  0
  -22.1666   -4.2147   21.0980 F   0  0  0  0  0  0
  -21.5630   -3.4550   25.7744 F   0  0  0  0  0  0
  -30.0335  -13.3343   20.4354 N   0  0  0  0  0  0
  -26.3022  -12.9387   20.3404 N   0  0  0  0  0  0
  -25.9349  -11.6532   20.5827 N   0  0  0  0  0  0
  -22.0540  -12.8176   22.0442 N   0  0  0  0  0  0
  -25.4360  -15.1914   20.4109 N   0  0  0  0  0  0
  -31.8710  -14.6294   20.0925 O   0  0  0  0  0  0
  -21.6637   -6.8882   21.4232 O   0  0  0  0  0  0
  -22.3489  -14.5485   20.6722 O   0  0  0  0  0  0
  -24.6145  -31.8699   23.2157 C   0  0  0  0  0  0
  -25.9049  -32.4858   23.8422 C   0  0  1  0  0  0
  -27.2372  -27.4091   20.0997 C   0  0  0  0  0  0
  -25.5882  -33.8656   24.2341 N   0  0  0  0  0  0
  -23.4047  -30.4964   21.5538 C   0  0  2  0  0  0
  -24.8530  -28.9657   20.1178 C   0  0  0  0  0  0
  -22.7402  -29.4718   22.5011 C   0  0  0  0  0  0
  -18.0274  -28.1393   22.8590 C   0  0  0  0  0  0
  -24.1469  -36.7310   23.2638 C   0  0  0  0  0  0
  -25.9384  -30.8313   21.3725 C   0  0  0  0  0  0
  -26.0145  -29.4639   20.7167 C   0  0  0  0  0  0
  -27.2064  -28.6981   20.6990 C   0  0  0  0  0  0
  -26.0479  -26.9452   19.4853 C   0  0  0  0  0  0
  -24.8678  -27.7081   19.5009 C   0  0  0  0  0  0
  -23.6120  -29.8278   20.1706 C   0  0  0  0  0  0
  -25.4117  -36.3146   24.0323 C   0  0  1  0  0  0
  -20.5870  -28.3723   23.1366 C   0  0  2  0  0  0
  -20.6769  -26.9425   22.5511 C   0  0  0  0  0  0
  -19.5708  -26.6367   21.5366 C   0  0  0  0  0  0
  -18.1924  -26.7877   22.1829 C   0  0  0  0  0  0
  -19.1523  -28.8886   23.2929 C   0  0  0  0  0  0
  -18.9433  -30.1512   23.8894 C   0  0  0  0  0  0
  -17.6419  -30.6668   24.0474 C   0  0  0  0  0  0
  -25.9039  -34.9510   23.5137 C   0  0  0  0  0  0
  -16.5322  -29.9116   23.6312 C   0  0  0  0  0  0
  -16.7268  -28.6471   23.0450 C   0  0  0  0  0  0
  -26.4482  -31.6660   25.0769 C   0  0  0  0  0  0
  -25.3711  -31.3738   26.1482 C   0  0  0  0  0  0
  -27.0322  -30.3091   24.6214 C   0  0  0  0  0  0
  -27.6098  -32.4354   25.7499 C   0  0  0  0  0  0
  -27.5581  -37.1811   24.8476 C   0  0  0  0  0  0
  -21.4113  -29.3106   22.3750 N   0  0  0  0  0  0
  -26.4316  -37.3815   23.9398 N   0  0  0  0  0  0
  -24.6704  -31.0776   22.1055 N   0  0  0  0  0  0
  -23.4163  -28.8247   23.3052 O   0  0  0  0  0  0
  -28.4212  -26.6771   20.1354 O   0  0  0  0  0  0
  -26.5619  -34.8951   22.4700 O   0  0  0  0  0  0
  -23.5342  -32.1452   23.7560 O   0  0  0  0  0  0
  -27.8338  -20.0559   21.8698 C   0  0  0  0  0  0
  -29.9498  -19.4480   20.9106 C   0  0  0  0  0  0
  -27.5351  -18.6857   21.9613 C   0  0  0  0  0  0
  -29.0568  -20.4745   21.3006 C   0  0  0  0  0  0
  -29.5805  -18.0870   21.0705 C   0  0  0  0  0  0
  -28.5843  -22.9076   20.8841 C   0  0  0  0  0  0
  -30.5315  -16.9608   20.6670 C   0  0  0  0  0  0
  -29.1721  -24.3430   20.7908 C   0  0  0  0  0  0
  -28.4655  -25.2767   19.7510 C   0  0  0  0  0  0
  -28.3866  -17.7115   21.5749 N   0  0  0  0  0  0
  -29.4101  -21.8639   21.1525 N   0  0  0  0  0  0
  -30.0498  -15.5896   20.9340 N   0  0  0  0  0  0
  -27.3730  -22.7522   20.7037 O   0  0  0  0  0  0
  -31.4618  -12.4026   19.1291 H   0  0  0  0  0  0
  -30.3194  -11.3170   19.8654 H   0  0  0  0  0  0
  -29.7292  -11.7476   17.4600 H   0  0  0  0  0  0
  -29.6585  -13.4660   17.7642 H   0  0  0  0  0  0
  -27.8427  -11.3008   18.8608 H   0  0  0  0  0  0
  -27.3573  -12.5998   17.8052 H   0  0  0  0  0  0
  -27.6844  -14.2586   19.5428 H   0  0  0  0  0  0
  -28.6816  -12.0486   21.4094 H   0  0  0  0  0  0
  -28.4782  -13.7261   21.8358 H   0  0  0  0  0  0
  -25.2779   -9.5685   22.4750 H   0  0  0  0  0  0
  -24.0023   -7.4609   22.7448 H   0  0  0  0  0  0
  -21.0843   -8.8789   19.8931 H   0  0  0  0  0  0
  -22.3697  -10.9710   19.6151 H   0  0  0  0  0  0
  -21.2010   -7.6166   23.9706 H   0  0  0  0  0  0
  -21.1456   -6.0547   25.9077 H   0  0  0  0  0  0
  -22.0611   -2.7614   23.2859 H   0  0  0  0  0  0
  -22.4195  -11.9798   22.4738 H   0  0  0  0  0  0
  -21.1164  -13.1165   22.2736 H   0  0  0  0  0  0
  -24.6869  -15.8652   20.5276 H   0  0  0  0  0  0
  -26.3135  -15.6226   20.1482 H   0  0  0  0  0  0
  -26.7145  -32.5581   23.1207 H   0  0  0  0  0  0
  -24.9931  -33.9816   25.0427 H   0  0  0  0  0  0
  -22.6941  -31.3151   21.4139 H   0  0  0  0  0  0
  -23.3743  -35.9622   23.3346 H   0  0  0  0  0  0
  -24.3557  -36.8886   22.2045 H   0  0  0  0  0  0
  -23.7201  -37.6513   23.6635 H   0  0  0  0  0  0
  -26.0550  -31.6047   20.6101 H   0  0  0  0  0  0
  -26.8267  -30.8843   21.9921 H   0  0  0  0  0  0
  -28.1061  -29.0873   21.1585 H   0  0  0  0  0  0
  -25.9781  -26.0005   18.9734 H   0  0  0  0  0  0
  -23.9729  -27.3256   19.0327 H   0  0  0  0  0  0
  -23.7135  -30.6010   19.4066 H   0  0  0  0  0  0
  -22.7385  -29.2374   19.8827 H   0  0  0  0  0  0
  -25.1296  -36.2002   25.0810 H   0  0  0  0  0  0
  -20.9968  -28.3295   24.1493 H   0  0  0  0  0  0
  -20.5717  -26.2333   23.3751 H   0  0  0  0  0  0
  -21.6635  -26.7504   22.1221 H   0  0  0  0  0  0
  -19.6847  -25.6240   21.1467 H   0  0  0  0  0  0
  -19.6592  -27.3149   20.6871 H   0  0  0  0  0  0
  -17.4106  -26.6533   21.4340 H   0  0  0  0  0  0
  -18.0428  -26.0072   22.9296 H   0  0  0  0  0  0
  -19.7888  -30.7404   24.2220 H   0  0  0  0  0  0
  -17.5005  -31.6405   24.4958 H   0  0  0  0  0  0
  -15.5312  -30.3020   23.7565 H   0  0  0  0  0  0
  -15.8659  -28.0708   22.7336 H   0  0  0  0  0  0
  -24.5896  -30.7120   25.7727 H   0  0  0  0  0  0
  -24.8894  -32.2889   26.4952 H   0  0  0  0  0  0
  -25.8009  -30.8837   27.0234 H   0  0  0  0  0  0
  -26.2886  -29.6834   24.1280 H   0  0  0  0  0  0
  -27.4049  -29.7371   25.4727 H   0  0  0  0  0  0
  -27.8754  -30.4384   23.9422 H   0  0  0  0  0  0
  -27.2788  -33.3645   26.2153 H   0  0  0  0  0  0
  -28.3861  -32.6925   25.0275 H   0  0  0  0  0  0
  -28.0852  -31.8428   26.5335 H   0  0  0  0  0  0
  -28.2646  -38.0061   24.7506 H   0  0  0  0  0  0
  -28.1017  -36.2597   24.6334 H   0  0  0  0  0  0
  -27.2293  -37.1512   25.8877 H   0  0  0  0  0  0
  -20.9259  -29.8823   21.6995 H   0  0  0  0  0  0
  -26.0201  -38.2882   24.1400 H   0  0  0  0  0  0
  -27.1127  -20.7715   22.2352 H   0  0  0  0  0  0
  -30.9132  -19.6934   20.4848 H   0  0  0  0  0  0
  -26.5905  -18.3608   22.3720 H   0  0  0  0  0  0
  -31.4891  -17.1279   21.1617 H   0  0  0  0  0  0
  -30.7194  -17.0634   19.5938 H   0  0  0  0  0  0
  -30.2393  -24.2984   20.5704 H   0  0  0  0  0  0
  -29.0870  -24.7870   21.7845 H   0  0  0  0  0  0
  -27.4926  -24.8608   19.5235 H   0  0  0  0  0  0
  -29.0219  -25.2205   18.8122 H   0  0  0  0  0  0
  -30.3998  -22.0755   21.1917 H   0  0  0  0  0  0
  -29.1054  -15.5105   21.2877 H   0  0  0  0  0  0
  1 25  1  0  0  0
  1 30  2  0  0  0
  1 82  1  0  0  0
  2  3  1  0  0  0
  2 25  1  0  0  0
  2 84  1  0  0  0
  2 85  1  0  0  0
  3  4  1  0  0  0
  3 86  1  0  0  0
  3 87  1  0  0  0
  4  5  1  0  0  0
  4 88  1  0  0  0
  4 89  1  0  0  0
  5  6  1  0  0  0
  5 26  1  0  0  0
  5 90  1  0  0  0
  6 25  1  0  0  0
  6 91  1  0  0  0
  6 92  1  0  0  0
  7  8  2  0  0  0
  7 26  1  0  0  0
  7 29  1  0  0  0
  8  9  1  0  0  0
  8 22  1  0  0  0
  9 10  1  0  0  0
  9 27  2  0  0  0
 10 11  2  0  0  0
 10 15  1  0  0  0
 11 12  1  0  0  0
 11 93  1  0  0  0
 12 13  2  0  0  0
 12 94  1  0  0  0
 13 14  1  0  0  0
 13 31  1  0  0  0
 14 15  2  0  0  0
 14 95  1  0  0  0
 15 96  1  0  0  0
 16 17  2  0  0  0
 16 21  1  0  0  0
 16 31  1  0  0  0
 17 18  1  0  0  0
 17 97  1  0  0  0
 18 19  2  0  0  0
 18 98  1  0  0  0
 19 20  1  0  0  0
 19 24  1  0  0  0
 20 21  2  0  0  0
 20 99  1  0  0  0
 21 23  1  0  0  0
 22 28  1  0  0  0
 22 32  2  0  0  0
 26 27  1  0  0  0
 28100  1  0  0  0
 28101  1  0  0  0
 29102  1  0  0  0
 29103  1  0  0  0
 33 34  1  0  0  0
 33 66  1  0  0  0
 33 70  2  0  0  0
 34 36  1  0  0  0
 34 59  1  0  0  0
 34104  1  0  0  0
 35 44  2  0  0  0
 35 45  1  0  0  0
 35 68  1  0  0  0
 36 56  1  0  0  0
 36105  1  0  0  0
 37 39  1  0  0  0
 37 47  1  0  0  0
 37 66  1  0  0  0
 37106  1  0  0  0
 38 43  2  0  0  0
 38 46  1  0  0  0
 38 47  1  0  0  0
 39 64  1  0  0  0
 39 67  2  0  0  0
 40 52  1  0  0  0
 40 53  2  0  0  0
 40 58  1  0  0  0
 41107  1  0  0  0
 41108  1  0  0  0
 41109  1  0  0  0
 41 48  1  0  0  0
 42 43  1  0  0  0
 42 66  1  0  0  0
 42110  1  0  0  0
 42111  1  0  0  0
 43 44  1  0  0  0
 44112  1  0  0  0
 45 46  2  0  0  0
 45113  1  0  0  0
 46114  1  0  0  0
 47115  1  0  0  0
 47116  1  0  0  0
 48 56  1  0  0  0
 48 65  1  0  0  0
 48117  1  0  0  0
 49 50  1  0  0  0
 49 53  1  0  0  0
 49 64  1  0  0  0
 49118  1  0  0  0
 50 51  1  0  0  0
 50119  1  0  0  0
 50120  1  0  0  0
 51 52  1  0  0  0
 51121  1  0  0  0
 51122  1  0  0  0
 52123  1  0  0  0
 52124  1  0  0  0
 53 54  1  0  0  0
 54 55  2  0  0  0
 54125  1  0  0  0
 55 57  1  0  0  0
 55126  1  0  0  0
 56 69  2  0  0  0
 57 58  2  0  0  0
 57127  1  0  0  0
 58128  1  0  0  0
 59 60  1  0  0  0
 59 61  1  0  0  0
 59 62  1  0  0  0
 60129  1  0  0  0
 60130  1  0  0  0
 60131  1  0  0  0
 61132  1  0  0  0
 61133  1  0  0  0
 61134  1  0  0  0
 62135  1  0  0  0
 62136  1  0  0  0
 62137  1  0  0  0
 63 65  1  0  0  0
 63138  1  0  0  0
 63139  1  0  0  0
 63140  1  0  0  0
 64141  1  0  0  0
 65142  1  0  0  0
 68 79  1  0  0  0
 71 73  2  0  0  0
 71 74  1  0  0  0
 71143  1  0  0  0
 72 74  2  0  0  0
 72 75  1  0  0  0
 72144  1  0  0  0
 73 80  1  0  0  0
 73145  1  0  0  0
 74 81  1  0  0  0
 75 77  1  0  0  0
 75 80  2  0  0  0
 76 78  1  0  0  0
 76 81  1  0  0  0
 76 83  2  0  0  0
 77 82  1  0  0  0
 77146  1  0  0  0
 77147  1  0  0  0
 78 79  1  0  0  0
 78148  1  0  0  0
 78149  1  0  0  0
 79150  1  0  0  0
 79151  1  0  0  0
 81152  1  0  0  0
 82153  1  0  0  0
M  ISO  4   1 100  68 101  79 101  82 100
M  END
> <chiral flag>
0

> <version>
0

> <s_m_source_file>
/data/baiqing/PycharmProjects/Reinvent-master-3.2/result/LINK_invent/BTK/process_docking_weight1_custom_product_contain_oxygen_bond_distance_aromatic_linkinvent_7_9_3/rearranged_h_0198.sdf

> <i_m_source_file_index>
8

> <r_mmod_Potential_Energy-OPLS-2005>
-353.314666748047

> <r_mmod_Stretch_Energy-OPLS-2005>
44.6413650512695

> <r_mmod_Bend_Energy-OPLS-2005>
107.876281738281

> <r_mmod_Torsional_Energy-OPLS-2005>
213.767669677734

> <r_mmod_Improper_Torsional_Energy-OPLS-2005>
4.61535596847534

> <r_mmod_Van_der_Waal_Energy-OPLS-2005>
170.32194519043

> <r_mmod_Electrostatic_Energy-OPLS-2005>
-678.437866210938

> <r_mmod_Solvation_Energy-OPLS-2005>
-235.284042358398

> <b_mmod_Minimization_Converged-OPLS-2005>
0

> <r_mmod_RMS_Derivative-OPLS-2005>
5.54496192932129

$$$$
8
                    3D
 Structure written by MMmdl.
153161  0  0  1  0            999 V2000
  -30.6257  -14.6550   20.4840 C   0  0  0  0  0  0
  -30.4378  -12.3999   19.4506 C   0  0  0  0  0  0
  -29.5076  -12.5080   18.2219 C   0  0  0  0  0  0
  -28.0314  -12.3419   18.6354 C   0  0  0  0  0  0
  -27.6513  -13.2178   19.8587 C   0  0  2  0  0  0
  -28.6989  -13.0888   20.9888 C   0  0  0  0  0  0
  -25.2558  -13.8165   20.5692 C   0  0  0  0  0  0
  -24.1829  -13.0434   20.9214 C   0  0  0  0  0  0
  -24.6395  -11.6904   20.8747 C   0  0  0  0  0  0
  -23.9060  -10.4291   21.0408 C   0  0  0  0  0  0
  -24.3609   -9.4205   21.9188 C   0  0  0  0  0  0
  -23.6281   -8.2241   22.0753 C   0  0  0  0  0  0
  -22.4264   -8.0283   21.3547 C   0  0  0  0  0  0
  -21.9905   -9.0257   20.4653 C   0  0  0  0  0  0
  -22.7232  -10.2132   20.3058 C   0  0  0  0  0  0
  -21.6856   -6.0732   22.5275 C   0  0  0  0  0  0
  -21.4016   -6.5632   23.8208 C   0  0  0  0  0  0
  -21.3658   -5.6785   24.9172 C   0  0  0  0  0  0
  -21.6039   -4.3047   24.7224 C   0  0  0  0  0  0
  -21.8821   -3.8141   23.4344 C   0  0  0  0  0  0
  -21.9193   -4.6960   22.3401 C   0  0  0  0  0  0
  -22.7851  -13.5232   21.1858 C   0  0  0  0  0  0
  -22.1664   -4.2144   21.0980 F   0  0  0  0  0  0
  -21.5623   -3.4532   25.7736 F   0  0  0  0  0  0
  -30.0124  -13.4296   20.4198 N   0  0  0  0  0  0
  -26.2981  -12.9349   20.3298 N   0  0  0  0  0  0
  -25.9323  -11.6506   20.5745 N   0  0  0  0  0  0
  -22.0482  -12.8240   22.0411 N   0  0  0  0  0  0
  -25.4252  -15.1888   20.4086 N   0  0  0  0  0  0
  -31.8019  -14.7932   20.1328 O   0  0  0  0  0  0
  -21.6634   -6.8872   21.4238 O   0  0  0  0  0  0
  -22.3551  -14.5539   20.6691 O   0  0  0  0  0  0
  -24.6262  -31.8600   23.2019 C   0  0  0  0  0  0
  -25.9104  -32.4783   23.8350 C   0  0  1  0  0  0
  -27.2277  -27.3149   20.1163 C   0  0  0  0  0  0
  -25.5909  -33.8582   24.2274 N   0  0  0  0  0  0
  -23.4200  -30.4831   21.5467 C   0  0  2  0  0  0
  -24.8667  -28.9392   20.1139 C   0  0  0  0  0  0
  -22.7477  -29.4620   22.4950 C   0  0  0  0  0  0
  -18.0283  -28.1382   22.8481 C   0  0  0  0  0  0
  -24.1479  -36.7300   23.2638 C   0  0  0  0  0  0
  -25.9621  -30.7909   21.3723 C   0  0  0  0  0  0
  -26.0377  -29.4177   20.7151 C   0  0  0  0  0  0
  -27.2216  -28.6189   20.7044 C   0  0  0  0  0  0
  -26.0285  -26.8920   19.4944 C   0  0  0  0  0  0
  -24.8647  -27.6812   19.4953 C   0  0  0  0  0  0
  -23.6338  -29.8177   20.1627 C   0  0  0  0  0  0
  -25.4105  -36.3088   24.0327 C   0  0  1  0  0  0
  -20.5885  -28.3682   23.1286 C   0  0  2  0  0  0
  -20.6772  -26.9402   22.5419 C   0  0  0  0  0  0
  -19.5753  -26.6379   21.5211 C   0  0  0  0  0  0
  -18.1929  -26.7923   22.1623 C   0  0  0  0  0  0
  -19.1538  -28.8849   23.2876 C   0  0  0  0  0  0
  -18.9466  -30.1455   23.8888 C   0  0  0  0  0  0
  -17.6465  -30.6584   24.0569 C   0  0  0  0  0  0
  -25.9047  -34.9458   23.5107 C   0  0  0  0  0  0
  -16.5353  -29.9085   23.6331 C   0  0  0  0  0  0
  -16.7272  -28.6507   23.0339 C   0  0  0  0  0  0
  -26.4465  -31.6593   25.0728 C   0  0  0  0  0  0
  -25.3682  -31.3759   26.1452 C   0  0  0  0  0  0
  -27.0289  -30.3004   24.6191 C   0  0  0  0  0  0
  -27.6029  -32.4316   25.7505 C   0  0  0  0  0  0
  -27.5577  -37.1799   24.8456 C   0  0  0  0  0  0
  -21.4193  -29.3031   22.3680 N   0  0  0  0  0  0
  -26.4282  -37.3785   23.9411 N   0  0  0  0  0  0
  -24.6885  -31.0609   22.0973 N   0  0  0  0  0  0
  -23.4197  -28.8162   23.3035 O   0  0  0  0  0  0
  -28.3450  -26.4600   20.1586 O   0  0  0  0  0  0
  -26.5629  -34.8922   22.4682 O   0  0  0  0  0  0
  -23.5425  -32.1399   23.7343 O   0  0  0  0  0  0
  -28.7700  -17.9664   20.6951 C   0  0  0  0  0  0
  -29.9570  -17.1678   20.6214 C   0  0  0  0  0  0
  -29.9211  -19.9825   20.4454 C   0  0  0  0  0  0
  -31.1141  -19.1975   20.3527 C   0  0  0  0  0  0
  -28.8621  -22.3893   20.2715 C   0  0  0  0  0  0
  -28.0877  -24.9961   20.1457 C   0  0  0  0  0  0
  -29.2625  -23.9383   20.3740 C   0  0  1  0  0  0
  -28.7386  -19.3376   20.6013 N   0  0  0  0  0  0
  -31.1368  -17.8333   20.4374 N   0  0  0  0  0  0
  -32.3437  -19.8123   20.1479 N   0  0  0  0  0  0
  -29.8046  -15.7177   20.7628 N   0  0  0  0  0  0
  -29.9862  -21.4139   20.4014 N   0  0  0  0  0  0
  -29.7614  -24.0962   21.6919 O   0  0  0  0  0  0
  -31.4795  -12.5209   19.1473 H   0  0  0  0  0  0
  -30.3685  -11.4079   19.8986 H   0  0  0  0  0  0
  -29.7744  -11.7553   17.4788 H   0  0  0  0  0  0
  -29.6469  -13.4762   17.7381 H   0  0  0  0  0  0
  -27.8724  -11.2890   18.8728 H   0  0  0  0  0  0
  -27.3758  -12.5656   17.7923 H   0  0  0  0  0  0
  -27.6637  -14.2494   19.5074 H   0  0  0  0  0  0
  -28.7136  -12.0721   21.3831 H   0  0  0  0  0  0
  -28.4447  -13.7323   21.8329 H   0  0  0  0  0  0
  -25.2754   -9.5682   22.4760 H   0  0  0  0  0  0
  -23.9996   -7.4630   22.7470 H   0  0  0  0  0  0
  -21.0832   -8.8773   19.8962 H   0  0  0  0  0  0
  -22.3688  -10.9670   19.6162 H   0  0  0  0  0  0
  -21.2010   -7.6141   23.9707 H   0  0  0  0  0  0
  -21.1478   -6.0518   25.9072 H   0  0  0  0  0  0
  -22.0602   -2.7606   23.2845 H   0  0  0  0  0  0
  -22.4083  -11.9909   22.4830 H   0  0  0  0  0  0
  -21.1098  -13.1279   22.2592 H   0  0  0  0  0  0
  -24.6457  -15.8311   20.5005 H   0  0  0  0  0  0
  -26.2381  -15.6170   19.9869 H   0  0  0  0  0  0
  -26.7179  -32.5448   23.1107 H   0  0  0  0  0  0
  -24.9999  -33.9723   25.0378 H   0  0  0  0  0  0
  -22.7131  -31.3027   21.4043 H   0  0  0  0  0  0
  -23.3742  -35.9633   23.3302 H   0  0  0  0  0  0
  -24.3569  -36.8929   22.2054 H   0  0  0  0  0  0
  -23.7231  -37.6501   23.6663 H   0  0  0  0  0  0
  -26.0908  -31.5525   20.6017 H   0  0  0  0  0  0
  -26.8435  -30.8425   22.0001 H   0  0  0  0  0  0
  -28.1195  -28.9842   21.1832 H   0  0  0  0  0  0
  -25.9530  -25.9333   19.0057 H   0  0  0  0  0  0
  -23.9673  -27.3065   19.0224 H   0  0  0  0  0  0
  -23.7501  -30.5933   19.4052 H   0  0  0  0  0  0
  -22.7542  -29.2452   19.8622 H   0  0  0  0  0  0
  -25.1280  -36.1942   25.0819 H   0  0  0  0  0  0
  -20.9972  -28.3256   24.1410 H   0  0  0  0  0  0
  -20.5666  -26.2284   23.3616 H   0  0  0  0  0  0
  -21.6642  -26.7429   22.1215 H   0  0  0  0  0  0
  -19.6912  -25.6289   21.1241 H   0  0  0  0  0  0
  -19.6692  -27.3191   20.6741 H   0  0  0  0  0  0
  -17.4196  -26.6661   21.4028 H   0  0  0  0  0  0
  -18.0340  -26.0071   22.9029 H   0  0  0  0  0  0
  -19.7941  -30.7274   24.2248 H   0  0  0  0  0  0
  -17.5020  -31.6253   24.5189 H   0  0  0  0  0  0
  -15.5355  -30.2984   23.7661 H   0  0  0  0  0  0
  -15.8673  -28.0832   22.7044 H   0  0  0  0  0  0
  -24.5836  -30.7131   25.7782 H   0  0  0  0  0  0
  -24.8885  -32.2938   26.4858 H   0  0  0  0  0  0
  -25.7975  -30.8939   27.0242 H   0  0  0  0  0  0
  -26.2858  -29.6784   24.1186 H   0  0  0  0  0  0
  -27.3936  -29.7240   25.4703 H   0  0  0  0  0  0
  -27.8753  -30.4275   23.9440 H   0  0  0  0  0  0
  -27.2636  -33.3608   26.2096 H   0  0  0  0  0  0
  -28.3830  -32.6892   25.0328 H   0  0  0  0  0  0
  -28.0700  -31.8428   26.5410 H   0  0  0  0  0  0
  -28.2587  -38.0103   24.7521 H   0  0  0  0  0  0
  -28.1080  -36.2638   24.6251 H   0  0  0  0  0  0
  -27.2306  -37.1425   25.8861 H   0  0  0  0  0  0
  -20.9372  -29.8735   21.6876 H   0  0  0  0  0  0
  -26.0167  -38.2860   24.1424 H   0  0  0  0  0  0
  -27.8089  -17.4932   20.8351 H   0  0  0  0  0  0
  -28.3870  -22.2160   19.3041 H   0  0  0  0  0  0
  -28.1027  -22.1520   21.0185 H   0  0  0  0  0  0
  -27.2868  -24.7799   20.8550 H   0  0  0  0  0  0
  -27.6938  -24.7513   19.1596 H   0  0  0  0  0  0
  -30.0595  -24.1520   19.6602 H   0  0  0  0  0  0
  -32.3010  -20.7157   19.6925 H   0  0  0  0  0  0
  -33.0787  -19.2230   19.7766 H   0  0  0  0  0  0
  -28.8721  -15.4278   21.0103 H   0  0  0  0  0  0
  -30.9160  -21.8070   20.5075 H   0  0  0  0  0  0
  -29.0777  -23.8130   22.2906 H   0  0  0  0  0  0
  1 25  1  0  0  0
  1 30  2  0  0  0
  1 81  1  0  0  0
  2  3  1  0  0  0
  2 25  1  0  0  0
  2 84  1  0  0  0
  2 85  1  0  0  0
  3  4  1  0  0  0
  3 86  1  0  0  0
  3 87  1  0  0  0
  4  5  1  0  0  0
  4 88  1  0  0  0
  4 89  1  0  0  0
  5  6  1  0  0  0
  5 26  1  0  0  0
  5 90  1  0  0  0
  6 25  1  0  0  0
  6 91  1  0  0  0
  6 92  1  0  0  0
  7  8  2  0  0  0
  7 26  1  0  0  0
  7 29  1  0  0  0
  8  9  1  0  0  0
  8 22  1  0  0  0
  9 10  1  0  0  0
  9 27  2  0  0  0
 10 11  2  0  0  0
 10 15  1  0  0  0
 11 12  1  0  0  0
 11 93  1  0  0  0
 12 13  2  0  0  0
 12 94  1  0  0  0
 13 14  1  0  0  0
 13 31  1  0  0  0
 14 15  2  0  0  0
 14 95  1  0  0  0
 15 96  1  0  0  0
 16 17  2  0  0  0
 16 21  1  0  0  0
 16 31  1  0  0  0
 17 18  1  0  0  0
 17 97  1  0  0  0
 18 19  2  0  0  0
 18 98  1  0  0  0
 19 20  1  0  0  0
 19 24  1  0  0  0
 20 21  2  0  0  0
 20 99  1  0  0  0
 21 23  1  0  0  0
 22 28  1  0  0  0
 22 32  2  0  0  0
 26 27  1  0  0  0
 28100  1  0  0  0
 28101  1  0  0  0
 29102  1  0  0  0
 29103  1  0  0  0
 33 34  1  0  0  0
 33 66  1  0  0  0
 33 70  2  0  0  0
 34 36  1  0  0  0
 34 59  1  0  0  0
 34104  1  0  0  0
 35 44  2  0  0  0
 35 45  1  0  0  0
 35 68  1  0  0  0
 36 56  1  0  0  0
 36105  1  0  0  0
 37 39  1  0  0  0
 37 47  1  0  0  0
 37 66  1  0  0  0
 37106  1  0  0  0
 38 43  2  0  0  0
 38 46  1  0  0  0
 38 47  1  0  0  0
 39 64  1  0  0  0
 39 67  2  0  0  0
 40 52  1  0  0  0
 40 53  2  0  0  0
 40 58  1  0  0  0
 41107  1  0  0  0
 41108  1  0  0  0
 41109  1  0  0  0
 41 48  1  0  0  0
 42 43  1  0  0  0
 42 66  1  0  0  0
 42110  1  0  0  0
 42111  1  0  0  0
 43 44  1  0  0  0
 44112  1  0  0  0
 45 46  2  0  0  0
 45113  1  0  0  0
 46114  1  0  0  0
 47115  1  0  0  0
 47116  1  0  0  0
 48 56  1  0  0  0
 48 65  1  0  0  0
 48117  1  0  0  0
 49 50  1  0  0  0
 49 53  1  0  0  0
 49 64  1  0  0  0
 49118  1  0  0  0
 50 51  1  0  0  0
 50119  1  0  0  0
 50120  1  0  0  0
 51 52  1  0  0  0
 51121  1  0  0  0
 51122  1  0  0  0
 52123  1  0  0  0
 52124  1  0  0  0
 53 54  1  0  0  0
 54 55  2  0  0  0
 54125  1  0  0  0
 55 57  1  0  0  0
 55126  1  0  0  0
 56 69  2  0  0  0
 57 58  2  0  0  0
 57127  1  0  0  0
 58128  1  0  0  0
 59 60  1  0  0  0
 59 61  1  0  0  0
 59 62  1  0  0  0
 60129  1  0  0  0
 60130  1  0  0  0
 60131  1  0  0  0
 61132  1  0  0  0
 61133  1  0  0  0
 61134  1  0  0  0
 62135  1  0  0  0
 62136  1  0  0  0
 62137  1  0  0  0
 63 65  1  0  0  0
 63138  1  0  0  0
 63139  1  0  0  0
 63140  1  0  0  0
 64141  1  0  0  0
 65142  1  0  0  0
 68 76  1  0  0  0
 71 72  2  0  0  0
 71 78  1  0  0  0
 71143  1  0  0  0
 72 79  1  0  0  0
 72 81  1  0  0  0
 73 74  1  0  0  0
 73 78  2  0  0  0
 73 82  1  0  0  0
 74 79  2  0  0  0
 74 80  1  0  0  0
 75 77  1  0  0  0
 75 82  1  0  0  0
 75144  1  0  0  0
 75145  1  0  0  0
 76 77  1  0  0  0
 76146  1  0  0  0
 76147  1  0  0  0
 77 83  1  0  0  0
 77148  1  0  0  0
 80149  1  0  0  0
 80150  1  0  0  0
 81151  1  0  0  0
 82152  1  0  0  0
 83153  1  0  0  0
M  ISO  4   1 100  68 101  76 101  81 100
M  END
> <chiral flag>
0

> <version>
0

> <s_m_source_file>
/data/baiqing/PycharmProjects/Reinvent-master-3.2/result/LINK_invent/BTK/process_docking_weight1_custom_product_contain_oxygen_bond_distance_aromatic_linkinvent_7_9_3/rearranged_h_0198.sdf

> <i_m_source_file_index>
9

> <r_mmod_Potential_Energy-OPLS-2005>
-88.5373687744141

> <r_mmod_Stretch_Energy-OPLS-2005>
83.3329467773438

> <r_mmod_Bend_Energy-OPLS-2005>
148.99462890625

> <r_mmod_Torsional_Energy-OPLS-2005>
231.961608886719

> <r_mmod_Improper_Torsional_Energy-OPLS-2005>
9.35940933227539

> <r_mmod_Van_der_Waal_Energy-OPLS-2005>
150.899353027344

> <r_mmod_Electrostatic_Energy-OPLS-2005>
-489.0185546875

> <r_mmod_Solvation_Energy-OPLS-2005>
-276.143951416016

> <b_mmod_Minimization_Converged-OPLS-2005>
0

> <r_mmod_RMS_Derivative-OPLS-2005>
1.31472957134247

$$$$
9
                    3D
 Structure written by MMmdl.
150158  0  0  1  0            999 V2000
  -30.5933  -14.7572   20.4613 C   0  0  0  0  0  0
  -30.4397  -12.4591   19.4824 C   0  0  0  0  0  0
  -29.5180  -12.5157   18.2422 C   0  0  0  0  0  0
  -28.0425  -12.3370   18.6508 C   0  0  0  0  0  0
  -27.6468  -13.2304   19.8566 C   0  0  2  0  0  0
  -28.6899  -13.1502   20.9944 C   0  0  0  0  0  0
  -25.2531  -13.8191   20.5691 C   0  0  0  0  0  0
  -24.1813  -13.0441   20.9195 C   0  0  0  0  0  0
  -24.6401  -11.6916   20.8733 C   0  0  0  0  0  0
  -23.9072  -10.4295   21.0394 C   0  0  0  0  0  0
  -24.3623   -9.4213   21.9173 C   0  0  0  0  0  0
  -23.6300   -8.2246   22.0746 C   0  0  0  0  0  0
  -22.4282   -8.0282   21.3540 C   0  0  0  0  0  0
  -21.9916   -9.0257   20.4642 C   0  0  0  0  0  0
  -22.7242  -10.2139   20.3047 C   0  0  0  0  0  0
  -21.6856   -6.0735   22.5279 C   0  0  0  0  0  0
  -21.4016   -6.5638   23.8211 C   0  0  0  0  0  0
  -21.3660   -5.6790   24.9171 C   0  0  0  0  0  0
  -21.6046   -4.3053   24.7222 C   0  0  0  0  0  0
  -21.8820   -3.8145   23.4342 C   0  0  0  0  0  0
  -21.9191   -4.6962   22.3398 C   0  0  0  0  0  0
  -22.7832  -13.5224   21.1857 C   0  0  0  0  0  0
  -22.1661   -4.2144   21.0974 F   0  0  0  0  0  0
  -21.5631   -3.4542   25.7736 F   0  0  0  0  0  0
  -29.9952  -13.5135   20.4252 N   0  0  0  0  0  0
  -26.2961  -12.9394   20.3291 N   0  0  0  0  0  0
  -25.9335  -11.6539   20.5738 N   0  0  0  0  0  0
  -22.0477  -12.8217   22.0417 N   0  0  0  0  0  0
  -25.4236  -15.1914   20.4113 N   0  0  0  0  0  0
  -31.7615  -14.8825   20.0796 O   0  0  0  0  0  0
  -21.6641   -6.8883   21.4242 O   0  0  0  0  0  0
  -22.3510  -14.5524   20.6697 O   0  0  0  0  0  0
  -24.6332  -31.8538   23.1976 C   0  0  0  0  0  0
  -25.9150  -32.4747   23.8329 C   0  0  1  0  0  0
  -27.2215  -27.2445   20.1249 C   0  0  0  0  0  0
  -25.5936  -33.8550   24.2248 N   0  0  0  0  0  0
  -23.4311  -30.4762   21.5412 C   0  0  2  0  0  0
  -24.8791  -28.9229   20.1074 C   0  0  0  0  0  0
  -22.7511  -29.4594   22.4906 C   0  0  0  0  0  0
  -18.0294  -28.1385   22.8481 C   0  0  0  0  0  0
  -24.1489  -36.7281   23.2641 C   0  0  0  0  0  0
  -25.9792  -30.7585   21.3837 C   0  0  0  0  0  0
  -26.0504  -29.3807   20.7232 C   0  0  0  0  0  0
  -27.2212  -28.5527   20.7245 C   0  0  0  0  0  0
  -26.0298  -26.8699   19.4622 C   0  0  0  0  0  0
  -24.8752  -27.6760   19.4657 C   0  0  0  0  0  0
  -23.6502  -29.8109   20.1571 C   0  0  0  0  0  0
  -25.4115  -36.3068   24.0329 C   0  0  1  0  0  0
  -20.5898  -28.3700   23.1260 C   0  0  2  0  0  0
  -20.6780  -26.9416   22.5403 C   0  0  0  0  0  0
  -19.5756  -26.6378   21.5208 C   0  0  0  0  0  0
  -18.1937  -26.7925   22.1623 C   0  0  0  0  0  0
  -19.1547  -28.8859   23.2864 C   0  0  0  0  0  0
  -18.9468  -30.1459   23.8884 C   0  0  0  0  0  0
  -17.6467  -30.6587   24.0558 C   0  0  0  0  0  0
  -25.9057  -34.9438   23.5092 C   0  0  0  0  0  0
  -16.5357  -29.9082   23.6333 C   0  0  0  0  0  0
  -16.7280  -28.6499   23.0354 C   0  0  0  0  0  0
  -26.4504  -31.6581   25.0732 C   0  0  0  0  0  0
  -25.3717  -31.3740   26.1449 C   0  0  0  0  0  0
  -27.0358  -30.2992   24.6246 C   0  0  0  0  0  0
  -27.6054  -32.4329   25.7502 C   0  0  0  0  0  0
  -27.5581  -37.1794   24.8464 C   0  0  0  0  0  0
  -21.4218  -29.3044   22.3647 N   0  0  0  0  0  0
  -26.4289  -37.3770   23.9411 N   0  0  0  0  0  0
  -24.7000  -31.0481   22.0967 N   0  0  0  0  0  0
  -23.4202  -28.8137   23.3013 O   0  0  0  0  0  0
  -28.3094  -26.3347   20.2098 O   0  0  0  0  0  0
  -26.5633  -34.8918   22.4663 O   0  0  0  0  0  0
  -23.5475  -32.1373   23.7254 O   0  0  0  0  0  0
  -30.7307  -17.8835   19.4619 C   0  0  0  0  0  0
  -29.9437  -17.3073   20.4991 C   0  0  0  0  0  0
  -28.8675  -22.1251   20.0377 C   0  0  0  0  0  0
  -29.4925  -20.9224   20.9379 C   0  0  0  0  0  0
  -28.1355  -24.8745   19.8499 C   0  0  0  0  0  0
  -29.0547  -23.6894   20.4851 C   0  0  2  0  0  0
  -30.5860  -19.2008   19.4235 N   0  0  0  0  0  0
  -29.3041  -18.3220   21.0963 N   0  0  0  0  0  0
  -29.7025  -19.4900   20.4258 N   0  0  0  0  0  0
  -29.8134  -15.8560   20.8016 N   0  0  0  0  0  0
  -30.3909  -24.0159   20.1492 O   0  0  0  0  0  0
  -31.4811  -12.5852   19.1827 H   0  0  0  0  0  0
  -30.3860  -11.4778   19.9569 H   0  0  0  0  0  0
  -29.8048  -11.7464   17.5241 H   0  0  0  0  0  0
  -29.6445  -13.4716   17.7316 H   0  0  0  0  0  0
  -27.8973  -11.2867   18.9063 H   0  0  0  0  0  0
  -27.3874  -12.5354   17.8016 H   0  0  0  0  0  0
  -27.6455  -14.2551   19.4845 H   0  0  0  0  0  0
  -28.7244  -12.1448   21.4162 H   0  0  0  0  0  0
  -28.4182  -13.8126   21.8174 H   0  0  0  0  0  0
  -25.2771   -9.5691   22.4742 H   0  0  0  0  0  0
  -24.0014   -7.4635   22.7464 H   0  0  0  0  0  0
  -21.0847   -8.8769   19.8949 H   0  0  0  0  0  0
  -22.3693  -10.9672   19.6153 H   0  0  0  0  0  0
  -21.2011   -7.6146   23.9714 H   0  0  0  0  0  0
  -21.1484   -6.0519   25.9075 H   0  0  0  0  0  0
  -22.0599   -2.7609   23.2840 H   0  0  0  0  0  0
  -22.4110  -11.9894   22.4821 H   0  0  0  0  0  0
  -21.1087  -13.1225   22.2614 H   0  0  0  0  0  0
  -24.6573  -15.8470   20.5200 H   0  0  0  0  0  0
  -26.2732  -15.6305   20.0802 H   0  0  0  0  0  0
  -26.7220  -32.5385   23.1070 H   0  0  0  0  0  0
  -25.0073  -33.9679   25.0388 H   0  0  0  0  0  0
  -22.7289  -31.2995   21.3948 H   0  0  0  0  0  0
  -23.3759  -35.9606   23.3291 H   0  0  0  0  0  0
  -24.3585  -36.8915   22.2059 H   0  0  0  0  0  0
  -23.7232  -37.6474   23.6672 H   0  0  0  0  0  0
  -26.1251  -31.5195   20.6160 H   0  0  0  0  0  0
  -26.8542  -30.8032   22.0207 H   0  0  0  0  0  0
  -28.1133  -28.8951   21.2298 H   0  0  0  0  0  0
  -25.9540  -25.9276   18.9420 H   0  0  0  0  0  0
  -23.9822  -27.3229   18.9684 H   0  0  0  0  0  0
  -23.7761  -30.5879   19.4023 H   0  0  0  0  0  0
  -22.7682  -29.2455   19.8508 H   0  0  0  0  0  0
  -25.1295  -36.1915   25.0822 H   0  0  0  0  0  0
  -20.9988  -28.3280   24.1382 H   0  0  0  0  0  0
  -20.5673  -26.2312   23.3610 H   0  0  0  0  0  0
  -21.6648  -26.7433   22.1202 H   0  0  0  0  0  0
  -19.6915  -25.6284   21.1246 H   0  0  0  0  0  0
  -19.6690  -27.3179   20.6730 H   0  0  0  0  0  0
  -17.4204  -26.6665   21.4030 H   0  0  0  0  0  0
  -18.0346  -26.0068   22.9024 H   0  0  0  0  0  0
  -19.7945  -30.7274   24.2249 H   0  0  0  0  0  0
  -17.5024  -31.6268   24.5159 H   0  0  0  0  0  0
  -15.5355  -30.2979   23.7663 H   0  0  0  0  0  0
  -15.8682  -28.0812   22.7076 H   0  0  0  0  0  0
  -24.5881  -30.7106   25.7772 H   0  0  0  0  0  0
  -24.8923  -32.2913   26.4878 H   0  0  0  0  0  0
  -25.8024  -30.8905   27.0227 H   0  0  0  0  0  0
  -26.2955  -29.6729   24.1256 H   0  0  0  0  0  0
  -27.4008  -29.7270   25.4785 H   0  0  0  0  0  0
  -27.8848  -30.4256   23.9525 H   0  0  0  0  0  0
  -27.2660  -33.3633   26.2067 H   0  0  0  0  0  0
  -28.3867  -32.6884   25.0331 H   0  0  0  0  0  0
  -28.0725  -31.8466   26.5425 H   0  0  0  0  0  0
  -28.2590  -38.0103   24.7530 H   0  0  0  0  0  0
  -28.1087  -36.2633   24.6264 H   0  0  0  0  0  0
  -27.2304  -37.1417   25.8869 H   0  0  0  0  0  0
  -20.9408  -29.8769   21.6852 H   0  0  0  0  0  0
  -26.0167  -38.2845   24.1412 H   0  0  0  0  0  0
  -31.3783  -17.3792   18.7572 H   0  0  0  0  0  0
  -27.7974  -21.9304   19.9617 H   0  0  0  0  0  0
  -29.2383  -22.0139   19.0181 H   0  0  0  0  0  0
  -28.9070  -20.8529   21.8546 H   0  0  0  0  0  0
  -30.4769  -21.2570   21.2657 H   0  0  0  0  0  0
  -27.1217  -24.5826   20.1229 H   0  0  0  0  0  0
  -28.1810  -24.8046   18.7621 H   0  0  0  0  0  0
  -28.9471  -23.7454   21.5697 H   0  0  0  0  0  0
  -28.9478  -15.6037   21.2515 H   0  0  0  0  0  0
  -30.5131  -24.9391   20.3587 H   0  0  0  0  0  0
  1 25  1  0  0  0
  1 30  2  0  0  0
  1 80  1  0  0  0
  2  3  1  0  0  0
  2 25  1  0  0  0
  2 82  1  0  0  0
  2 83  1  0  0  0
  3  4  1  0  0  0
  3 84  1  0  0  0
  3 85  1  0  0  0
  4  5  1  0  0  0
  4 86  1  0  0  0
  4 87  1  0  0  0
  5  6  1  0  0  0
  5 26  1  0  0  0
  5 88  1  0  0  0
  6 25  1  0  0  0
  6 89  1  0  0  0
  6 90  1  0  0  0
  7  8  2  0  0  0
  7 26  1  0  0  0
  7 29  1  0  0  0
  8  9  1  0  0  0
  8 22  1  0  0  0
  9 10  1  0  0  0
  9 27  2  0  0  0
 10 11  2  0  0  0
 10 15  1  0  0  0
 11 12  1  0  0  0
 11 91  1  0  0  0
 12 13  2  0  0  0
 12 92  1  0  0  0
 13 14  1  0  0  0
 13 31  1  0  0  0
 14 15  2  0  0  0
 14 93  1  0  0  0
 15 94  1  0  0  0
 16 17  2  0  0  0
 16 21  1  0  0  0
 16 31  1  0  0  0
 17 18  1  0  0  0
 17 95  1  0  0  0
 18 19  2  0  0  0
 18 96  1  0  0  0
 19 20  1  0  0  0
 19 24  1  0  0  0
 20 21  2  0  0  0
 20 97  1  0  0  0
 21 23  1  0  0  0
 22 28  1  0  0  0
 22 32  2  0  0  0
 26 27  1  0  0  0
 28 98  1  0  0  0
 28 99  1  0  0  0
 29100  1  0  0  0
 29101  1  0  0  0
 33 34  1  0  0  0
 33 66  1  0  0  0
 33 70  2  0  0  0
 34 36  1  0  0  0
 34 59  1  0  0  0
 34102  1  0  0  0
 35 44  2  0  0  0
 35 45  1  0  0  0
 35 68  1  0  0  0
 36 56  1  0  0  0
 36103  1  0  0  0
 37 39  1  0  0  0
 37 47  1  0  0  0
 37 66  1  0  0  0
 37104  1  0  0  0
 38 43  2  0  0  0
 38 46  1  0  0  0
 38 47  1  0  0  0
 39 64  1  0  0  0
 39 67  2  0  0  0
 40 52  1  0  0  0
 40 53  2  0  0  0
 40 58  1  0  0  0
 41105  1  0  0  0
 41106  1  0  0  0
 41107  1  0  0  0
 41 48  1  0  0  0
 42 43  1  0  0  0
 42 66  1  0  0  0
 42108  1  0  0  0
 42109  1  0  0  0
 43 44  1  0  0  0
 44110  1  0  0  0
 45 46  2  0  0  0
 45111  1  0  0  0
 46112  1  0  0  0
 47113  1  0  0  0
 47114  1  0  0  0
 48 56  1  0  0  0
 48 65  1  0  0  0
 48115  1  0  0  0
 49 50  1  0  0  0
 49 53  1  0  0  0
 49 64  1  0  0  0
 49116  1  0  0  0
 50 51  1  0  0  0
 50117  1  0  0  0
 50118  1  0  0  0
 51 52  1  0  0  0
 51119  1  0  0  0
 51120  1  0  0  0
 52121  1  0  0  0
 52122  1  0  0  0
 53 54  1  0  0  0
 54 55  2  0  0  0
 54123  1  0  0  0
 55 57  1  0  0  0
 55124  1  0  0  0
 56 69  2  0  0  0
 57 58  2  0  0  0
 57125  1  0  0  0
 58126  1  0  0  0
 59 60  1  0  0  0
 59 61  1  0  0  0
 59 62  1  0  0  0
 60127  1  0  0  0
 60128  1  0  0  0
 60129  1  0  0  0
 61130  1  0  0  0
 61131  1  0  0  0
 61132  1  0  0  0
 62133  1  0  0  0
 62134  1  0  0  0
 62135  1  0  0  0
 63 65  1  0  0  0
 63136  1  0  0  0
 63137  1  0  0  0
 63138  1  0  0  0
 64139  1  0  0  0
 65140  1  0  0  0
 68 75  1  0  0  0
 71 72  1  0  0  0
 71 77  2  0  0  0
 71141  1  0  0  0
 72 78  2  0  0  0
 72 80  1  0  0  0
 73 74  1  0  0  0
 73 76  1  0  0  0
 73142  1  0  0  0
 73143  1  0  0  0
 74 79  1  0  0  0
 74144  1  0  0  0
 74145  1  0  0  0
 75 76  1  0  0  0
 75146  1  0  0  0
 75147  1  0  0  0
 76 81  1  0  0  0
 76148  1  0  0  0
 77 79  1  0  0  0
 78 79  1  0  0  0
 80149  1  0  0  0
 81150  1  0  0  0
M  ISO  4   1 100  68 101  75 101  80 100
M  END
> <chiral flag>
0

> <version>
0

> <s_m_source_file>
/data/baiqing/PycharmProjects/Reinvent-master-3.2/result/LINK_invent/BTK/process_docking_weight1_custom_product_contain_oxygen_bond_distance_aromatic_linkinvent_7_9_3/rearranged_h_0198.sdf

> <i_m_source_file_index>
10

> <r_mmod_Potential_Energy-OPLS-2005>
110.192565917969

> <r_mmod_Stretch_Energy-OPLS-2005>
132.3203125

> <r_mmod_Bend_Energy-OPLS-2005>
181.701721191406

> <r_mmod_Torsional_Energy-OPLS-2005>
241.628967285156

> <r_mmod_Improper_Torsional_Energy-OPLS-2005>
5.60961675643921

> <r_mmod_Van_der_Waal_Energy-OPLS-2005>
117.156394958496

> <r_mmod_Electrostatic_Energy-OPLS-2005>
-425.790679931641

> <r_mmod_Solvation_Energy-OPLS-2005>
-235.522338867188

> <b_mmod_Minimization_Converged-OPLS-2005>
0

> <r_mmod_RMS_Derivative-OPLS-2005>
0.806090831756592

$$$$
10
                    3D
 Structure written by MMmdl.
151159  0  0  1  0            999 V2000
  -30.6322  -14.7269   20.4795 C   0  0  0  0  0  0
  -30.4236  -12.4492   19.4809 C   0  0  0  0  0  0
  -29.5104  -12.5094   18.2383 C   0  0  0  0  0  0
  -28.0377  -12.3243   18.6518 C   0  0  0  0  0  0
  -27.6396  -13.2332   19.8468 C   0  0  2  0  0  0
  -28.6768  -13.1798   20.9895 C   0  0  0  0  0  0
  -25.2504  -13.8207   20.5666 C   0  0  0  0  0  0
  -24.1804  -13.0452   20.9184 C   0  0  0  0  0  0
  -24.6396  -11.6927   20.8725 C   0  0  0  0  0  0
  -23.9081  -10.4300   21.0379 C   0  0  0  0  0  0
  -24.3634   -9.4226   21.9168 C   0  0  0  0  0  0
  -23.6308   -8.2259   22.0753 C   0  0  0  0  0  0
  -22.4292   -8.0292   21.3550 C   0  0  0  0  0  0
  -21.9928   -9.0259   20.4650 C   0  0  0  0  0  0
  -22.7243  -10.2143   20.3043 C   0  0  0  0  0  0
  -21.6871   -6.0754   22.5279 C   0  0  0  0  0  0
  -21.4014   -6.5654   23.8211 C   0  0  0  0  0  0
  -21.3656   -5.6802   24.9168 C   0  0  0  0  0  0
  -21.6037   -4.3062   24.7218 C   0  0  0  0  0  0
  -21.8822   -3.8167   23.4338 C   0  0  0  0  0  0
  -21.9197   -4.6977   22.3396 C   0  0  0  0  0  0
  -22.7828  -13.5231   21.1866 C   0  0  0  0  0  0
  -22.1665   -4.2162   21.0972 F   0  0  0  0  0  0
  -21.5617   -3.4545   25.7734 F   0  0  0  0  0  0
  -29.9826  -13.5157   20.4119 N   0  0  0  0  0  0
  -26.2922  -12.9416   20.3235 N   0  0  0  0  0  0
  -25.9317  -11.6555   20.5710 N   0  0  0  0  0  0
  -22.0498  -12.8205   22.0427 N   0  0  0  0  0  0
  -25.4224  -15.1924   20.4074 N   0  0  0  0  0  0
  -31.8157  -14.8032   20.1415 O   0  0  0  0  0  0
  -21.6656   -6.8886   21.4246 O   0  0  0  0  0  0
  -22.3492  -14.5533   20.6706 O   0  0  0  0  0  0
  -24.6294  -31.8582   23.2024 C   0  0  0  0  0  0
  -25.9125  -32.4773   23.8365 C   0  0  1  0  0  0
  -27.2091  -27.2754   20.1397 C   0  0  0  0  0  0
  -25.5945  -33.8582   24.2280 N   0  0  0  0  0  0
  -23.4263  -30.4809   21.5465 C   0  0  2  0  0  0
  -24.8712  -28.9311   20.1123 C   0  0  0  0  0  0
  -22.7540  -29.4597   22.4956 C   0  0  0  0  0  0
  -18.0314  -28.1380   22.8529 C   0  0  0  0  0  0
  -24.1494  -36.7284   23.2641 C   0  0  0  0  0  0
  -25.9713  -30.7766   21.3803 C   0  0  0  0  0  0
  -26.0441  -29.4014   20.7188 C   0  0  0  0  0  0
  -27.2210  -28.5877   20.7174 C   0  0  0  0  0  0
  -26.0208  -26.8739   19.4931 C   0  0  0  0  0  0
  -24.8634  -27.6748   19.4864 C   0  0  0  0  0  0
  -23.6428  -29.8181   20.1616 C   0  0  0  0  0  0
  -25.4127  -36.3087   24.0324 C   0  0  1  0  0  0
  -20.5932  -28.3650   23.1247 C   0  0  2  0  0  0
  -20.6798  -26.9394   22.5323 C   0  0  0  0  0  0
  -19.5707  -26.6371   21.5200 C   0  0  0  0  0  0
  -18.1947  -26.7880   22.1741 C   0  0  0  0  0  0
  -19.1590  -28.8834   23.2879 C   0  0  0  0  0  0
  -18.9561  -30.1436   23.8904 C   0  0  0  0  0  0
  -17.6572  -30.6587   24.0618 C   0  0  0  0  0  0
  -25.9059  -34.9451   23.5099 C   0  0  0  0  0  0
  -16.5432  -29.9106   23.6418 C   0  0  0  0  0  0
  -16.7307  -28.6523   23.0413 C   0  0  0  0  0  0
  -26.4491  -31.6600   25.0749 C   0  0  0  0  0  0
  -25.3714  -31.3732   26.1466 C   0  0  0  0  0  0
  -27.0340  -30.3020   24.6230 C   0  0  0  0  0  0
  -27.6044  -32.4343   25.7504 C   0  0  0  0  0  0
  -27.5585  -37.1811   24.8466 C   0  0  0  0  0  0
  -21.4251  -29.3012   22.3676 N   0  0  0  0  0  0
  -26.4311  -37.3782   23.9392 N   0  0  0  0  0  0
  -24.6946  -31.0562   22.0995 N   0  0  0  0  0  0
  -23.4253  -28.8157   23.3058 O   0  0  0  0  0  0
  -28.2830  -26.3645   20.1826 O   0  0  0  0  0  0
  -26.5628  -34.8922   22.4662 O   0  0  0  0  0  0
  -23.5444  -32.1403   23.7313 O   0  0  0  0  0  0
  -27.8528  -19.9482   21.4410 C   0  0  0  0  0  0
  -28.5823  -20.9868   20.8776 C   0  0  0  0  0  0
  -29.5676  -18.5700   20.7028 C   0  0  0  0  0  0
  -28.3373  -23.4382   18.7034 C   0  0  0  0  0  0
  -30.4734  -17.2952   20.5589 C   0  0  0  0  0  0
  -28.0002  -24.9980   20.7377 C   0  0  0  0  0  0
  -28.6607  -23.6157   20.1942 C   0  0  2  0  0  0
  -28.3919  -18.6358   21.3417 N   0  0  0  0  0  0
  -28.2124  -22.3936   20.9616 N   0  0  0  0  0  0
  -29.9140  -15.8870   20.7175 N   0  0  0  0  0  0
  -30.0270  -20.2438   20.1490 S   0  0  0  0  0  0
  -31.4672  -12.5608   19.1843 H   0  0  0  0  0  0
  -30.3530  -11.4722   19.9621 H   0  0  0  0  0  0
  -29.8008  -11.7416   17.5209 H   0  0  0  0  0  0
  -29.6339  -13.4675   17.7312 H   0  0  0  0  0  0
  -27.9065  -11.2771   18.9274 H   0  0  0  0  0  0
  -27.3782  -12.4988   17.8007 H   0  0  0  0  0  0
  -27.6339  -14.2525   19.4601 H   0  0  0  0  0  0
  -28.7040  -12.1905   21.4475 H   0  0  0  0  0  0
  -28.4114  -13.8779   21.7851 H   0  0  0  0  0  0
  -25.2777   -9.5716   22.4731 H   0  0  0  0  0  0
  -24.0021   -7.4666   22.7466 H   0  0  0  0  0  0
  -21.0868   -8.8775   19.8957 H   0  0  0  0  0  0
  -22.3690  -10.9678   19.6149 H   0  0  0  0  0  0
  -21.2004   -7.6162   23.9728 H   0  0  0  0  0  0
  -21.1469   -6.0516   25.9072 H   0  0  0  0  0  0
  -22.0604   -2.7628   23.2823 H   0  0  0  0  0  0
  -22.4138  -11.9854   22.4775 H   0  0  0  0  0  0
  -21.1106  -13.1208   22.2638 H   0  0  0  0  0  0
  -24.6542  -15.8467   20.5065 H   0  0  0  0  0  0
  -26.2788  -15.6384   20.1038 H   0  0  0  0  0  0
  -26.7188  -32.5402   23.1108 H   0  0  0  0  0  0
  -25.0121  -33.9742   25.0442 H   0  0  0  0  0  0
  -22.7191  -31.3013   21.4040 H   0  0  0  0  0  0
  -23.3766  -35.9606   23.3309 H   0  0  0  0  0  0
  -24.3579  -36.8898   22.2054 H   0  0  0  0  0  0
  -23.7239  -37.6486   23.6651 H   0  0  0  0  0  0
  -26.1121  -31.5400   20.6138 H   0  0  0  0  0  0
  -26.8478  -30.8193   22.0157 H   0  0  0  0  0  0
  -28.1201  -28.9443   21.2003 H   0  0  0  0  0  0
  -25.9728  -25.9089   19.0090 H   0  0  0  0  0  0
  -23.9662  -27.3108   19.0052 H   0  0  0  0  0  0
  -23.7688  -30.5971   19.4084 H   0  0  0  0  0  0
  -22.7602  -29.2555   19.8531 H   0  0  0  0  0  0
  -25.1312  -36.1956   25.0822 H   0  0  0  0  0  0
  -21.0050  -28.3174   24.1356 H   0  0  0  0  0  0
  -20.5777  -26.2221   23.3485 H   0  0  0  0  0  0
  -21.6648  -26.7464   22.1033 H   0  0  0  0  0  0
  -19.6855  -25.6293   21.1190 H   0  0  0  0  0  0
  -19.6574  -27.3190   20.6732 H   0  0  0  0  0  0
  -17.4114  -26.6464   21.4286 H   0  0  0  0  0  0
  -18.0570  -26.0107   22.9261 H   0  0  0  0  0  0
  -19.8067  -30.7226   24.2259 H   0  0  0  0  0  0
  -17.5168  -31.6246   24.5271 H   0  0  0  0  0  0
  -15.5444  -30.3016   23.7818 H   0  0  0  0  0  0
  -15.8691  -28.0851   22.7181 H   0  0  0  0  0  0
  -24.5889  -30.7094   25.7777 H   0  0  0  0  0  0
  -24.8908  -32.2895   26.4904 H   0  0  0  0  0  0
  -25.8029  -30.8893   27.0240 H   0  0  0  0  0  0
  -26.2925  -29.6772   24.1243 H   0  0  0  0  0  0
  -27.4017  -29.7283   25.4749 H   0  0  0  0  0  0
  -27.8803  -30.4299   23.9478 H   0  0  0  0  0  0
  -27.2657  -33.3647   26.2072 H   0  0  0  0  0  0
  -28.3840  -32.6912   25.0318 H   0  0  0  0  0  0
  -28.0732  -31.8492   26.5429 H   0  0  0  0  0  0
  -28.2626  -38.0088   24.7515 H   0  0  0  0  0  0
  -28.1070  -36.2629   24.6306 H   0  0  0  0  0  0
  -27.2302  -37.1472   25.8872 H   0  0  0  0  0  0
  -20.9466  -29.8738   21.6870 H   0  0  0  0  0  0
  -26.0191  -38.2860   24.1386 H   0  0  0  0  0  0
  -26.9157  -20.0549   21.9707 H   0  0  0  0  0  0
  -27.2645  -23.3406   18.5308 H   0  0  0  0  0  0
  -28.8252  -22.5551   18.2904 H   0  0  0  0  0  0
  -28.6832  -24.2954   18.1256 H   0  0  0  0  0  0
  -31.2786  -17.4007   21.2884 H   0  0  0  0  0  0
  -30.9585  -17.3605   19.5840 H   0  0  0  0  0  0
  -28.2778  -25.0814   21.7900 H   0  0  0  0  0  0
  -26.9241  -24.8310   20.7713 H   0  0  0  0  0  0
  -29.7440  -23.6943   20.3025 H   0  0  0  0  0  0
  -27.4273  -22.5800   21.5828 H   0  0  0  0  0  0
  -28.9384  -15.8124   20.9582 H   0  0  0  0  0  0
  1 25  1  0  0  0
  1 30  2  0  0  0
  1 80  1  0  0  0
  2  3  1  0  0  0
  2 25  1  0  0  0
  2 82  1  0  0  0
  2 83  1  0  0  0
  3  4  1  0  0  0
  3 84  1  0  0  0
  3 85  1  0  0  0
  4  5  1  0  0  0
  4 86  1  0  0  0
  4 87  1  0  0  0
  5  6  1  0  0  0
  5 26  1  0  0  0
  5 88  1  0  0  0
  6 25  1  0  0  0
  6 89  1  0  0  0
  6 90  1  0  0  0
  7  8  2  0  0  0
  7 26  1  0  0  0
  7 29  1  0  0  0
  8  9  1  0  0  0
  8 22  1  0  0  0
  9 10  1  0  0  0
  9 27  2  0  0  0
 10 11  2  0  0  0
 10 15  1  0  0  0
 11 12  1  0  0  0
 11 91  1  0  0  0
 12 13  2  0  0  0
 12 92  1  0  0  0
 13 14  1  0  0  0
 13 31  1  0  0  0
 14 15  2  0  0  0
 14 93  1  0  0  0
 15 94  1  0  0  0
 16 17  2  0  0  0
 16 21  1  0  0  0
 16 31  1  0  0  0
 17 18  1  0  0  0
 17 95  1  0  0  0
 18 19  2  0  0  0
 18 96  1  0  0  0
 19 20  1  0  0  0
 19 24  1  0  0  0
 20 21  2  0  0  0
 20 97  1  0  0  0
 21 23  1  0  0  0
 22 28  1  0  0  0
 22 32  2  0  0  0
 26 27  1  0  0  0
 28 98  1  0  0  0
 28 99  1  0  0  0
 29100  1  0  0  0
 29101  1  0  0  0
 33 34  1  0  0  0
 33 66  1  0  0  0
 33 70  2  0  0  0
 34 36  1  0  0  0
 34 59  1  0  0  0
 34102  1  0  0  0
 35 44  2  0  0  0
 35 45  1  0  0  0
 35 68  1  0  0  0
 36 56  1  0  0  0
 36103  1  0  0  0
 37 39  1  0  0  0
 37 47  1  0  0  0
 37 66  1  0  0  0
 37104  1  0  0  0
 38 43  2  0  0  0
 38 46  1  0  0  0
 38 47  1  0  0  0
 39 64  1  0  0  0
 39 67  2  0  0  0
 40 52  1  0  0  0
 40 53  2  0  0  0
 40 58  1  0  0  0
 41105  1  0  0  0
 41106  1  0  0  0
 41107  1  0  0  0
 41 48  1  0  0  0
 42 43  1  0  0  0
 42 66  1  0  0  0
 42108  1  0  0  0
 42109  1  0  0  0
 43 44  1  0  0  0
 44110  1  0  0  0
 45 46  2  0  0  0
 45111  1  0  0  0
 46112  1  0  0  0
 47113  1  0  0  0
 47114  1  0  0  0
 48 56  1  0  0  0
 48 65  1  0  0  0
 48115  1  0  0  0
 49 50  1  0  0  0
 49 53  1  0  0  0
 49 64  1  0  0  0
 49116  1  0  0  0
 50 51  1  0  0  0
 50117  1  0  0  0
 50118  1  0  0  0
 51 52  1  0  0  0
 51119  1  0  0  0
 51120  1  0  0  0
 52121  1  0  0  0
 52122  1  0  0  0
 53 54  1  0  0  0
 54 55  2  0  0  0
 54123  1  0  0  0
 55 57  1  0  0  0
 55124  1  0  0  0
 56 69  2  0  0  0
 57 58  2  0  0  0
 57125  1  0  0  0
 58126  1  0  0  0
 59 60  1  0  0  0
 59 61  1  0  0  0
 59 62  1  0  0  0
 60127  1  0  0  0
 60128  1  0  0  0
 60129  1  0  0  0
 61130  1  0  0  0
 61131  1  0  0  0
 61132  1  0  0  0
 62133  1  0  0  0
 62134  1  0  0  0
 62135  1  0  0  0
 63 65  1  0  0  0
 63136  1  0  0  0
 63137  1  0  0  0
 63138  1  0  0  0
 64139  1  0  0  0
 65140  1  0  0  0
 68 76  1  0  0  0
 71 72  2  0  0  0
 71 78  1  0  0  0
 71141  1  0  0  0
 72 79  1  0  0  0
 72 81  1  0  0  0
 73 75  1  0  0  0
 73 78  2  0  0  0
 73 81  1  0  0  0
 74142  1  0  0  0
 74143  1  0  0  0
 74144  1  0  0  0
 74 77  1  0  0  0
 75 80  1  0  0  0
 75145  1  0  0  0
 75146  1  0  0  0
 76 77  1  0  0  0
 76147  1  0  0  0
 76148  1  0  0  0
 77 79  1  0  0  0
 77149  1  0  0  0
 79150  1  0  0  0
 80151  1  0  0  0
M  ISO  4   1 100  68 101  76 101  80 100
M  END
> <chiral flag>
0

> <version>
0

> <s_m_source_file>
/data/baiqing/PycharmProjects/Reinvent-master-3.2/result/LINK_invent/BTK/process_docking_weight1_custom_product_contain_oxygen_bond_distance_aromatic_linkinvent_7_9_3/rearranged_h_0198.sdf

> <i_m_source_file_index>
11

> <r_mmod_Potential_Energy-OPLS-2005>
62.6572761535645

> <r_mmod_Stretch_Energy-OPLS-2005>
105.760231018066

> <r_mmod_Bend_Energy-OPLS-2005>
187.010330200195

> <r_mmod_Torsional_Energy-OPLS-2005>
209.838912963867

> <r_mmod_Improper_Torsional_Energy-OPLS-2005>
4.96582794189453

> <r_mmod_Van_der_Waal_Energy-OPLS-2005>
114.997985839844

> <r_mmod_Electrostatic_Energy-OPLS-2005>
-416.861724853516

> <r_mmod_Solvation_Energy-OPLS-2005>
-224.050811767578

> <b_mmod_Minimization_Converged-OPLS-2005>
0

> <r_mmod_RMS_Derivative-OPLS-2005>
2.5505211353302

$$$$
11
                    3D
 Structure written by MMmdl.
154162  0  0  1  0            999 V2000
  -30.7377  -14.4283   20.5806 C   0  0  0  0  0  0
  -30.4055  -12.2842   19.4184 C   0  0  0  0  0  0
  -29.4881  -12.4982   18.1994 C   0  0  0  0  0  0
  -28.0077  -12.3693   18.6087 C   0  0  0  0  0  0
  -27.6594  -13.2097   19.8685 C   0  0  2  0  0  0
  -28.6978  -12.9990   20.9932 C   0  0  0  0  0  0
  -25.2592  -13.8193   20.5690 C   0  0  0  0  0  0
  -24.1839  -13.0459   20.9170 C   0  0  0  0  0  0
  -24.6383  -11.6926   20.8713 C   0  0  0  0  0  0
  -23.9051  -10.4305   21.0378 C   0  0  0  0  0  0
  -24.3632   -9.4227   21.9157 C   0  0  0  0  0  0
  -23.6322   -8.2248   22.0723 C   0  0  0  0  0  0
  -22.4301   -8.0273   21.3518 C   0  0  0  0  0  0
  -21.9921   -9.0236   20.4617 C   0  0  0  0  0  0
  -22.7225  -10.2130   20.3016 C   0  0  0  0  0  0
  -21.6861   -6.0741   22.5281 C   0  0  0  0  0  0
  -21.4024   -6.5652   23.8219 C   0  0  0  0  0  0
  -21.3656   -5.6796   24.9177 C   0  0  0  0  0  0
  -21.6035   -4.3055   24.7227 C   0  0  0  0  0  0
  -21.8829   -3.8149   23.4350 C   0  0  0  0  0  0
  -21.9214   -4.6970   22.3405 C   0  0  0  0  0  0
  -22.7866  -13.5234   21.1855 C   0  0  0  0  0  0
  -22.1680   -4.2163   21.0978 F   0  0  0  0  0  0
  -21.5619   -3.4534   25.7739 F   0  0  0  0  0  0
  -30.0334  -13.2738   20.4420 N   0  0  0  0  0  0
  -26.3013  -12.9359   20.3336 N   0  0  0  0  0  0
  -25.9311  -11.6513   20.5751 N   0  0  0  0  0  0
  -22.0541  -12.8174   22.0408 N   0  0  0  0  0  0
  -25.4359  -15.1921   20.4142 N   0  0  0  0  0  0
  -31.8479  -14.5962   20.0696 O   0  0  0  0  0  0
  -21.6650   -6.8879   21.4235 O   0  0  0  0  0  0
  -22.3529  -14.5530   20.6698 O   0  0  0  0  0  0
  -24.6101  -31.8699   23.2125 C   0  0  0  0  0  0
  -25.9003  -32.4833   23.8413 C   0  0  1  0  0  0
  -27.2369  -27.4767   20.0832 C   0  0  0  0  0  0
  -25.5880  -33.8634   24.2348 N   0  0  0  0  0  0
  -23.3989  -30.4921   21.5500 C   0  0  2  0  0  0
  -24.8467  -28.9623   20.1133 C   0  0  0  0  0  0
  -22.7405  -29.4661   22.4995 C   0  0  0  0  0  0
  -18.0288  -28.1389   22.8499 C   0  0  0  0  0  0
  -24.1498  -36.7312   23.2637 C   0  0  0  0  0  0
  -25.9217  -30.8467   21.3590 C   0  0  0  0  0  0
  -26.0015  -29.4829   20.7107 C   0  0  0  0  0  0
  -27.2018  -28.7433   20.7010 C   0  0  0  0  0  0
  -26.0749  -26.9596   19.4802 C   0  0  0  0  0  0
  -24.8741  -27.6963   19.5005 C   0  0  0  0  0  0
  -23.6051  -29.8217   20.1641 C   0  0  0  0  0  0
  -25.4111  -36.3120   24.0343 C   0  0  1  0  0  0
  -20.5878  -28.3663   23.1339 C   0  0  2  0  0  0
  -20.6780  -26.9401   22.5425 C   0  0  0  0  0  0
  -19.5755  -26.6392   21.5229 C   0  0  0  0  0  0
  -18.1934  -26.7936   22.1629 C   0  0  0  0  0  0
  -19.1535  -28.8840   23.2921 C   0  0  0  0  0  0
  -18.9451  -30.1449   23.8924 C   0  0  0  0  0  0
  -17.6452  -30.6584   24.0574 C   0  0  0  0  0  0
  -25.9037  -34.9483   23.5140 C   0  0  0  0  0  0
  -16.5350  -29.9086   23.6321 C   0  0  0  0  0  0
  -16.7277  -28.6509   23.0332 C   0  0  0  0  0  0
  -26.4460  -31.6596   25.0718 C   0  0  0  0  0  0
  -25.3740  -31.3680   26.1470 C   0  0  0  0  0  0
  -27.0267  -30.3058   24.6017 C   0  0  0  0  0  0
  -27.6057  -32.4305   25.7453 C   0  0  0  0  0  0
  -27.5592  -37.1804   24.8463 C   0  0  0  0  0  0
  -21.4137  -29.3035   22.3731 N   0  0  0  0  0  0
  -26.4305  -37.3794   23.9412 N   0  0  0  0  0  0
  -24.6615  -31.0827   22.1002 N   0  0  0  0  0  0
  -23.4191  -28.8206   23.3027 O   0  0  0  0  0  0
  -28.3851  -26.7296   20.0724 O   0  0  0  0  0  0
  -26.5588  -34.8919   22.4700 O   0  0  0  0  0  0
  -23.5298  -32.1431   23.7539 O   0  0  0  0  0  0
  -29.4245  -20.3871   23.8265 C   0  0  0  0  0  0
  -29.7979  -20.3855   22.5034 C   0  0  0  0  0  0
  -29.0379  -22.5220   22.6969 C   0  0  0  0  0  0
  -30.4674  -19.2734   21.7408 C   0  0  0  0  0  0
  -29.8386  -17.8706   21.9169 C   0  0  0  0  0  0
  -30.6396  -16.8204   21.1226 C   0  0  0  0  0  0
  -28.7729  -24.5667   21.0910 C   0  0  0  0  0  0
  -28.6448  -26.0841   21.3161 C   0  0  0  0  0  0
  -29.5490  -21.6103   21.8676 N   0  0  0  0  0  0
  -28.7434  -23.8269   22.3452 N   0  0  0  0  0  0
  -30.1120  -15.4508   21.1866 N   0  0  0  0  0  0
  -28.7703  -21.9242   24.3265 S   0  0  0  0  0  0
  -31.4538  -12.3527   19.1211 H   0  0  0  0  0  0
  -30.2770  -11.2756   19.8131 H   0  0  0  0  0  0
  -29.7207  -11.7722   17.4178 H   0  0  0  0  0  0
  -29.6711  -13.4814   17.7626 H   0  0  0  0  0  0
  -27.7994  -11.3139   18.7940 H   0  0  0  0  0  0
  -27.3662  -12.6588   17.7758 H   0  0  0  0  0  0
  -27.7046  -14.2571   19.5691 H   0  0  0  0  0  0
  -28.6585  -11.9690   21.3496 H   0  0  0  0  0  0
  -28.4644  -13.6236   21.8564 H   0  0  0  0  0  0
  -25.2791   -9.5728   22.4706 H   0  0  0  0  0  0
  -24.0073   -7.4635   22.7410 H   0  0  0  0  0  0
  -21.0872   -8.8700   19.8911 H   0  0  0  0  0  0
  -22.3659  -10.9647   19.6108 H   0  0  0  0  0  0
  -21.1998   -7.6160   23.9726 H   0  0  0  0  0  0
  -21.1471   -6.0521   25.9083 H   0  0  0  0  0  0
  -22.0613   -2.7609   23.2842 H   0  0  0  0  0  0
  -22.4232  -11.9883   22.4825 H   0  0  0  0  0  0
  -21.1101  -13.1061   22.2559 H   0  0  0  0  0  0
  -24.6771  -15.8566   20.5214 H   0  0  0  0  0  0
  -26.2963  -15.6228   20.0988 H   0  0  0  0  0  0
  -26.7064  -32.5562   23.1171 H   0  0  0  0  0  0
  -25.0068  -33.9818   25.0509 H   0  0  0  0  0  0
  -22.6868  -31.3074   21.4086 H   0  0  0  0  0  0
  -23.3769  -35.9642   23.3307 H   0  0  0  0  0  0
  -24.3605  -36.8917   22.2056 H   0  0  0  0  0  0
  -23.7244  -37.6520   23.6632 H   0  0  0  0  0  0
  -26.0273  -31.6105   20.5879 H   0  0  0  0  0  0
  -26.8129  -30.9044   21.9713 H   0  0  0  0  0  0
  -28.0956  -29.1412   21.1602 H   0  0  0  0  0  0
  -26.0967  -25.9888   19.0059 H   0  0  0  0  0  0
  -23.9826  -27.2875   19.0459 H   0  0  0  0  0  0
  -23.7077  -30.5928   19.3992 H   0  0  0  0  0  0
  -22.7343  -29.2327   19.8734 H   0  0  0  0  0  0
  -25.1293  -36.1995   25.0839 H   0  0  0  0  0  0
  -20.9982  -28.3208   24.1456 H   0  0  0  0  0  0
  -20.5710  -26.2256   23.3599 H   0  0  0  0  0  0
  -21.6641  -26.7457   22.1192 H   0  0  0  0  0  0
  -19.6909  -25.6312   21.1234 H   0  0  0  0  0  0
  -19.6701  -27.3228   20.6784 H   0  0  0  0  0  0
  -17.4210  -26.6722   21.4016 H   0  0  0  0  0  0
  -18.0305  -26.0072   22.9018 H   0  0  0  0  0  0
  -19.7925  -30.7273   24.2292 H   0  0  0  0  0  0
  -17.5000  -31.6265   24.5180 H   0  0  0  0  0  0
  -15.5346  -30.2989   23.7630 H   0  0  0  0  0  0
  -15.8686  -28.0843   22.7007 H   0  0  0  0  0  0
  -24.5930  -30.7006   25.7807 H   0  0  0  0  0  0
  -24.8898  -32.2820   26.4921 H   0  0  0  0  0  0
  -25.8108  -30.8854   27.0217 H   0  0  0  0  0  0
  -26.2765  -29.6840   24.1113 H   0  0  0  0  0  0
  -27.4137  -29.7275   25.4416 H   0  0  0  0  0  0
  -27.8562  -30.4440   23.9077 H   0  0  0  0  0  0
  -27.2707  -33.3606   26.2057 H   0  0  0  0  0  0
  -28.3832  -32.6861   25.0239 H   0  0  0  0  0  0
  -28.0748  -31.8401   26.5334 H   0  0  0  0  0  0
  -28.2609  -38.0110   24.7529 H   0  0  0  0  0  0
  -28.1101  -36.2639   24.6265 H   0  0  0  0  0  0
  -27.2310  -37.1420   25.8871 H   0  0  0  0  0  0
  -20.9285  -29.8741   21.6943 H   0  0  0  0  0  0
  -26.0204  -38.2879   24.1419 H   0  0  0  0  0  0
  -29.5117  -19.5863   24.5469 H   0  0  0  0  0  0
  -31.5176  -19.2343   22.0324 H   0  0  0  0  0  0
  -30.4786  -19.5130   20.6767 H   0  0  0  0  0  0
  -28.8013  -17.8914   21.5821 H   0  0  0  0  0  0
  -29.8265  -17.5962   22.9718 H   0  0  0  0  0  0
  -31.6719  -16.8196   21.4796 H   0  0  0  0  0  0
  -30.6776  -17.1191   20.0730 H   0  0  0  0  0  0
  -29.6926  -24.3397   20.5500 H   0  0  0  0  0  0
  -27.9478  -24.2176   20.4682 H   0  0  0  0  0  0
  -29.5604  -26.4925   21.7442 H   0  0  0  0  0  0
  -27.8504  -26.2818   22.0412 H   0  0  0  0  0  0
  -28.3719  -24.3673   23.1196 H   0  0  0  0  0  0
  -29.1952  -15.2922   21.5787 H   0  0  0  0  0  0
  1 25  1  0  0  0
  1 30  2  0  0  0
  1 81  1  0  0  0
  2  3  1  0  0  0
  2 25  1  0  0  0
  2 83  1  0  0  0
  2 84  1  0  0  0
  3  4  1  0  0  0
  3 85  1  0  0  0
  3 86  1  0  0  0
  4  5  1  0  0  0
  4 87  1  0  0  0
  4 88  1  0  0  0
  5  6  1  0  0  0
  5 26  1  0  0  0
  5 89  1  0  0  0
  6 25  1  0  0  0
  6 90  1  0  0  0
  6 91  1  0  0  0
  7  8  2  0  0  0
  7 26  1  0  0  0
  7 29  1  0  0  0
  8  9  1  0  0  0
  8 22  1  0  0  0
  9 10  1  0  0  0
  9 27  2  0  0  0
 10 11  2  0  0  0
 10 15  1  0  0  0
 11 12  1  0  0  0
 11 92  1  0  0  0
 12 13  2  0  0  0
 12 93  1  0  0  0
 13 14  1  0  0  0
 13 31  1  0  0  0
 14 15  2  0  0  0
 14 94  1  0  0  0
 15 95  1  0  0  0
 16 17  2  0  0  0
 16 21  1  0  0  0
 16 31  1  0  0  0
 17 18  1  0  0  0
 17 96  1  0  0  0
 18 19  2  0  0  0
 18 97  1  0  0  0
 19 20  1  0  0  0
 19 24  1  0  0  0
 20 21  2  0  0  0
 20 98  1  0  0  0
 21 23  1  0  0  0
 22 28  1  0  0  0
 22 32  2  0  0  0
 26 27  1  0  0  0
 28 99  1  0  0  0
 28100  1  0  0  0
 29101  1  0  0  0
 29102  1  0  0  0
 33 34  1  0  0  0
 33 66  1  0  0  0
 33 70  2  0  0  0
 34 36  1  0  0  0
 34 59  1  0  0  0
 34103  1  0  0  0
 35 44  2  0  0  0
 35 45  1  0  0  0
 35 68  1  0  0  0
 36 56  1  0  0  0
 36104  1  0  0  0
 37 39  1  0  0  0
 37 47  1  0  0  0
 37 66  1  0  0  0
 37105  1  0  0  0
 38 43  2  0  0  0
 38 46  1  0  0  0
 38 47  1  0  0  0
 39 64  1  0  0  0
 39 67  2  0  0  0
 40 52  1  0  0  0
 40 53  2  0  0  0
 40 58  1  0  0  0
 41106  1  0  0  0
 41107  1  0  0  0
 41108  1  0  0  0
 41 48  1  0  0  0
 42 43  1  0  0  0
 42 66  1  0  0  0
 42109  1  0  0  0
 42110  1  0  0  0
 43 44  1  0  0  0
 44111  1  0  0  0
 45 46  2  0  0  0
 45112  1  0  0  0
 46113  1  0  0  0
 47114  1  0  0  0
 47115  1  0  0  0
 48 56  1  0  0  0
 48 65  1  0  0  0
 48116  1  0  0  0
 49 50  1  0  0  0
 49 53  1  0  0  0
 49 64  1  0  0  0
 49117  1  0  0  0
 50 51  1  0  0  0
 50118  1  0  0  0
 50119  1  0  0  0
 51 52  1  0  0  0
 51120  1  0  0  0
 51121  1  0  0  0
 52122  1  0  0  0
 52123  1  0  0  0
 53 54  1  0  0  0
 54 55  2  0  0  0
 54124  1  0  0  0
 55 57  1  0  0  0
 55125  1  0  0  0
 56 69  2  0  0  0
 57 58  2  0  0  0
 57126  1  0  0  0
 58127  1  0  0  0
 59 60  1  0  0  0
 59 61  1  0  0  0
 59 62  1  0  0  0
 60128  1  0  0  0
 60129  1  0  0  0
 60130  1  0  0  0
 61131  1  0  0  0
 61132  1  0  0  0
 61133  1  0  0  0
 62134  1  0  0  0
 62135  1  0  0  0
 62136  1  0  0  0
 63 65  1  0  0  0
 63137  1  0  0  0
 63138  1  0  0  0
 63139  1  0  0  0
 64140  1  0  0  0
 65141  1  0  0  0
 68 78  1  0  0  0
 71 72  2  0  0  0
 71 82  1  0  0  0
 71142  1  0  0  0
 72 74  1  0  0  0
 72 79  1  0  0  0
 73 79  2  0  0  0
 73 80  1  0  0  0
 73 82  1  0  0  0
 74 75  1  0  0  0
 74143  1  0  0  0
 74144  1  0  0  0
 75 76  1  0  0  0
 75145  1  0  0  0
 75146  1  0  0  0
 76 81  1  0  0  0
 76147  1  0  0  0
 76148  1  0  0  0
 77 78  1  0  0  0
 77 80  1  0  0  0
 77149  1  0  0  0
 77150  1  0  0  0
 78151  1  0  0  0
 78152  1  0  0  0
 80153  1  0  0  0
 81154  1  0  0  0
M  ISO  4   1 100  68 101  78 101  81 100
M  END
> <chiral flag>
0

> <version>
0

> <s_m_source_file>
/data/baiqing/PycharmProjects/Reinvent-master-3.2/result/LINK_invent/BTK/process_docking_weight1_custom_product_contain_oxygen_bond_distance_aromatic_linkinvent_7_9_3/rearranged_h_0198.sdf

> <i_m_source_file_index>
12

> <r_mmod_Potential_Energy-OPLS-2005>
-210.209747314453

> <r_mmod_Stretch_Energy-OPLS-2005>
30.6523208618164

> <r_mmod_Bend_Energy-OPLS-2005>
85.8886337280273

> <r_mmod_Torsional_Energy-OPLS-2005>
210.929321289062

> <r_mmod_Improper_Torsional_Energy-OPLS-2005>
3.28763222694397

> <r_mmod_Van_der_Waal_Energy-OPLS-2005>
128.5830078125

> <r_mmod_Electrostatic_Energy-OPLS-2005>
-445.954345703125

> <r_mmod_Solvation_Energy-OPLS-2005>
-233.153366088867

> <b_mmod_Minimization_Converged-OPLS-2005>
0

> <r_mmod_RMS_Derivative-OPLS-2005>
2.4558789730072

$$$$
12
                    3D
 Structure written by MMmdl.
156164  0  0  1  0            999 V2000
  -30.6154  -14.6542   20.4880 C   0  0  0  0  0  0
  -30.4376  -12.3971   19.4574 C   0  0  0  0  0  0
  -29.5082  -12.5083   18.2276 C   0  0  0  0  0  0
  -28.0318  -12.3442   18.6382 C   0  0  0  0  0  0
  -27.6529  -13.2169   19.8638 C   0  0  2  0  0  0
  -28.6982  -13.0762   20.9943 C   0  0  0  0  0  0
  -25.2563  -13.8171   20.5693 C   0  0  0  0  0  0
  -24.1832  -13.0438   20.9197 C   0  0  0  0  0  0
  -24.6395  -11.6904   20.8735 C   0  0  0  0  0  0
  -23.9062  -10.4291   21.0392 C   0  0  0  0  0  0
  -24.3621   -9.4208   21.9172 C   0  0  0  0  0  0
  -23.6297   -8.2241   22.0739 C   0  0  0  0  0  0
  -22.4279   -8.0276   21.3537 C   0  0  0  0  0  0
  -21.9911   -9.0250   20.4637 C   0  0  0  0  0  0
  -22.7233  -10.2132   20.3046 C   0  0  0  0  0  0
  -21.6859   -6.0731   22.5276 C   0  0  0  0  0  0
  -21.4018   -6.5629   23.8210 C   0  0  0  0  0  0
  -21.3661   -5.6781   24.9172 C   0  0  0  0  0  0
  -21.6046   -4.3044   24.7221 C   0  0  0  0  0  0
  -21.8819   -3.8135   23.4341 C   0  0  0  0  0  0
  -21.9196   -4.6958   22.3403 C   0  0  0  0  0  0
  -22.7853  -13.5235   21.1852 C   0  0  0  0  0  0
  -22.1663   -4.2141   21.0980 F   0  0  0  0  0  0
  -21.5630   -3.4529   25.7737 F   0  0  0  0  0  0
  -30.0132  -13.4226   20.4320 N   0  0  0  0  0  0
  -26.2988  -12.9349   20.3324 N   0  0  0  0  0  0
  -25.9324  -11.6505   20.5753 N   0  0  0  0  0  0
  -22.0500  -12.8227   22.0415 N   0  0  0  0  0  0
  -25.4277  -15.1889   20.4085 N   0  0  0  0  0  0
  -31.7793  -14.8068   20.1005 O   0  0  0  0  0  0
  -21.6635   -6.8876   21.4239 O   0  0  0  0  0  0
  -22.3540  -14.5538   20.6690 O   0  0  0  0  0  0
  -24.6244  -31.8599   23.2022 C   0  0  0  0  0  0
  -25.9090  -32.4780   23.8362 C   0  0  1  0  0  0
  -27.2287  -27.3305   20.1238 C   0  0  0  0  0  0
  -25.5907  -33.8580   24.2285 N   0  0  0  0  0  0
  -23.4191  -30.4810   21.5438 C   0  0  2  0  0  0
  -24.8684  -28.9320   20.1150 C   0  0  0  0  0  0
  -22.7468  -29.4624   22.4944 C   0  0  0  0  0  0
  -18.0284  -28.1392   22.8477 C   0  0  0  0  0  0
  -24.1484  -36.7299   23.2643 C   0  0  0  0  0  0
  -25.9591  -30.7940   21.3710 C   0  0  0  0  0  0
  -26.0364  -29.4208   20.7166 C   0  0  0  0  0  0
  -27.2230  -28.6315   20.7096 C   0  0  0  0  0  0
  -26.0433  -26.8877   19.5016 C   0  0  0  0  0  0
  -24.8718  -27.6696   19.4996 C   0  0  0  0  0  0
  -23.6350  -29.8103   20.1609 C   0  0  0  0  0  0
  -25.4110  -36.3080   24.0327 C   0  0  1  0  0  0
  -20.5884  -28.3686   23.1287 C   0  0  2  0  0  0
  -20.6768  -26.9410   22.5415 C   0  0  0  0  0  0
  -19.5750  -26.6388   21.5211 C   0  0  0  0  0  0
  -18.1928  -26.7938   22.1619 C   0  0  0  0  0  0
  -19.1537  -28.8855   23.2879 C   0  0  0  0  0  0
  -18.9467  -30.1460   23.8895 C   0  0  0  0  0  0
  -17.6469  -30.6598   24.0565 C   0  0  0  0  0  0
  -25.9040  -34.9449   23.5108 C   0  0  0  0  0  0
  -16.5355  -29.9103   23.6332 C   0  0  0  0  0  0
  -16.7272  -28.6523   23.0342 C   0  0  0  0  0  0
  -26.4468  -31.6586   25.0727 C   0  0  0  0  0  0
  -25.3704  -31.3733   26.1462 C   0  0  0  0  0  0
  -27.0306  -30.3003   24.6179 C   0  0  0  0  0  0
  -27.6035  -32.4319   25.7484 C   0  0  0  0  0  0
  -27.5583  -37.1805   24.8465 C   0  0  0  0  0  0
  -21.4186  -29.3042   22.3683 N   0  0  0  0  0  0
  -26.4294  -37.3770   23.9405 N   0  0  0  0  0  0
  -24.6860  -31.0619   22.0966 N   0  0  0  0  0  0
  -23.4193  -28.8164   23.3025 O   0  0  0  0  0  0
  -28.3380  -26.4752   20.1371 O   0  0  0  0  0  0
  -26.5625  -34.8917   22.4683 O   0  0  0  0  0  0
  -23.5413  -32.1404   23.7352 O   0  0  0  0  0  0
  -28.7812  -17.9367   21.1044 C   0  0  0  0  0  0
  -30.8077  -19.1743   19.8857 C   0  0  0  0  0  0
  -29.8816  -17.1464   20.6439 C   0  0  0  0  0  0
  -29.7076  -19.9538   20.3549 C   0  0  0  0  0  0
  -28.8435  -22.2886   22.3296 C   0  0  0  0  0  0
  -28.5227  -25.5660   22.2951 C   0  0  0  0  0  0
  -29.0429  -23.9267   20.3033 C   0  0  0  0  0  0
  -28.7777  -22.4067   20.7968 C   0  0  1  0  0  0
  -28.1813  -25.1797   20.8408 C   0  0  2  0  0  0
  -30.8985  -17.8118   20.0239 N   0  0  0  0  0  0
  -28.6852  -19.3002   20.9661 N   0  0  0  0  0  0
  -29.8072  -15.6996   20.8527 N   0  0  0  0  0  0
  -29.6865  -21.3828   20.1812 N   0  0  0  0  0  0
  -31.4795  -12.5179   19.1565 H   0  0  0  0  0  0
  -30.3696  -11.4036   19.9028 H   0  0  0  0  0  0
  -29.7757  -11.7558   17.4843 H   0  0  0  0  0  0
  -29.6476  -13.4764   17.7439 H   0  0  0  0  0  0
  -27.8697  -11.2918   18.8727 H   0  0  0  0  0  0
  -27.3782  -12.5710   17.7946 H   0  0  0  0  0  0
  -27.6691  -14.2513   19.5199 H   0  0  0  0  0  0
  -28.7137  -12.0551   21.3780 H   0  0  0  0  0  0
  -28.4431  -13.7075   21.8467 H   0  0  0  0  0  0
  -25.2770   -9.5682   22.4740 H   0  0  0  0  0  0
  -24.0008   -7.4630   22.7455 H   0  0  0  0  0  0
  -21.0838   -8.8759   19.8954 H   0  0  0  0  0  0
  -22.3681  -10.9664   19.6146 H   0  0  0  0  0  0
  -21.2009   -7.6136   23.9714 H   0  0  0  0  0  0
  -21.1487   -6.0509   25.9078 H   0  0  0  0  0  0
  -22.0601   -2.7596   23.2840 H   0  0  0  0  0  0
  -22.4127  -11.9902   22.4822 H   0  0  0  0  0  0
  -21.1113  -13.1239   22.2608 H   0  0  0  0  0  0
  -24.6529  -15.8372   20.5006 H   0  0  0  0  0  0
  -26.2547  -15.6168   20.0141 H   0  0  0  0  0  0
  -26.7165  -32.5455   23.1119 H   0  0  0  0  0  0
  -25.0015  -33.9721   25.0406 H   0  0  0  0  0  0
  -22.7131  -31.3009   21.3970 H   0  0  0  0  0  0
  -23.3738  -35.9641   23.3306 H   0  0  0  0  0  0
  -24.3585  -36.8918   22.2061 H   0  0  0  0  0  0
  -23.7243  -37.6501   23.6670 H   0  0  0  0  0  0
  -26.0872  -31.5532   20.5981 H   0  0  0  0  0  0
  -26.8416  -30.8481   21.9979 H   0  0  0  0  0  0
  -28.1208  -28.9994   21.1882 H   0  0  0  0  0  0
  -26.0176  -25.9168   19.0280 H   0  0  0  0  0  0
  -23.9759  -27.2862   19.0309 H   0  0  0  0  0  0
  -23.7550  -30.5839   19.4013 H   0  0  0  0  0  0
  -22.7564  -29.2370   19.8589 H   0  0  0  0  0  0
  -25.1291  -36.1938   25.0820 H   0  0  0  0  0  0
  -20.9972  -28.3263   24.1410 H   0  0  0  0  0  0
  -20.5660  -26.2300   23.3613 H   0  0  0  0  0  0
  -21.6639  -26.7442   22.1215 H   0  0  0  0  0  0
  -19.6906  -25.6298   21.1244 H   0  0  0  0  0  0
  -19.6692  -27.3195   20.6738 H   0  0  0  0  0  0
  -17.4194  -26.6673   21.4026 H   0  0  0  0  0  0
  -18.0338  -26.0095   22.9030 H   0  0  0  0  0  0
  -19.7940  -30.7275   24.2266 H   0  0  0  0  0  0
  -17.5024  -31.6274   24.5177 H   0  0  0  0  0  0
  -15.5356  -30.3007   23.7664 H   0  0  0  0  0  0
  -15.8665  -28.0852   22.7048 H   0  0  0  0  0  0
  -24.5836  -30.7143   25.7779 H   0  0  0  0  0  0
  -24.8935  -32.2895   26.4960 H   0  0  0  0  0  0
  -25.8018  -30.8851   27.0208 H   0  0  0  0  0  0
  -26.2889  -29.6733   24.1220 H   0  0  0  0  0  0
  -27.4015  -29.7258   25.4674 H   0  0  0  0  0  0
  -27.8737  -30.4312   23.9392 H   0  0  0  0  0  0
  -27.2655  -33.3624   26.2065 H   0  0  0  0  0  0
  -28.3828  -32.6875   25.0295 H   0  0  0  0  0  0
  -28.0708  -31.8462   26.5405 H   0  0  0  0  0  0
  -28.2601  -38.0103   24.7511 H   0  0  0  0  0  0
  -28.1071  -36.2632   24.6280 H   0  0  0  0  0  0
  -27.2308  -37.1458   25.8870 H   0  0  0  0  0  0
  -20.9366  -29.8775   21.6896 H   0  0  0  0  0  0
  -26.0161  -38.2835   24.1405 H   0  0  0  0  0  0
  -27.9466  -17.4635   21.6004 H   0  0  0  0  0  0
  -31.6407  -19.6523   19.3919 H   0  0  0  0  0  0
  -27.9595  -22.7268   22.7875 H   0  0  0  0  0  0
  -29.7273  -22.7825   22.7340 H   0  0  0  0  0  0
  -28.8649  -21.2574   22.6777 H   0  0  0  0  0  0
  -28.2519  -24.8041   23.0180 H   0  0  0  0  0  0
  -27.9834  -26.4616   22.6044 H   0  0  0  0  0  0
  -29.5874  -25.7744   22.4083 H   0  0  0  0  0  0
  -28.9302  -23.9231   19.2191 H   0  0  0  0  0  0
  -30.0947  -24.1597   20.4716 H   0  0  0  0  0  0
  -27.7663  -22.1352   20.4896 H   0  0  0  0  0  0
  -27.1351  -24.8743   20.8084 H   0  0  0  0  0  0
  -28.9287  -15.3901   21.2356 H   0  0  0  0  0  0
  -30.4694  -21.7530   19.6488 H   0  0  0  0  0  0
  1 25  1  0  0  0
  1 30  2  0  0  0
  1 82  1  0  0  0
  2  3  1  0  0  0
  2 25  1  0  0  0
  2 84  1  0  0  0
  2 85  1  0  0  0
  3  4  1  0  0  0
  3 86  1  0  0  0
  3 87  1  0  0  0
  4  5  1  0  0  0
  4 88  1  0  0  0
  4 89  1  0  0  0
  5  6  1  0  0  0
  5 26  1  0  0  0
  5 90  1  0  0  0
  6 25  1  0  0  0
  6 91  1  0  0  0
  6 92  1  0  0  0
  7  8  2  0  0  0
  7 26  1  0  0  0
  7 29  1  0  0  0
  8  9  1  0  0  0
  8 22  1  0  0  0
  9 10  1  0  0  0
  9 27  2  0  0  0
 10 11  2  0  0  0
 10 15  1  0  0  0
 11 12  1  0  0  0
 11 93  1  0  0  0
 12 13  2  0  0  0
 12 94  1  0  0  0
 13 14  1  0  0  0
 13 31  1  0  0  0
 14 15  2  0  0  0
 14 95  1  0  0  0
 15 96  1  0  0  0
 16 17  2  0  0  0
 16 21  1  0  0  0
 16 31  1  0  0  0
 17 18  1  0  0  0
 17 97  1  0  0  0
 18 19  2  0  0  0
 18 98  1  0  0  0
 19 20  1  0  0  0
 19 24  1  0  0  0
 20 21  2  0  0  0
 20 99  1  0  0  0
 21 23  1  0  0  0
 22 28  1  0  0  0
 22 32  2  0  0  0
 26 27  1  0  0  0
 28100  1  0  0  0
 28101  1  0  0  0
 29102  1  0  0  0
 29103  1  0  0  0
 33 34  1  0  0  0
 33 66  1  0  0  0
 33 70  2  0  0  0
 34 36  1  0  0  0
 34 59  1  0  0  0
 34104  1  0  0  0
 35 44  2  0  0  0
 35 45  1  0  0  0
 35 68  1  0  0  0
 36 56  1  0  0  0
 36105  1  0  0  0
 37 39  1  0  0  0
 37 47  1  0  0  0
 37 66  1  0  0  0
 37106  1  0  0  0
 38 43  2  0  0  0
 38 46  1  0  0  0
 38 47  1  0  0  0
 39 64  1  0  0  0
 39 67  2  0  0  0
 40 52  1  0  0  0
 40 53  2  0  0  0
 40 58  1  0  0  0
 41107  1  0  0  0
 41108  1  0  0  0
 41109  1  0  0  0
 41 48  1  0  0  0
 42 43  1  0  0  0
 42 66  1  0  0  0
 42110  1  0  0  0
 42111  1  0  0  0
 43 44  1  0  0  0
 44112  1  0  0  0
 45 46  2  0  0  0
 45113  1  0  0  0
 46114  1  0  0  0
 47115  1  0  0  0
 47116  1  0  0  0
 48 56  1  0  0  0
 48 65  1  0  0  0
 48117  1  0  0  0
 49 50  1  0  0  0
 49 53  1  0  0  0
 49 64  1  0  0  0
 49118  1  0  0  0
 50 51  1  0  0  0
 50119  1  0  0  0
 50120  1  0  0  0
 51 52  1  0  0  0
 51121  1  0  0  0
 51122  1  0  0  0
 52123  1  0  0  0
 52124  1  0  0  0
 53 54  1  0  0  0
 54 55  2  0  0  0
 54125  1  0  0  0
 55 57  1  0  0  0
 55126  1  0  0  0
 56 69  2  0  0  0
 57 58  2  0  0  0
 57127  1  0  0  0
 58128  1  0  0  0
 59 60  1  0  0  0
 59 61  1  0  0  0
 59 62  1  0  0  0
 60129  1  0  0  0
 60130  1  0  0  0
 60131  1  0  0  0
 61132  1  0  0  0
 61133  1  0  0  0
 61134  1  0  0  0
 62135  1  0  0  0
 62136  1  0  0  0
 62137  1  0  0  0
 63 65  1  0  0  0
 63138  1  0  0  0
 63139  1  0  0  0
 63140  1  0  0  0
 64141  1  0  0  0
 65142  1  0  0  0
 68 79  1  0  0  0
 71 73  2  0  0  0
 71 81  1  0  0  0
 71143  1  0  0  0
 72 74  1  0  0  0
 72 80  2  0  0  0
 72144  1  0  0  0
 73 80  1  0  0  0
 73 82  1  0  0  0
 74 81  2  0  0  0
 74 83  1  0  0  0
 75145  1  0  0  0
 75146  1  0  0  0
 75147  1  0  0  0
 75 78  1  0  0  0
 76148  1  0  0  0
 76149  1  0  0  0
 76150  1  0  0  0
 76 79  1  0  0  0
 77 78  1  0  0  0
 77 79  1  0  0  0
 77151  1  0  0  0
 77152  1  0  0  0
 78 83  1  0  0  0
 78153  1  0  0  0
 79154  1  0  0  0
 82155  1  0  0  0
 83156  1  0  0  0
M  ISO  4   1 100  68 101  79 101  82 100
M  END
> <chiral flag>
0

> <version>
0

> <s_m_source_file>
/data/baiqing/PycharmProjects/Reinvent-master-3.2/result/LINK_invent/BTK/process_docking_weight1_custom_product_contain_oxygen_bond_distance_aromatic_linkinvent_7_9_3/rearranged_h_0198.sdf

> <i_m_source_file_index>
13

> <r_mmod_Potential_Energy-OPLS-2005>
71.162841796875

> <r_mmod_Stretch_Energy-OPLS-2005>
88.425910949707

> <r_mmod_Bend_Energy-OPLS-2005>
157.191101074219

> <r_mmod_Torsional_Energy-OPLS-2005>
216.621292114258

> <r_mmod_Improper_Torsional_Energy-OPLS-2005>
4.11170244216919

> <r_mmod_Van_der_Waal_Energy-OPLS-2005>
146.651077270508

> <r_mmod_Electrostatic_Energy-OPLS-2005>
-350.146240234375

> <r_mmod_Solvation_Energy-OPLS-2005>
-240.402893066406

> <b_mmod_Minimization_Converged-OPLS-2005>
0

> <r_mmod_RMS_Derivative-OPLS-2005>
1.73913109302521

$$$$
13
                    3D
 Structure written by MMmdl.
155163  0  0  1  0            999 V2000
  -30.6063  -14.7901   20.4425 C   0  0  0  0  0  0
  -30.4377  -12.4853   19.4714 C   0  0  0  0  0  0
  -29.5135  -12.5106   18.2341 C   0  0  0  0  0  0
  -28.0431  -12.3180   18.6536 C   0  0  0  0  0  0
  -27.6384  -13.2346   19.8397 C   0  0  2  0  0  0
  -28.6862  -13.1964   20.9726 C   0  0  0  0  0  0
  -25.2494  -13.8182   20.5657 C   0  0  0  0  0  0
  -24.1811  -13.0420   20.9238 C   0  0  0  0  0  0
  -24.6427  -11.6900   20.8785 C   0  0  0  0  0  0
  -23.9098  -10.4273   21.0446 C   0  0  0  0  0  0
  -24.3642   -9.4187   21.9230 C   0  0  0  0  0  0
  -23.6304   -8.2221   22.0788 C   0  0  0  0  0  0
  -22.4294   -8.0274   21.3563 C   0  0  0  0  0  0
  -21.9930   -9.0260   20.4678 C   0  0  0  0  0  0
  -22.7266  -10.2132   20.3096 C   0  0  0  0  0  0
  -21.6853   -6.0736   22.5282 C   0  0  0  0  0  0
  -21.4011   -6.5637   23.8219 C   0  0  0  0  0  0
  -21.3658   -5.6791   24.9176 C   0  0  0  0  0  0
  -21.6042   -4.3054   24.7223 C   0  0  0  0  0  0
  -21.8822   -3.8151   23.4346 C   0  0  0  0  0  0
  -21.9185   -4.6968   22.3401 C   0  0  0  0  0  0
  -22.7816  -13.5183   21.1872 C   0  0  0  0  0  0
  -22.1657   -4.2147   21.0984 F   0  0  0  0  0  0
  -21.5630   -3.4542   25.7743 F   0  0  0  0  0  0
  -29.9804  -13.5608   20.3837 N   0  0  0  0  0  0
  -26.2935  -12.9412   20.3232 N   0  0  0  0  0  0
  -25.9356  -11.6552   20.5777 N   0  0  0  0  0  0
  -22.0440  -12.8205   22.0434 N   0  0  0  0  0  0
  -25.4064  -15.1920   20.4017 N   0  0  0  0  0  0
  -31.8047  -14.8706   20.1626 O   0  0  0  0  0  0
  -21.6647   -6.8886   21.4252 O   0  0  0  0  0  0
  -22.3494  -14.5482   20.6700 O   0  0  0  0  0  0
  -24.6325  -31.8529   23.1963 C   0  0  0  0  0  0
  -25.9143  -32.4738   23.8323 C   0  0  1  0  0  0
  -27.2223  -27.2400   20.1284 C   0  0  0  0  0  0
  -25.5928  -33.8540   24.2242 N   0  0  0  0  0  0
  -23.4308  -30.4742   21.5399 C   0  0  2  0  0  0
  -24.8775  -28.9156   20.1087 C   0  0  0  0  0  0
  -22.7511  -29.4594   22.4903 C   0  0  0  0  0  0
  -18.0292  -28.1385   22.8481 C   0  0  0  0  0  0
  -24.1497  -36.7272   23.2641 C   0  0  0  0  0  0
  -25.9786  -30.7582   21.3807 C   0  0  0  0  0  0
  -26.0488  -29.3809   20.7173 C   0  0  0  0  0  0
  -27.2198  -28.5558   20.7135 C   0  0  0  0  0  0
  -26.0222  -26.8401   19.5006 C   0  0  0  0  0  0
  -24.8714  -27.6557   19.4895 C   0  0  0  0  0  0
  -23.6511  -29.8073   20.1561 C   0  0  0  0  0  0
  -25.4121  -36.3053   24.0327 C   0  0  1  0  0  0
  -20.5898  -28.3701   23.1269 C   0  0  2  0  0  0
  -20.6779  -26.9414   22.5418 C   0  0  0  0  0  0
  -19.5761  -26.6380   21.5219 C   0  0  0  0  0  0
  -18.1934  -26.7930   22.1620 C   0  0  0  0  0  0
  -19.1543  -28.8861   23.2871 C   0  0  0  0  0  0
  -18.9467  -30.1458   23.8896 C   0  0  0  0  0  0
  -17.6465  -30.6587   24.0558 C   0  0  0  0  0  0
  -25.9058  -34.9423   23.5084 C   0  0  0  0  0  0
  -16.5356  -29.9082   23.6323 C   0  0  0  0  0  0
  -16.7279  -28.6497   23.0351 C   0  0  0  0  0  0
  -26.4510  -31.6578   25.0724 C   0  0  0  0  0  0
  -25.3730  -31.3753   26.1454 C   0  0  0  0  0  0
  -27.0379  -30.2984   24.6257 C   0  0  0  0  0  0
  -27.6055  -32.4346   25.7483 C   0  0  0  0  0  0
  -27.5581  -37.1798   24.8460 C   0  0  0  0  0  0
  -21.4214  -29.3040   22.3647 N   0  0  0  0  0  0
  -26.4290  -37.3757   23.9402 N   0  0  0  0  0  0
  -24.6998  -31.0481   22.0945 N   0  0  0  0  0  0
  -23.4209  -28.8135   23.3007 O   0  0  0  0  0  0
  -28.3416  -26.3713   20.2097 O   0  0  0  0  0  0
  -26.5647  -34.8905   22.4672 O   0  0  0  0  0  0
  -23.5474  -32.1364   23.7250 O   0  0  0  0  0  0
  -27.1925  -19.5206   19.3264 C   0  0  0  0  0  0
  -27.9995  -18.3871   19.5757 C   0  0  0  0  0  0
  -29.2482  -18.6210   20.2055 C   0  0  0  0  0  0
  -28.7421  -20.9785   20.1514 C   0  0  0  0  0  0
  -26.9437  -23.3927   21.1927 C   0  0  0  0  0  0
  -30.2627  -17.4211   20.5484 C   0  0  0  0  0  0
  -28.4047  -24.9453   19.7038 C   0  0  0  0  0  0
  -28.3727  -23.6437   20.6850 C   0  0  2  0  0  0
  -27.5577  -20.7866   19.6068 N   0  0  0  0  0  0
  -29.5932  -19.9511   20.4577 N   0  0  0  0  0  0
  -27.5677  -17.1253   19.1423 N   0  0  0  0  0  0
  -29.1309  -22.3542   20.3219 N   0  0  0  0  0  0
  -29.8447  -15.9406   20.6043 N   0  0  0  0  0  0
  -31.4777  -12.6128   19.1673 H   0  0  0  0  0  0
  -30.3915  -11.5149   19.9693 H   0  0  0  0  0  0
  -29.8078  -11.7356   17.5247 H   0  0  0  0  0  0
  -29.6262  -13.4624   17.7129 H   0  0  0  0  0  0
  -27.9228  -11.2720   18.9395 H   0  0  0  0  0  0
  -27.3800  -12.4765   17.8023 H   0  0  0  0  0  0
  -27.6213  -14.2478   19.4402 H   0  0  0  0  0  0
  -28.7377  -12.2016   21.4176 H   0  0  0  0  0  0
  -28.4137  -13.8816   21.7764 H   0  0  0  0  0  0
  -25.2776   -9.5649   22.4817 H   0  0  0  0  0  0
  -24.0005   -7.4616   22.7514 H   0  0  0  0  0  0
  -21.0857   -8.8789   19.8984 H   0  0  0  0  0  0
  -22.3730  -10.9690   19.6217 H   0  0  0  0  0  0
  -21.2011   -7.6151   23.9711 H   0  0  0  0  0  0
  -21.1475   -6.0532   25.9076 H   0  0  0  0  0  0
  -22.0599   -2.7608   23.2848 H   0  0  0  0  0  0
  -22.4027  -11.9884   22.4893 H   0  0  0  0  0  0
  -21.1078  -13.1279   22.2612 H   0  0  0  0  0  0
  -24.6214  -15.8233   20.5158 H   0  0  0  0  0  0
  -26.2325  -15.6681   20.0404 H   0  0  0  0  0  0
  -26.7201  -32.5366   23.1054 H   0  0  0  0  0  0
  -25.0031  -33.9674   25.0358 H   0  0  0  0  0  0
  -22.7281  -31.2967   21.3919 H   0  0  0  0  0  0
  -23.3752  -35.9610   23.3295 H   0  0  0  0  0  0
  -24.3581  -36.8908   22.2054 H   0  0  0  0  0  0
  -23.7261  -37.6472   23.6682 H   0  0  0  0  0  0
  -26.1284  -31.5241   20.6192 H   0  0  0  0  0  0
  -26.8518  -30.7984   22.0208 H   0  0  0  0  0  0
  -28.1181  -28.9093   21.1994 H   0  0  0  0  0  0
  -25.9305  -25.8715   19.0359 H   0  0  0  0  0  0
  -23.9715  -27.2893   19.0140 H   0  0  0  0  0  0
  -23.7818  -30.5865   19.4038 H   0  0  0  0  0  0
  -22.7679  -29.2465   19.8438 H   0  0  0  0  0  0
  -25.1304  -36.1893   25.0821 H   0  0  0  0  0  0
  -20.9983  -28.3292   24.1395 H   0  0  0  0  0  0
  -20.5670  -26.2313   23.3626 H   0  0  0  0  0  0
  -21.6650  -26.7439   22.1222 H   0  0  0  0  0  0
  -19.6926  -25.6288   21.1258 H   0  0  0  0  0  0
  -19.6703  -27.3184   20.6744 H   0  0  0  0  0  0
  -17.4209  -26.6677   21.4012 H   0  0  0  0  0  0
  -18.0324  -26.0076   22.9017 H   0  0  0  0  0  0
  -19.7943  -30.7261   24.2278 H   0  0  0  0  0  0
  -17.5022  -31.6269   24.5157 H   0  0  0  0  0  0
  -15.5353  -30.2987   23.7648 H   0  0  0  0  0  0
  -15.8677  -28.0809   22.7084 H   0  0  0  0  0  0
  -24.5910  -30.7088   25.7799 H   0  0  0  0  0  0
  -24.8913  -32.2930   26.4835 H   0  0  0  0  0  0
  -25.8055  -30.8965   27.0247 H   0  0  0  0  0  0
  -26.2982  -29.6683   24.1306 H   0  0  0  0  0  0
  -27.4060  -29.7303   25.4805 H   0  0  0  0  0  0
  -27.8856  -30.4224   23.9517 H   0  0  0  0  0  0
  -27.2662  -33.3673   26.1996 H   0  0  0  0  0  0
  -28.3887  -32.6870   25.0324 H   0  0  0  0  0  0
  -28.0696  -31.8508   26.5441 H   0  0  0  0  0  0
  -28.2584  -38.0101   24.7491 H   0  0  0  0  0  0
  -28.1096  -36.2634   24.6304 H   0  0  0  0  0  0
  -27.2302  -37.1457   25.8862 H   0  0  0  0  0  0
  -20.9410  -29.8743   21.6825 H   0  0  0  0  0  0
  -26.0162  -38.2829   24.1396 H   0  0  0  0  0  0
  -26.2336  -19.4110   18.8424 H   0  0  0  0  0  0
  -26.5317  -24.3024   21.6310 H   0  0  0  0  0  0
  -26.9221  -22.6240   21.9662 H   0  0  0  0  0  0
  -26.2745  -23.0894   20.3863 H   0  0  0  0  0  0
  -30.7109  -17.6642   21.5134 H   0  0  0  0  0  0
  -31.0766  -17.5091   19.8279 H   0  0  0  0  0  0
  -27.7060  -24.7903   18.8848 H   0  0  0  0  0  0
  -29.3735  -24.9116   19.2067 H   0  0  0  0  0  0
  -28.9282  -23.9718   21.5643 H   0  0  0  0  0  0
  -26.8264  -17.1456   18.4450 H   0  0  0  0  0  0
  -28.3061  -16.5023   18.8313 H   0  0  0  0  0  0
  -30.1061  -22.4213   20.5886 H   0  0  0  0  0  0
  -28.8492  -15.8135   20.7244 H   0  0  0  0  0  0
  1 25  1  0  0  0
  1 30  2  0  0  0
  1 83  1  0  0  0
  2  3  1  0  0  0
  2 25  1  0  0  0
  2 84  1  0  0  0
  2 85  1  0  0  0
  3  4  1  0  0  0
  3 86  1  0  0  0
  3 87  1  0  0  0
  4  5  1  0  0  0
  4 88  1  0  0  0
  4 89  1  0  0  0
  5  6  1  0  0  0
  5 26  1  0  0  0
  5 90  1  0  0  0
  6 25  1  0  0  0
  6 91  1  0  0  0
  6 92  1  0  0  0
  7  8  2  0  0  0
  7 26  1  0  0  0
  7 29  1  0  0  0
  8  9  1  0  0  0
  8 22  1  0  0  0
  9 10  1  0  0  0
  9 27  2  0  0  0
 10 11  2  0  0  0
 10 15  1  0  0  0
 11 12  1  0  0  0
 11 93  1  0  0  0
 12 13  2  0  0  0
 12 94  1  0  0  0
 13 14  1  0  0  0
 13 31  1  0  0  0
 14 15  2  0  0  0
 14 95  1  0  0  0
 15 96  1  0  0  0
 16 17  2  0  0  0
 16 21  1  0  0  0
 16 31  1  0  0  0
 17 18  1  0  0  0
 17 97  1  0  0  0
 18 19  2  0  0  0
 18 98  1  0  0  0
 19 20  1  0  0  0
 19 24  1  0  0  0
 20 21  2  0  0  0
 20 99  1  0  0  0
 21 23  1  0  0  0
 22 28  1  0  0  0
 22 32  2  0  0  0
 26 27  1  0  0  0
 28100  1  0  0  0
 28101  1  0  0  0
 29102  1  0  0  0
 29103  1  0  0  0
 33 34  1  0  0  0
 33 66  1  0  0  0
 33 70  2  0  0  0
 34 36  1  0  0  0
 34 59  1  0  0  0
 34104  1  0  0  0
 35 44  2  0  0  0
 35 45  1  0  0  0
 35 68  1  0  0  0
 36 56  1  0  0  0
 36105  1  0  0  0
 37 39  1  0  0  0
 37 47  1  0  0  0
 37 66  1  0  0  0
 37106  1  0  0  0
 38 43  2  0  0  0
 38 46  1  0  0  0
 38 47  1  0  0  0
 39 64  1  0  0  0
 39 67  2  0  0  0
 40 52  1  0  0  0
 40 53  2  0  0  0
 40 58  1  0  0  0
 41107  1  0  0  0
 41108  1  0  0  0
 41109  1  0  0  0
 41 48  1  0  0  0
 42 43  1  0  0  0
 42 66  1  0  0  0
 42110  1  0  0  0
 42111  1  0  0  0
 43 44  1  0  0  0
 44112  1  0  0  0
 45 46  2  0  0  0
 45113  1  0  0  0
 46114  1  0  0  0
 47115  1  0  0  0
 47116  1  0  0  0
 48 56  1  0  0  0
 48 65  1  0  0  0
 48117  1  0  0  0
 49 50  1  0  0  0
 49 53  1  0  0  0
 49 64  1  0  0  0
 49118  1  0  0  0
 50 51  1  0  0  0
 50119  1  0  0  0
 50120  1  0  0  0
 51 52  1  0  0  0
 51121  1  0  0  0
 51122  1  0  0  0
 52123  1  0  0  0
 52124  1  0  0  0
 53 54  1  0  0  0
 54 55  2  0  0  0
 54125  1  0  0  0
 55 57  1  0  0  0
 55126  1  0  0  0
 56 69  2  0  0  0
 57 58  2  0  0  0
 57127  1  0  0  0
 58128  1  0  0  0
 59 60  1  0  0  0
 59 61  1  0  0  0
 59 62  1  0  0  0
 60129  1  0  0  0
 60130  1  0  0  0
 60131  1  0  0  0
 61132  1  0  0  0
 61133  1  0  0  0
 61134  1  0  0  0
 62135  1  0  0  0
 62136  1  0  0  0
 62137  1  0  0  0
 63 65  1  0  0  0
 63138  1  0  0  0
 63139  1  0  0  0
 63140  1  0  0  0
 64141  1  0  0  0
 65142  1  0  0  0
 68 77  1  0  0  0
 71 72  2  0  0  0
 71 79  1  0  0  0
 71143  1  0  0  0
 72 73  1  0  0  0
 72 81  1  0  0  0
 73 76  1  0  0  0
 73 80  2  0  0  0
 74 79  2  0  0  0
 74 80  1  0  0  0
 74 82  1  0  0  0
 75144  1  0  0  0
 75145  1  0  0  0
 75146  1  0  0  0
 75 78  1  0  0  0
 76 83  1  0  0  0
 76147  1  0  0  0
 76148  1  0  0  0
 77 78  1  0  0  0
 77149  1  0  0  0
 77150  1  0  0  0
 78 82  1  0  0  0
 78151  1  0  0  0
 81152  1  0  0  0
 81153  1  0  0  0
 82154  1  0  0  0
 83155  1  0  0  0
M  ISO  4   1 100  68 101  77 101  83 100
M  END
> <chiral flag>
0

> <version>
0

> <s_m_source_file>
/data/baiqing/PycharmProjects/Reinvent-master-3.2/result/LINK_invent/BTK/process_docking_weight1_custom_product_contain_oxygen_bond_distance_aromatic_linkinvent_7_9_3/rearranged_h_0198.sdf

> <i_m_source_file_index>
14

> <r_mmod_Potential_Energy-OPLS-2005>
-375.154510498047

> <r_mmod_Stretch_Energy-OPLS-2005>
135.189712524414

> <r_mmod_Bend_Energy-OPLS-2005>
208.353698730469

> <r_mmod_Torsional_Energy-OPLS-2005>
203.652252197266

> <r_mmod_Improper_Torsional_Energy-OPLS-2005>
11.8906164169312

> <r_mmod_Van_der_Waal_Energy-OPLS-2005>
140.354049682617

> <r_mmod_Electrostatic_Energy-OPLS-2005>
-935.399291992188

> <r_mmod_Solvation_Energy-OPLS-2005>
-240.691757202148

> <b_mmod_Minimization_Converged-OPLS-2005>
0

> <r_mmod_RMS_Derivative-OPLS-2005>
2.48320627212524

$$$$
14
                    3D
 Structure written by MMmdl.
152160  0  0  1  0            999 V2000
  -30.6931  -14.5298   20.4804 C   0  0  0  0  0  0
  -30.4163  -12.3225   19.4426 C   0  0  0  0  0  0
  -29.4945  -12.4856   18.2150 C   0  0  0  0  0  0
  -28.0144  -12.3484   18.6272 C   0  0  0  0  0  0
  -27.6536  -13.2155   19.8653 C   0  0  2  0  0  0
  -28.7010  -13.0622   20.9922 C   0  0  0  0  0  0
  -25.2577  -13.8180   20.5750 C   0  0  0  0  0  0
  -24.1820  -13.0439   20.9214 C   0  0  0  0  0  0
  -24.6392  -11.6918   20.8739 C   0  0  0  0  0  0
  -23.9053  -10.4313   21.0401 C   0  0  0  0  0  0
  -24.3612   -9.4228   21.9157 C   0  0  0  0  0  0
  -23.6293   -8.2259   22.0742 C   0  0  0  0  0  0
  -22.4264   -8.0281   21.3553 C   0  0  0  0  0  0
  -21.9911   -9.0252   20.4645 C   0  0  0  0  0  0
  -22.7239  -10.2136   20.3044 C   0  0  0  0  0  0
  -21.6846   -6.0727   22.5277 C   0  0  0  0  0  0
  -21.3999   -6.5637   23.8212 C   0  0  0  0  0  0
  -21.3677   -5.6800   24.9189 C   0  0  0  0  0  0
  -21.6049   -4.3061   24.7232 C   0  0  0  0  0  0
  -21.8824   -3.8143   23.4355 C   0  0  0  0  0  0
  -21.9201   -4.6956   22.3406 C   0  0  0  0  0  0
  -22.7844  -13.5239   21.1860 C   0  0  0  0  0  0
  -22.1662   -4.2145   21.0983 F   0  0  0  0  0  0
  -21.5641   -3.4547   25.7746 F   0  0  0  0  0  0
  -30.0249  -13.3459   20.4239 N   0  0  0  0  0  0
  -26.3005  -12.9358   20.3411 N   0  0  0  0  0  0
  -25.9327  -11.6499   20.5793 N   0  0  0  0  0  0
  -22.0479  -12.8216   22.0410 N   0  0  0  0  0  0
  -25.4292  -15.1877   20.4173 N   0  0  0  0  0  0
  -31.8674  -14.6359   20.1167 O   0  0  0  0  0  0
  -21.6639   -6.8862   21.4231 O   0  0  0  0  0  0
  -22.3537  -14.5543   20.6719 O   0  0  0  0  0  0
  -24.6169  -31.8631   23.2100 C   0  0  0  0  0  0
  -25.9063  -32.4799   23.8379 C   0  0  1  0  0  0
  -27.2329  -27.3909   20.1020 C   0  0  0  0  0  0
  -25.5884  -33.8592   24.2313 N   0  0  0  0  0  0
  -23.4057  -30.4898   21.5466 C   0  0  2  0  0  0
  -24.8530  -28.9459   20.1147 C   0  0  0  0  0  0
  -22.7397  -29.4663   22.4956 C   0  0  0  0  0  0
  -18.0285  -28.1388   22.8497 C   0  0  0  0  0  0
  -24.1491  -36.7311   23.2646 C   0  0  0  0  0  0
  -25.9383  -30.8156   21.3663 C   0  0  0  0  0  0
  -26.0147  -29.4471   20.7123 C   0  0  0  0  0  0
  -27.2037  -28.6773   20.7018 C   0  0  0  0  0  0
  -26.0511  -26.9169   19.4925 C   0  0  0  0  0  0
  -24.8673  -27.6815   19.5032 C   0  0  0  0  0  0
  -23.6177  -29.8198   20.1629 C   0  0  0  0  0  0
  -25.4115  -36.3092   24.0337 C   0  0  1  0  0  0
  -20.5873  -28.3661   23.1363 C   0  0  2  0  0  0
  -20.6761  -26.9386   22.5447 C   0  0  0  0  0  0
  -19.5729  -26.6402   21.5226 C   0  0  0  0  0  0
  -18.1899  -26.7954   22.1618 C   0  0  0  0  0  0
  -19.1540  -28.8841   23.2910 C   0  0  0  0  0  0
  -18.9448  -30.1445   23.8905 C   0  0  0  0  0  0
  -17.6441  -30.6562   24.0571 C   0  0  0  0  0  0
  -25.9023  -34.9452   23.5118 C   0  0  0  0  0  0
  -16.5347  -29.9055   23.6319 C   0  0  0  0  0  0
  -16.7275  -28.6490   23.0330 C   0  0  0  0  0  0
  -26.4465  -31.6598   25.0727 C   0  0  0  0  0  0
  -25.3725  -31.3700   26.1466 C   0  0  0  0  0  0
  -27.0304  -30.3055   24.6124 C   0  0  0  0  0  0
  -27.6026  -32.4327   25.7489 C   0  0  0  0  0  0
  -27.5575  -37.1815   24.8467 C   0  0  0  0  0  0
  -21.4118  -29.3029   22.3727 N   0  0  0  0  0  0
  -26.4298  -37.3785   23.9388 N   0  0  0  0  0  0
  -24.6727  -31.0726   22.0986 N   0  0  0  0  0  0
  -23.4166  -28.8267   23.3056 O   0  0  0  0  0  0
  -28.4115  -26.6588   20.1381 O   0  0  0  0  0  0
  -26.5597  -34.8917   22.4688 O   0  0  0  0  0  0
  -23.5346  -32.1380   23.7484 O   0  0  0  0  0  0
  -29.3559  -19.3808   19.8222 C   0  0  0  0  0  0
  -29.7613  -18.2274   20.5985 C   0  0  0  0  0  0
  -29.0638  -20.4948   20.5795 C   0  0  0  0  0  0
  -30.2868  -16.9311   20.0032 C   0  0  0  0  0  0
  -28.7387  -22.9530   21.0745 C   0  0  0  0  0  0
  -28.4812  -25.2709   19.7096 C   0  0  0  0  0  0
  -27.8824  -24.2188   20.7037 C   0  0  1  0  0  0
  -29.7731  -18.4243   21.9034 N   0  0  0  0  0  0
  -28.6533  -21.7908   20.1643 N   0  0  0  0  0  0
  -29.9396  -15.6389   20.6480 N   0  0  0  0  0  0
  -26.6232  -23.7655   20.2328 O   0  0  0  0  0  0
  -29.3225  -20.0166   22.2331 S   0  0  0  0  0  0
  -31.4645  -12.3976   19.1424 H   0  0  0  0  0  0
  -30.2987  -11.3282   19.8754 H   0  0  0  0  0  0
  -29.7410  -11.7362   17.4615 H   0  0  0  0  0  0
  -29.6550  -13.4565   17.7424 H   0  0  0  0  0  0
  -27.8330  -11.2952   18.8469 H   0  0  0  0  0  0
  -27.3625  -12.5998   17.7893 H   0  0  0  0  0  0
  -27.6782  -14.2529   19.5297 H   0  0  0  0  0  0
  -28.6884  -12.0492   21.3948 H   0  0  0  0  0  0
  -28.4778  -13.7238   21.8295 H   0  0  0  0  0  0
  -25.2748   -9.5717   22.4747 H   0  0  0  0  0  0
  -24.0017   -7.4652   22.7458 H   0  0  0  0  0  0
  -21.0856   -8.8771   19.8940 H   0  0  0  0  0  0
  -22.3679  -10.9678   19.6166 H   0  0  0  0  0  0
  -21.1953   -7.6140   23.9719 H   0  0  0  0  0  0
  -21.1503   -6.0523   25.9101 H   0  0  0  0  0  0
  -22.0578   -2.7599   23.2864 H   0  0  0  0  0  0
  -22.4095  -11.9872   22.4799 H   0  0  0  0  0  0
  -21.1085  -13.1221   22.2600 H   0  0  0  0  0  0
  -24.6672  -15.8439   20.5474 H   0  0  0  0  0  0
  -26.2834  -15.6346   20.1084 H   0  0  0  0  0  0
  -26.7135  -32.5508   23.1120 H   0  0  0  0  0  0
  -24.9990  -33.9726   25.0431 H   0  0  0  0  0  0
  -22.6953  -31.3076   21.4037 H   0  0  0  0  0  0
  -23.3730  -35.9660   23.3315 H   0  0  0  0  0  0
  -24.3574  -36.8920   22.2051 H   0  0  0  0  0  0
  -23.7253  -37.6531   23.6657 H   0  0  0  0  0  0
  -26.0560  -31.5785   20.5960 H   0  0  0  0  0  0
  -26.8241  -30.8694   21.9861 H   0  0  0  0  0  0
  -28.1023  -29.0629   21.1632 H   0  0  0  0  0  0
  -26.0185  -25.9541   19.0059 H   0  0  0  0  0  0
  -23.9722  -27.2908   19.0380 H   0  0  0  0  0  0
  -23.7270  -30.5917   19.3979 H   0  0  0  0  0  0
  -22.7426  -29.2365   19.8725 H   0  0  0  0  0  0
  -25.1294  -36.1940   25.0833 H   0  0  0  0  0  0
  -21.0020  -28.3260   24.1478 H   0  0  0  0  0  0
  -20.5602  -26.2266   23.3638 H   0  0  0  0  0  0
  -21.6667  -26.7450   22.1292 H   0  0  0  0  0  0
  -19.6876  -25.6348   21.1184 H   0  0  0  0  0  0
  -19.6721  -27.3228   20.6792 H   0  0  0  0  0  0
  -17.4184  -26.6796   21.3995 H   0  0  0  0  0  0
  -18.0247  -26.0092   22.9008 H   0  0  0  0  0  0
  -19.7923  -30.7299   24.2219 H   0  0  0  0  0  0
  -17.5007  -31.6233   24.5180 H   0  0  0  0  0  0
  -15.5335  -30.2937   23.7638 H   0  0  0  0  0  0
  -15.8694  -28.0812   22.7006 H   0  0  0  0  0  0
  -24.5900  -30.7050   25.7796 H   0  0  0  0  0  0
  -24.8903  -32.2844   26.4935 H   0  0  0  0  0  0
  -25.8058  -30.8848   27.0216 H   0  0  0  0  0  0
  -26.2853  -29.6818   24.1176 H   0  0  0  0  0  0
  -27.4069  -29.7306   25.4588 H   0  0  0  0  0  0
  -27.8692  -30.4396   23.9294 H   0  0  0  0  0  0
  -27.2648  -33.3619   26.2090 H   0  0  0  0  0  0
  -28.3822  -32.6896   25.0306 H   0  0  0  0  0  0
  -28.0720  -31.8440   26.5376 H   0  0  0  0  0  0
  -28.2624  -38.0101   24.7484 H   0  0  0  0  0  0
  -28.1057  -36.2603   24.6332 H   0  0  0  0  0  0
  -27.2286  -37.1529   25.8889 H   0  0  0  0  0  0
  -20.9212  -29.8740   21.6973 H   0  0  0  0  0  0
  -26.0176  -38.2868   24.1379 H   0  0  0  0  0  0
  -29.3257  -19.3427   18.7438 H   0  0  0  0  0  0
  -31.3742  -17.0280   19.9523 H   0  0  0  0  0  0
  -29.9683  -16.8529   18.9609 H   0  0  0  0  0  0
  -29.7834  -23.2458   21.1933 H   0  0  0  0  0  0
  -28.4104  -22.6323   22.0673 H   0  0  0  0  0  0
  -28.0991  -25.1481   18.6928 H   0  0  0  0  0  0
  -29.5466  -25.0614   19.6245 H   0  0  0  0  0  0
  -27.7121  -24.7577   21.6363 H   0  0  0  0  0  0
  -28.5299  -21.9937   19.1767 H   0  0  0  0  0  0
  -28.9817  -15.5156   20.9419 H   0  0  0  0  0  0
  -26.7783  -23.2929   19.4205 H   0  0  0  0  0  0
  1 25  1  0  0  0
  1 30  2  0  0  0
  1 80  1  0  0  0
  2  3  1  0  0  0
  2 25  1  0  0  0
  2 83  1  0  0  0
  2 84  1  0  0  0
  3  4  1  0  0  0
  3 85  1  0  0  0
  3 86  1  0  0  0
  4  5  1  0  0  0
  4 87  1  0  0  0
  4 88  1  0  0  0
  5  6  1  0  0  0
  5 26  1  0  0  0
  5 89  1  0  0  0
  6 25  1  0  0  0
  6 90  1  0  0  0
  6 91  1  0  0  0
  7  8  2  0  0  0
  7 26  1  0  0  0
  7 29  1  0  0  0
  8  9  1  0  0  0
  8 22  1  0  0  0
  9 10  1  0  0  0
  9 27  2  0  0  0
 10 11  2  0  0  0
 10 15  1  0  0  0
 11 12  1  0  0  0
 11 92  1  0  0  0
 12 13  2  0  0  0
 12 93  1  0  0  0
 13 14  1  0  0  0
 13 31  1  0  0  0
 14 15  2  0  0  0
 14 94  1  0  0  0
 15 95  1  0  0  0
 16 17  2  0  0  0
 16 21  1  0  0  0
 16 31  1  0  0  0
 17 18  1  0  0  0
 17 96  1  0  0  0
 18 19  2  0  0  0
 18 97  1  0  0  0
 19 20  1  0  0  0
 19 24  1  0  0  0
 20 21  2  0  0  0
 20 98  1  0  0  0
 21 23  1  0  0  0
 22 28  1  0  0  0
 22 32  2  0  0  0
 26 27  1  0  0  0
 28 99  1  0  0  0
 28100  1  0  0  0
 29101  1  0  0  0
 29102  1  0  0  0
 33 34  1  0  0  0
 33 66  1  0  0  0
 33 70  2  0  0  0
 34 36  1  0  0  0
 34 59  1  0  0  0
 34103  1  0  0  0
 35 44  2  0  0  0
 35 45  1  0  0  0
 35 68  1  0  0  0
 36 56  1  0  0  0
 36104  1  0  0  0
 37 39  1  0  0  0
 37 47  1  0  0  0
 37 66  1  0  0  0
 37105  1  0  0  0
 38 43  2  0  0  0
 38 46  1  0  0  0
 38 47  1  0  0  0
 39 64  1  0  0  0
 39 67  2  0  0  0
 40 52  1  0  0  0
 40 53  2  0  0  0
 40 58  1  0  0  0
 41106  1  0  0  0
 41107  1  0  0  0
 41108  1  0  0  0
 41 48  1  0  0  0
 42 43  1  0  0  0
 42 66  1  0  0  0
 42109  1  0  0  0
 42110  1  0  0  0
 43 44  1  0  0  0
 44111  1  0  0  0
 45 46  2  0  0  0
 45112  1  0  0  0
 46113  1  0  0  0
 47114  1  0  0  0
 47115  1  0  0  0
 48 56  1  0  0  0
 48 65  1  0  0  0
 48116  1  0  0  0
 49 50  1  0  0  0
 49 53  1  0  0  0
 49 64  1  0  0  0
 49117  1  0  0  0
 50 51  1  0  0  0
 50118  1  0  0  0
 50119  1  0  0  0
 51 52  1  0  0  0
 51120  1  0  0  0
 51121  1  0  0  0
 52122  1  0  0  0
 52123  1  0  0  0
 53 54  1  0  0  0
 54 55  2  0  0  0
 54124  1  0  0  0
 55 57  1  0  0  0
 55125  1  0  0  0
 56 69  2  0  0  0
 57 58  2  0  0  0
 57126  1  0  0  0
 58127  1  0  0  0
 59 60  1  0  0  0
 59 61  1  0  0  0
 59 62  1  0  0  0
 60128  1  0  0  0
 60129  1  0  0  0
 60130  1  0  0  0
 61131  1  0  0  0
 61132  1  0  0  0
 61133  1  0  0  0
 62134  1  0  0  0
 62135  1  0  0  0
 62136  1  0  0  0
 63 65  1  0  0  0
 63137  1  0  0  0
 63138  1  0  0  0
 63139  1  0  0  0
 64140  1  0  0  0
 65141  1  0  0  0
 68 76  1  0  0  0
 71 72  1  0  0  0
 71 73  2  0  0  0
 71142  1  0  0  0
 72 74  1  0  0  0
 72 78  2  0  0  0
 73 79  1  0  0  0
 73 82  1  0  0  0
 74 80  1  0  0  0
 74143  1  0  0  0
 74144  1  0  0  0
 75 77  1  0  0  0
 75 79  1  0  0  0
 75145  1  0  0  0
 75146  1  0  0  0
 76 77  1  0  0  0
 76147  1  0  0  0
 76148  1  0  0  0
 77 81  1  0  0  0
 77149  1  0  0  0
 78 82  1  0  0  0
 79150  1  0  0  0
 80151  1  0  0  0
 81152  1  0  0  0
M  ISO  4   1 100  68 101  76 101  80 100
M  END
> <chiral flag>
0

> <version>
0

> <s_m_source_file>
/data/baiqing/PycharmProjects/Reinvent-master-3.2/result/LINK_invent/BTK/process_docking_weight1_custom_product_contain_oxygen_bond_distance_aromatic_linkinvent_7_9_3/rearranged_h_0198.sdf

> <i_m_source_file_index>
15

> <r_mmod_Potential_Energy-OPLS-2005>
-157.241317749023

> <r_mmod_Stretch_Energy-OPLS-2005>
46.1544494628906

> <r_mmod_Bend_Energy-OPLS-2005>
127.552398681641

> <r_mmod_Torsional_Energy-OPLS-2005>
235.420440673828

> <r_mmod_Improper_Torsional_Energy-OPLS-2005>
9.8231840133667

> <r_mmod_Van_der_Waal_Energy-OPLS-2005>
130.697448730469

> <r_mmod_Electrostatic_Energy-OPLS-2005>
-475.45556640625

> <r_mmod_Solvation_Energy-OPLS-2005>
-255.574600219727

> <b_mmod_Minimization_Converged-OPLS-2005>
0

> <r_mmod_RMS_Derivative-OPLS-2005>
6.36343479156494

$$$$
15
                    3D
 Structure written by MMmdl.
155163  0  0  1  0            999 V2000
  -30.5315  -14.7574   20.4558 C   0  0  0  0  0  0
  -30.4213  -12.4610   19.4916 C   0  0  0  0  0  0
  -29.5064  -12.5003   18.2436 C   0  0  0  0  0  0
  -28.0290  -12.3076   18.6490 C   0  0  0  0  0  0
  -27.6230  -13.2162   19.8412 C   0  0  2  0  0  0
  -28.6533  -13.1364   20.9869 C   0  0  0  0  0  0
  -25.2394  -13.8132   20.5674 C   0  0  0  0  0  0
  -24.1689  -13.0381   20.9185 C   0  0  0  0  0  0
  -24.6264  -11.6861   20.8692 C   0  0  0  0  0  0
  -23.8969  -10.4241   21.0385 C   0  0  0  0  0  0
  -24.3552   -9.4190   21.9168 C   0  0  0  0  0  0
  -23.6253   -8.2217   22.0735 C   0  0  0  0  0  0
  -22.4250   -8.0230   21.3528 C   0  0  0  0  0  0
  -21.9858   -9.0183   20.4622 C   0  0  0  0  0  0
  -22.7151  -10.2075   20.3031 C   0  0  0  0  0  0
  -21.6853   -6.0708   22.5292 C   0  0  0  0  0  0
  -21.4020   -6.5626   23.8219 C   0  0  0  0  0  0
  -21.3671   -5.6781   24.9177 C   0  0  0  0  0  0
  -21.6046   -4.3046   24.7225 C   0  0  0  0  0  0
  -21.8818   -3.8137   23.4350 C   0  0  0  0  0  0
  -21.9186   -4.6936   22.3414 C   0  0  0  0  0  0
  -22.7743  -13.5181   21.1897 C   0  0  0  0  0  0
  -22.1658   -4.2130   21.0982 F   0  0  0  0  0  0
  -21.5624   -3.4531   25.7743 F   0  0  0  0  0  0
  -29.9546  -13.5102   20.4197 N   0  0  0  0  0  0
  -26.2756  -12.9289   20.3155 N   0  0  0  0  0  0
  -25.9156  -11.6451   20.5637 N   0  0  0  0  0  0
  -22.0416  -12.8148   22.0447 N   0  0  0  0  0  0
  -25.4080  -15.1863   20.4243 N   0  0  0  0  0  0
  -31.7289  -14.8769   20.1646 O   0  0  0  0  0  0
  -21.6626   -6.8827   21.4238 O   0  0  0  0  0  0
  -22.3437  -14.5506   20.6772 O   0  0  0  0  0  0
  -24.6390  -31.8523   23.1944 C   0  0  0  0  0  0
  -25.9181  -32.4765   23.8263 C   0  0  1  0  0  0
  -27.1981  -27.2355   20.1258 C   0  0  0  0  0  0
  -25.5988  -33.8543   24.2189 N   0  0  0  0  0  0
  -23.4321  -30.4897   21.5300 C   0  0  2  0  0  0
  -24.8739  -28.9331   20.0976 C   0  0  0  0  0  0
  -22.7499  -29.4676   22.4707 C   0  0  0  0  0  0
  -18.0311  -28.1503   22.8423 C   0  0  0  0  0  0
  -24.1480  -36.7252   23.2661 C   0  0  0  0  0  0
  -25.9822  -30.7589   21.3785 C   0  0  0  0  0  0
  -26.0413  -29.3803   20.7201 C   0  0  0  0  0  0
  -27.2021  -28.5419   20.7293 C   0  0  0  0  0  0
  -26.0023  -26.8551   19.4771 C   0  0  0  0  0  0
  -24.8594  -27.6832   19.4605 C   0  0  0  0  0  0
  -23.6606  -29.8414   20.1378 C   0  0  0  0  0  0
  -25.4092  -36.3024   24.0327 C   0  0  1  0  0  0
  -20.5929  -28.3847   23.1166 C   0  0  2  0  0  0
  -20.6853  -26.9570   22.5342 C   0  0  0  0  0  0
  -19.5836  -26.6433   21.5204 C   0  0  0  0  0  0
  -18.2001  -26.8035   22.1588 C   0  0  0  0  0  0
  -19.1584  -28.8962   23.2825 C   0  0  0  0  0  0
  -18.9541  -30.1544   23.8887 C   0  0  0  0  0  0
  -17.6570  -30.6695   24.0611 C   0  0  0  0  0  0
  -25.9054  -34.9432   23.5050 C   0  0  0  0  0  0
  -16.5437  -29.9208   23.6391 C   0  0  0  0  0  0
  -16.7301  -28.6653   23.0345 C   0  0  0  0  0  0
  -26.4549  -31.6663   25.0697 C   0  0  0  0  0  0
  -25.3736  -31.3900   26.1404 C   0  0  0  0  0  0
  -27.0446  -30.3085   24.6231 C   0  0  0  0  0  0
  -27.6054  -32.4487   25.7505 C   0  0  0  0  0  0
  -27.5534  -37.1776   24.8458 C   0  0  0  0  0  0
  -21.4197  -29.3178   22.3499 N   0  0  0  0  0  0
  -26.4238  -37.3734   23.9458 N   0  0  0  0  0  0
  -24.7048  -31.0504   22.0906 N   0  0  0  0  0  0
  -23.4179  -28.8184   23.2828 O   0  0  0  0  0  0
  -28.3097  -26.3576   20.2064 O   0  0  0  0  0  0
  -26.5586  -34.8924   22.4582 O   0  0  0  0  0  0
  -23.5547  -32.1317   23.7242 O   0  0  0  0  0  0
  -30.6760  -19.6411   20.0098 C   0  0  0  0  0  0
  -29.3176  -19.6399   20.2658 C   0  0  0  0  0  0
  -29.8880  -17.3004   20.4344 C   0  0  0  0  0  0
  -27.0084  -20.6451   20.8977 C   0  0  0  0  0  0
  -27.0331  -23.6412   21.6268 C   0  0  0  0  0  0
  -28.3234  -24.9152   19.7453 C   0  0  0  0  0  0
  -28.3495  -20.9162   20.1652 C   0  0  1  0  0  0
  -28.3344  -23.6817   20.8071 C   0  0  2  0  0  0
  -28.8980  -18.2605   20.4563 N   0  0  0  0  0  0
  -29.6790  -15.8458   20.6120 N   0  0  0  0  0  0
  -28.9989  -22.2901   20.4947 N   0  3  0  0  0  0
  -31.4462  -18.0574   20.1328 S   0  0  0  0  0  0
  -31.4683  -12.6018   19.2192 H   0  0  0  0  0  0
  -30.3615  -11.4861   19.9776 H   0  0  0  0  0  0
  -29.8001  -11.7218   17.5376 H   0  0  0  0  0  0
  -29.6266  -13.4516   17.7212 H   0  0  0  0  0  0
  -27.8985  -11.2599   18.9210 H   0  0  0  0  0  0
  -27.3730  -12.4790   17.7957 H   0  0  0  0  0  0
  -27.6097  -14.2335   19.4496 H   0  0  0  0  0  0
  -28.6841  -12.1210   21.3869 H   0  0  0  0  0  0
  -28.3695  -13.7815   21.8189 H   0  0  0  0  0  0
  -25.2683   -9.5711   22.4738 H   0  0  0  0  0  0
  -23.9992   -7.4612   22.7447 H   0  0  0  0  0  0
  -21.0801   -8.8644   19.8917 H   0  0  0  0  0  0
  -22.3570  -10.9587   19.6143 H   0  0  0  0  0  0
  -21.2021   -7.6138   23.9718 H   0  0  0  0  0  0
  -21.1503   -6.0513   25.9080 H   0  0  0  0  0  0
  -22.0584   -2.7592   23.2855 H   0  0  0  0  0  0
  -22.4064  -11.9818   22.4845 H   0  0  0  0  0  0
  -21.1038  -13.1150   22.2694 H   0  0  0  0  0  0
  -24.6325  -15.8253   20.5576 H   0  0  0  0  0  0
  -26.2464  -15.6483   20.1013 H   0  0  0  0  0  0
  -26.7218  -32.5395   23.0961 H   0  0  0  0  0  0
  -25.0303  -33.9716   25.0471 H   0  0  0  0  0  0
  -22.7384  -31.3214   21.3829 H   0  0  0  0  0  0
  -23.3771  -35.9575   23.3285 H   0  0  0  0  0  0
  -24.3534  -36.8867   22.2074 H   0  0  0  0  0  0
  -23.7226  -37.6440   23.6696 H   0  0  0  0  0  0
  -26.1244  -31.5200   20.6099 H   0  0  0  0  0  0
  -26.8620  -30.7978   22.0105 H   0  0  0  0  0  0
  -28.0860  -28.8853   21.2474 H   0  0  0  0  0  0
  -25.8963  -25.9037   18.9824 H   0  0  0  0  0  0
  -23.9675  -27.3322   18.9632 H   0  0  0  0  0  0
  -23.8385  -30.6371   19.4137 H   0  0  0  0  0  0
  -22.7746  -29.3141   19.7901 H   0  0  0  0  0  0
  -25.1299  -36.1804   25.0822 H   0  0  0  0  0  0
  -21.0049  -28.3505   24.1285 H   0  0  0  0  0  0
  -20.5868  -26.2516   23.3572 H   0  0  0  0  0  0
  -21.6721  -26.7641   22.1139 H   0  0  0  0  0  0
  -19.7071  -25.6317   21.1357 H   0  0  0  0  0  0
  -19.6848  -27.3168   20.6702 H   0  0  0  0  0  0
  -17.4282  -26.6761   21.3967 H   0  0  0  0  0  0
  -18.0399  -26.0197   22.9023 H   0  0  0  0  0  0
  -19.8060  -30.7325   24.2270 H   0  0  0  0  0  0
  -17.5193  -31.6388   24.5248 H   0  0  0  0  0  0
  -15.5485  -30.3199   23.7748 H   0  0  0  0  0  0
  -15.8659  -28.1026   22.7067 H   0  0  0  0  0  0
  -24.5895  -30.7267   25.7695 H   0  0  0  0  0  0
  -24.9021  -32.3178   26.4695 H   0  0  0  0  0  0
  -25.8018  -30.9136   27.0244 H   0  0  0  0  0  0
  -26.3057  -29.6780   24.1282 H   0  0  0  0  0  0
  -27.4182  -29.7358   25.4737 H   0  0  0  0  0  0
  -27.8867  -30.4361   23.9421 H   0  0  0  0  0  0
  -27.2606  -33.3865   26.1881 H   0  0  0  0  0  0
  -28.3978  -32.6961   25.0416 H   0  0  0  0  0  0
  -28.0596  -31.8772   26.5600 H   0  0  0  0  0  0
  -28.2533  -38.0100   24.7493 H   0  0  0  0  0  0
  -28.1050  -36.2619   24.6290 H   0  0  0  0  0  0
  -27.2247  -37.1357   25.8859 H   0  0  0  0  0  0
  -20.9367  -29.8882   21.6683 H   0  0  0  0  0  0
  -26.0086  -38.2777   24.1565 H   0  0  0  0  0  0
  -31.3074  -20.4768   19.7411 H   0  0  0  0  0  0
  -26.6013  -19.6613   20.6547 H   0  0  0  0  0  0
  -26.2422  -21.3402   20.5586 H   0  0  0  0  0  0
  -27.0764  -20.6866   21.9859 H   0  0  0  0  0  0
  -26.8425  -24.6073   22.0944 H   0  0  0  0  0  0
  -27.0872  -22.9159   22.4341 H   0  0  0  0  0  0
  -26.1732  -23.4179   20.9991 H   0  0  0  0  0  0
  -27.5728  -24.7233   18.9822 H   0  0  0  0  0  0
  -29.2555  -24.8605   19.1852 H   0  0  0  0  0  0
  -28.0713  -21.0114   19.1158 H   0  0  0  0  0  0
  -29.0705  -24.0410   21.5263 H   0  0  0  0  0  0
  -28.7240  -15.5880   20.7990 H   0  0  0  0  0  0
  -29.7077  -22.4353   19.7938 H   0  0  0  0  0  0
  -29.5188  -22.0797   21.3334 H   0  0  0  0  0  0
  1 25  1  0  0  0
  1 30  2  0  0  0
  1 80  1  0  0  0
  2  3  1  0  0  0
  2 25  1  0  0  0
  2 83  1  0  0  0
  2 84  1  0  0  0
  3  4  1  0  0  0
  3 85  1  0  0  0
  3 86  1  0  0  0
  4  5  1  0  0  0
  4 87  1  0  0  0
  4 88  1  0  0  0
  5  6  1  0  0  0
  5 26  1  0  0  0
  5 89  1  0  0  0
  6 25  1  0  0  0
  6 90  1  0  0  0
  6 91  1  0  0  0
  7  8  2  0  0  0
  7 26  1  0  0  0
  7 29  1  0  0  0
  8  9  1  0  0  0
  8 22  1  0  0  0
  9 10  1  0  0  0
  9 27  2  0  0  0
 10 11  2  0  0  0
 10 15  1  0  0  0
 11 12  1  0  0  0
 11 92  1  0  0  0
 12 13  2  0  0  0
 12 93  1  0  0  0
 13 14  1  0  0  0
 13 31  1  0  0  0
 14 15  2  0  0  0
 14 94  1  0  0  0
 15 95  1  0  0  0
 16 17  2  0  0  0
 16 21  1  0  0  0
 16 31  1  0  0  0
 17 18  1  0  0  0
 17 96  1  0  0  0
 18 19  2  0  0  0
 18 97  1  0  0  0
 19 20  1  0  0  0
 19 24  1  0  0  0
 20 21  2  0  0  0
 20 98  1  0  0  0
 21 23  1  0  0  0
 22 28  1  0  0  0
 22 32  2  0  0  0
 26 27  1  0  0  0
 28 99  1  0  0  0
 28100  1  0  0  0
 29101  1  0  0  0
 29102  1  0  0  0
 33 34  1  0  0  0
 33 66  1  0  0  0
 33 70  2  0  0  0
 34 36  1  0  0  0
 34 59  1  0  0  0
 34103  1  0  0  0
 35 44  2  0  0  0
 35 45  1  0  0  0
 35 68  1  0  0  0
 36 56  1  0  0  0
 36104  1  0  0  0
 37 39  1  0  0  0
 37 47  1  0  0  0
 37 66  1  0  0  0
 37105  1  0  0  0
 38 43  2  0  0  0
 38 46  1  0  0  0
 38 47  1  0  0  0
 39 64  1  0  0  0
 39 67  2  0  0  0
 40 52  1  0  0  0
 40 53  2  0  0  0
 40 58  1  0  0  0
 41106  1  0  0  0
 41107  1  0  0  0
 41108  1  0  0  0
 41 48  1  0  0  0
 42 43  1  0  0  0
 42 66  1  0  0  0
 42109  1  0  0  0
 42110  1  0  0  0
 43 44  1  0  0  0
 44111  1  0  0  0
 45 46  2  0  0  0
 45112  1  0  0  0
 46113  1  0  0  0
 47114  1  0  0  0
 47115  1  0  0  0
 48 56  1  0  0  0
 48 65  1  0  0  0
 48116  1  0  0  0
 49 50  1  0  0  0
 49 53  1  0  0  0
 49 64  1  0  0  0
 49117  1  0  0  0
 50 51  1  0  0  0
 50118  1  0  0  0
 50119  1  0  0  0
 51 52  1  0  0  0
 51120  1  0  0  0
 51121  1  0  0  0
 52122  1  0  0  0
 52123  1  0  0  0
 53 54  1  0  0  0
 54 55  2  0  0  0
 54124  1  0  0  0
 55 57  1  0  0  0
 55125  1  0  0  0
 56 69  2  0  0  0
 57 58  2  0  0  0
 57126  1  0  0  0
 58127  1  0  0  0
 59 60  1  0  0  0
 59 61  1  0  0  0
 59 62  1  0  0  0
 60128  1  0  0  0
 60129  1  0  0  0
 60130  1  0  0  0
 61131  1  0  0  0
 61132  1  0  0  0
 61133  1  0  0  0
 62134  1  0  0  0
 62135  1  0  0  0
 62136  1  0  0  0
 63 65  1  0  0  0
 63137  1  0  0  0
 63138  1  0  0  0
 63139  1  0  0  0
 64140  1  0  0  0
 65141  1  0  0  0
 68 76  1  0  0  0
 71 72  2  0  0  0
 71 82  1  0  0  0
 71142  1  0  0  0
 72 77  1  0  0  0
 72 79  1  0  0  0
 73 79  2  0  0  0
 73 80  1  0  0  0
 73 82  1  0  0  0
 74143  1  0  0  0
 74144  1  0  0  0
 74145  1  0  0  0
 74 77  1  0  0  0
 75146  1  0  0  0
 75147  1  0  0  0
 75148  1  0  0  0
 75 78  1  0  0  0
 76 78  1  0  0  0
 76149  1  0  0  0
 76150  1  0  0  0
 77 81  1  0  0  0
 77151  1  0  0  0
 78 81  1  0  0  0
 78152  1  0  0  0
 80153  1  0  0  0
 81154  1  0  0  0
 81155  1  0  0  0
M  CHG  1  81   1
M  ISO  4   1 100  68 101  76 101  80 100
M  END
> <chiral flag>
0

> <version>
0

> <s_m_source_file>
/data/baiqing/PycharmProjects/Reinvent-master-3.2/result/LINK_invent/BTK/process_docking_weight1_custom_product_contain_oxygen_bond_distance_aromatic_linkinvent_7_9_3/rearranged_h_0198.sdf

> <i_m_source_file_index>
16

> <r_mmod_Potential_Energy-OPLS-2005>
-15.8326187133789

> <r_mmod_Stretch_Energy-OPLS-2005>
137.081146240234

> <r_mmod_Bend_Energy-OPLS-2005>
220.633682250977

> <r_mmod_Torsional_Energy-OPLS-2005>
218.73486328125

> <r_mmod_Improper_Torsional_Energy-OPLS-2005>
5.4268102645874

> <r_mmod_Van_der_Waal_Energy-OPLS-2005>
122.531326293945

> <r_mmod_Electrostatic_Energy-OPLS-2005>
-349.642395019531

> <r_mmod_Solvation_Energy-OPLS-2005>
-470.171173095703

> <b_mmod_Minimization_Converged-OPLS-2005>
0

> <r_mmod_RMS_Derivative-OPLS-2005>
7.42337226867676

$$$$
16
                    3D
 Structure written by MMmdl.
155163  0  0  1  0            999 V2000
  -30.6026  -14.6906   20.4692 C   0  0  0  0  0  0
  -30.4403  -12.4183   19.4638 C   0  0  0  0  0  0
  -29.5110  -12.5050   18.2316 C   0  0  0  0  0  0
  -28.0349  -12.3345   18.6450 C   0  0  0  0  0  0
  -27.6489  -13.2195   19.8599 C   0  0  2  0  0  0
  -28.6949  -13.1084   20.9925 C   0  0  0  0  0  0
  -25.2550  -13.8175   20.5679 C   0  0  0  0  0  0
  -24.1824  -13.0437   20.9194 C   0  0  0  0  0  0
  -24.6399  -11.6907   20.8751 C   0  0  0  0  0  0
  -23.9072  -10.4290   21.0416 C   0  0  0  0  0  0
  -24.3623   -9.4199   21.9190 C   0  0  0  0  0  0
  -23.6294   -8.2237   22.0755 C   0  0  0  0  0  0
  -22.4277   -8.0278   21.3540 C   0  0  0  0  0  0
  -21.9916   -9.0257   20.4646 C   0  0  0  0  0  0
  -22.7248  -10.2136   20.3058 C   0  0  0  0  0  0
  -21.6850   -6.0737   22.5273 C   0  0  0  0  0  0
  -21.4019   -6.5641   23.8207 C   0  0  0  0  0  0
  -21.3659   -5.6794   24.9170 C   0  0  0  0  0  0
  -21.6040   -4.3055   24.7222 C   0  0  0  0  0  0
  -21.8821   -3.8145   23.4342 C   0  0  0  0  0  0
  -21.9196   -4.6965   22.3400 C   0  0  0  0  0  0
  -22.7848  -13.5226   21.1857 C   0  0  0  0  0  0
  -22.1659   -4.2154   21.0977 F   0  0  0  0  0  0
  -21.5633   -3.4535   25.7730 F   0  0  0  0  0  0
  -30.0042  -13.4559   20.4208 N   0  0  0  0  0  0
  -26.2972  -12.9354   20.3319 N   0  0  0  0  0  0
  -25.9328  -11.6507   20.5776 N   0  0  0  0  0  0
  -22.0503  -12.8208   22.0414 N   0  0  0  0  0  0
  -25.4269  -15.1894   20.4058 N   0  0  0  0  0  0
  -31.7809  -14.8363   20.1297 O   0  0  0  0  0  0
  -21.6636   -6.8877   21.4233 O   0  0  0  0  0  0
  -22.3531  -14.5537   20.6716 O   0  0  0  0  0  0
  -24.6244  -31.8588   23.1983 C   0  0  0  0  0  0
  -25.9071  -32.4772   23.8346 C   0  0  1  0  0  0
  -27.2267  -27.3097   20.1299 C   0  0  0  0  0  0
  -25.5882  -33.8577   24.2263 N   0  0  0  0  0  0
  -23.4207  -30.4788   21.5411 C   0  0  2  0  0  0
  -24.8695  -28.9250   20.1158 C   0  0  0  0  0  0
  -22.7471  -29.4605   22.4924 C   0  0  0  0  0  0
  -18.0286  -28.1366   22.8481 C   0  0  0  0  0  0
  -24.1493  -36.7295   23.2646 C   0  0  0  0  0  0
  -25.9620  -30.7878   21.3697 C   0  0  0  0  0  0
  -26.0376  -29.4108   20.7182 C   0  0  0  0  0  0
  -27.2223  -28.6161   20.7097 C   0  0  0  0  0  0
  -26.0388  -26.8717   19.5094 C   0  0  0  0  0  0
  -24.8715  -27.6610   19.5022 C   0  0  0  0  0  0
  -23.6382  -29.8076   20.1590 C   0  0  0  0  0  0
  -25.4107  -36.3080   24.0344 C   0  0  1  0  0  0
  -20.5888  -28.3669   23.1283 C   0  0  2  0  0  0
  -20.6768  -26.9393   22.5408 C   0  0  0  0  0  0
  -19.5751  -26.6378   21.5194 C   0  0  0  0  0  0
  -18.1930  -26.7907   22.1606 C   0  0  0  0  0  0
  -19.1541  -28.8826   23.2877 C   0  0  0  0  0  0
  -18.9474  -30.1426   23.8895 C   0  0  0  0  0  0
  -17.6476  -30.6571   24.0551 C   0  0  0  0  0  0
  -25.9043  -34.9453   23.5106 C   0  0  0  0  0  0
  -16.5363  -29.9072   23.6326 C   0  0  0  0  0  0
  -16.7279  -28.6489   23.0351 C   0  0  0  0  0  0
  -26.4459  -31.6588   25.0713 C   0  0  0  0  0  0
  -25.3702  -31.3738   26.1452 C   0  0  0  0  0  0
  -27.0284  -30.3021   24.6134 C   0  0  0  0  0  0
  -27.6003  -32.4329   25.7483 C   0  0  0  0  0  0
  -27.5579  -37.1793   24.8462 C   0  0  0  0  0  0
  -21.4178  -29.3045   22.3686 N   0  0  0  0  0  0
  -26.4278  -37.3777   23.9421 N   0  0  0  0  0  0
  -24.6880  -31.0586   22.0932 N   0  0  0  0  0  0
  -23.4191  -28.8159   23.3007 O   0  0  0  0  0  0
  -28.3458  -26.4653   20.1168 O   0  0  0  0  0  0
  -26.5631  -34.8932   22.4691 O   0  0  0  0  0  0
  -23.5393  -32.1387   23.7295 O   0  0  0  0  0  0
  -31.0960  -17.8955   20.4346 C   0  0  0  0  0  0
  -29.9413  -17.1391   20.5168 C   0  0  0  0  0  0
  -29.6349  -19.7005   20.0977 C   0  0  0  0  0  0
  -28.9077  -25.2116   22.0686 C   0  0  0  0  0  0
  -28.9448  -22.3913   20.5394 C   0  0  0  0  0  0
  -28.8084  -23.8591   19.8671 C   0  0  0  0  0  0
  -29.1932  -21.1245   19.5803 C   0  0  1  0  0  0
  -28.2261  -25.1023   20.6985 C   0  0  1  0  0  0
  -30.9143  -19.2899   20.2230 N   0  0  0  0  0  0
  -29.7706  -15.7650   20.7037 N   0  0  0  0  0  0
  -30.2677  -21.4145   18.6195 N   0  3  0  0  0  0
  -28.5687  -18.2775   20.3631 S   0  0  0  0  0  0
  -31.4811  -12.5482   19.1627 H   0  0  0  0  0  0
  -30.3812  -11.4311   19.9251 H   0  0  0  0  0  0
  -29.7853  -11.7447   17.4984 H   0  0  0  0  0  0
  -29.6432  -13.4693   17.7367 H   0  0  0  0  0  0
  -27.8841  -11.2835   18.8951 H   0  0  0  0  0  0
  -27.3776  -12.5431   17.8006 H   0  0  0  0  0  0
  -27.6567  -14.2477   19.4983 H   0  0  0  0  0  0
  -28.7187  -12.0970   21.4005 H   0  0  0  0  0  0
  -28.4379  -13.7617   21.8279 H   0  0  0  0  0  0
  -25.2774   -9.5670   22.4763 H   0  0  0  0  0  0
  -24.0003   -7.4625   22.7473 H   0  0  0  0  0  0
  -21.0848   -8.8775   19.8950 H   0  0  0  0  0  0
  -22.3711  -10.9674   19.6164 H   0  0  0  0  0  0
  -21.2008   -7.6148   23.9714 H   0  0  0  0  0  0
  -21.1481   -6.0523   25.9077 H   0  0  0  0  0  0
  -22.0605   -2.7606   23.2837 H   0  0  0  0  0  0
  -22.4116  -11.9844   22.4757 H   0  0  0  0  0  0
  -21.1134  -13.1233   22.2667 H   0  0  0  0  0  0
  -24.6565  -15.8422   20.5004 H   0  0  0  0  0  0
  -26.2666  -15.6218   20.0430 H   0  0  0  0  0  0
  -26.7114  -32.5432   23.1078 H   0  0  0  0  0  0
  -25.0014  -33.9749   25.0398 H   0  0  0  0  0  0
  -22.7155  -31.2986   21.3899 H   0  0  0  0  0  0
  -23.3765  -35.9617   23.3309 H   0  0  0  0  0  0
  -24.3605  -36.8915   22.2060 H   0  0  0  0  0  0
  -23.7247  -37.6503   23.6667 H   0  0  0  0  0  0
  -26.0939  -31.5496   20.6002 H   0  0  0  0  0  0
  -26.8411  -30.8376   21.9995 H   0  0  0  0  0  0
  -28.1248  -28.9881   21.1777 H   0  0  0  0  0  0
  -26.0119  -25.9020   19.0344 H   0  0  0  0  0  0
  -23.9754  -27.2845   19.0281 H   0  0  0  0  0  0
  -23.7631  -30.5814   19.4004 H   0  0  0  0  0  0
  -22.7577  -29.2396   19.8543 H   0  0  0  0  0  0
  -25.1295  -36.1925   25.0839 H   0  0  0  0  0  0
  -20.9970  -28.3208   24.1398 H   0  0  0  0  0  0
  -20.5643  -26.2270   23.3604 H   0  0  0  0  0  0
  -21.6640  -26.7410   22.1208 H   0  0  0  0  0  0
  -19.6935  -25.6290   21.1219 H   0  0  0  0  0  0
  -19.6680  -27.3183   20.6728 H   0  0  0  0  0  0
  -17.4204  -26.6647   21.4013 H   0  0  0  0  0  0
  -18.0324  -26.0044   22.9007 H   0  0  0  0  0  0
  -19.7960  -30.7226   24.2259 H   0  0  0  0  0  0
  -17.5056  -31.6255   24.5140 H   0  0  0  0  0  0
  -15.5364  -30.2988   23.7657 H   0  0  0  0  0  0
  -15.8675  -28.0810   22.7072 H   0  0  0  0  0  0
  -24.5876  -30.7082   25.7807 H   0  0  0  0  0  0
  -24.8902  -32.2909   26.4868 H   0  0  0  0  0  0
  -25.8047  -30.8939   27.0235 H   0  0  0  0  0  0
  -26.2842  -29.6797   24.1151 H   0  0  0  0  0  0
  -27.4005  -29.7235   25.4601 H   0  0  0  0  0  0
  -27.8704  -30.4342   23.9340 H   0  0  0  0  0  0
  -27.2598  -33.3636   26.2049 H   0  0  0  0  0  0
  -28.3815  -32.6891   25.0312 H   0  0  0  0  0  0
  -28.0672  -31.8474   26.5423 H   0  0  0  0  0  0
  -28.2567  -38.0118   24.7541 H   0  0  0  0  0  0
  -28.1113  -36.2658   24.6242 H   0  0  0  0  0  0
  -27.2323  -37.1374   25.8872 H   0  0  0  0  0  0
  -20.9331  -29.8810   21.6945 H   0  0  0  0  0  0
  -26.0173  -38.2854   24.1446 H   0  0  0  0  0  0
  -32.1101  -17.5244   20.5064 H   0  0  0  0  0  0
  -29.9713  -25.4287   21.9649 H   0  0  0  0  0  0
  -28.8098  -24.2890   22.6420 H   0  0  0  0  0  0
  -28.4622  -26.0102   22.6620 H   0  0  0  0  0  0
  -28.0447  -22.1900   21.1225 H   0  0  0  0  0  0
  -29.7570  -22.4289   21.2658 H   0  0  0  0  0  0
  -28.1950  -23.7664   18.9692 H   0  0  0  0  0  0
  -29.7960  -24.1478   19.5077 H   0  0  0  0  0  0
  -28.2814  -20.9799   19.0006 H   0  0  0  0  0  0
  -27.1750  -24.8866   20.8920 H   0  0  0  0  0  0
  -28.8292  -15.4857   20.9347 H   0  0  0  0  0  0
  -31.1454  -21.4111   19.1090 H   0  0  0  0  0  0
  -30.1261  -22.2899   18.1527 H   0  0  0  0  0  0
  -30.3008  -20.6790   17.9382 H   0  0  0  0  0  0
  1 25  1  0  0  0
  1 30  2  0  0  0
  1 80  1  0  0  0
  2  3  1  0  0  0
  2 25  1  0  0  0
  2 83  1  0  0  0
  2 84  1  0  0  0
  3  4  1  0  0  0
  3 85  1  0  0  0
  3 86  1  0  0  0
  4  5  1  0  0  0
  4 87  1  0  0  0
  4 88  1  0  0  0
  5  6  1  0  0  0
  5 26  1  0  0  0
  5 89  1  0  0  0
  6 25  1  0  0  0
  6 90  1  0  0  0
  6 91  1  0  0  0
  7  8  2  0  0  0
  7 26  1  0  0  0
  7 29  1  0  0  0
  8  9  1  0  0  0
  8 22  1  0  0  0
  9 10  1  0  0  0
  9 27  2  0  0  0
 10 11  2  0  0  0
 10 15  1  0  0  0
 11 12  1  0  0  0
 11 92  1  0  0  0
 12 13  2  0  0  0
 12 93  1  0  0  0
 13 14  1  0  0  0
 13 31  1  0  0  0
 14 15  2  0  0  0
 14 94  1  0  0  0
 15 95  1  0  0  0
 16 17  2  0  0  0
 16 21  1  0  0  0
 16 31  1  0  0  0
 17 18  1  0  0  0
 17 96  1  0  0  0
 18 19  2  0  0  0
 18 97  1  0  0  0
 19 20  1  0  0  0
 19 24  1  0  0  0
 20 21  2  0  0  0
 20 98  1  0  0  0
 21 23  1  0  0  0
 22 28  1  0  0  0
 22 32  2  0  0  0
 26 27  1  0  0  0
 28 99  1  0  0  0
 28100  1  0  0  0
 29101  1  0  0  0
 29102  1  0  0  0
 33 34  1  0  0  0
 33 66  1  0  0  0
 33 70  2  0  0  0
 34 36  1  0  0  0
 34 59  1  0  0  0
 34103  1  0  0  0
 35 44  2  0  0  0
 35 45  1  0  0  0
 35 68  1  0  0  0
 36 56  1  0  0  0
 36104  1  0  0  0
 37 39  1  0  0  0
 37 47  1  0  0  0
 37 66  1  0  0  0
 37105  1  0  0  0
 38 43  2  0  0  0
 38 46  1  0  0  0
 38 47  1  0  0  0
 39 64  1  0  0  0
 39 67  2  0  0  0
 40 52  1  0  0  0
 40 53  2  0  0  0
 40 58  1  0  0  0
 41106  1  0  0  0
 41107  1  0  0  0
 41108  1  0  0  0
 41 48  1  0  0  0
 42 43  1  0  0  0
 42 66  1  0  0  0
 42109  1  0  0  0
 42110  1  0  0  0
 43 44  1  0  0  0
 44111  1  0  0  0
 45 46  2  0  0  0
 45112  1  0  0  0
 46113  1  0  0  0
 47114  1  0  0  0
 47115  1  0  0  0
 48 56  1  0  0  0
 48 65  1  0  0  0
 48116  1  0  0  0
 49 50  1  0  0  0
 49 53  1  0  0  0
 49 64  1  0  0  0
 49117  1  0  0  0
 50 51  1  0  0  0
 50118  1  0  0  0
 50119  1  0  0  0
 51 52  1  0  0  0
 51120  1  0  0  0
 51121  1  0  0  0
 52122  1  0  0  0
 52123  1  0  0  0
 53 54  1  0  0  0
 54 55  2  0  0  0
 54124  1  0  0  0
 55 57  1  0  0  0
 55125  1  0  0  0
 56 69  2  0  0  0
 57 58  2  0  0  0
 57126  1  0  0  0
 58127  1  0  0  0
 59 60  1  0  0  0
 59 61  1  0  0  0
 59 62  1  0  0  0
 60128  1  0  0  0
 60129  1  0  0  0
 60130  1  0  0  0
 61131  1  0  0  0
 61132  1  0  0  0
 61133  1  0  0  0
 62134  1  0  0  0
 62135  1  0  0  0
 62136  1  0  0  0
 63 65  1  0  0  0
 63137  1  0  0  0
 63138  1  0  0  0
 63139  1  0  0  0
 64140  1  0  0  0
 65141  1  0  0  0
 68 78  1  0  0  0
 71 72  2  0  0  0
 71 79  1  0  0  0
 71142  1  0  0  0
 72 80  1  0  0  0
 72 82  1  0  0  0
 73 77  1  0  0  0
 73 79  2  0  0  0
 73 82  1  0  0  0
 74143  1  0  0  0
 74144  1  0  0  0
 74145  1  0  0  0
 74 78  1  0  0  0
 75 76  1  0  0  0
 75 77  1  0  0  0
 75146  1  0  0  0
 75147  1  0  0  0
 76 78  1  0  0  0
 76148  1  0  0  0
 76149  1  0  0  0
 77 81  1  0  0  0
 77150  1  0  0  0
 78151  1  0  0  0
 80152  1  0  0  0
 81153  1  0  0  0
 81154  1  0  0  0
 81155  1  0  0  0
M  CHG  1  81   1
M  ISO  4   1 100  68 101  78 101  80 100
M  END
> <chiral flag>
0

> <version>
0

> <s_m_source_file>
/data/baiqing/PycharmProjects/Reinvent-master-3.2/result/LINK_invent/BTK/process_docking_weight1_custom_product_contain_oxygen_bond_distance_aromatic_linkinvent_7_9_3/rearranged_h_0198.sdf

> <i_m_source_file_index>
17

> <r_mmod_Potential_Energy-OPLS-2005>
-296.267761230469

> <r_mmod_Stretch_Energy-OPLS-2005>
93.4189453125

> <r_mmod_Bend_Energy-OPLS-2005>
147.945373535156

> <r_mmod_Torsional_Energy-OPLS-2005>
229.975402832031

> <r_mmod_Improper_Torsional_Energy-OPLS-2005>
5.9279203414917

> <r_mmod_Van_der_Waal_Energy-OPLS-2005>
118.808219909668

> <r_mmod_Electrostatic_Energy-OPLS-2005>
-452.802032470703

> <r_mmod_Solvation_Energy-OPLS-2005>
-498.546051025391

> <b_mmod_Minimization_Converged-OPLS-2005>
0

> <r_mmod_RMS_Derivative-OPLS-2005>
2.19621610641479

$$$$
17
                    3D
 Structure written by MMmdl.
152160  0  0  1  0            999 V2000
  -30.5918  -14.7667   20.4480 C   0  0  0  0  0  0
  -30.4290  -12.4634   19.4871 C   0  0  0  0  0  0
  -29.5132  -12.5103   18.2435 C   0  0  0  0  0  0
  -28.0380  -12.3346   18.6504 C   0  0  0  0  0  0
  -27.6390  -13.2361   19.8494 C   0  0  2  0  0  0
  -28.6782  -13.1783   20.9902 C   0  0  0  0  0  0
  -25.2494  -13.8220   20.5674 C   0  0  0  0  0  0
  -24.1798  -13.0467   20.9237 C   0  0  0  0  0  0
  -24.6383  -11.6939   20.8765 C   0  0  0  0  0  0
  -23.9062  -10.4307   21.0419 C   0  0  0  0  0  0
  -24.3617   -9.4219   21.9193 C   0  0  0  0  0  0
  -23.6292   -8.2254   22.0764 C   0  0  0  0  0  0
  -22.4276   -8.0285   21.3550 C   0  0  0  0  0  0
  -21.9909   -9.0262   20.4657 C   0  0  0  0  0  0
  -22.7237  -10.2145   20.3064 C   0  0  0  0  0  0
  -21.6857   -6.0739   22.5279 C   0  0  0  0  0  0
  -21.4017   -6.5640   23.8212 C   0  0  0  0  0  0
  -21.3656   -5.6789   24.9174 C   0  0  0  0  0  0
  -21.6044   -4.3053   24.7226 C   0  0  0  0  0  0
  -21.8818   -3.8145   23.4344 C   0  0  0  0  0  0
  -21.9194   -4.6963   22.3401 C   0  0  0  0  0  0
  -22.7815  -13.5247   21.1872 C   0  0  0  0  0  0
  -22.1661   -4.2149   21.0980 F   0  0  0  0  0  0
  -21.5622   -3.4532   25.7738 F   0  0  0  0  0  0
  -29.9812  -13.5305   20.4152 N   0  0  0  0  0  0
  -26.2910  -12.9422   20.3248 N   0  0  0  0  0  0
  -25.9307  -11.6567   20.5745 N   0  0  0  0  0  0
  -22.0442  -12.8249   22.0422 N   0  0  0  0  0  0
  -25.4195  -15.1937   20.3971 N   0  0  0  0  0  0
  -31.7713  -14.8687   20.0983 O   0  0  0  0  0  0
  -21.6641   -6.8881   21.4241 O   0  0  0  0  0  0
  -22.3508  -14.5550   20.6701 O   0  0  0  0  0  0
  -24.6328  -31.8522   23.1938 C   0  0  0  0  0  0
  -25.9146  -32.4737   23.8296 C   0  0  1  0  0  0
  -27.2247  -27.2387   20.1301 C   0  0  0  0  0  0
  -25.5933  -33.8541   24.2231 N   0  0  0  0  0  0
  -23.4305  -30.4726   21.5379 C   0  0  2  0  0  0
  -24.8775  -28.9113   20.1088 C   0  0  0  0  0  0
  -22.7504  -29.4594   22.4902 C   0  0  0  0  0  0
  -18.0291  -28.1395   22.8487 C   0  0  0  0  0  0
  -24.1492  -36.7269   23.2642 C   0  0  0  0  0  0
  -25.9764  -30.7583   21.3750 C   0  0  0  0  0  0
  -26.0479  -29.3780   20.7178 C   0  0  0  0  0  0
  -27.2201  -28.5541   20.7153 C   0  0  0  0  0  0
  -26.0254  -26.8367   19.5010 C   0  0  0  0  0  0
  -24.8729  -27.6504   19.4906 C   0  0  0  0  0  0
  -23.6483  -29.7997   20.1560 C   0  0  0  0  0  0
  -25.4121  -36.3059   24.0325 C   0  0  1  0  0  0
  -20.5895  -28.3709   23.1268 C   0  0  2  0  0  0
  -20.6777  -26.9424   22.5411 C   0  0  0  0  0  0
  -19.5751  -26.6394   21.5217 C   0  0  0  0  0  0
  -18.1933  -26.7940   22.1627 C   0  0  0  0  0  0
  -19.1544  -28.8870   23.2872 C   0  0  0  0  0  0
  -18.9463  -30.1473   23.8889 C   0  0  0  0  0  0
  -17.6460  -30.6595   24.0566 C   0  0  0  0  0  0
  -25.9063  -34.9433   23.5087 C   0  0  0  0  0  0
  -16.5353  -29.9092   23.6334 C   0  0  0  0  0  0
  -16.7277  -28.6509   23.0357 C   0  0  0  0  0  0
  -26.4507  -31.6568   25.0692 C   0  0  0  0  0  0
  -25.3720  -31.3720   26.1402 C   0  0  0  0  0  0
  -27.0362  -30.2984   24.6188 C   0  0  0  0  0  0
  -27.6059  -32.4311   25.7466 C   0  0  0  0  0  0
  -27.5578  -37.1791   24.8469 C   0  0  0  0  0  0
  -21.4208  -29.3046   22.3647 N   0  0  0  0  0  0
  -26.4293  -37.3759   23.9411 N   0  0  0  0  0  0
  -24.6994  -31.0471   22.0920 N   0  0  0  0  0  0
  -23.4192  -28.8150   23.3024 O   0  0  0  0  0  0
  -28.3454  -26.3731   20.2153 O   0  0  0  0  0  0
  -26.5639  -34.8915   22.4658 O   0  0  0  0  0  0
  -23.5479  -32.1360   23.7224 O   0  0  0  0  0  0
  -27.3937  -19.6396   21.9222 C   0  0  0  0  0  0
  -28.0910  -18.4576   21.5779 C   0  0  0  0  0  0
  -29.2038  -18.6039   20.7111 C   0  0  0  0  0  0
  -28.7210  -20.9627   20.6213 C   0  0  0  0  0  0
  -30.1540  -17.3659   20.3278 C   0  0  0  0  0  0
  -28.4350  -23.6283   20.6513 C   0  0  0  0  0  0
  -28.4202  -24.9523   19.6971 C   0  0  0  0  0  0
  -27.7068  -20.8640   21.4567 N   0  0  0  0  0  0
  -29.4772  -19.8897   20.2376 N   0  0  0  0  0  0
  -27.6536  -17.2309   22.1009 N   0  0  0  0  0  0
  -28.9564  -22.2889   20.1206 N   0  0  0  0  0  0
  -29.8232  -15.9026   20.6528 N   0  0  0  0  0  0
  -31.4728  -12.5807   19.1911 H   0  0  0  0  0  0
  -30.3664  -11.4886   19.9729 H   0  0  0  0  0  0
  -29.7998  -11.7336   17.5329 H   0  0  0  0  0  0
  -29.6409  -13.4623   17.7260 H   0  0  0  0  0  0
  -27.8928  -11.2863   18.9129 H   0  0  0  0  0  0
  -27.3848  -12.5273   17.7985 H   0  0  0  0  0  0
  -27.6330  -14.2571   19.4665 H   0  0  0  0  0  0
  -28.7120  -12.1836   21.4361 H   0  0  0  0  0  0
  -28.4079  -13.8668   21.7925 H   0  0  0  0  0  0
  -25.2768   -9.5691   22.4767 H   0  0  0  0  0  0
  -24.0002   -7.4643   22.7484 H   0  0  0  0  0  0
  -21.0837   -8.8781   19.8963 H   0  0  0  0  0  0
  -22.3696  -10.9683   19.6168 H   0  0  0  0  0  0
  -21.2014   -7.6149   23.9716 H   0  0  0  0  0  0
  -21.1477   -6.0522   25.9079 H   0  0  0  0  0  0
  -22.0602   -2.7606   23.2847 H   0  0  0  0  0  0
  -22.4054  -11.9931   22.4842 H   0  0  0  0  0  0
  -21.1059  -13.1286   22.2617 H   0  0  0  0  0  0
  -24.6109  -15.8064   20.4075 H   0  0  0  0  0  0
  -26.1864  -15.5628   19.8506 H   0  0  0  0  0  0
  -26.7202  -32.5378   23.1026 H   0  0  0  0  0  0
  -25.0076  -33.9668   25.0373 H   0  0  0  0  0  0
  -22.7287  -31.2958   21.3880 H   0  0  0  0  0  0
  -23.3762  -35.9594   23.3304 H   0  0  0  0  0  0
  -24.3580  -36.8891   22.2056 H   0  0  0  0  0  0
  -23.7238  -37.6466   23.6666 H   0  0  0  0  0  0
  -26.1170  -31.5174   20.6046 H   0  0  0  0  0  0
  -26.8543  -30.8088   22.0077 H   0  0  0  0  0  0
  -28.1171  -28.9082   21.2041 H   0  0  0  0  0  0
  -25.9361  -25.8669   19.0385 H   0  0  0  0  0  0
  -23.9729  -27.2845   19.0157 H   0  0  0  0  0  0
  -23.7702  -30.5724   19.3965 H   0  0  0  0  0  0
  -22.7668  -29.2306   19.8546 H   0  0  0  0  0  0
  -25.1307  -36.1905   25.0817 H   0  0  0  0  0  0
  -20.9993  -28.3294   24.1387 H   0  0  0  0  0  0
  -20.5686  -26.2318   23.3618 H   0  0  0  0  0  0
  -21.6644  -26.7449   22.1199 H   0  0  0  0  0  0
  -19.6913  -25.6305   21.1248 H   0  0  0  0  0  0
  -19.6691  -27.3204   20.6749 H   0  0  0  0  0  0
  -17.4204  -26.6695   21.4027 H   0  0  0  0  0  0
  -18.0328  -26.0082   22.9022 H   0  0  0  0  0  0
  -19.7939  -30.7297   24.2249 H   0  0  0  0  0  0
  -17.5013  -31.6273   24.5169 H   0  0  0  0  0  0
  -15.5353  -30.2990   23.7662 H   0  0  0  0  0  0
  -15.8678  -28.0826   22.7072 H   0  0  0  0  0  0
  -24.5910  -30.7056   25.7718 H   0  0  0  0  0  0
  -24.8893  -32.2890   26.4793 H   0  0  0  0  0  0
  -25.8028  -30.8914   27.0196 H   0  0  0  0  0  0
  -26.2946  -29.6714   24.1221 H   0  0  0  0  0  0
  -27.4055  -29.7261   25.4709 H   0  0  0  0  0  0
  -27.8819  -30.4258   23.9426 H   0  0  0  0  0  0
  -27.2670  -33.3627   26.2012 H   0  0  0  0  0  0
  -28.3883  -32.6844   25.0297 H   0  0  0  0  0  0
  -28.0710  -31.8451   26.5404 H   0  0  0  0  0  0
  -28.2599  -38.0084   24.7511 H   0  0  0  0  0  0
  -28.1071  -36.2615   24.6309 H   0  0  0  0  0  0
  -27.2292  -37.1452   25.8870 H   0  0  0  0  0  0
  -20.9403  -29.8743   21.6820 H   0  0  0  0  0  0
  -26.0173  -38.2835   24.1405 H   0  0  0  0  0  0
  -26.5437  -19.5996   22.5884 H   0  0  0  0  0  0
  -30.3158  -17.4193   19.2516 H   0  0  0  0  0  0
  -31.1253  -17.5771   20.7749 H   0  0  0  0  0  0
  -27.4295  -23.4798   21.0457 H   0  0  0  0  0  0
  -29.0512  -23.8600   21.5202 H   0  0  0  0  0  0
  -27.7166  -24.7934   18.8835 H   0  0  0  0  0  0
  -29.3839  -24.9422   19.1880 H   0  0  0  0  0  0
  -27.1216  -17.3364   22.9622 H   0  0  0  0  0  0
  -27.0224  -16.7295   21.4782 H   0  0  0  0  0  0
  -29.7324  -22.3526   19.4729 H   0  0  0  0  0  0
  -28.8946  -15.7879   21.0389 H   0  0  0  0  0  0
  1 25  1  0  0  0
  1 30  2  0  0  0
  1 82  1  0  0  0
  2  3  1  0  0  0
  2 25  1  0  0  0
  2 83  1  0  0  0
  2 84  1  0  0  0
  3  4  1  0  0  0
  3 85  1  0  0  0
  3 86  1  0  0  0
  4  5  1  0  0  0
  4 87  1  0  0  0
  4 88  1  0  0  0
  5  6  1  0  0  0
  5 26  1  0  0  0
  5 89  1  0  0  0
  6 25  1  0  0  0
  6 90  1  0  0  0
  6 91  1  0  0  0
  7  8  2  0  0  0
  7 26  1  0  0  0
  7 29  1  0  0  0
  8  9  1  0  0  0
  8 22  1  0  0  0
  9 10  1  0  0  0
  9 27  2  0  0  0
 10 11  2  0  0  0
 10 15  1  0  0  0
 11 12  1  0  0  0
 11 92  1  0  0  0
 12 13  2  0  0  0
 12 93  1  0  0  0
 13 14  1  0  0  0
 13 31  1  0  0  0
 14 15  2  0  0  0
 14 94  1  0  0  0
 15 95  1  0  0  0
 16 17  2  0  0  0
 16 21  1  0  0  0
 16 31  1  0  0  0
 17 18  1  0  0  0
 17 96  1  0  0  0
 18 19  2  0  0  0
 18 97  1  0  0  0
 19 20  1  0  0  0
 19 24  1  0  0  0
 20 21  2  0  0  0
 20 98  1  0  0  0
 21 23  1  0  0  0
 22 28  1  0  0  0
 22 32  2  0  0  0
 26 27  1  0  0  0
 28 99  1  0  0  0
 28100  1  0  0  0
 29101  1  0  0  0
 29102  1  0  0  0
 33 34  1  0  0  0
 33 66  1  0  0  0
 33 70  2  0  0  0
 34 36  1  0  0  0
 34 59  1  0  0  0
 34103  1  0  0  0
 35 44  2  0  0  0
 35 45  1  0  0  0
 35 68  1  0  0  0
 36 56  1  0  0  0
 36104  1  0  0  0
 37 39  1  0  0  0
 37 47  1  0  0  0
 37 66  1  0  0  0
 37105  1  0  0  0
 38 43  2  0  0  0
 38 46  1  0  0  0
 38 47  1  0  0  0
 39 64  1  0  0  0
 39 67  2  0  0  0
 40 52  1  0  0  0
 40 53  2  0  0  0
 40 58  1  0  0  0
 41106  1  0  0  0
 41107  1  0  0  0
 41108  1  0  0  0
 41 48  1  0  0  0
 42 43  1  0  0  0
 42 66  1  0  0  0
 42109  1  0  0  0
 42110  1  0  0  0
 43 44  1  0  0  0
 44111  1  0  0  0
 45 46  2  0  0  0
 45112  1  0  0  0
 46113  1  0  0  0
 47114  1  0  0  0
 47115  1  0  0  0
 48 56  1  0  0  0
 48 65  1  0  0  0
 48116  1  0  0  0
 49 50  1  0  0  0
 49 53  1  0  0  0
 49 64  1  0  0  0
 49117  1  0  0  0
 50 51  1  0  0  0
 50118  1  0  0  0
 50119  1  0  0  0
 51 52  1  0  0  0
 51120  1  0  0  0
 51121  1  0  0  0
 52122  1  0  0  0
 52123  1  0  0  0
 53 54  1  0  0  0
 54 55  2  0  0  0
 54124  1  0  0  0
 55 57  1  0  0  0
 55125  1  0  0  0
 56 69  2  0  0  0
 57 58  2  0  0  0
 57126  1  0  0  0
 58127  1  0  0  0
 59 60  1  0  0  0
 59 61  1  0  0  0
 59 62  1  0  0  0
 60128  1  0  0  0
 60129  1  0  0  0
 60130  1  0  0  0
 61131  1  0  0  0
 61132  1  0  0  0
 61133  1  0  0  0
 62134  1  0  0  0
 62135  1  0  0  0
 62136  1  0  0  0
 63 65  1  0  0  0
 63137  1  0  0  0
 63138  1  0  0  0
 63139  1  0  0  0
 64140  1  0  0  0
 65141  1  0  0  0
 68 77  1  0  0  0
 71 72  2  0  0  0
 71 78  1  0  0  0
 71142  1  0  0  0
 72 73  1  0  0  0
 72 80  1  0  0  0
 73 75  1  0  0  0
 73 79  2  0  0  0
 74 78  2  0  0  0
 74 79  1  0  0  0
 74 81  1  0  0  0
 75 82  1  0  0  0
 75143  1  0  0  0
 75144  1  0  0  0
 76 77  1  0  0  0
 76 81  1  0  0  0
 76145  1  0  0  0
 76146  1  0  0  0
 77147  1  0  0  0
 77148  1  0  0  0
 80149  1  0  0  0
 80150  1  0  0  0
 81151  1  0  0  0
 82152  1  0  0  0
M  ISO  4   1 100  68 101  77 101  82 100
M  END
> <chiral flag>
0

> <version>
0

> <s_m_source_file>
/data/baiqing/PycharmProjects/Reinvent-master-3.2/result/LINK_invent/BTK/process_docking_weight1_custom_product_contain_oxygen_bond_distance_aromatic_linkinvent_7_9_3/rearranged_h_0198.sdf

> <i_m_source_file_index>
18

> <r_mmod_Potential_Energy-OPLS-2005>
-421.136749267578

> <r_mmod_Stretch_Energy-OPLS-2005>
130.467483520508

> <r_mmod_Bend_Energy-OPLS-2005>
189.622711181641

> <r_mmod_Torsional_Energy-OPLS-2005>
210.812515258789

> <r_mmod_Improper_Torsional_Energy-OPLS-2005>
14.2299947738647

> <r_mmod_Van_der_Waal_Energy-OPLS-2005>
145.3212890625

> <r_mmod_Electrostatic_Energy-OPLS-2005>
-955.867736816406

> <r_mmod_Solvation_Energy-OPLS-2005>
-250.252258300781

> <b_mmod_Minimization_Converged-OPLS-2005>
0

> <r_mmod_RMS_Derivative-OPLS-2005>
1.21152472496033

$$$$
18
                    3D
 Structure written by MMmdl.
154162  0  0  1  0            999 V2000
  -30.7267  -14.5008   20.5813 C   0  0  0  0  0  0
  -30.4061  -12.3125   19.4654 C   0  0  0  0  0  0
  -29.5169  -12.5520   18.2379 C   0  0  0  0  0  0
  -28.0385  -12.3950   18.6409 C   0  0  0  0  0  0
  -27.6737  -13.2212   19.9060 C   0  0  2  0  0  0
  -28.7156  -13.0290   21.0358 C   0  0  0  0  0  0
  -25.2637  -13.8205   20.5736 C   0  0  0  0  0  0
  -24.1911  -13.0457   20.9196 C   0  0  0  0  0  0
  -24.6488  -11.6918   20.8792 C   0  0  0  0  0  0
  -23.9158  -10.4284   21.0415 C   0  0  0  0  0  0
  -24.3673   -9.4158   21.9183 C   0  0  0  0  0  0
  -23.6306   -8.2222   22.0752 C   0  0  0  0  0  0
  -22.4289   -8.0304   21.3543 C   0  0  0  0  0  0
  -21.9956   -9.0286   20.4647 C   0  0  0  0  0  0
  -22.7322  -10.2146   20.3038 C   0  0  0  0  0  0
  -21.6859   -6.0758   22.5280 C   0  0  0  0  0  0
  -21.4031   -6.5649   23.8215 C   0  0  0  0  0  0
  -21.3641   -5.6797   24.9171 C   0  0  0  0  0  0
  -21.6033   -4.3060   24.7227 C   0  0  0  0  0  0
  -21.8805   -3.8152   23.4345 C   0  0  0  0  0  0
  -21.9179   -4.6985   22.3396 C   0  0  0  0  0  0
  -22.7913  -13.5190   21.1850 C   0  0  0  0  0  0
  -22.1644   -4.2150   21.0981 F   0  0  0  0  0  0
  -21.5623   -3.4537   25.7746 F   0  0  0  0  0  0
  -30.0331  -13.3301   20.4683 N   0  0  0  0  0  0
  -26.3109  -12.9386   20.3490 N   0  0  0  0  0  0
  -25.9445  -11.6529   20.5935 N   0  0  0  0  0  0
  -22.0606  -12.8133   22.0401 N   0  0  0  0  0  0
  -25.4375  -15.1931   20.4145 N   0  0  0  0  0  0
  -31.8354  -14.6423   20.0701 O   0  0  0  0  0  0
  -21.6628   -6.8919   21.4257 O   0  0  0  0  0  0
  -22.3567  -14.5470   20.6701 O   0  0  0  0  0  0
  -24.6140  -31.8669   23.2162 C   0  0  0  0  0  0
  -25.9043  -32.4815   23.8401 C   0  0  1  0  0  0
  -27.2157  -27.4099   20.0998 C   0  0  0  0  0  0
  -25.5915  -33.8600   24.2312 N   0  0  0  0  0  0
  -23.4004  -30.4947   21.5615 C   0  0  2  0  0  0
  -24.8390  -28.9579   20.1175 C   0  0  0  0  0  0
  -22.7457  -29.4613   22.5073 C   0  0  0  0  0  0
  -18.0276  -28.1451   22.8495 C   0  0  0  0  0  0
  -24.1502  -36.7304   23.2634 C   0  0  0  0  0  0
  -25.9292  -30.8303   21.3653 C   0  0  0  0  0  0
  -26.0053  -29.4659   20.7075 C   0  0  0  0  0  0
  -27.2008  -28.7026   20.6874 C   0  0  0  0  0  0
  -26.0328  -26.9281   19.4995 C   0  0  0  0  0  0
  -24.8513  -27.6934   19.5054 C   0  0  0  0  0  0
  -23.6030  -29.8302   20.1715 C   0  0  0  0  0  0
  -25.4120  -36.3067   24.0321 C   0  0  1  0  0  0
  -20.5848  -28.3781   23.1482 C   0  0  2  0  0  0
  -20.6862  -26.9540   22.5505 C   0  0  0  0  0  0
  -19.5829  -26.6530   21.5310 C   0  0  0  0  0  0
  -18.1920  -26.8056   22.1586 C   0  0  0  0  0  0
  -19.1506  -28.8861   23.3068 C   0  0  0  0  0  0
  -18.9399  -30.1300   23.9336 C   0  0  0  0  0  0
  -17.6407  -30.6469   24.0929 C   0  0  0  0  0  0
  -25.9018  -34.9447   23.5088 C   0  0  0  0  0  0
  -16.5338  -29.9154   23.6321 C   0  0  0  0  0  0
  -16.7268  -28.6586   23.0264 C   0  0  0  0  0  0
  -26.4487  -31.6560   25.0708 C   0  0  0  0  0  0
  -25.3752  -31.3670   26.1460 C   0  0  0  0  0  0
  -27.0331  -30.3007   24.6051 C   0  0  0  0  0  0
  -27.6058  -32.4261   25.7482 C   0  0  0  0  0  0
  -27.5583  -37.1801   24.8452 C   0  0  0  0  0  0
  -21.4150  -29.3273   22.4047 N   0  0  0  0  0  0
  -26.4307  -37.3769   23.9397 N   0  0  0  0  0  0
  -24.6698  -31.0767   22.1058 N   0  0  0  0  0  0
  -23.4263  -28.7922   23.2911 O   0  0  0  0  0  0
  -28.3554  -26.6275   20.0667 O   0  0  0  0  0  0
  -26.5589  -34.8857   22.4652 O   0  0  0  0  0  0
  -23.5323  -32.1453   23.7556 O   0  0  0  0  0  0
  -29.7711  -18.0718   21.6071 C   0  0  0  0  0  0
  -28.7741  -18.1334   22.5654 C   0  0  0  0  0  0
  -29.0800  -20.2825   21.3657 C   0  0  0  0  0  0
  -30.7007  -16.9048   21.2592 C   0  0  0  0  0  0
  -28.5036  -22.8919   21.3626 C   0  0  0  0  0  0
  -28.3749  -25.4895   20.9663 C   0  0  0  0  0  0
  -28.5367  -24.0694   20.3139 C   0  0  1  0  0  0
  -29.9381  -19.3250   20.9620 N   0  0  0  0  0  0
  -28.3431  -17.1659   23.4660 N   0  0  0  0  0  0
  -29.0930  -21.6077   20.9023 N   0  0  0  0  0  0
  -30.1123  -15.5456   21.1884 N   0  0  0  0  0  0
  -29.8045  -23.9769   19.6824 O   0  0  0  0  0  0
  -27.9943  -19.7025   22.6137 S   0  0  0  0  0  0
  -31.4642  -12.3321   19.2107 H   0  0  0  0  0  0
  -30.2300  -11.3154   19.8628 H   0  0  0  0  0  0
  -29.7747  -11.8638   17.4309 H   0  0  0  0  0  0
  -29.6972  -13.5574   17.8598 H   0  0  0  0  0  0
  -27.8512  -11.3344   18.8278 H   0  0  0  0  0  0
  -27.3968  -12.6809   17.8102 H   0  0  0  0  0  0
  -27.7228  -14.2658   19.5979 H   0  0  0  0  0  0
  -28.7211  -12.0030   21.4044 H   0  0  0  0  0  0
  -28.4989  -13.6525   21.9070 H   0  0  0  0  0  0
  -25.2851   -9.5597   22.4717 H   0  0  0  0  0  0
  -24.0005   -7.4605   22.7443 H   0  0  0  0  0  0
  -21.0878   -8.8802   19.8960 H   0  0  0  0  0  0
  -22.3796  -10.9675   19.6101 H   0  0  0  0  0  0
  -21.2047   -7.6152   23.9728 H   0  0  0  0  0  0
  -21.1484   -6.0524   25.9071 H   0  0  0  0  0  0
  -22.0618   -2.7618   23.2845 H   0  0  0  0  0  0
  -22.4270  -11.9741   22.4629 H   0  0  0  0  0  0
  -21.1257  -13.1133   22.2725 H   0  0  0  0  0  0
  -24.6802  -15.8580   20.5226 H   0  0  0  0  0  0
  -26.2935  -15.6329   20.0982 H   0  0  0  0  0  0
  -26.7058  -32.5489   23.1101 H   0  0  0  0  0  0
  -25.0090  -33.9773   25.0471 H   0  0  0  0  0  0
  -22.6776  -31.3112   21.4379 H   0  0  0  0  0  0
  -23.3747  -35.9658   23.3291 H   0  0  0  0  0  0
  -24.3588  -36.8942   22.2047 H   0  0  0  0  0  0
  -23.7280  -37.6508   23.6657 H   0  0  0  0  0  0
  -26.0336  -31.6029   20.6051 H   0  0  0  0  0  0
  -26.8206  -30.8840   21.9784 H   0  0  0  0  0  0
  -28.1092  -29.0933   21.1260 H   0  0  0  0  0  0
  -26.0251  -25.9588   19.0232 H   0  0  0  0  0  0
  -23.9563  -27.3034   19.0443 H   0  0  0  0  0  0
  -23.7108  -30.6066   19.4114 H   0  0  0  0  0  0
  -22.7211  -29.2600   19.8796 H   0  0  0  0  0  0
  -25.1300  -36.1939   25.0823 H   0  0  0  0  0  0
  -20.9817  -28.3364   24.1629 H   0  0  0  0  0  0
  -20.5792  -26.2300   23.3601 H   0  0  0  0  0  0
  -21.6761  -26.7677   22.1419 H   0  0  0  0  0  0
  -19.6853  -25.6456   21.1235 H   0  0  0  0  0  0
  -19.6850  -27.3400   20.6929 H   0  0  0  0  0  0
  -17.4310  -26.6767   21.3886 H   0  0  0  0  0  0
  -18.0125  -26.0265   22.8970 H   0  0  0  0  0  0
  -19.7872  -30.6996   24.2960 H   0  0  0  0  0  0
  -17.5064  -31.6095   24.5787 H   0  0  0  0  0  0
  -15.5370  -30.3192   23.7394 H   0  0  0  0  0  0
  -15.8688  -28.0941   22.6817 H   0  0  0  0  0  0
  -24.5941  -30.7006   25.7770 H   0  0  0  0  0  0
  -24.8969  -32.2849   26.4866 H   0  0  0  0  0  0
  -25.8145  -30.8856   27.0212 H   0  0  0  0  0  0
  -26.2888  -29.6792   24.1059 H   0  0  0  0  0  0
  -27.4071  -29.7204   25.4490 H   0  0  0  0  0  0
  -27.8717  -30.4339   23.9228 H   0  0  0  0  0  0
  -27.2669  -33.3547   26.2075 H   0  0  0  0  0  0
  -28.3884  -32.6831   25.0333 H   0  0  0  0  0  0
  -28.0674  -31.8357   26.5404 H   0  0  0  0  0  0
  -28.2565  -38.0119   24.7491 H   0  0  0  0  0  0
  -28.1112  -36.2647   24.6299 H   0  0  0  0  0  0
  -27.2272  -37.1447   25.8842 H   0  0  0  0  0  0
  -20.9302  -29.9706   21.7894 H   0  0  0  0  0  0
  -26.0175  -38.2830   24.1456 H   0  0  0  0  0  0
  -31.5150  -16.8632   21.9857 H   0  0  0  0  0  0
  -31.1764  -17.1065   20.2998 H   0  0  0  0  0  0
  -29.0690  -23.2011   22.2459 H   0  0  0  0  0  0
  -27.4733  -22.7545   21.7096 H   0  0  0  0  0  0
  -29.2185  -25.6573   21.6399 H   0  0  0  0  0  0
  -27.4741  -25.4779   21.5914 H   0  0  0  0  0  0
  -27.7561  -23.9479   19.5581 H   0  0  0  0  0  0
  -28.5798  -16.1839   23.4402 H   0  0  0  0  0  0
  -27.4911  -17.3435   23.9947 H   0  0  0  0  0  0
  -29.9755  -21.7763   20.4346 H   0  0  0  0  0  0
  -29.2124  -15.4095   21.6215 H   0  0  0  0  0  0
  -29.7402  -23.2580   19.0651 H   0  0  0  0  0  0
  1 25  1  0  0  0
  1 30  2  0  0  0
  1 81  1  0  0  0
  2  3  1  0  0  0
  2 25  1  0  0  0
  2 84  1  0  0  0
  2 85  1  0  0  0
  3  4  1  0  0  0
  3 86  1  0  0  0
  3 87  1  0  0  0
  4  5  1  0  0  0
  4 88  1  0  0  0
  4 89  1  0  0  0
  5  6  1  0  0  0
  5 26  1  0  0  0
  5 90  1  0  0  0
  6 25  1  0  0  0
  6 91  1  0  0  0
  6 92  1  0  0  0
  7  8  2  0  0  0
  7 26  1  0  0  0
  7 29  1  0  0  0
  8  9  1  0  0  0
  8 22  1  0  0  0
  9 10  1  0  0  0
  9 27  2  0  0  0
 10 11  2  0  0  0
 10 15  1  0  0  0
 11 12  1  0  0  0
 11 93  1  0  0  0
 12 13  2  0  0  0
 12 94  1  0  0  0
 13 14  1  0  0  0
 13 31  1  0  0  0
 14 15  2  0  0  0
 14 95  1  0  0  0
 15 96  1  0  0  0
 16 17  2  0  0  0
 16 21  1  0  0  0
 16 31  1  0  0  0
 17 18  1  0  0  0
 17 97  1  0  0  0
 18 19  2  0  0  0
 18 98  1  0  0  0
 19 20  1  0  0  0
 19 24  1  0  0  0
 20 21  2  0  0  0
 20 99  1  0  0  0
 21 23  1  0  0  0
 22 28  1  0  0  0
 22 32  2  0  0  0
 26 27  1  0  0  0
 28100  1  0  0  0
 28101  1  0  0  0
 29102  1  0  0  0
 29103  1  0  0  0
 33 34  1  0  0  0
 33 66  1  0  0  0
 33 70  2  0  0  0
 34 36  1  0  0  0
 34 59  1  0  0  0
 34104  1  0  0  0
 35 44  2  0  0  0
 35 45  1  0  0  0
 35 68  1  0  0  0
 36 56  1  0  0  0
 36105  1  0  0  0
 37 39  1  0  0  0
 37 47  1  0  0  0
 37 66  1  0  0  0
 37106  1  0  0  0
 38 43  2  0  0  0
 38 46  1  0  0  0
 38 47  1  0  0  0
 39 64  1  0  0  0
 39 67  2  0  0  0
 40 52  1  0  0  0
 40 53  2  0  0  0
 40 58  1  0  0  0
 41107  1  0  0  0
 41108  1  0  0  0
 41109  1  0  0  0
 41 48  1  0  0  0
 42 43  1  0  0  0
 42 66  1  0  0  0
 42110  1  0  0  0
 42111  1  0  0  0
 43 44  1  0  0  0
 44112  1  0  0  0
 45 46  2  0  0  0
 45113  1  0  0  0
 46114  1  0  0  0
 47115  1  0  0  0
 47116  1  0  0  0
 48 56  1  0  0  0
 48 65  1  0  0  0
 48117  1  0  0  0
 49 50  1  0  0  0
 49 53  1  0  0  0
 49 64  1  0  0  0
 49118  1  0  0  0
 50 51  1  0  0  0
 50119  1  0  0  0
 50120  1  0  0  0
 51 52  1  0  0  0
 51121  1  0  0  0
 51122  1  0  0  0
 52123  1  0  0  0
 52124  1  0  0  0
 53 54  1  0  0  0
 54 55  2  0  0  0
 54125  1  0  0  0
 55 57  1  0  0  0
 55126  1  0  0  0
 56 69  2  0  0  0
 57 58  2  0  0  0
 57127  1  0  0  0
 58128  1  0  0  0
 59 60  1  0  0  0
 59 61  1  0  0  0
 59 62  1  0  0  0
 60129  1  0  0  0
 60130  1  0  0  0
 60131  1  0  0  0
 61132  1  0  0  0
 61133  1  0  0  0
 61134  1  0  0  0
 62135  1  0  0  0
 62136  1  0  0  0
 62137  1  0  0  0
 63 65  1  0  0  0
 63138  1  0  0  0
 63139  1  0  0  0
 63140  1  0  0  0
 64141  1  0  0  0
 65142  1  0  0  0
 68 76  1  0  0  0
 71 72  2  0  0  0
 71 74  1  0  0  0
 71 78  1  0  0  0
 72 79  1  0  0  0
 72 83  1  0  0  0
 73 78  2  0  0  0
 73 80  1  0  0  0
 73 83  1  0  0  0
 74 81  1  0  0  0
 74143  1  0  0  0
 74144  1  0  0  0
 75 77  1  0  0  0
 75 80  1  0  0  0
 75145  1  0  0  0
 75146  1  0  0  0
 76 77  1  0  0  0
 76147  1  0  0  0
 76148  1  0  0  0
 77 82  1  0  0  0
 77149  1  0  0  0
 79150  1  0  0  0
 79151  1  0  0  0
 80152  1  0  0  0
 81153  1  0  0  0
 82154  1  0  0  0
M  ISO  4   1 100  68 101  76 101  81 100
M  END
> <chiral flag>
0

> <version>
0

> <s_m_source_file>
/data/baiqing/PycharmProjects/Reinvent-master-3.2/result/LINK_invent/BTK/process_docking_weight1_custom_product_contain_oxygen_bond_distance_aromatic_linkinvent_7_9_3/rearranged_h_0198.sdf

> <i_m_source_file_index>
19

> <r_mmod_Potential_Energy-OPLS-2005>
-127.79833984375

> <r_mmod_Stretch_Energy-OPLS-2005>
47.8382034301758

> <r_mmod_Bend_Energy-OPLS-2005>
112.995475769043

> <r_mmod_Torsional_Energy-OPLS-2005>
251.839599609375

> <r_mmod_Improper_Torsional_Energy-OPLS-2005>
6.17232704162598

> <r_mmod_Van_der_Waal_Energy-OPLS-2005>
123.820098876953

> <r_mmod_Electrostatic_Energy-OPLS-2005>
-438.837036132812

> <r_mmod_Solvation_Energy-OPLS-2005>
-249.417877197266

> <b_mmod_Minimization_Converged-OPLS-2005>
0

> <r_mmod_RMS_Derivative-OPLS-2005>
11.0547571182251

$$$$
19
                    3D
 Structure written by MMmdl.
158166  0  0  1  0            999 V2000
  -30.6609  -14.4999   20.5826 C   0  0  0  0  0  0
  -30.4310  -12.3332   19.4082 C   0  0  0  0  0  0
  -29.4928  -12.5318   18.2000 C   0  0  0  0  0  0
  -28.0138  -12.3833   18.6099 C   0  0  0  0  0  0
  -27.6623  -13.2047   19.8785 C   0  0  2  0  0  0
  -28.7057  -12.9586   20.9918 C   0  0  0  0  0  0
  -25.2601  -13.8167   20.5675 C   0  0  0  0  0  0
  -24.1841  -13.0447   20.9157 C   0  0  0  0  0  0
  -24.6389  -11.6907   20.8710 C   0  0  0  0  0  0
  -23.9045  -10.4290   21.0366 C   0  0  0  0  0  0
  -24.3615   -9.4217   21.9147 C   0  0  0  0  0  0
  -23.6294   -8.2255   22.0737 C   0  0  0  0  0  0
  -22.4271   -8.0280   21.3547 C   0  0  0  0  0  0
  -21.9892   -9.0247   20.4642 C   0  0  0  0  0  0
  -22.7216  -10.2123   20.3025 C   0  0  0  0  0  0
  -21.6862   -6.0732   22.5281 C   0  0  0  0  0  0
  -21.4036   -6.5639   23.8208 C   0  0  0  0  0  0
  -21.3647   -5.6793   24.9168 C   0  0  0  0  0  0
  -21.6041   -4.3054   24.7224 C   0  0  0  0  0  0
  -21.8827   -3.8148   23.4351 C   0  0  0  0  0  0
  -21.9207   -4.6958   22.3404 C   0  0  0  0  0  0
  -22.7860  -13.5220   21.1833 C   0  0  0  0  0  0
  -22.1665   -4.2143   21.0984 F   0  0  0  0  0  0
  -21.5611   -3.4531   25.7743 F   0  0  0  0  0  0
  -30.0375  -13.2921   20.4539 N   0  0  0  0  0  0
  -26.3023  -12.9316   20.3373 N   0  0  0  0  0  0
  -25.9309  -11.6483   20.5758 N   0  0  0  0  0  0
  -22.0526  -12.8201   22.0399 N   0  0  0  0  0  0
  -25.4364  -15.1900   20.4098 N   0  0  0  0  0  0
  -31.7596  -14.7387   20.0707 O   0  0  0  0  0  0
  -21.6663   -6.8867   21.4234 O   0  0  0  0  0  0
  -22.3526  -14.5513   20.6667 O   0  0  0  0  0  0
  -24.6170  -31.8626   23.2075 C   0  0  0  0  0  0
  -25.9059  -32.4786   23.8362 C   0  0  1  0  0  0
  -27.2498  -27.4145   20.0822 C   0  0  0  0  0  0
  -25.5910  -33.8586   24.2276 N   0  0  0  0  0  0
  -23.4071  -30.4843   21.5459 C   0  0  2  0  0  0
  -24.8576  -28.9471   20.1092 C   0  0  0  0  0  0
  -22.7425  -29.4613   22.4952 C   0  0  0  0  0  0
  -18.0276  -28.1369   22.8518 C   0  0  0  0  0  0
  -24.1500  -36.7300   23.2634 C   0  0  0  0  0  0
  -25.9382  -30.8191   21.3669 C   0  0  0  0  0  0
  -26.0159  -29.4536   20.7095 C   0  0  0  0  0  0
  -27.2083  -28.6918   20.6972 C   0  0  0  0  0  0
  -26.0670  -26.9225   19.4841 C   0  0  0  0  0  0
  -24.8799  -27.6826   19.4932 C   0  0  0  0  0  0
  -23.6193  -29.8142   20.1606 C   0  0  0  0  0  0
  -25.4121  -36.3064   24.0311 C   0  0  1  0  0  0
  -20.5878  -28.3646   23.1328 C   0  0  2  0  0  0
  -20.6767  -26.9378   22.5425 C   0  0  0  0  0  0
  -19.5732  -26.6379   21.5231 C   0  0  0  0  0  0
  -18.1915  -26.7919   22.1648 C   0  0  0  0  0  0
  -19.1536  -28.8821   23.2926 C   0  0  0  0  0  0
  -18.9447  -30.1432   23.8933 C   0  0  0  0  0  0
  -17.6444  -30.6577   24.0560 C   0  0  0  0  0  0
  -25.9046  -34.9443   23.5084 C   0  0  0  0  0  0
  -16.5337  -29.9072   23.6321 C   0  0  0  0  0  0
  -16.7264  -28.6484   23.0359 C   0  0  0  0  0  0
  -26.4486  -31.6584   25.0707 C   0  0  0  0  0  0
  -25.3758  -31.3711   26.1459 C   0  0  0  0  0  0
  -27.0306  -30.3007   24.6116 C   0  0  0  0  0  0
  -27.6038  -32.4326   25.7488 C   0  0  0  0  0  0
  -27.5576  -37.1807   24.8458 C   0  0  0  0  0  0
  -21.4146  -29.3009   22.3720 N   0  0  0  0  0  0
  -26.4292  -37.3762   23.9398 N   0  0  0  0  0  0
  -24.6722  -31.0707   22.0979 N   0  0  0  0  0  0
  -23.4187  -28.8146   23.2985 O   0  0  0  0  0  0
  -28.4346  -26.6949   20.1161 O   0  0  0  0  0  0
  -26.5608  -34.8902   22.4649 O   0  0  0  0  0  0
  -23.5363  -32.1375   23.7455 O   0  0  0  0  0  0
  -28.6817  -18.8046   21.1604 C   0  0  0  0  0  0
  -29.5050  -19.1344   20.1023 C   0  0  0  0  0  0
  -29.7952  -16.8108   20.9901 C   0  0  0  0  0  0
  -28.6934  -19.8510   17.9012 C   0  0  0  0  0  0
  -29.1049  -23.0236   17.6178 C   0  0  0  0  0  0
  -28.4482  -24.1417   19.8547 C   0  0  0  0  0  0
  -28.6702  -25.5679   19.2419 C   0  0  0  0  0  0
  -29.4509  -20.3361   19.1606 C   0  0  1  0  0  0
  -29.2187  -22.9490   19.1601 C   0  0  1  0  0  0
  -28.8585  -17.4992   21.6528 N   0  0  0  0  0  0
  -29.9590  -15.4226   21.2716 N   0  0  0  0  0  0
  -28.8437  -21.5963   19.7320 N   0  3  0  0  0  0
  -30.5987  -17.7882   19.7553 S   0  0  0  0  0  0
  -31.4686  -12.4628   19.0967 H   0  0  0  0  0  0
  -30.3611  -11.3122   19.7877 H   0  0  0  0  0  0
  -29.7322  -11.8165   17.4125 H   0  0  0  0  0  0
  -29.6552  -13.5236   17.7733 H   0  0  0  0  0  0
  -27.8174  -11.3246   18.7867 H   0  0  0  0  0  0
  -27.3658  -12.6764   17.7817 H   0  0  0  0  0  0
  -27.7098  -14.2577   19.5986 H   0  0  0  0  0  0
  -28.6941  -11.9105   21.2979 H   0  0  0  0  0  0
  -28.4520  -13.5235   21.8891 H   0  0  0  0  0  0
  -25.2756   -9.5722   22.4724 H   0  0  0  0  0  0
  -24.0031   -7.4644   22.7438 H   0  0  0  0  0  0
  -21.0831   -8.8726   19.8940 H   0  0  0  0  0  0
  -22.3636  -10.9653   19.6143 H   0  0  0  0  0  0
  -21.2045   -7.6147   23.9712 H   0  0  0  0  0  0
  -21.1444   -6.0524   25.9076 H   0  0  0  0  0  0
  -22.0623   -2.7602   23.2860 H   0  0  0  0  0  0
  -22.4149  -11.9879   22.4817 H   0  0  0  0  0  0
  -21.1131  -13.1199   22.2599 H   0  0  0  0  0  0
  -24.6832  -15.8584   20.5331 H   0  0  0  0  0  0
  -26.3087  -15.6236   20.1337 H   0  0  0  0  0  0
  -26.7123  -32.5479   23.1115 H   0  0  0  0  0  0
  -25.0071  -33.9740   25.0421 H   0  0  0  0  0  0
  -22.6957  -31.3005   21.4040 H   0  0  0  0  0  0
  -23.3732  -35.9667   23.3300 H   0  0  0  0  0  0
  -24.3586  -36.8923   22.2050 H   0  0  0  0  0  0
  -23.7303  -37.6519   23.6665 H   0  0  0  0  0  0
  -26.0611  -31.5883   20.6048 H   0  0  0  0  0  0
  -26.8217  -30.8651   21.9922 H   0  0  0  0  0  0
  -28.1054  -29.0812   21.1599 H   0  0  0  0  0  0
  -26.0437  -25.9488   19.0186 H   0  0  0  0  0  0
  -23.9904  -27.2842   19.0267 H   0  0  0  0  0  0
  -23.7272  -30.5887   19.4003 H   0  0  0  0  0  0
  -22.7443  -29.2321   19.8634 H   0  0  0  0  0  0
  -25.1314  -36.1892   25.0804 H   0  0  0  0  0  0
  -20.9996  -28.3206   24.1440 H   0  0  0  0  0  0
  -20.5695  -26.2237   23.3606 H   0  0  0  0  0  0
  -21.6624  -26.7429   22.1189 H   0  0  0  0  0  0
  -19.6878  -25.6298   21.1230 H   0  0  0  0  0  0
  -19.6666  -27.3222   20.6790 H   0  0  0  0  0  0
  -17.4190  -26.6702   21.4038 H   0  0  0  0  0  0
  -18.0288  -26.0044   22.9030 H   0  0  0  0  0  0
  -19.7913  -30.7252   24.2321 H   0  0  0  0  0  0
  -17.4983  -31.6269   24.5138 H   0  0  0  0  0  0
  -15.5334  -30.2977   23.7609 H   0  0  0  0  0  0
  -15.8676  -28.0801   22.7061 H   0  0  0  0  0  0
  -24.5914  -30.7075   25.7797 H   0  0  0  0  0  0
  -24.8989  -32.2890   26.4910 H   0  0  0  0  0  0
  -25.8124  -30.8870   27.0206 H   0  0  0  0  0  0
  -26.2848  -29.6784   24.1162 H   0  0  0  0  0  0
  -27.4024  -29.7233   25.4587 H   0  0  0  0  0  0
  -27.8712  -30.4269   23.9289 H   0  0  0  0  0  0
  -27.2604  -33.3597   26.2092 H   0  0  0  0  0  0
  -28.3852  -32.6948   25.0341 H   0  0  0  0  0  0
  -28.0708  -31.8452   26.5402 H   0  0  0  0  0  0
  -28.2579  -38.0112   24.7478 H   0  0  0  0  0  0
  -28.1078  -36.2633   24.6309 H   0  0  0  0  0  0
  -27.2283  -37.1489   25.8858 H   0  0  0  0  0  0
  -20.9291  -29.8723   21.6953 H   0  0  0  0  0  0
  -26.0147  -38.2825   24.1413 H   0  0  0  0  0  0
  -27.8858  -19.4061   21.5792 H   0  0  0  0  0  0
  -29.1352  -18.9317   17.5134 H   0  0  0  0  0  0
  -28.7041  -20.5401   17.0636 H   0  0  0  0  0  0
  -27.6523  -19.6257   18.1345 H   0  0  0  0  0  0
  -29.3026  -24.0216   17.2321 H   0  0  0  0  0  0
  -28.1179  -22.7373   17.2580 H   0  0  0  0  0  0
  -29.8484  -22.3913   17.1335 H   0  0  0  0  0  0
  -27.3773  -23.9358   19.8723 H   0  0  0  0  0  0
  -28.7583  -24.1764   20.8993 H   0  0  0  0  0  0
  -28.1284  -25.6816   18.3024 H   0  0  0  0  0  0
  -29.7215  -25.6482   18.9639 H   0  0  0  0  0  0
  -30.4796  -20.5713   18.8776 H   0  0  0  0  0  0
  -30.2777  -23.0915   19.3849 H   0  0  0  0  0  0
  -29.2198  -15.0291   21.8324 H   0  0  0  0  0  0
  -29.1116  -21.6282   20.7031 H   0  0  0  0  0  0
  -27.8431  -21.4976   19.7069 H   0  0  0  0  0  0
  1 25  1  0  0  0
  1 30  2  0  0  0
  1 81  1  0  0  0
  2  3  1  0  0  0
  2 25  1  0  0  0
  2 84  1  0  0  0
  2 85  1  0  0  0
  3  4  1  0  0  0
  3 86  1  0  0  0
  3 87  1  0  0  0
  4  5  1  0  0  0
  4 88  1  0  0  0
  4 89  1  0  0  0
  5  6  1  0  0  0
  5 26  1  0  0  0
  5 90  1  0  0  0
  6 25  1  0  0  0
  6 91  1  0  0  0
  6 92  1  0  0  0
  7  8  2  0  0  0
  7 26  1  0  0  0
  7 29  1  0  0  0
  8  9  1  0  0  0
  8 22  1  0  0  0
  9 10  1  0  0  0
  9 27  2  0  0  0
 10 11  2  0  0  0
 10 15  1  0  0  0
 11 12  1  0  0  0
 11 93  1  0  0  0
 12 13  2  0  0  0
 12 94  1  0  0  0
 13 14  1  0  0  0
 13 31  1  0  0  0
 14 15  2  0  0  0
 14 95  1  0  0  0
 15 96  1  0  0  0
 16 17  2  0  0  0
 16 21  1  0  0  0
 16 31  1  0  0  0
 17 18  1  0  0  0
 17 97  1  0  0  0
 18 19  2  0  0  0
 18 98  1  0  0  0
 19 20  1  0  0  0
 19 24  1  0  0  0
 20 21  2  0  0  0
 20 99  1  0  0  0
 21 23  1  0  0  0
 22 28  1  0  0  0
 22 32  2  0  0  0
 26 27  1  0  0  0
 28100  1  0  0  0
 28101  1  0  0  0
 29102  1  0  0  0
 29103  1  0  0  0
 33 34  1  0  0  0
 33 66  1  0  0  0
 33 70  2  0  0  0
 34 36  1  0  0  0
 34 59  1  0  0  0
 34104  1  0  0  0
 35 44  2  0  0  0
 35 45  1  0  0  0
 35 68  1  0  0  0
 36 56  1  0  0  0
 36105  1  0  0  0
 37 39  1  0  0  0
 37 47  1  0  0  0
 37 66  1  0  0  0
 37106  1  0  0  0
 38 43  2  0  0  0
 38 46  1  0  0  0
 38 47  1  0  0  0
 39 64  1  0  0  0
 39 67  2  0  0  0
 40 52  1  0  0  0
 40 53  2  0  0  0
 40 58  1  0  0  0
 41107  1  0  0  0
 41108  1  0  0  0
 41109  1  0  0  0
 41 48  1  0  0  0
 42 43  1  0  0  0
 42 66  1  0  0  0
 42110  1  0  0  0
 42111  1  0  0  0
 43 44  1  0  0  0
 44112  1  0  0  0
 45 46  2  0  0  0
 45113  1  0  0  0
 46114  1  0  0  0
 47115  1  0  0  0
 47116  1  0  0  0
 48 56  1  0  0  0
 48 65  1  0  0  0
 48117  1  0  0  0
 49 50  1  0  0  0
 49 53  1  0  0  0
 49 64  1  0  0  0
 49118  1  0  0  0
 50 51  1  0  0  0
 50119  1  0  0  0
 50120  1  0  0  0
 51 52  1  0  0  0
 51121  1  0  0  0
 51122  1  0  0  0
 52123  1  0  0  0
 52124  1  0  0  0
 53 54  1  0  0  0
 54 55  2  0  0  0
 54125  1  0  0  0
 55 57  1  0  0  0
 55126  1  0  0  0
 56 69  2  0  0  0
 57 58  2  0  0  0
 57127  1  0  0  0
 58128  1  0  0  0
 59 60  1  0  0  0
 59 61  1  0  0  0
 59 62  1  0  0  0
 60129  1  0  0  0
 60130  1  0  0  0
 60131  1  0  0  0
 61132  1  0  0  0
 61133  1  0  0  0
 61134  1  0  0  0
 62135  1  0  0  0
 62136  1  0  0  0
 62137  1  0  0  0
 63 65  1  0  0  0
 63138  1  0  0  0
 63139  1  0  0  0
 63140  1  0  0  0
 64141  1  0  0  0
 65142  1  0  0  0
 68 77  1  0  0  0
 71 72  2  0  0  0
 71 80  1  0  0  0
 71143  1  0  0  0
 72 78  1  0  0  0
 72 83  1  0  0  0
 73 80  2  0  0  0
 73 81  1  0  0  0
 73 83  1  0  0  0
 74144  1  0  0  0
 74145  1  0  0  0
 74146  1  0  0  0
 74 78  1  0  0  0
 75147  1  0  0  0
 75148  1  0  0  0
 75149  1  0  0  0
 75 79  1  0  0  0
 76 77  1  0  0  0
 76 79  1  0  0  0
 76150  1  0  0  0
 76151  1  0  0  0
 77152  1  0  0  0
 77153  1  0  0  0
 78 82  1  0  0  0
 78154  1  0  0  0
 79 82  1  0  0  0
 79155  1  0  0  0
 81156  1  0  0  0
 82157  1  0  0  0
 82158  1  0  0  0
M  CHG  1  82   1
M  ISO  4   1 100  68 101  77 101  81 100
M  END
> <chiral flag>
0

> <version>
0

> <s_m_source_file>
/data/baiqing/PycharmProjects/Reinvent-master-3.2/result/LINK_invent/BTK/process_docking_weight1_custom_product_contain_oxygen_bond_distance_aromatic_linkinvent_7_9_3/rearranged_h_0198.sdf

> <i_m_source_file_index>
20

> <r_mmod_Potential_Energy-OPLS-2005>
-254.811721801758

> <r_mmod_Stretch_Energy-OPLS-2005>
48.5753860473633

> <r_mmod_Bend_Energy-OPLS-2005>
129.220977783203

> <r_mmod_Torsional_Energy-OPLS-2005>
207.846466064453

> <r_mmod_Improper_Torsional_Energy-OPLS-2005>
4.50902843475342

> <r_mmod_Van_der_Waal_Energy-OPLS-2005>
129.078918457031

> <r_mmod_Electrostatic_Energy-OPLS-2005>
-313.275238037109

> <r_mmod_Solvation_Energy-OPLS-2005>
-476.277252197266

> <b_mmod_Minimization_Converged-OPLS-2005>
0

> <r_mmod_RMS_Derivative-OPLS-2005>
2.94719624519348

$$$$
20
                    3D
 Structure written by MMmdl.
155163  0  0  1  0            999 V2000
  -30.7033  -14.4537   20.6132 C   0  0  0  0  0  0
  -30.4330  -12.3082   19.4163 C   0  0  0  0  0  0
  -29.5000  -12.5114   18.2052 C   0  0  0  0  0  0
  -28.0213  -12.3641   18.6171 C   0  0  0  0  0  0
  -27.6668  -13.2001   19.8777 C   0  0  2  0  0  0
  -28.7058  -12.9587   20.9951 C   0  0  0  0  0  0
  -25.2628  -13.8142   20.5692 C   0  0  0  0  0  0
  -24.1856  -13.0441   20.9183 C   0  0  0  0  0  0
  -24.6376  -11.6900   20.8731 C   0  0  0  0  0  0
  -23.9044  -10.4289   21.0401 C   0  0  0  0  0  0
  -24.3610   -9.4217   21.9163 C   0  0  0  0  0  0
  -23.6298   -8.2244   22.0739 C   0  0  0  0  0  0
  -22.4275   -8.0279   21.3542 C   0  0  0  0  0  0
  -21.9900   -9.0242   20.4647 C   0  0  0  0  0  0
  -22.7211  -10.2126   20.3058 C   0  0  0  0  0  0
  -21.6844   -6.0741   22.5280 C   0  0  0  0  0  0
  -21.4002   -6.5632   23.8218 C   0  0  0  0  0  0
  -21.3678   -5.6780   24.9180 C   0  0  0  0  0  0
  -21.6055   -4.3044   24.7213 C   0  0  0  0  0  0
  -21.8821   -3.8139   23.4329 C   0  0  0  0  0  0
  -21.9191   -4.6968   22.3400 C   0  0  0  0  0  0
  -22.7885  -13.5276   21.1815 C   0  0  0  0  0  0
  -22.1670   -4.2166   21.0974 F   0  0  0  0  0  0
  -21.5632   -3.4525   25.7724 F   0  0  0  0  0  0
  -30.0399  -13.2766   20.4515 N   0  0  0  0  0  0
  -26.3050  -12.9287   20.3371 N   0  0  0  0  0  0
  -25.9307  -11.6457   20.5762 N   0  0  0  0  0  0
  -22.0491  -12.8331   22.0389 N   0  0  0  0  0  0
  -25.4367  -15.1862   20.4120 N   0  0  0  0  0  0
  -31.8046  -14.6844   20.1055 O   0  0  0  0  0  0
  -21.6633   -6.8880   21.4244 O   0  0  0  0  0  0
  -22.3593  -14.5561   20.6617 O   0  0  0  0  0  0
  -24.6132  -31.8711   23.2106 C   0  0  0  0  0  0
  -25.9029  -32.4841   23.8389 C   0  0  1  0  0  0
  -27.2350  -27.4362   20.0865 C   0  0  0  0  0  0
  -25.5905  -33.8635   24.2340 N   0  0  0  0  0  0
  -23.3994  -30.4976   21.5507 C   0  0  2  0  0  0
  -24.8436  -28.9642   20.1184 C   0  0  0  0  0  0
  -22.7396  -29.4707   22.4984 C   0  0  0  0  0  0
  -18.0271  -28.1406   22.8483 C   0  0  0  0  0  0
  -24.1490  -36.7303   23.2636 C   0  0  0  0  0  0
  -25.9299  -30.8380   21.3646 C   0  0  0  0  0  0
  -26.0058  -29.4722   20.7103 C   0  0  0  0  0  0
  -27.2001  -28.7145   20.6921 C   0  0  0  0  0  0
  -26.0395  -26.9337   19.5169 C   0  0  0  0  0  0
  -24.8549  -27.6932   19.5237 C   0  0  0  0  0  0
  -23.6058  -29.8303   20.1660 C   0  0  0  0  0  0
  -25.4114  -36.3117   24.0335 C   0  0  1  0  0  0
  -20.5857  -28.3698   23.1326 C   0  0  2  0  0  0
  -20.6774  -26.9434   22.5438 C   0  0  0  0  0  0
  -19.5761  -26.6406   21.5229 C   0  0  0  0  0  0
  -18.1928  -26.7953   22.1615 C   0  0  0  0  0  0
  -19.1511  -28.8860   23.2902 C   0  0  0  0  0  0
  -18.9446  -30.1464   23.8925 C   0  0  0  0  0  0
  -17.6446  -30.6605   24.0579 C   0  0  0  0  0  0
  -25.9041  -34.9486   23.5143 C   0  0  0  0  0  0
  -16.5340  -29.9121   23.6335 C   0  0  0  0  0  0
  -16.7257  -28.6535   23.0348 C   0  0  0  0  0  0
  -26.4474  -31.6601   25.0698 C   0  0  0  0  0  0
  -25.3753  -31.3689   26.1457 C   0  0  0  0  0  0
  -27.0298  -30.3043   24.6059 C   0  0  0  0  0  0
  -27.6050  -32.4321   25.7447 C   0  0  0  0  0  0
  -27.5591  -37.1795   24.8463 C   0  0  0  0  0  0
  -21.4128  -29.3057   22.3702 N   0  0  0  0  0  0
  -26.4305  -37.3794   23.9417 N   0  0  0  0  0  0
  -24.6651  -31.0826   22.1004 N   0  0  0  0  0  0
  -23.4163  -28.8257   23.3033 O   0  0  0  0  0  0
  -28.4341  -26.7421   20.0848 O   0  0  0  0  0  0
  -26.5593  -34.8933   22.4692 O   0  0  0  0  0  0
  -23.5329  -32.1462   23.7518 O   0  0  0  0  0  0
  -29.2845  -19.5224   23.1554 C   0  0  0  0  0  0
  -29.3828  -19.1603   21.8322 C   0  0  0  0  0  0
  -29.4242  -21.6017   22.2425 C   0  0  0  0  0  0
  -29.2476  -17.7695   21.2652 C   0  0  0  0  0  0
  -30.4150  -16.7906   21.5460 C   0  0  0  0  0  0
  -29.6471  -24.0435   21.2298 C   0  0  0  0  0  0
  -28.5528  -25.5034   19.3613 C   0  0  0  0  0  0
  -28.4744  -24.2300   20.2492 C   0  0  1  0  0  0
  -29.2963  -20.9083   23.3710 N   0  0  0  0  0  0
  -29.3968  -22.9930   22.2233 N   0  0  0  0  0  0
  -30.0232  -15.3944   21.2897 N   0  0  0  0  0  0
  -27.2776  -24.1626   20.9987 O   0  0  0  0  0  0
  -29.6047  -20.5768   20.8155 S   0  0  0  0  0  0
  -31.4774  -12.4211   19.1181 H   0  0  0  0  0  0
  -30.3403  -11.2918   19.8012 H   0  0  0  0  0  0
  -29.7461  -11.7961   17.4192 H   0  0  0  0  0  0
  -29.6631  -13.5006   17.7747 H   0  0  0  0  0  0
  -27.8377  -11.3071   18.8127 H   0  0  0  0  0  0
  -27.3692  -12.6373   17.7862 H   0  0  0  0  0  0
  -27.7175  -14.2526   19.5949 H   0  0  0  0  0  0
  -28.6777  -11.9127   21.3071 H   0  0  0  0  0  0
  -28.4600  -13.5287   21.8915 H   0  0  0  0  0  0
  -25.2762   -9.5701   22.4730 H   0  0  0  0  0  0
  -24.0030   -7.4639   22.7453 H   0  0  0  0  0  0
  -21.0821   -8.8740   19.8962 H   0  0  0  0  0  0
  -22.3646  -10.9662   19.6176 H   0  0  0  0  0  0
  -21.1978   -7.6132   23.9739 H   0  0  0  0  0  0
  -21.1516   -6.0491   25.9093 H   0  0  0  0  0  0
  -22.0585   -2.7600   23.2810 H   0  0  0  0  0  0
  -22.4078  -12.0044   22.4902 H   0  0  0  0  0  0
  -21.1090  -13.1381   22.2490 H   0  0  0  0  0  0
  -24.6717  -15.8434   20.5222 H   0  0  0  0  0  0
  -26.2927  -15.6244   20.0944 H   0  0  0  0  0  0
  -26.7089  -32.5555   23.1139 H   0  0  0  0  0  0
  -25.0067  -33.9808   25.0491 H   0  0  0  0  0  0
  -22.6873  -31.3147   21.4132 H   0  0  0  0  0  0
  -23.3773  -35.9617   23.3310 H   0  0  0  0  0  0
  -24.3589  -36.8900   22.2052 H   0  0  0  0  0  0
  -23.7231  -37.6501   23.6641 H   0  0  0  0  0  0
  -26.0446  -31.6058   20.5973 H   0  0  0  0  0  0
  -26.8175  -30.8885   21.9846 H   0  0  0  0  0  0
  -28.1007  -29.1111   21.1400 H   0  0  0  0  0  0
  -25.9783  -25.9487   19.0807 H   0  0  0  0  0  0
  -23.9533  -27.2882   19.0862 H   0  0  0  0  0  0
  -23.7126  -30.6048   19.4070 H   0  0  0  0  0  0
  -22.7310  -29.2489   19.8698 H   0  0  0  0  0  0
  -25.1290  -36.1977   25.0824 H   0  0  0  0  0  0
  -20.9939  -28.3294   24.1450 H   0  0  0  0  0  0
  -20.5728  -26.2297   23.3621 H   0  0  0  0  0  0
  -21.6645  -26.7521   22.1202 H   0  0  0  0  0  0
  -19.6942  -25.6320   21.1254 H   0  0  0  0  0  0
  -19.6729  -27.3225   20.6768 H   0  0  0  0  0  0
  -17.4211  -26.6711   21.4003 H   0  0  0  0  0  0
  -18.0319  -26.0095   22.9005 H   0  0  0  0  0  0
  -19.7923  -30.7271   24.2303 H   0  0  0  0  0  0
  -17.5019  -31.6290   24.5183 H   0  0  0  0  0  0
  -15.5350  -30.3046   23.7656 H   0  0  0  0  0  0
  -15.8645  -28.0883   22.7059 H   0  0  0  0  0  0
  -24.5894  -30.7087   25.7773 H   0  0  0  0  0  0
  -24.8993  -32.2840   26.4972 H   0  0  0  0  0  0
  -25.8112  -30.8789   27.0176 H   0  0  0  0  0  0
  -26.2824  -29.6801   24.1148 H   0  0  0  0  0  0
  -27.4120  -29.7274   25.4497 H   0  0  0  0  0  0
  -27.8638  -30.4359   23.9166 H   0  0  0  0  0  0
  -27.2655  -33.3581   26.2100 H   0  0  0  0  0  0
  -28.3806  -32.6950   25.0236 H   0  0  0  0  0  0
  -28.0791  -31.8419   26.5298 H   0  0  0  0  0  0
  -28.2596  -38.0107   24.7542 H   0  0  0  0  0  0
  -28.1097  -36.2637   24.6246 H   0  0  0  0  0  0
  -27.2311  -37.1391   25.8867 H   0  0  0  0  0  0
  -20.9287  -29.8727   21.6876 H   0  0  0  0  0  0
  -26.0197  -38.2862   24.1447 H   0  0  0  0  0  0
  -29.1551  -18.8616   24.0022 H   0  0  0  0  0  0
  -29.1008  -17.8416   20.1870 H   0  0  0  0  0  0
  -28.3208  -17.3405   21.6477 H   0  0  0  0  0  0
  -30.7070  -16.8517   22.5951 H   0  0  0  0  0  0
  -31.2919  -17.0789   20.9631 H   0  0  0  0  0  0
  -29.8382  -24.9791   21.7577 H   0  0  0  0  0  0
  -30.5612  -23.8153   20.6772 H   0  0  0  0  0  0
  -27.8903  -25.4351   18.5014 H   0  0  0  0  0  0
  -29.5433  -25.5222   18.9060 H   0  0  0  0  0  0
  -28.4735  -23.3654   19.5828 H   0  0  0  0  0  0
  -29.2802  -23.3755   23.1561 H   0  0  0  0  0  0
  -29.1287  -15.0996   21.6524 H   0  0  0  0  0  0
  -27.5016  -23.5785   21.7209 H   0  0  0  0  0  0
  1 25  1  0  0  0
  1 30  2  0  0  0
  1 81  1  0  0  0
  2  3  1  0  0  0
  2 25  1  0  0  0
  2 84  1  0  0  0
  2 85  1  0  0  0
  3  4  1  0  0  0
  3 86  1  0  0  0
  3 87  1  0  0  0
  4  5  1  0  0  0
  4 88  1  0  0  0
  4 89  1  0  0  0
  5  6  1  0  0  0
  5 26  1  0  0  0
  5 90  1  0  0  0
  6 25  1  0  0  0
  6 91  1  0  0  0
  6 92  1  0  0  0
  7  8  2  0  0  0
  7 26  1  0  0  0
  7 29  1  0  0  0
  8  9  1  0  0  0
  8 22  1  0  0  0
  9 10  1  0  0  0
  9 27  2  0  0  0
 10 11  2  0  0  0
 10 15  1  0  0  0
 11 12  1  0  0  0
 11 93  1  0  0  0
 12 13  2  0  0  0
 12 94  1  0  0  0
 13 14  1  0  0  0
 13 31  1  0  0  0
 14 15  2  0  0  0
 14 95  1  0  0  0
 15 96  1  0  0  0
 16 17  2  0  0  0
 16 21  1  0  0  0
 16 31  1  0  0  0
 17 18  1  0  0  0
 17 97  1  0  0  0
 18 19  2  0  0  0
 18 98  1  0  0  0
 19 20  1  0  0  0
 19 24  1  0  0  0
 20 21  2  0  0  0
 20 99  1  0  0  0
 21 23  1  0  0  0
 22 28  1  0  0  0
 22 32  2  0  0  0
 26 27  1  0  0  0
 28100  1  0  0  0
 28101  1  0  0  0
 29102  1  0  0  0
 29103  1  0  0  0
 33 34  1  0  0  0
 33 66  1  0  0  0
 33 70  2  0  0  0
 34 36  1  0  0  0
 34 59  1  0  0  0
 34104  1  0  0  0
 35 44  2  0  0  0
 35 45  1  0  0  0
 35 68  1  0  0  0
 36 56  1  0  0  0
 36105  1  0  0  0
 37 39  1  0  0  0
 37 47  1  0  0  0
 37 66  1  0  0  0
 37106  1  0  0  0
 38 43  2  0  0  0
 38 46  1  0  0  0
 38 47  1  0  0  0
 39 64  1  0  0  0
 39 67  2  0  0  0
 40 52  1  0  0  0
 40 53  2  0  0  0
 40 58  1  0  0  0
 41107  1  0  0  0
 41108  1  0  0  0
 41109  1  0  0  0
 41 48  1  0  0  0
 42 43  1  0  0  0
 42 66  1  0  0  0
 42110  1  0  0  0
 42111  1  0  0  0
 43 44  1  0  0  0
 44112  1  0  0  0
 45 46  2  0  0  0
 45113  1  0  0  0
 46114  1  0  0  0
 47115  1  0  0  0
 47116  1  0  0  0
 48 56  1  0  0  0
 48 65  1  0  0  0
 48117  1  0  0  0
 49 50  1  0  0  0
 49 53  1  0  0  0
 49 64  1  0  0  0
 49118  1  0  0  0
 50 51  1  0  0  0
 50119  1  0  0  0
 50120  1  0  0  0
 51 52  1  0  0  0
 51121  1  0  0  0
 51122  1  0  0  0
 52123  1  0  0  0
 52124  1  0  0  0
 53 54  1  0  0  0
 54 55  2  0  0  0
 54125  1  0  0  0
 55 57  1  0  0  0
 55126  1  0  0  0
 56 69  2  0  0  0
 57 58  2  0  0  0
 57127  1  0  0  0
 58128  1  0  0  0
 59 60  1  0  0  0
 59 61  1  0  0  0
 59 62  1  0  0  0
 60129  1  0  0  0
 60130  1  0  0  0
 60131  1  0  0  0
 61132  1  0  0  0
 61133  1  0  0  0
 61134  1  0  0  0
 62135  1  0  0  0
 62136  1  0  0  0
 62137  1  0  0  0
 63 65  1  0  0  0
 63138  1  0  0  0
 63139  1  0  0  0
 63140  1  0  0  0
 64141  1  0  0  0
 65142  1  0  0  0
 68 77  1  0  0  0
 71 72  2  0  0  0
 71 79  1  0  0  0
 71143  1  0  0  0
 72 74  1  0  0  0
 72 83  1  0  0  0
 73 79  2  0  0  0
 73 80  1  0  0  0
 73 83  1  0  0  0
 74 75  1  0  0  0
 74144  1  0  0  0
 74145  1  0  0  0
 75 81  1  0  0  0
 75146  1  0  0  0
 75147  1  0  0  0
 76 78  1  0  0  0
 76 80  1  0  0  0
 76148  1  0  0  0
 76149  1  0  0  0
 77 78  1  0  0  0
 77150  1  0  0  0
 77151  1  0  0  0
 78 82  1  0  0  0
 78152  1  0  0  0
 80153  1  0  0  0
 81154  1  0  0  0
 82155  1  0  0  0
M  ISO  4   1 100  68 101  77 101  81 100
M  END
> <chiral flag>
0

> <version>
0

> <s_m_source_file>
/data/baiqing/PycharmProjects/Reinvent-master-3.2/result/LINK_invent/BTK/process_docking_weight1_custom_product_contain_oxygen_bond_distance_aromatic_linkinvent_7_9_3/rearranged_h_0198.sdf

> <i_m_source_file_index>
21

> <r_mmod_Potential_Energy-OPLS-2005>
-218.51416015625

> <r_mmod_Stretch_Energy-OPLS-2005>
35.4822463989258

> <r_mmod_Bend_Energy-OPLS-2005>
108.577926635742

> <r_mmod_Torsional_Energy-OPLS-2005>
215.276947021484

> <r_mmod_Improper_Torsional_Energy-OPLS-2005>
2.78416514396667

> <r_mmod_Van_der_Waal_Energy-OPLS-2005>
130.992156982422

> <r_mmod_Electrostatic_Energy-OPLS-2005>
-475.011505126953

> <r_mmod_Solvation_Energy-OPLS-2005>
-247.547836303711

> <b_mmod_Minimization_Converged-OPLS-2005>
0

> <r_mmod_RMS_Derivative-OPLS-2005>
2.72862529754639

$$$$
21
                    3D
 Structure written by MMmdl.
157165  0  0  1  0            999 V2000
  -30.7059  -14.4208   20.6101 C   0  0  0  0  0  0
  -30.4294  -12.2883   19.4093 C   0  0  0  0  0  0
  -29.4995  -12.5253   18.2005 C   0  0  0  0  0  0
  -28.0172  -12.3871   18.6056 C   0  0  0  0  0  0
  -27.6701  -13.2000   19.8823 C   0  0  2  0  0  0
  -28.7075  -12.9315   20.9957 C   0  0  0  0  0  0
  -25.2626  -13.8145   20.5652 C   0  0  0  0  0  0
  -24.1852  -13.0435   20.9108 C   0  0  0  0  0  0
  -24.6389  -11.6896   20.8669 C   0  0  0  0  0  0
  -23.9043  -10.4296   21.0360 C   0  0  0  0  0  0
  -24.3602   -9.4225   21.9155 C   0  0  0  0  0  0
  -23.6280   -8.2260   22.0745 C   0  0  0  0  0  0
  -22.4266   -8.0282   21.3538 C   0  0  0  0  0  0
  -21.9887   -9.0249   20.4642 C   0  0  0  0  0  0
  -22.7201  -10.2132   20.3033 C   0  0  0  0  0  0
  -21.6862   -6.0729   22.5275 C   0  0  0  0  0  0
  -21.4021   -6.5638   23.8208 C   0  0  0  0  0  0
  -21.3660   -5.6786   24.9169 C   0  0  0  0  0  0
  -21.6047   -4.3048   24.7218 C   0  0  0  0  0  0
  -21.8827   -3.8140   23.4337 C   0  0  0  0  0  0
  -21.9197   -4.6954   22.3392 C   0  0  0  0  0  0
  -22.7882  -13.5255   21.1784 C   0  0  0  0  0  0
  -22.1661   -4.2140   21.0968 F   0  0  0  0  0  0
  -21.5624   -3.4537   25.7728 F   0  0  0  0  0  0
  -30.0480  -13.2404   20.4623 N   0  0  0  0  0  0
  -26.3067  -12.9305   20.3373 N   0  0  0  0  0  0
  -25.9320  -11.6467   20.5720 N   0  0  0  0  0  0
  -22.0513  -12.8276   22.0362 N   0  0  0  0  0  0
  -25.4359  -15.1865   20.4118 N   0  0  0  0  0  0
  -31.8011  -14.6558   20.0884 O   0  0  0  0  0  0
  -21.6638   -6.8872   21.4237 O   0  0  0  0  0  0
  -22.3573  -14.5551   20.6617 O   0  0  0  0  0  0
  -24.6122  -31.8694   23.2094 C   0  0  0  0  0  0
  -25.9023  -32.4828   23.8388 C   0  0  1  0  0  0
  -27.2503  -27.4525   20.0879 C   0  0  0  0  0  0
  -25.5895  -33.8627   24.2326 N   0  0  0  0  0  0
  -23.4001  -30.4908   21.5483 C   0  0  2  0  0  0
  -24.8480  -28.9532   20.1157 C   0  0  0  0  0  0
  -22.7402  -29.4670   22.4988 C   0  0  0  0  0  0
  -18.0276  -28.1392   22.8495 C   0  0  0  0  0  0
  -24.1489  -36.7322   23.2638 C   0  0  0  0  0  0
  -25.9260  -30.8370   21.3613 C   0  0  0  0  0  0
  -26.0033  -29.4704   20.7126 C   0  0  0  0  0  0
  -27.2000  -28.7236   20.7015 C   0  0  0  0  0  0
  -26.0706  -26.9354   19.5025 C   0  0  0  0  0  0
  -24.8756  -27.6831   19.5112 C   0  0  0  0  0  0
  -23.6086  -29.8183   20.1637 C   0  0  0  0  0  0
  -25.4109  -36.3114   24.0334 C   0  0  1  0  0  0
  -20.5864  -28.3677   23.1323 C   0  0  2  0  0  0
  -20.6773  -26.9419   22.5416 C   0  0  0  0  0  0
  -19.5750  -26.6399   21.5218 C   0  0  0  0  0  0
  -18.1926  -26.7939   22.1627 C   0  0  0  0  0  0
  -19.1523  -28.8850   23.2907 C   0  0  0  0  0  0
  -18.9451  -30.1455   23.8915 C   0  0  0  0  0  0
  -17.6455  -30.6593   24.0571 C   0  0  0  0  0  0
  -25.9033  -34.9480   23.5124 C   0  0  0  0  0  0
  -16.5345  -29.9097   23.6330 C   0  0  0  0  0  0
  -16.7265  -28.6517   23.0344 C   0  0  0  0  0  0
  -26.4460  -31.6612   25.0719 C   0  0  0  0  0  0
  -25.3726  -31.3725   26.1471 C   0  0  0  0  0  0
  -27.0294  -30.3055   24.6097 C   0  0  0  0  0  0
  -27.6041  -32.4333   25.7476 C   0  0  0  0  0  0
  -27.5584  -37.1812   24.8459 C   0  0  0  0  0  0
  -21.4135  -29.3038   22.3723 N   0  0  0  0  0  0
  -26.4295  -37.3797   23.9407 N   0  0  0  0  0  0
  -24.6639  -31.0806   22.0983 N   0  0  0  0  0  0
  -23.4179  -28.8222   23.3035 O   0  0  0  0  0  0
  -28.4623  -26.7905   20.1014 O   0  0  0  0  0  0
  -26.5595  -34.8929   22.4686 O   0  0  0  0  0  0
  -23.5320  -32.1437   23.7504 O   0  0  0  0  0  0
  -30.9617  -17.5217   20.6206 C   0  0  0  0  0  0
  -29.5583  -19.2094   19.8993 C   0  0  0  0  0  0
  -29.8480  -16.6755   20.8763 C   0  0  0  0  0  0
  -28.4409  -18.3861   20.1992 C   0  0  0  0  0  0
  -29.4137  -20.5554   19.1910 C   0  0  0  0  0  0
  -29.0460  -21.7581   20.0924 C   0  0  0  0  0  0
  -28.5274  -24.3181   20.1170 C   0  0  0  0  0  0
  -28.6777  -25.6243   19.3045 C   0  0  0  0  0  0
  -28.8152  -23.0535   19.2741 C   0  0  2  0  0  0
  -30.8222  -18.7851   20.1448 N   0  0  0  0  0  0
  -28.5855  -17.1410   20.6989 N   0  0  0  0  0  0
  -27.1314  -18.7831   19.9667 N   0  0  0  0  0  0
  -30.0344  -15.3439   21.3148 N   0  0  0  0  0  0
  -27.7254  -22.8566   18.3860 O   0  0  0  0  0  0
  -31.4755  -12.3926   19.1138 H   0  0  0  0  0  0
  -30.3263  -11.2655   19.7757 H   0  0  0  0  0  0
  -29.7376  -11.8233   17.4001 H   0  0  0  0  0  0
  -29.6741  -13.5221   17.7924 H   0  0  0  0  0  0
  -27.8143  -11.3283   18.7699 H   0  0  0  0  0  0
  -27.3734  -12.6957   17.7803 H   0  0  0  0  0  0
  -27.7299  -14.2557   19.6169 H   0  0  0  0  0  0
  -28.6744  -11.8815   21.2905 H   0  0  0  0  0  0
  -28.4622  -13.4879   21.9009 H   0  0  0  0  0  0
  -25.2759   -9.5714   22.4709 H   0  0  0  0  0  0
  -24.0000   -7.4668   22.7482 H   0  0  0  0  0  0
  -21.0811   -8.8750   19.8968 H   0  0  0  0  0  0
  -22.3640  -10.9655   19.6137 H   0  0  0  0  0  0
  -21.2020   -7.6143   23.9710 H   0  0  0  0  0  0
  -21.1473   -6.0507   25.9071 H   0  0  0  0  0  0
  -22.0603   -2.7598   23.2828 H   0  0  0  0  0  0
  -22.4129  -11.9967   22.4799 H   0  0  0  0  0  0
  -21.1128  -13.1323   22.2538 H   0  0  0  0  0  0
  -24.6693  -15.8391   20.5288 H   0  0  0  0  0  0
  -26.3099  -15.6391   20.1663 H   0  0  0  0  0  0
  -26.7104  -32.5550   23.1162 H   0  0  0  0  0  0
  -25.0044  -33.9789   25.0470 H   0  0  0  0  0  0
  -22.6886  -31.3068   21.4078 H   0  0  0  0  0  0
  -23.3745  -35.9659   23.3300 H   0  0  0  0  0  0
  -24.3580  -36.8939   22.2051 H   0  0  0  0  0  0
  -23.7244  -37.6529   23.6652 H   0  0  0  0  0  0
  -26.0357  -31.6013   20.5908 H   0  0  0  0  0  0
  -26.8149  -30.8931   21.9774 H   0  0  0  0  0  0
  -28.0939  -29.1261   21.1580 H   0  0  0  0  0  0
  -26.0520  -25.9585   19.0427 H   0  0  0  0  0  0
  -23.9858  -27.2748   19.0525 H   0  0  0  0  0  0
  -23.7145  -30.5910   19.4015 H   0  0  0  0  0  0
  -22.7338  -29.2339   19.8711 H   0  0  0  0  0  0
  -25.1287  -36.1973   25.0825 H   0  0  0  0  0  0
  -20.9958  -28.3246   24.1443 H   0  0  0  0  0  0
  -20.5707  -26.2283   23.3597 H   0  0  0  0  0  0
  -21.6641  -26.7488   22.1188 H   0  0  0  0  0  0
  -19.6914  -25.6313   21.1238 H   0  0  0  0  0  0
  -19.6687  -27.3219   20.6755 H   0  0  0  0  0  0
  -17.4200  -26.6693   21.4025 H   0  0  0  0  0  0
  -18.0324  -26.0079   22.9022 H   0  0  0  0  0  0
  -19.7925  -30.7270   24.2292 H   0  0  0  0  0  0
  -17.5008  -31.6274   24.5176 H   0  0  0  0  0  0
  -15.5346  -30.3006   23.7644 H   0  0  0  0  0  0
  -15.8665  -28.0845   22.7044 H   0  0  0  0  0  0
  -24.5878  -30.7102   25.7803 H   0  0  0  0  0  0
  -24.8942  -32.2890   26.4938 H   0  0  0  0  0  0
  -25.8068  -30.8869   27.0220 H   0  0  0  0  0  0
  -26.2844  -29.6820   24.1143 H   0  0  0  0  0  0
  -27.4063  -29.7287   25.4555 H   0  0  0  0  0  0
  -27.8675  -30.4382   23.9248 H   0  0  0  0  0  0
  -27.2660  -33.3615   26.2097 H   0  0  0  0  0  0
  -28.3821  -32.6931   25.0284 H   0  0  0  0  0  0
  -28.0749  -31.8439   26.5355 H   0  0  0  0  0  0
  -28.2598  -38.0115   24.7516 H   0  0  0  0  0  0
  -28.1085  -36.2648   24.6269 H   0  0  0  0  0  0
  -27.2306  -37.1443   25.8862 H   0  0  0  0  0  0
  -20.9300  -29.8726   21.6913 H   0  0  0  0  0  0
  -26.0185  -38.2875   24.1408 H   0  0  0  0  0  0
  -31.9748  -17.1805   20.7785 H   0  0  0  0  0  0
  -28.6671  -20.4305   18.4069 H   0  0  0  0  0  0
  -30.3435  -20.7767   18.6661 H   0  0  0  0  0  0
  -29.8549  -21.9179   20.8077 H   0  0  0  0  0  0
  -28.1605  -21.5246   20.6842 H   0  0  0  0  0  0
  -27.5378  -24.2655   20.5713 H   0  0  0  0  0  0
  -29.2336  -24.3562   20.9473 H   0  0  0  0  0  0
  -28.0786  -25.6169   18.3945 H   0  0  0  0  0  0
  -29.7090  -25.6881   18.9562 H   0  0  0  0  0  0
  -29.7131  -23.2331   18.6803 H   0  0  0  0  0  0
  -26.9309  -19.7530   19.7571 H   0  0  0  0  0  0
  -26.3645  -18.2686   20.3820 H   0  0  0  0  0  0
  -29.2321  -14.9538   21.7796 H   0  0  0  0  0  0
  -26.9401  -22.6996   18.9012 H   0  0  0  0  0  0
  1 25  1  0  0  0
  1 30  2  0  0  0
  1 83  1  0  0  0
  2  3  1  0  0  0
  2 25  1  0  0  0
  2 85  1  0  0  0
  2 86  1  0  0  0
  3  4  1  0  0  0
  3 87  1  0  0  0
  3 88  1  0  0  0
  4  5  1  0  0  0
  4 89  1  0  0  0
  4 90  1  0  0  0
  5  6  1  0  0  0
  5 26  1  0  0  0
  5 91  1  0  0  0
  6 25  1  0  0  0
  6 92  1  0  0  0
  6 93  1  0  0  0
  7  8  2  0  0  0
  7 26  1  0  0  0
  7 29  1  0  0  0
  8  9  1  0  0  0
  8 22  1  0  0  0
  9 10  1  0  0  0
  9 27  2  0  0  0
 10 11  2  0  0  0
 10 15  1  0  0  0
 11 12  1  0  0  0
 11 94  1  0  0  0
 12 13  2  0  0  0
 12 95  1  0  0  0
 13 14  1  0  0  0
 13 31  1  0  0  0
 14 15  2  0  0  0
 14 96  1  0  0  0
 15 97  1  0  0  0
 16 17  2  0  0  0
 16 21  1  0  0  0
 16 31  1  0  0  0
 17 18  1  0  0  0
 17 98  1  0  0  0
 18 19  2  0  0  0
 18 99  1  0  0  0
 19 20  1  0  0  0
 19 24  1  0  0  0
 20 21  2  0  0  0
 20100  1  0  0  0
 21 23  1  0  0  0
 22 28  1  0  0  0
 22 32  2  0  0  0
 26 27  1  0  0  0
 28101  1  0  0  0
 28102  1  0  0  0
 29103  1  0  0  0
 29104  1  0  0  0
 33 34  1  0  0  0
 33 66  1  0  0  0
 33 70  2  0  0  0
 34 36  1  0  0  0
 34 59  1  0  0  0
 34105  1  0  0  0
 35 44  2  0  0  0
 35 45  1  0  0  0
 35 68  1  0  0  0
 36 56  1  0  0  0
 36106  1  0  0  0
 37 39  1  0  0  0
 37 47  1  0  0  0
 37 66  1  0  0  0
 37107  1  0  0  0
 38 43  2  0  0  0
 38 46  1  0  0  0
 38 47  1  0  0  0
 39 64  1  0  0  0
 39 67  2  0  0  0
 40 52  1  0  0  0
 40 53  2  0  0  0
 40 58  1  0  0  0
 41108  1  0  0  0
 41109  1  0  0  0
 41110  1  0  0  0
 41 48  1  0  0  0
 42 43  1  0  0  0
 42 66  1  0  0  0
 42111  1  0  0  0
 42112  1  0  0  0
 43 44  1  0  0  0
 44113  1  0  0  0
 45 46  2  0  0  0
 45114  1  0  0  0
 46115  1  0  0  0
 47116  1  0  0  0
 47117  1  0  0  0
 48 56  1  0  0  0
 48 65  1  0  0  0
 48118  1  0  0  0
 49 50  1  0  0  0
 49 53  1  0  0  0
 49 64  1  0  0  0
 49119  1  0  0  0
 50 51  1  0  0  0
 50120  1  0  0  0
 50121  1  0  0  0
 51 52  1  0  0  0
 51122  1  0  0  0
 51123  1  0  0  0
 52124  1  0  0  0
 52125  1  0  0  0
 53 54  1  0  0  0
 54 55  2  0  0  0
 54126  1  0  0  0
 55 57  1  0  0  0
 55127  1  0  0  0
 56 69  2  0  0  0
 57 58  2  0  0  0
 57128  1  0  0  0
 58129  1  0  0  0
 59 60  1  0  0  0
 59 61  1  0  0  0
 59 62  1  0  0  0
 60130  1  0  0  0
 60131  1  0  0  0
 60132  1  0  0  0
 61133  1  0  0  0
 61134  1  0  0  0
 61135  1  0  0  0
 62136  1  0  0  0
 62137  1  0  0  0
 62138  1  0  0  0
 63 65  1  0  0  0
 63139  1  0  0  0
 63140  1  0  0  0
 63141  1  0  0  0
 64142  1  0  0  0
 65143  1  0  0  0
 68 78  1  0  0  0
 71 73  2  0  0  0
 71 80  1  0  0  0
 71144  1  0  0  0
 72 74  1  0  0  0
 72 75  1  0  0  0
 72 80  2  0  0  0
 73 81  1  0  0  0
 73 83  1  0  0  0
 74 81  2  0  0  0
 74 82  1  0  0  0
 75 76  1  0  0  0
 75145  1  0  0  0
 75146  1  0  0  0
 76 79  1  0  0  0
 76147  1  0  0  0
 76148  1  0  0  0
 77 78  1  0  0  0
 77 79  1  0  0  0
 77149  1  0  0  0
 77150  1  0  0  0
 78151  1  0  0  0
 78152  1  0  0  0
 79 84  1  0  0  0
 79153  1  0  0  0
 82154  1  0  0  0
 82155  1  0  0  0
 83156  1  0  0  0
 84157  1  0  0  0
M  ISO  4   1 100  68 101  78 101  83 100
M  END
> <chiral flag>
0

> <version>
0

> <s_m_source_file>
/data/baiqing/PycharmProjects/Reinvent-master-3.2/result/LINK_invent/BTK/process_docking_weight1_custom_product_contain_oxygen_bond_distance_aromatic_linkinvent_7_9_3/rearranged_h_0198.sdf

> <i_m_source_file_index>
22

> <r_mmod_Potential_Energy-OPLS-2005>
-121.445610046387

> <r_mmod_Stretch_Energy-OPLS-2005>
36.633430480957

> <r_mmod_Bend_Energy-OPLS-2005>
110.072410583496

> <r_mmod_Torsional_Energy-OPLS-2005>
221.532104492188

> <r_mmod_Improper_Torsional_Energy-OPLS-2005>
7.37123012542725

> <r_mmod_Van_der_Waal_Energy-OPLS-2005>
155.712677001953

> <r_mmod_Electrostatic_Energy-OPLS-2005>
-434.208679199219

> <r_mmod_Solvation_Energy-OPLS-2005>
-228.154220581055

> <b_mmod_Minimization_Converged-OPLS-2005>
0

> <r_mmod_RMS_Derivative-OPLS-2005>
1.5705691576004

$$$$
22
                    3D
 Structure written by MMmdl.
166174  0  0  1  0            999 V2000
  -30.6833  -14.4492   20.6367 C   0  0  0  0  0  0
  -30.4360  -12.3150   19.4022 C   0  0  0  0  0  0
  -29.4932  -12.5273   18.1985 C   0  0  0  0  0  0
  -28.0149  -12.3783   18.6125 C   0  0  0  0  0  0
  -27.6688  -13.1966   19.8837 C   0  0  2  0  0  0
  -28.7076  -12.9220   20.9929 C   0  0  0  0  0  0
  -25.2623  -13.8139   20.5672 C   0  0  0  0  0  0
  -24.1853  -13.0434   20.9158 C   0  0  0  0  0  0
  -24.6391  -11.6894   20.8726 C   0  0  0  0  0  0
  -23.9050  -10.4289   21.0400 C   0  0  0  0  0  0
  -24.3606   -9.4209   21.9181 C   0  0  0  0  0  0
  -23.6286   -8.2242   22.0755 C   0  0  0  0  0  0
  -22.4269   -8.0277   21.3543 C   0  0  0  0  0  0
  -21.9899   -9.0249   20.4646 C   0  0  0  0  0  0
  -22.7222  -10.2130   20.3053 C   0  0  0  0  0  0
  -21.6852   -6.0732   22.5280 C   0  0  0  0  0  0
  -21.4012   -6.5640   23.8213 C   0  0  0  0  0  0
  -21.3658   -5.6789   24.9178 C   0  0  0  0  0  0
  -21.6044   -4.3052   24.7225 C   0  0  0  0  0  0
  -21.8819   -3.8147   23.4347 C   0  0  0  0  0  0
  -21.9192   -4.6961   22.3405 C   0  0  0  0  0  0
  -22.7879  -13.5246   21.1834 C   0  0  0  0  0  0
  -22.1660   -4.2148   21.0980 F   0  0  0  0  0  0
  -21.5629   -3.4537   25.7739 F   0  0  0  0  0  0
  -30.0462  -13.2569   20.4634 N   0  0  0  0  0  0
  -26.3056  -12.9288   20.3391 N   0  0  0  0  0  0
  -25.9316  -11.6457   20.5763 N   0  0  0  0  0  0
  -22.0514  -12.8239   22.0389 N   0  0  0  0  0  0
  -25.4374  -15.1853   20.4079 N   0  0  0  0  0  0
  -31.7373  -14.7397   20.0579 O   0  0  0  0  0  0
  -21.6635   -6.8874   21.4242 O   0  0  0  0  0  0
  -22.3569  -14.5559   20.6692 O   0  0  0  0  0  0
  -24.6147  -31.8662   23.2090 C   0  0  0  0  0  0
  -25.9036  -32.4812   23.8389 C   0  0  1  0  0  0
  -27.2451  -27.4302   20.0796 C   0  0  0  0  0  0
  -25.5887  -33.8616   24.2317 N   0  0  0  0  0  0
  -23.4028  -30.4888   21.5502 C   0  0  2  0  0  0
  -24.8496  -28.9508   20.1171 C   0  0  0  0  0  0
  -22.7401  -29.4645   22.4990 C   0  0  0  0  0  0
  -18.0267  -28.1349   22.8489 C   0  0  0  0  0  0
  -24.1490  -36.7312   23.2635 C   0  0  0  0  0  0
  -25.9323  -30.8270   21.3647 C   0  0  0  0  0  0
  -26.0089  -29.4597   20.7136 C   0  0  0  0  0  0
  -27.2037  -28.7029   20.6983 C   0  0  0  0  0  0
  -26.0565  -26.9264   19.5007 C   0  0  0  0  0  0
  -24.8667  -27.6809   19.5142 C   0  0  0  0  0  0
  -23.6120  -29.8183   20.1658 C   0  0  0  0  0  0
  -25.4107  -36.3103   24.0334 C   0  0  1  0  0  0
  -20.5859  -28.3645   23.1306 C   0  0  2  0  0  0
  -20.6760  -26.9382   22.5402 C   0  0  0  0  0  0
  -19.5746  -26.6367   21.5193 C   0  0  0  0  0  0
  -18.1923  -26.7896   22.1613 C   0  0  0  0  0  0
  -19.1516  -28.8812   23.2894 C   0  0  0  0  0  0
  -18.9453  -30.1420   23.8900 C   0  0  0  0  0  0
  -17.6460  -30.6562   24.0558 C   0  0  0  0  0  0
  -25.9031  -34.9469   23.5123 C   0  0  0  0  0  0
  -16.5347  -29.9070   23.6315 C   0  0  0  0  0  0
  -16.7258  -28.6480   23.0345 C   0  0  0  0  0  0
  -26.4456  -31.6597   25.0726 C   0  0  0  0  0  0
  -25.3717  -31.3712   26.1473 C   0  0  0  0  0  0
  -27.0279  -30.3039   24.6099 C   0  0  0  0  0  0
  -27.6043  -32.4301   25.7476 C   0  0  0  0  0  0
  -27.5579  -37.1807   24.8462 C   0  0  0  0  0  0
  -21.4131  -29.3023   22.3721 N   0  0  0  0  0  0
  -26.4294  -37.3789   23.9402 N   0  0  0  0  0  0
  -24.6679  -31.0756   22.0995 N   0  0  0  0  0  0
  -23.4165  -28.8186   23.3032 O   0  0  0  0  0  0
  -28.4413  -26.7340   20.0799 O   0  0  0  0  0  0
  -26.5593  -34.8922   22.4684 O   0  0  0  0  0  0
  -23.5334  -32.1422   23.7479 O   0  0  0  0  0  0
  -29.4162  -17.2438   22.7096 C   0  0  0  0  0  0
  -29.9844  -16.6749   21.5999 C   0  0  0  0  0  0
  -30.0171  -18.8830   20.9484 C   0  0  0  0  0  0
  -31.8892  -22.5638   21.1150 C   0  0  0  0  0  0
  -34.2882  -23.4564   21.4066 C   0  0  0  0  0  0
  -29.2318  -23.9584   22.2197 C   0  0  0  0  0  0
  -30.2718  -20.0811   20.0460 C   0  0  0  0  0  0
  -32.9659  -23.5391   20.6220 C   0  0  0  0  0  0
  -28.5570  -24.2423   19.7672 C   0  0  0  0  0  0
  -28.6596  -25.6639   19.1468 C   0  0  0  0  0  0
  -30.5188  -22.5767   20.3924 C   0  0  2  0  0  0
  -29.7086  -23.8816   20.7522 C   0  0  2  0  0  0
  -30.3233  -17.6129   20.6058 N   0  0  0  0  0  0
  -30.0825  -15.2576   21.5287 N   0  0  0  0  0  0
  -29.8416  -21.3063   20.7826 N   0  3  0  0  0  0
  -32.1196  -21.8094   22.0674 O   0  0  0  0  0  0
  -29.3012  -18.9757   22.5656 S   0  0  0  0  0  0
  -31.4756  -12.4454   19.0957 H   0  0  0  0  0  0
  -30.3626  -11.2899   19.7688 H   0  0  0  0  0  0
  -29.7302  -11.8179   17.4044 H   0  0  0  0  0  0
  -29.6546  -13.5213   17.7783 H   0  0  0  0  0  0
  -27.8231  -11.3194   18.7909 H   0  0  0  0  0  0
  -27.3619  -12.6694   17.7888 H   0  0  0  0  0  0
  -27.7300  -14.2523   19.6188 H   0  0  0  0  0  0
  -28.6863  -11.8668   21.2713 H   0  0  0  0  0  0
  -28.4442  -13.4545   21.9066 H   0  0  0  0  0  0
  -25.2752   -9.5684   22.4753 H   0  0  0  0  0  0
  -23.9995   -7.4635   22.7475 H   0  0  0  0  0  0
  -21.0829   -8.8764   19.8954 H   0  0  0  0  0  0
  -22.3681  -10.9666   19.6160 H   0  0  0  0  0  0
  -21.2006   -7.6145   23.9718 H   0  0  0  0  0  0
  -21.1479   -6.0519   25.9077 H   0  0  0  0  0  0
  -22.0602   -2.7607   23.2848 H   0  0  0  0  0  0
  -22.4112  -11.9881   22.4752 H   0  0  0  0  0  0
  -21.1143  -13.1283   22.2617 H   0  0  0  0  0  0
  -24.6754  -15.8456   20.5175 H   0  0  0  0  0  0
  -26.2975  -15.6211   20.0990 H   0  0  0  0  0  0
  -26.7102  -32.5525   23.1151 H   0  0  0  0  0  0
  -25.0059  -33.9784   25.0473 H   0  0  0  0  0  0
  -22.6926  -31.3063   21.4093 H   0  0  0  0  0  0
  -23.3752  -35.9649   23.3304 H   0  0  0  0  0  0
  -24.3589  -36.8927   22.2051 H   0  0  0  0  0  0
  -23.7256  -37.6525   23.6647 H   0  0  0  0  0  0
  -26.0441  -31.5911   20.5937 H   0  0  0  0  0  0
  -26.8184  -30.8814   21.9837 H   0  0  0  0  0  0
  -28.1022  -29.0964   21.1538 H   0  0  0  0  0  0
  -26.0236  -25.9475   19.0455 H   0  0  0  0  0  0
  -23.9712  -27.2763   19.0636 H   0  0  0  0  0  0
  -23.7212  -30.5919   19.4048 H   0  0  0  0  0  0
  -22.7353  -29.2384   19.8718 H   0  0  0  0  0  0
  -25.1288  -36.1967   25.0830 H   0  0  0  0  0  0
  -20.9943  -28.3208   24.1428 H   0  0  0  0  0  0
  -20.5648  -26.2256   23.3588 H   0  0  0  0  0  0
  -21.6637  -26.7415   22.1208 H   0  0  0  0  0  0
  -19.6919  -25.6281   21.1217 H   0  0  0  0  0  0
  -19.6690  -27.3183   20.6729 H   0  0  0  0  0  0
  -17.4191  -26.6628   21.4013 H   0  0  0  0  0  0
  -18.0340  -26.0017   22.8993 H   0  0  0  0  0  0
  -19.7934  -30.7223   24.2273 H   0  0  0  0  0  0
  -17.5024  -31.6252   24.5148 H   0  0  0  0  0  0
  -15.5352  -30.2987   23.7626 H   0  0  0  0  0  0
  -15.8651  -28.0808   22.7055 H   0  0  0  0  0  0
  -24.5901  -30.7031   25.7824 H   0  0  0  0  0  0
  -24.8882  -32.2869   26.4887 H   0  0  0  0  0  0
  -25.8066  -30.8917   27.0252 H   0  0  0  0  0  0
  -26.2819  -29.6820   24.1133 H   0  0  0  0  0  0
  -27.4034  -29.7252   25.4550 H   0  0  0  0  0  0
  -27.8663  -30.4357   23.9256 H   0  0  0  0  0  0
  -27.2688  -33.3623   26.2030 H   0  0  0  0  0  0
  -28.3864  -32.6818   25.0298 H   0  0  0  0  0  0
  -28.0687  -31.8429   26.5409 H   0  0  0  0  0  0
  -28.2593  -38.0107   24.7507 H   0  0  0  0  0  0
  -28.1081  -36.2636   24.6290 H   0  0  0  0  0  0
  -27.2297  -37.1461   25.8867 H   0  0  0  0  0  0
  -20.9285  -29.8764   21.6964 H   0  0  0  0  0  0
  -26.0187  -38.2871   24.1402 H   0  0  0  0  0  0
  -29.0497  -16.7581   23.6052 H   0  0  0  0  0  0
  -35.0279  -24.1392   20.9891 H   0  0  0  0  0  0
  -34.7128  -22.4520   21.3740 H   0  0  0  0  0  0
  -34.1456  -23.7282   22.4530 H   0  0  0  0  0  0
  -28.7901  -24.9343   22.4269 H   0  0  0  0  0  0
  -30.0514  -23.8284   22.9280 H   0  0  0  0  0  0
  -28.4730  -23.2087   22.4441 H   0  0  0  0  0  0
  -29.7149  -19.9765   19.1146 H   0  0  0  0  0  0
  -31.3331  -20.1043   19.7979 H   0  0  0  0  0  0
  -32.5809  -24.5557   20.6802 H   0  0  0  0  0  0
  -33.1526  -23.3369   19.5671 H   0  0  0  0  0  0
  -28.5616  -23.5286   18.9429 H   0  0  0  0  0  0
  -27.5826  -24.1204   20.2421 H   0  0  0  0  0  0
  -28.0197  -25.7452   18.2691 H   0  0  0  0  0  0
  -29.6646  -25.7971   18.7448 H   0  0  0  0  0  0
  -30.6967  -22.5656   19.3156 H   0  0  0  0  0  0
  -30.4192  -24.7019   20.6517 H   0  0  0  0  0  0
  -29.4138  -14.7670   22.1009 H   0  0  0  0  0  0
  -30.1001  -21.1617   21.7476 H   0  0  0  0  0  0
  -28.8422  -21.3967   20.7137 H   0  0  0  0  0  0
  1 25  1  0  0  0
  1 30  2  0  0  0
  1 84  1  0  0  0
  2  3  1  0  0  0
  2 25  1  0  0  0
  2 88  1  0  0  0
  2 89  1  0  0  0
  3  4  1  0  0  0
  3 90  1  0  0  0
  3 91  1  0  0  0
  4  5  1  0  0  0
  4 92  1  0  0  0
  4 93  1  0  0  0
  5  6  1  0  0  0
  5 26  1  0  0  0
  5 94  1  0  0  0
  6 25  1  0  0  0
  6 95  1  0  0  0
  6 96  1  0  0  0
  7  8  2  0  0  0
  7 26  1  0  0  0
  7 29  1  0  0  0
  8  9  1  0  0  0
  8 22  1  0  0  0
  9 10  1  0  0  0
  9 27  2  0  0  0
 10 11  2  0  0  0
 10 15  1  0  0  0
 11 12  1  0  0  0
 11 97  1  0  0  0
 12 13  2  0  0  0
 12 98  1  0  0  0
 13 14  1  0  0  0
 13 31  1  0  0  0
 14 15  2  0  0  0
 14 99  1  0  0  0
 15100  1  0  0  0
 16 17  2  0  0  0
 16 21  1  0  0  0
 16 31  1  0  0  0
 17 18  1  0  0  0
 17101  1  0  0  0
 18 19  2  0  0  0
 18102  1  0  0  0
 19 20  1  0  0  0
 19 24  1  0  0  0
 20 21  2  0  0  0
 20103  1  0  0  0
 21 23  1  0  0  0
 22 28  1  0  0  0
 22 32  2  0  0  0
 26 27  1  0  0  0
 28104  1  0  0  0
 28105  1  0  0  0
 29106  1  0  0  0
 29107  1  0  0  0
 33 34  1  0  0  0
 33 66  1  0  0  0
 33 70  2  0  0  0
 34 36  1  0  0  0
 34 59  1  0  0  0
 34108  1  0  0  0
 35 44  2  0  0  0
 35 45  1  0  0  0
 35 68  1  0  0  0
 36 56  1  0  0  0
 36109  1  0  0  0
 37 39  1  0  0  0
 37 47  1  0  0  0
 37 66  1  0  0  0
 37110  1  0  0  0
 38 43  2  0  0  0
 38 46  1  0  0  0
 38 47  1  0  0  0
 39 64  1  0  0  0
 39 67  2  0  0  0
 40 52  1  0  0  0
 40 53  2  0  0  0
 40 58  1  0  0  0
 41111  1  0  0  0
 41112  1  0  0  0
 41113  1  0  0  0
 41 48  1  0  0  0
 42 43  1  0  0  0
 42 66  1  0  0  0
 42114  1  0  0  0
 42115  1  0  0  0
 43 44  1  0  0  0
 44116  1  0  0  0
 45 46  2  0  0  0
 45117  1  0  0  0
 46118  1  0  0  0
 47119  1  0  0  0
 47120  1  0  0  0
 48 56  1  0  0  0
 48 65  1  0  0  0
 48121  1  0  0  0
 49 50  1  0  0  0
 49 53  1  0  0  0
 49 64  1  0  0  0
 49122  1  0  0  0
 50 51  1  0  0  0
 50123  1  0  0  0
 50124  1  0  0  0
 51 52  1  0  0  0
 51125  1  0  0  0
 51126  1  0  0  0
 52127  1  0  0  0
 52128  1  0  0  0
 53 54  1  0  0  0
 54 55  2  0  0  0
 54129  1  0  0  0
 55 57  1  0  0  0
 55130  1  0  0  0
 56 69  2  0  0  0
 57 58  2  0  0  0
 57131  1  0  0  0
 58132  1  0  0  0
 59 60  1  0  0  0
 59 61  1  0  0  0
 59 62  1  0  0  0
 60133  1  0  0  0
 60134  1  0  0  0
 60135  1  0  0  0
 61136  1  0  0  0
 61137  1  0  0  0
 61138  1  0  0  0
 62139  1  0  0  0
 62140  1  0  0  0
 62141  1  0  0  0
 63 65  1  0  0  0
 63142  1  0  0  0
 63143  1  0  0  0
 63144  1  0  0  0
 64145  1  0  0  0
 65146  1  0  0  0
 68 80  1  0  0  0
 71 72  2  0  0  0
 71 87  1  0  0  0
 71147  1  0  0  0
 72 83  1  0  0  0
 72 84  1  0  0  0
 73 77  1  0  0  0
 73 83  2  0  0  0
 73 87  1  0  0  0
 74 78  1  0  0  0
 74 81  1  0  0  0
 74 86  2  0  0  0
 75 78  1  0  0  0
 75148  1  0  0  0
 75149  1  0  0  0
 75150  1  0  0  0
 76151  1  0  0  0
 76152  1  0  0  0
 76153  1  0  0  0
 76 82  1  0  0  0
 77 85  1  0  0  0
 77154  1  0  0  0
 77155  1  0  0  0
 78156  1  0  0  0
 78157  1  0  0  0
 79 80  1  0  0  0
 79 82  1  0  0  0
 79158  1  0  0  0
 79159  1  0  0  0
 80160  1  0  0  0
 80161  1  0  0  0
 81 82  1  0  0  0
 81 85  1  0  0  0
 81162  1  0  0  0
 82163  1  0  0  0
 84164  1  0  0  0
 85165  1  0  0  0
 85166  1  0  0  0
M  CHG  1  85   1
M  ISO  4   1 100  68 101  80 101  84 100
M  END
> <chiral flag>
0

> <version>
0

> <s_m_source_file>
/data/baiqing/PycharmProjects/Reinvent-master-3.2/result/LINK_invent/BTK/process_docking_weight1_custom_product_contain_oxygen_bond_distance_aromatic_linkinvent_7_9_3/rearranged_h_0198.sdf

> <i_m_source_file_index>
23

> <r_mmod_Potential_Energy-OPLS-2005>
-370.207000732422

> <r_mmod_Stretch_Energy-OPLS-2005>
42.2290153503418

> <r_mmod_Bend_Energy-OPLS-2005>
123.829154968262

> <r_mmod_Torsional_Energy-OPLS-2005>
220.358337402344

> <r_mmod_Improper_Torsional_Energy-OPLS-2005>
3.0713939666748

> <r_mmod_Van_der_Waal_Energy-OPLS-2005>
136.232879638672

> <r_mmod_Electrostatic_Energy-OPLS-2005>
-420.477630615234

> <r_mmod_Solvation_Energy-OPLS-2005>
-486.729919433594

> <b_mmod_Minimization_Converged-OPLS-2005>
0

> <r_mmod_RMS_Derivative-OPLS-2005>
1.17391514778137

$$$$
23
                    3D
 Structure written by MMmdl.
165173  0  0  1  0            999 V2000
  -30.7019  -14.4500   20.5820 C   0  0  0  0  0  0
  -30.4232  -12.2953   19.4170 C   0  0  0  0  0  0
  -29.4946  -12.5070   18.2031 C   0  0  0  0  0  0
  -28.0144  -12.3716   18.6138 C   0  0  0  0  0  0
  -27.6632  -13.2024   19.8772 C   0  0  2  0  0  0
  -28.7033  -12.9647   20.9955 C   0  0  0  0  0  0
  -25.2592  -13.8150   20.5664 C   0  0  0  0  0  0
  -24.1844  -13.0433   20.9178 C   0  0  0  0  0  0
  -24.6390  -11.6898   20.8735 C   0  0  0  0  0  0
  -23.9054  -10.4289   21.0407 C   0  0  0  0  0  0
  -24.3611   -9.4205   21.9182 C   0  0  0  0  0  0
  -23.6289   -8.2241   22.0754 C   0  0  0  0  0  0
  -22.4271   -8.0281   21.3548 C   0  0  0  0  0  0
  -21.9904   -9.0250   20.4646 C   0  0  0  0  0  0
  -22.7229  -10.2129   20.3054 C   0  0  0  0  0  0
  -21.6853   -6.0735   22.5280 C   0  0  0  0  0  0
  -21.4012   -6.5637   23.8213 C   0  0  0  0  0  0
  -21.3658   -5.6791   24.9175 C   0  0  0  0  0  0
  -21.6045   -4.3053   24.7226 C   0  0  0  0  0  0
  -21.8820   -3.8145   23.4347 C   0  0  0  0  0  0
  -21.9191   -4.6963   22.3403 C   0  0  0  0  0  0
  -22.7866  -13.5237   21.1839 C   0  0  0  0  0  0
  -22.1662   -4.2148   21.0981 F   0  0  0  0  0  0
  -21.5628   -3.4536   25.7738 F   0  0  0  0  0  0
  -30.0378  -13.2694   20.4495 N   0  0  0  0  0  0
  -26.3026  -12.9311   20.3358 N   0  0  0  0  0  0
  -25.9315  -11.6476   20.5759 N   0  0  0  0  0  0
  -22.0500  -12.8235   22.0395 N   0  0  0  0  0  0
  -25.4307  -15.1867   20.4039 N   0  0  0  0  0  0
  -31.8258  -14.6318   20.1020 O   0  0  0  0  0  0
  -21.6640   -6.8877   21.4242 O   0  0  0  0  0  0
  -22.3560  -14.5550   20.6695 O   0  0  0  0  0  0
  -24.6128  -31.8673   23.2102 C   0  0  0  0  0  0
  -25.9029  -32.4823   23.8382 C   0  0  1  0  0  0
  -27.2380  -27.4464   20.0851 C   0  0  0  0  0  0
  -25.5895  -33.8621   24.2317 N   0  0  0  0  0  0
  -23.3986  -30.4917   21.5505 C   0  0  2  0  0  0
  -24.8416  -28.9535   20.1183 C   0  0  0  0  0  0
  -22.7390  -29.4665   22.4999 C   0  0  0  0  0  0
  -18.0269  -28.1377   22.8490 C   0  0  0  0  0  0
  -24.1489  -36.7315   23.2641 C   0  0  0  0  0  0
  -25.9233  -30.8376   21.3565 C   0  0  0  0  0  0
  -25.9992  -29.4700   20.7104 C   0  0  0  0  0  0
  -27.1951  -28.7214   20.6934 C   0  0  0  0  0  0
  -26.0541  -26.9299   19.5085 C   0  0  0  0  0  0
  -24.8620  -27.6810   19.5215 C   0  0  0  0  0  0
  -23.6045  -29.8218   20.1650 C   0  0  0  0  0  0
  -25.4109  -36.3112   24.0337 C   0  0  1  0  0  0
  -20.5856  -28.3657   23.1326 C   0  0  2  0  0  0
  -20.6760  -26.9395   22.5429 C   0  0  0  0  0  0
  -19.5749  -26.6386   21.5216 C   0  0  0  0  0  0
  -18.1919  -26.7933   22.1608 C   0  0  0  0  0  0
  -19.1517  -28.8834   23.2910 C   0  0  0  0  0  0
  -18.9448  -30.1441   23.8920 C   0  0  0  0  0  0
  -17.6452  -30.6584   24.0573 C   0  0  0  0  0  0
  -25.9032  -34.9477   23.5120 C   0  0  0  0  0  0
  -16.5341  -29.9091   23.6327 C   0  0  0  0  0  0
  -16.7257  -28.6510   23.0339 C   0  0  0  0  0  0
  -26.4481  -31.6597   25.0698 C   0  0  0  0  0  0
  -25.3769  -31.3676   26.1460 C   0  0  0  0  0  0
  -27.0317  -30.3062   24.6028 C   0  0  0  0  0  0
  -27.6066  -32.4315   25.7450 C   0  0  0  0  0  0
  -27.5582  -37.1807   24.8464 C   0  0  0  0  0  0
  -21.4120  -29.3032   22.3737 N   0  0  0  0  0  0
  -26.4294  -37.3795   23.9412 N   0  0  0  0  0  0
  -24.6638  -31.0796   22.0988 N   0  0  0  0  0  0
  -23.4177  -28.8215   23.3037 O   0  0  0  0  0  0
  -28.4515  -26.7904   20.0810 O   0  0  0  0  0  0
  -26.5596  -34.8928   22.4683 O   0  0  0  0  0  0
  -23.5330  -32.1404   23.7526 O   0  0  0  0  0  0
  -29.0052  -17.6428   21.1252 C   0  0  0  0  0  0
  -31.4105  -18.7699   20.6992 C   0  0  0  0  0  0
  -30.1712  -16.8366   21.0436 C   0  0  0  0  0  0
  -30.2326  -19.5594   20.7457 C   0  0  0  0  0  0
  -32.7777  -19.3869   20.4701 C   0  0  0  0  0  0
  -29.5493  -21.1485   23.5118 C   0  0  0  0  0  0
  -31.1479  -22.9107   22.6545 C   0  0  0  0  0  0
  -28.5060  -24.3686   20.4944 C   0  0  0  0  0  0
  -29.3296  -23.1270   20.0785 C   0  0  0  0  0  0
  -28.6183  -25.5120   19.4638 C   0  0  0  0  0  0
  -29.7366  -22.3067   22.5181 C   0  0  0  0  0  0
  -29.3635  -21.9195   21.0564 C   0  0  2  0  0  0
  -29.0258  -18.9917   20.9687 N   0  0  0  0  0  0
  -31.3801  -17.4253   20.8498 N   0  0  0  0  0  0
  -29.9866  -15.4313   21.1632 N   0  0  0  0  0  0
  -30.3106  -20.9407   20.5204 N   0  0  0  0  0  0
  -31.4673  -12.3930   19.1150 H   0  0  0  0  0  0
  -30.3230  -11.2797   19.8035 H   0  0  0  0  0  0
  -29.7314  -11.7867   17.4187 H   0  0  0  0  0  0
  -29.6678  -13.4944   17.7722 H   0  0  0  0  0  0
  -27.8190  -11.3149   18.8003 H   0  0  0  0  0  0
  -27.3660  -12.6568   17.7842 H   0  0  0  0  0  0
  -27.7127  -14.2530   19.5908 H   0  0  0  0  0  0
  -28.6741  -11.9236   21.3209 H   0  0  0  0  0  0
  -28.4640  -13.5484   21.8854 H   0  0  0  0  0  0
  -25.2758   -9.5683   22.4751 H   0  0  0  0  0  0
  -24.0003   -7.4631   22.7469 H   0  0  0  0  0  0
  -21.0836   -8.8759   19.8952 H   0  0  0  0  0  0
  -22.3686  -10.9664   19.6159 H   0  0  0  0  0  0
  -21.2005   -7.6145   23.9718 H   0  0  0  0  0  0
  -21.1480   -6.0520   25.9078 H   0  0  0  0  0  0
  -22.0602   -2.7608   23.2845 H   0  0  0  0  0  0
  -22.4105  -11.9891   22.4786 H   0  0  0  0  0  0
  -21.1115  -13.1265   22.2587 H   0  0  0  0  0  0
  -24.6536  -15.8331   20.4892 H   0  0  0  0  0  0
  -26.2624  -15.6182   20.0226 H   0  0  0  0  0  0
  -26.7092  -32.5540   23.1136 H   0  0  0  0  0  0
  -25.0085  -33.9788   25.0492 H   0  0  0  0  0  0
  -22.6876  -31.3088   21.4118 H   0  0  0  0  0  0
  -23.3752  -35.9646   23.3309 H   0  0  0  0  0  0
  -24.3589  -36.8920   22.2055 H   0  0  0  0  0  0
  -23.7237  -37.6518   23.6652 H   0  0  0  0  0  0
  -26.0249  -31.6000   20.5828 H   0  0  0  0  0  0
  -26.8163  -30.8997   21.9662 H   0  0  0  0  0  0
  -28.0927  -29.1233   21.1423 H   0  0  0  0  0  0
  -26.0229  -25.9545   19.0478 H   0  0  0  0  0  0
  -23.9666  -27.2733   19.0725 H   0  0  0  0  0  0
  -23.7150  -30.5950   19.4037 H   0  0  0  0  0  0
  -22.7275  -29.2437   19.8686 H   0  0  0  0  0  0
  -25.1288  -36.1972   25.0831 H   0  0  0  0  0  0
  -20.9949  -28.3218   24.1444 H   0  0  0  0  0  0
  -20.5659  -26.2264   23.3612 H   0  0  0  0  0  0
  -21.6632  -26.7438   22.1220 H   0  0  0  0  0  0
  -19.6913  -25.6304   21.1229 H   0  0  0  0  0  0
  -19.6701  -27.3213   20.6764 H   0  0  0  0  0  0
  -17.4202  -26.6698   21.3997 H   0  0  0  0  0  0
  -18.0298  -26.0064   22.8989 H   0  0  0  0  0  0
  -19.7928  -30.7249   24.2296 H   0  0  0  0  0  0
  -17.5011  -31.6268   24.5173 H   0  0  0  0  0  0
  -15.5345  -30.3001   23.7652 H   0  0  0  0  0  0
  -15.8654  -28.0849   22.7029 H   0  0  0  0  0  0
  -24.5951  -30.7009   25.7805 H   0  0  0  0  0  0
  -24.8956  -32.2823   26.4931 H   0  0  0  0  0  0
  -25.8150  -30.8838   27.0199 H   0  0  0  0  0  0
  -26.2826  -29.6791   24.1182 H   0  0  0  0  0  0
  -27.4243  -29.7325   25.4432 H   0  0  0  0  0  0
  -27.8587  -30.4427   23.9055 H   0  0  0  0  0  0
  -27.2696  -33.3606   26.2058 H   0  0  0  0  0  0
  -28.3854  -32.6883   25.0258 H   0  0  0  0  0  0
  -28.0758  -31.8419   26.5333 H   0  0  0  0  0  0
  -28.2604  -38.0102   24.7518 H   0  0  0  0  0  0
  -28.1072  -36.2636   24.6277 H   0  0  0  0  0  0
  -27.2307  -37.1439   25.8869 H   0  0  0  0  0  0
  -20.9274  -29.8753   21.6961 H   0  0  0  0  0  0
  -26.0182  -38.2872   24.1426 H   0  0  0  0  0  0
  -28.0329  -17.2004   21.2877 H   0  0  0  0  0  0
  -32.9952  -20.1224   21.2447 H   0  0  0  0  0  0
  -32.8084  -19.8874   19.5022 H   0  0  0  0  0  0
  -33.5678  -18.6362   20.4894 H   0  0  0  0  0  0
  -29.6533  -21.4958   24.5401 H   0  0  0  0  0  0
  -30.2863  -20.3596   23.3609 H   0  0  0  0  0  0
  -28.5579  -20.7050   23.4150 H   0  0  0  0  0  0
  -31.3342  -23.2320   23.6800 H   0  0  0  0  0  0
  -31.2796  -23.7857   22.0183 H   0  0  0  0  0  0
  -31.9228  -22.1896   22.3947 H   0  0  0  0  0  0
  -28.8838  -24.7464   21.4437 H   0  0  0  0  0  0
  -27.4600  -24.1073   20.6572 H   0  0  0  0  0  0
  -30.3524  -23.4549   19.8875 H   0  0  0  0  0  0
  -28.9563  -22.7790   19.1138 H   0  0  0  0  0  0
  -27.9917  -25.3442   18.5881 H   0  0  0  0  0  0
  -29.6348  -25.5259   19.0695 H   0  0  0  0  0  0
  -29.0274  -23.0666   22.8463 H   0  0  0  0  0  0
  -28.3619  -21.4855   21.0658 H   0  0  0  0  0  0
  -29.0850  -15.1400   21.5050 H   0  0  0  0  0  0
  -31.2500  -21.2911   20.3790 H   0  0  0  0  0  0
  1 25  1  0  0  0
  1 30  2  0  0  0
  1 85  1  0  0  0
  2  3  1  0  0  0
  2 25  1  0  0  0
  2 87  1  0  0  0
  2 88  1  0  0  0
  3  4  1  0  0  0
  3 89  1  0  0  0
  3 90  1  0  0  0
  4  5  1  0  0  0
  4 91  1  0  0  0
  4 92  1  0  0  0
  5  6  1  0  0  0
  5 26  1  0  0  0
  5 93  1  0  0  0
  6 25  1  0  0  0
  6 94  1  0  0  0
  6 95  1  0  0  0
  7  8  2  0  0  0
  7 26  1  0  0  0
  7 29  1  0  0  0
  8  9  1  0  0  0
  8 22  1  0  0  0
  9 10  1  0  0  0
  9 27  2  0  0  0
 10 11  2  0  0  0
 10 15  1  0  0  0
 11 12  1  0  0  0
 11 96  1  0  0  0
 12 13  2  0  0  0
 12 97  1  0  0  0
 13 14  1  0  0  0
 13 31  1  0  0  0
 14 15  2  0  0  0
 14 98  1  0  0  0
 15 99  1  0  0  0
 16 17  2  0  0  0
 16 21  1  0  0  0
 16 31  1  0  0  0
 17 18  1  0  0  0
 17100  1  0  0  0
 18 19  2  0  0  0
 18101  1  0  0  0
 19 20  1  0  0  0
 19 24  1  0  0  0
 20 21  2  0  0  0
 20102  1  0  0  0
 21 23  1  0  0  0
 22 28  1  0  0  0
 22 32  2  0  0  0
 26 27  1  0  0  0
 28103  1  0  0  0
 28104  1  0  0  0
 29105  1  0  0  0
 29106  1  0  0  0
 33 34  1  0  0  0
 33 66  1  0  0  0
 33 70  2  0  0  0
 34 36  1  0  0  0
 34 59  1  0  0  0
 34107  1  0  0  0
 35 44  2  0  0  0
 35 45  1  0  0  0
 35 68  1  0  0  0
 36 56  1  0  0  0
 36108  1  0  0  0
 37 39  1  0  0  0
 37 47  1  0  0  0
 37 66  1  0  0  0
 37109  1  0  0  0
 38 43  2  0  0  0
 38 46  1  0  0  0
 38 47  1  0  0  0
 39 64  1  0  0  0
 39 67  2  0  0  0
 40 52  1  0  0  0
 40 53  2  0  0  0
 40 58  1  0  0  0
 41110  1  0  0  0
 41111  1  0  0  0
 41112  1  0  0  0
 41 48  1  0  0  0
 42 43  1  0  0  0
 42 66  1  0  0  0
 42113  1  0  0  0
 42114  1  0  0  0
 43 44  1  0  0  0
 44115  1  0  0  0
 45 46  2  0  0  0
 45116  1  0  0  0
 46117  1  0  0  0
 47118  1  0  0  0
 47119  1  0  0  0
 48 56  1  0  0  0
 48 65  1  0  0  0
 48120  1  0  0  0
 49 50  1  0  0  0
 49 53  1  0  0  0
 49 64  1  0  0  0
 49121  1  0  0  0
 50 51  1  0  0  0
 50122  1  0  0  0
 50123  1  0  0  0
 51 52  1  0  0  0
 51124  1  0  0  0
 51125  1  0  0  0
 52126  1  0  0  0
 52127  1  0  0  0
 53 54  1  0  0  0
 54 55  2  0  0  0
 54128  1  0  0  0
 55 57  1  0  0  0
 55129  1  0  0  0
 56 69  2  0  0  0
 57 58  2  0  0  0
 57130  1  0  0  0
 58131  1  0  0  0
 59 60  1  0  0  0
 59 61  1  0  0  0
 59 62  1  0  0  0
 60132  1  0  0  0
 60133  1  0  0  0
 60134  1  0  0  0
 61135  1  0  0  0
 61136  1  0  0  0
 61137  1  0  0  0
 62138  1  0  0  0
 62139  1  0  0  0
 62140  1  0  0  0
 63 65  1  0  0  0
 63141  1  0  0  0
 63142  1  0  0  0
 63143  1  0  0  0
 64144  1  0  0  0
 65145  1  0  0  0
 68 80  1  0  0  0
 71 73  2  0  0  0
 71 83  1  0  0  0
 71146  1  0  0  0
 72 74  1  0  0  0
 72 75  1  0  0  0
 72 84  2  0  0  0
 73 84  1  0  0  0
 73 85  1  0  0  0
 74 83  2  0  0  0
 74 86  1  0  0  0
 75147  1  0  0  0
 75148  1  0  0  0
 75149  1  0  0  0
 76150  1  0  0  0
 76151  1  0  0  0
 76152  1  0  0  0
 76 81  1  0  0  0
 77 81  1  0  0  0
 77153  1  0  0  0
 77154  1  0  0  0
 77155  1  0  0  0
 78 79  1  0  0  0
 78 80  1  0  0  0
 78156  1  0  0  0
 78157  1  0  0  0
 79158  1  0  0  0
 79159  1  0  0  0
 79 82  1  0  0  0
 80160  1  0  0  0
 80161  1  0  0  0
 81 82  1  0  0  0
 81162  1  0  0  0
 82 86  1  0  0  0
 82163  1  0  0  0
 85164  1  0  0  0
 86165  1  0  0  0
M  ISO  4   1 100  68 101  80 101  85 100
M  END
> <chiral flag>
0

> <version>
0

> <s_m_source_file>
/data/baiqing/PycharmProjects/Reinvent-master-3.2/result/LINK_invent/BTK/process_docking_weight1_custom_product_contain_oxygen_bond_distance_aromatic_linkinvent_7_9_3/rearranged_h_0198.sdf

> <i_m_source_file_index>
24

> <r_mmod_Potential_Energy-OPLS-2005>
-142.384429931641

> <r_mmod_Stretch_Energy-OPLS-2005>
37.6305046081543

> <r_mmod_Bend_Energy-OPLS-2005>
125.734954833984

> <r_mmod_Torsional_Energy-OPLS-2005>
214.456512451172

> <r_mmod_Improper_Torsional_Energy-OPLS-2005>
6.10308694839478

> <r_mmod_Van_der_Waal_Energy-OPLS-2005>
162.526016235352

> <r_mmod_Electrostatic_Energy-OPLS-2005>
-471.661773681641

> <r_mmod_Solvation_Energy-OPLS-2005>
-228.152923583984

> <b_mmod_Minimization_Converged-OPLS-2005>
0

> <r_mmod_RMS_Derivative-OPLS-2005>
1.03681492805481

$$$$
24
                    3D
 Structure written by MMmdl.
155163  0  0  1  0            999 V2000
  -30.5951  -14.8071   20.3920 C   0  0  0  0  0  0
  -30.4277  -12.4756   19.5198 C   0  0  0  0  0  0
  -29.5344  -12.5062   18.2611 C   0  0  0  0  0  0
  -28.0524  -12.3334   18.6554 C   0  0  0  0  0  0
  -27.6375  -13.2436   19.8431 C   0  0  2  0  0  0
  -28.6744  -13.2252   20.9873 C   0  0  0  0  0  0
  -25.2493  -13.8207   20.5653 C   0  0  0  0  0  0
  -24.1804  -13.0466   20.9197 C   0  0  0  0  0  0
  -24.6402  -11.6932   20.8756 C   0  0  0  0  0  0
  -23.9090  -10.4317   21.0411 C   0  0  0  0  0  0
  -24.3639   -9.4214   21.9181 C   0  0  0  0  0  0
  -23.6314   -8.2240   22.0741 C   0  0  0  0  0  0
  -22.4295   -8.0289   21.3527 C   0  0  0  0  0  0
  -21.9935   -9.0268   20.4633 C   0  0  0  0  0  0
  -22.7268  -10.2148   20.3051 C   0  0  0  0  0  0
  -21.6859   -6.0754   22.5285 C   0  0  0  0  0  0
  -21.4026   -6.5651   23.8221 C   0  0  0  0  0  0
  -21.3649   -5.6784   24.9168 C   0  0  0  0  0  0
  -21.6058   -4.3045   24.7199 C   0  0  0  0  0  0
  -21.8806   -3.8152   23.4307 C   0  0  0  0  0  0
  -21.9183   -4.6980   22.3382 C   0  0  0  0  0  0
  -22.7807  -13.5230   21.1828 C   0  0  0  0  0  0
  -22.1650   -4.2163   21.0978 F   0  0  0  0  0  0
  -21.5621   -3.4539   25.7719 F   0  0  0  0  0  0
  -29.9716  -13.5743   20.4006 N   0  0  0  0  0  0
  -26.2932  -12.9445   20.3222 N   0  0  0  0  0  0
  -25.9356  -11.6568   20.5726 N   0  0  0  0  0  0
  -22.0420  -12.8285   22.0389 N   0  0  0  0  0  0
  -25.4208  -15.1927   20.4024 N   0  0  0  0  0  0
  -31.8012  -14.8371   20.1463 O   0  0  0  0  0  0
  -21.6647   -6.8903   21.4256 O   0  0  0  0  0  0
  -22.3493  -14.5537   20.6642 O   0  0  0  0  0  0
  -24.6305  -31.8584   23.2006 C   0  0  0  0  0  0
  -25.9127  -32.4797   23.8358 C   0  0  1  0  0  0
  -27.2203  -27.2878   20.1105 C   0  0  0  0  0  0
  -25.5942  -33.8600   24.2288 N   0  0  0  0  0  0
  -23.4249  -30.4813   21.5447 C   0  0  2  0  0  0
  -24.8711  -28.9308   20.1116 C   0  0  0  0  0  0
  -22.7501  -29.4606   22.4917 C   0  0  0  0  0  0
  -18.0292  -28.1391   22.8493 C   0  0  0  0  0  0
  -24.1476  -36.7291   23.2631 C   0  0  0  0  0  0
  -25.9684  -30.7817   21.3709 C   0  0  0  0  0  0
  -26.0437  -29.4020   20.7180 C   0  0  0  0  0  0
  -27.2240  -28.5929   20.7062 C   0  0  0  0  0  0
  -26.0287  -26.8792   19.4764 C   0  0  0  0  0  0
  -24.8679  -27.6778   19.4796 C   0  0  0  0  0  0
  -23.6435  -29.8216   20.1593 C   0  0  0  0  0  0
  -25.4109  -36.3099   24.0327 C   0  0  1  0  0  0
  -20.5895  -28.3707   23.1295 C   0  0  2  0  0  0
  -20.6786  -26.9424   22.5441 C   0  0  0  0  0  0
  -19.5769  -26.6374   21.5238 C   0  0  0  0  0  0
  -18.1933  -26.7931   22.1630 C   0  0  0  0  0  0
  -19.1540  -28.8866   23.2892 C   0  0  0  0  0  0
  -18.9454  -30.1458   23.8904 C   0  0  0  0  0  0
  -17.6450  -30.6587   24.0566 C   0  0  0  0  0  0
  -25.9050  -34.9467   23.5103 C   0  0  0  0  0  0
  -16.5348  -29.9093   23.6311 C   0  0  0  0  0  0
  -16.7269  -28.6519   23.0329 C   0  0  0  0  0  0
  -26.4487  -31.6603   25.0730 C   0  0  0  0  0  0
  -25.3706  -31.3748   26.1456 C   0  0  0  0  0  0
  -27.0303  -30.3036   24.6123 C   0  0  0  0  0  0
  -27.6056  -32.4320   25.7507 C   0  0  0  0  0  0
  -27.5582  -37.1813   24.8456 C   0  0  0  0  0  0
  -21.4203  -29.3065   22.3706 N   0  0  0  0  0  0
  -26.4281  -37.3808   23.9413 N   0  0  0  0  0  0
  -24.6942  -31.0566   22.0974 N   0  0  0  0  0  0
  -23.4221  -28.8122   23.2973 O   0  0  0  0  0  0
  -28.3242  -26.4111   20.0920 O   0  0  0  0  0  0
  -26.5614  -34.8929   22.4659 O   0  0  0  0  0  0
  -23.5451  -32.1403   23.7303 O   0  0  0  0  0  0
  -31.3486  -17.6508   19.3700 C   0  0  0  0  0  0
  -30.1336  -17.3983   20.0665 C   0  0  0  0  0  0
  -30.9785  -19.9279   19.2615 C   0  0  0  0  0  0
  -29.7144  -19.8081   19.8864 C   0  0  0  0  0  0
  -30.0244  -22.3817   21.6273 C   0  0  0  0  0  0
  -28.7652  -23.7028   19.7770 C   0  0  0  0  0  0
  -28.1336  -24.9924   20.5369 C   0  0  0  0  0  0
  -28.8961  -22.2995   20.5897 C   0  0  1  0  0  0
  -31.7808  -18.8814   19.0009 N   0  0  0  0  0  0
  -29.3069  -18.5223   20.2737 N   0  0  0  0  0  0
  -31.3881  -21.1343   18.7256 N   0  0  0  0  0  0
  -29.8298  -15.9822   20.4664 N   0  0  0  0  0  0
  -28.8206  -20.9537   19.8762 N   0  0  0  0  0  0
  -31.4799  -12.5702   19.2525 H   0  0  0  0  0  0
  -30.3396  -11.5170   20.0317 H   0  0  0  0  0  0
  -29.8450  -11.7254   17.5683 H   0  0  0  0  0  0
  -29.6727  -13.4546   17.7375 H   0  0  0  0  0  0
  -27.9078  -11.2882   18.9312 H   0  0  0  0  0  0
  -27.4087  -12.5153   17.7928 H   0  0  0  0  0  0
  -27.6184  -14.2578   19.4419 H   0  0  0  0  0  0
  -28.7088  -12.2446   21.4638 H   0  0  0  0  0  0
  -28.3969  -13.9362   21.7664 H   0  0  0  0  0  0
  -25.2767   -9.5704   22.4769 H   0  0  0  0  0  0
  -24.0016   -7.4635   22.7489 H   0  0  0  0  0  0
  -21.0834   -8.8801   19.8958 H   0  0  0  0  0  0
  -22.3712  -10.9691   19.6167 H   0  0  0  0  0  0
  -21.2051   -7.6151   23.9739 H   0  0  0  0  0  0
  -21.1490   -6.0506   25.9084 H   0  0  0  0  0  0
  -22.0599   -2.7614   23.2806 H   0  0  0  0  0  0
  -22.3988  -11.9985   22.4895 H   0  0  0  0  0  0
  -21.1039  -13.1365   22.2540 H   0  0  0  0  0  0
  -24.6529  -15.8507   20.4879 H   0  0  0  0  0  0
  -26.2706  -15.6224   20.0623 H   0  0  0  0  0  0
  -26.7204  -32.5463   23.1115 H   0  0  0  0  0  0
  -25.0170  -33.9757   25.0489 H   0  0  0  0  0  0
  -22.7213  -31.3042   21.4023 H   0  0  0  0  0  0
  -23.3770  -35.9597   23.3278 H   0  0  0  0  0  0
  -24.3578  -36.8936   22.2057 H   0  0  0  0  0  0
  -23.7189  -37.6465   23.6667 H   0  0  0  0  0  0
  -26.0847  -31.5386   20.5938 H   0  0  0  0  0  0
  -26.8574  -30.8505   21.9879 H   0  0  0  0  0  0
  -28.1264  -28.9525   21.1824 H   0  0  0  0  0  0
  -25.9938  -25.9244   18.9715 H   0  0  0  0  0  0
  -23.9750  -27.3176   18.9883 H   0  0  0  0  0  0
  -23.7792  -30.6041   19.4108 H   0  0  0  0  0  0
  -22.7606  -29.2636   19.8434 H   0  0  0  0  0  0
  -25.1283  -36.1963   25.0820 H   0  0  0  0  0  0
  -20.9988  -28.3286   24.1414 H   0  0  0  0  0  0
  -20.5694  -26.2317   23.3651 H   0  0  0  0  0  0
  -21.6652  -26.7455   22.1235 H   0  0  0  0  0  0
  -19.6926  -25.6271   21.1299 H   0  0  0  0  0  0
  -19.6703  -27.3167   20.6756 H   0  0  0  0  0  0
  -17.4219  -26.6705   21.4004 H   0  0  0  0  0  0
  -18.0290  -26.0069   22.9020 H   0  0  0  0  0  0
  -19.7915  -30.7281   24.2284 H   0  0  0  0  0  0
  -17.4988  -31.6258   24.5185 H   0  0  0  0  0  0
  -15.5342  -30.2997   23.7590 H   0  0  0  0  0  0
  -15.8683  -28.0840   22.7002 H   0  0  0  0  0  0
  -24.5874  -30.7105   25.7791 H   0  0  0  0  0  0
  -24.8894  -32.2914   26.4871 H   0  0  0  0  0  0
  -25.8020  -30.8938   27.0241 H   0  0  0  0  0  0
  -26.2852  -29.6840   24.1122 H   0  0  0  0  0  0
  -27.4012  -29.7234   25.4575 H   0  0  0  0  0  0
  -27.8713  -30.4356   23.9318 H   0  0  0  0  0  0
  -27.2687  -33.3635   26.2067 H   0  0  0  0  0  0
  -28.3880  -32.6862   25.0345 H   0  0  0  0  0  0
  -28.0701  -31.8451   26.5438 H   0  0  0  0  0  0
  -28.2586  -38.0128   24.7542 H   0  0  0  0  0  0
  -28.1089  -36.2659   24.6222 H   0  0  0  0  0  0
  -27.2311  -37.1399   25.8863 H   0  0  0  0  0  0
  -20.9368  -29.8877   21.7007 H   0  0  0  0  0  0
  -26.0157  -38.2874   24.1467 H   0  0  0  0  0  0
  -32.0063  -16.8675   19.0400 H   0  0  0  0  0  0
  -29.8558  -23.2371   22.2819 H   0  0  0  0  0  0
  -31.0030  -22.5307   21.1709 H   0  0  0  0  0  0
  -30.0651  -21.4995   22.2650 H   0  0  0  0  0  0
  -29.7556  -23.9774   19.4114 H   0  0  0  0  0  0
  -28.1645  -23.5387   18.8813 H   0  0  0  0  0  0
  -28.5161  -24.9860   21.5576 H   0  0  0  0  0  0
  -27.0694  -24.7880   20.6590 H   0  0  0  0  0  0
  -27.9745  -22.2619   21.1690 H   0  0  0  0  0  0
  -30.5892  -21.7644   18.7133 H   0  0  0  0  0  0
  -31.8564  -21.0422   17.8324 H   0  0  0  0  0  0
  -28.8882  -15.8448   20.7984 H   0  0  0  0  0  0
  -27.8606  -20.6296   19.8798 H   0  0  0  0  0  0
  1 25  1  0  0  0
  1 30  2  0  0  0
  1 82  1  0  0  0
  2  3  1  0  0  0
  2 25  1  0  0  0
  2 84  1  0  0  0
  2 85  1  0  0  0
  3  4  1  0  0  0
  3 86  1  0  0  0
  3 87  1  0  0  0
  4  5  1  0  0  0
  4 88  1  0  0  0
  4 89  1  0  0  0
  5  6  1  0  0  0
  5 26  1  0  0  0
  5 90  1  0  0  0
  6 25  1  0  0  0
  6 91  1  0  0  0
  6 92  1  0  0  0
  7  8  2  0  0  0
  7 26  1  0  0  0
  7 29  1  0  0  0
  8  9  1  0  0  0
  8 22  1  0  0  0
  9 10  1  0  0  0
  9 27  2  0  0  0
 10 11  2  0  0  0
 10 15  1  0  0  0
 11 12  1  0  0  0
 11 93  1  0  0  0
 12 13  2  0  0  0
 12 94  1  0  0  0
 13 14  1  0  0  0
 13 31  1  0  0  0
 14 15  2  0  0  0
 14 95  1  0  0  0
 15 96  1  0  0  0
 16 17  2  0  0  0
 16 21  1  0  0  0
 16 31  1  0  0  0
 17 18  1  0  0  0
 17 97  1  0  0  0
 18 19  2  0  0  0
 18 98  1  0  0  0
 19 20  1  0  0  0
 19 24  1  0  0  0
 20 21  2  0  0  0
 20 99  1  0  0  0
 21 23  1  0  0  0
 22 28  1  0  0  0
 22 32  2  0  0  0
 26 27  1  0  0  0
 28100  1  0  0  0
 28101  1  0  0  0
 29102  1  0  0  0
 29103  1  0  0  0
 33 34  1  0  0  0
 33 66  1  0  0  0
 33 70  2  0  0  0
 34 36  1  0  0  0
 34 59  1  0  0  0
 34104  1  0  0  0
 35 44  2  0  0  0
 35 45  1  0  0  0
 35 68  1  0  0  0
 36 56  1  0  0  0
 36105  1  0  0  0
 37 39  1  0  0  0
 37 47  1  0  0  0
 37 66  1  0  0  0
 37106  1  0  0  0
 38 43  2  0  0  0
 38 46  1  0  0  0
 38 47  1  0  0  0
 39 64  1  0  0  0
 39 67  2  0  0  0
 40 52  1  0  0  0
 40 53  2  0  0  0
 40 58  1  0  0  0
 41107  1  0  0  0
 41108  1  0  0  0
 41109  1  0  0  0
 41 48  1  0  0  0
 42 43  1  0  0  0
 42 66  1  0  0  0
 42110  1  0  0  0
 42111  1  0  0  0
 43 44  1  0  0  0
 44112  1  0  0  0
 45 46  2  0  0  0
 45113  1  0  0  0
 46114  1  0  0  0
 47115  1  0  0  0
 47116  1  0  0  0
 48 56  1  0  0  0
 48 65  1  0  0  0
 48117  1  0  0  0
 49 50  1  0  0  0
 49 53  1  0  0  0
 49 64  1  0  0  0
 49118  1  0  0  0
 50 51  1  0  0  0
 50119  1  0  0  0
 50120  1  0  0  0
 51 52  1  0  0  0
 51121  1  0  0  0
 51122  1  0  0  0
 52123  1  0  0  0
 52124  1  0  0  0
 53 54  1  0  0  0
 54 55  2  0  0  0
 54125  1  0  0  0
 55 57  1  0  0  0
 55126  1  0  0  0
 56 69  2  0  0  0
 57 58  2  0  0  0
 57127  1  0  0  0
 58128  1  0  0  0
 59 60  1  0  0  0
 59 61  1  0  0  0
 59 62  1  0  0  0
 60129  1  0  0  0
 60130  1  0  0  0
 60131  1  0  0  0
 61132  1  0  0  0
 61133  1  0  0  0
 61134  1  0  0  0
 62135  1  0  0  0
 62136  1  0  0  0
 62137  1  0  0  0
 63 65  1  0  0  0
 63138  1  0  0  0
 63139  1  0  0  0
 63140  1  0  0  0
 64141  1  0  0  0
 65142  1  0  0  0
 68 77  1  0  0  0
 71 72  2  0  0  0
 71 79  1  0  0  0
 71143  1  0  0  0
 72 80  1  0  0  0
 72 82  1  0  0  0
 73 74  1  0  0  0
 73 79  2  0  0  0
 73 81  1  0  0  0
 74 80  2  0  0  0
 74 83  1  0  0  0
 75144  1  0  0  0
 75145  1  0  0  0
 75146  1  0  0  0
 75 78  1  0  0  0
 76 77  1  0  0  0
 76 78  1  0  0  0
 76147  1  0  0  0
 76148  1  0  0  0
 77149  1  0  0  0
 77150  1  0  0  0
 78 83  1  0  0  0
 78151  1  0  0  0
 81152  1  0  0  0
 81153  1  0  0  0
 82154  1  0  0  0
 83155  1  0  0  0
M  ISO  4   1 100  68 101  77 101  82 100
M  END
> <chiral flag>
0

> <version>
0

> <s_m_source_file>
/data/baiqing/PycharmProjects/Reinvent-master-3.2/result/LINK_invent/BTK/process_docking_weight1_custom_product_contain_oxygen_bond_distance_aromatic_linkinvent_7_9_3/rearranged_h_0198.sdf

> <i_m_source_file_index>
25

> <r_mmod_Potential_Energy-OPLS-2005>
132.520416259766

> <r_mmod_Stretch_Energy-OPLS-2005>
136.201034545898

> <r_mmod_Bend_Energy-OPLS-2005>
202.06510925293

> <r_mmod_Torsional_Energy-OPLS-2005>
269.468200683594

> <r_mmod_Improper_Torsional_Energy-OPLS-2005>
14.9117870330811

> <r_mmod_Van_der_Waal_Energy-OPLS-2005>
149.551834106445

> <r_mmod_Electrostatic_Energy-OPLS-2005>
-505.438629150391

> <r_mmod_Solvation_Energy-OPLS-2005>
-229.699691772461

> <b_mmod_Minimization_Converged-OPLS-2005>
0

> <r_mmod_RMS_Derivative-OPLS-2005>
5.56864976882935

$$$$
25
                    3D
 Structure written by MMmdl.
162170  0  0  1  0            999 V2000
  -30.7764  -14.4940   20.5880 C   0  0  0  0  0  0
  -30.4016  -12.3549   19.3898 C   0  0  0  0  0  0
  -29.4685  -12.5826   18.1845 C   0  0  0  0  0  0
  -27.9928  -12.4305   18.6016 C   0  0  0  0  0  0
  -27.6536  -13.2409   19.8803 C   0  0  2  0  0  0
  -28.7169  -13.0355   20.9832 C   0  0  0  0  0  0
  -25.2407  -13.8180   20.5672 C   0  0  0  0  0  0
  -24.1683  -13.0309   20.9051 C   0  0  0  0  0  0
  -24.6379  -11.6850   20.8686 C   0  0  0  0  0  0
  -23.9133  -10.4154   21.0385 C   0  0  0  0  0  0
  -24.3691   -9.4065   21.9141 C   0  0  0  0  0  0
  -23.6300   -8.2131   22.0732 C   0  0  0  0  0  0
  -22.4251   -8.0232   21.3604 C   0  0  0  0  0  0
  -21.9864   -9.0215   20.4736 C   0  0  0  0  0  0
  -22.7283  -10.2030   20.3089 C   0  0  0  0  0  0
  -21.6760   -6.0740   22.5296 C   0  0  0  0  0  0
  -21.3970   -6.5653   23.8229 C   0  0  0  0  0  0
  -21.3674   -5.6802   24.9203 C   0  0  0  0  0  0
  -21.6027   -4.3069   24.7215 C   0  0  0  0  0  0
  -21.8807   -3.8173   23.4338 C   0  0  0  0  0  0
  -21.9149   -4.6970   22.3410 C   0  0  0  0  0  0
  -22.7717  -13.5121   21.1837 C   0  0  0  0  0  0
  -22.1623   -4.2171   21.1005 F   0  0  0  0  0  0
  -21.5693   -3.4560   25.7753 F   0  0  0  0  0  0
  -30.0455  -13.3437   20.4263 N   0  0  0  0  0  0
  -26.2963  -12.9447   20.3467 N   0  0  0  0  0  0
  -25.9348  -11.6530   20.5826 N   0  0  0  0  0  0
  -22.0604  -12.8259   22.0737 N   0  0  0  0  0  0
  -25.3819  -15.1928   20.4240 N   0  0  0  0  0  0
  -31.8516  -14.6652   20.0112 O   0  0  0  0  0  0
  -21.6592   -6.8850   21.4250 O   0  0  0  0  0  0
  -22.3241  -14.5276   20.6584 O   0  0  0  0  0  0
  -24.6086  -31.8630   23.2159 C   0  0  0  0  0  0
  -25.8992  -32.4812   23.8381 C   0  0  1  0  0  0
  -27.2138  -27.4510   20.0522 C   0  0  0  0  0  0
  -25.5778  -33.8608   24.2228 N   0  0  0  0  0  0
  -23.4002  -30.4930   21.5605 C   0  0  2  0  0  0
  -24.8385  -28.9688   20.1162 C   0  0  0  0  0  0
  -22.7428  -29.4624   22.5073 C   0  0  0  0  0  0
  -18.0239  -28.1413   22.8426 C   0  0  0  0  0  0
  -24.1533  -36.7363   23.2610 C   0  0  0  0  0  0
  -25.9301  -30.8343   21.3682 C   0  0  0  0  0  0
  -26.0052  -29.4741   20.7014 C   0  0  0  0  0  0
  -27.2039  -28.7245   20.6627 C   0  0  0  0  0  0
  -26.0377  -26.9574   19.4561 C   0  0  0  0  0  0
  -24.8467  -27.7105   19.4887 C   0  0  0  0  0  0
  -23.6035  -29.8400   20.1727 C   0  0  0  0  0  0
  -25.4125  -36.3113   24.0321 C   0  0  1  0  0  0
  -20.5820  -28.3660   23.1351 C   0  0  2  0  0  0
  -20.6754  -26.9420   22.5455 C   0  0  0  0  0  0
  -19.5779  -26.6397   21.5214 C   0  0  0  0  0  0
  -18.1924  -26.7950   22.1570 C   0  0  0  0  0  0
  -19.1491  -28.8825   23.2873 C   0  0  0  0  0  0
  -18.9445  -30.1398   23.8933 C   0  0  0  0  0  0
  -17.6481  -30.6599   24.0550 C   0  0  0  0  0  0
  -25.9012  -34.9487   23.5077 C   0  0  0  0  0  0
  -16.5342  -29.9138   23.6310 C   0  0  0  0  0  0
  -16.7245  -28.6546   23.0322 C   0  0  0  0  0  0
  -26.4498  -31.6602   25.0694 C   0  0  0  0  0  0
  -25.3819  -31.3763   26.1486 C   0  0  0  0  0  0
  -27.0239  -30.3000   24.6107 C   0  0  0  0  0  0
  -27.6095  -32.4349   25.7427 C   0  0  0  0  0  0
  -27.5632  -37.1840   24.8434 C   0  0  0  0  0  0
  -21.4158  -29.3005   22.3782 N   0  0  0  0  0  0
  -26.4313  -37.3792   23.9405 N   0  0  0  0  0  0
  -24.6660  -31.0755   22.1074 N   0  0  0  0  0  0
  -23.4204  -28.8235   23.3178 O   0  0  0  0  0  0
  -28.3492  -26.6737   20.0246 O   0  0  0  0  0  0
  -26.5713  -34.8930   22.4726 O   0  0  0  0  0  0
  -23.5269  -32.1405   23.7555 O   0  0  0  0  0  0
  -30.5046  -17.8566   21.5358 C   0  0  0  0  0  0
  -28.6240  -19.1831   21.1871 C   0  0  0  0  0  0
  -29.7678  -16.6672   21.2433 C   0  0  0  0  0  0
  -27.8767  -17.9942   20.9250 C   0  0  0  0  0  0
  -27.2604  -20.6454   22.7249 C   0  0  0  0  0  0
  -29.2598  -23.2834   22.8733 C   0  0  0  0  0  0
  -28.8469  -24.2160   20.4789 C   0  0  0  0  0  0
  -28.3032  -25.5924   20.9693 C   0  0  0  0  0  0
  -27.9582  -20.5730   21.3354 C   0  0  1  0  0  0
  -28.5540  -23.0711   21.5076 C   0  0  1  0  0  0
  -29.9490  -19.1004   21.4877 N   0  0  0  0  0  0
  -28.4535  -16.7668   20.9016 N   0  0  0  0  0  0
  -26.4876  -17.9815   20.8047 N   0  0  0  0  0  0
  -30.3933  -15.4049   21.5049 N   0  0  0  0  0  0
  -28.8966  -21.6944   21.0232 N   0  3  0  0  0  0
  -31.4462  -12.4283   19.0791 H   0  0  0  0  0  0
  -30.2599  -11.3355   19.7517 H   0  0  0  0  0  0
  -29.6987  -11.8994   17.3676 H   0  0  0  0  0  0
  -29.6197  -13.5857   17.7761 H   0  0  0  0  0  0
  -27.7858  -11.3719   18.7549 H   0  0  0  0  0  0
  -27.3385  -12.7479   17.7898 H   0  0  0  0  0  0
  -27.6774  -14.2956   19.6099 H   0  0  0  0  0  0
  -28.7142  -11.9975   21.3207 H   0  0  0  0  0  0
  -28.4865  -13.6369   21.8642 H   0  0  0  0  0  0
  -25.2882   -9.5451   22.4656 H   0  0  0  0  0  0
  -24.0027   -7.4505   22.7455 H   0  0  0  0  0  0
  -21.0756   -8.8820   19.9112 H   0  0  0  0  0  0
  -22.3825  -10.9603   19.6208 H   0  0  0  0  0  0
  -21.1952   -7.6175   23.9767 H   0  0  0  0  0  0
  -21.1558   -6.0521   25.9108 H   0  0  0  0  0  0
  -22.0585   -2.7613   23.2845 H   0  0  0  0  0  0
  -22.4502  -12.0264   22.5447 H   0  0  0  0  0  0
  -21.1220  -13.1197   22.3106 H   0  0  0  0  0  0
  -24.5550  -15.7829   20.3569 H   0  0  0  0  0  0
  -26.2399  -15.6514   20.1244 H   0  0  0  0  0  0
  -26.7003  -32.5548   23.1077 H   0  0  0  0  0  0
  -24.9715  -33.9754   25.0231 H   0  0  0  0  0  0
  -22.6875  -31.3112   21.4389 H   0  0  0  0  0  0
  -23.3750  -35.9727   23.3233 H   0  0  0  0  0  0
  -24.3643  -36.9009   22.2021 H   0  0  0  0  0  0
  -23.7354  -37.6602   23.6646 H   0  0  0  0  0  0
  -26.0547  -31.6194   20.6198 H   0  0  0  0  0  0
  -26.8152  -30.8650   21.9946 H   0  0  0  0  0  0
  -28.1108  -29.1177   21.0976 H   0  0  0  0  0  0
  -26.0406  -26.0019   18.9479 H   0  0  0  0  0  0
  -23.9482  -27.3246   19.0268 H   0  0  0  0  0  0
  -23.7213  -30.6312   19.4310 H   0  0  0  0  0  0
  -22.7240  -29.2701   19.8699 H   0  0  0  0  0  0
  -25.1319  -36.1978   25.0814 H   0  0  0  0  0  0
  -20.9782  -28.3187   24.1529 H   0  0  0  0  0  0
  -20.5601  -26.2289   23.3634 H   0  0  0  0  0  0
  -21.6662  -26.7512   22.1310 H   0  0  0  0  0  0
  -19.7003  -25.6308   21.1265 H   0  0  0  0  0  0
  -19.6761  -27.3191   20.6726 H   0  0  0  0  0  0
  -17.4224  -26.6602   21.3952 H   0  0  0  0  0  0
  -18.0346  -26.0139   22.8993 H   0  0  0  0  0  0
  -19.7903  -30.7150   24.2433 H   0  0  0  0  0  0
  -17.5031  -31.6307   24.5134 H   0  0  0  0  0  0
  -15.5322  -30.3066   23.7623 H   0  0  0  0  0  0
  -15.8630  -28.0867   22.7074 H   0  0  0  0  0  0
  -24.6082  -30.6947   25.7945 H   0  0  0  0  0  0
  -24.8918  -32.2934   26.4759 H   0  0  0  0  0  0
  -25.8221  -30.9175   27.0330 H   0  0  0  0  0  0
  -26.2679  -29.6823   24.1204 H   0  0  0  0  0  0
  -27.3984  -29.7225   25.4561 H   0  0  0  0  0  0
  -27.8604  -30.4246   23.9228 H   0  0  0  0  0  0
  -27.2692  -33.3704   26.1901 H   0  0  0  0  0  0
  -28.3919  -32.6780   25.0228 H   0  0  0  0  0  0
  -28.0716  -31.8529   26.5406 H   0  0  0  0  0  0
  -28.2596  -38.0194   24.7470 H   0  0  0  0  0  0
  -28.1196  -36.2704   24.6215 H   0  0  0  0  0  0
  -27.2363  -37.1461   25.8848 H   0  0  0  0  0  0
  -20.9346  -29.8609   21.6889 H   0  0  0  0  0  0
  -26.0203  -38.2894   24.1349 H   0  0  0  0  0  0
  -31.5430  -17.8366   21.8552 H   0  0  0  0  0  0
  -26.3018  -20.1294   22.6630 H   0  0  0  0  0  0
  -27.0019  -21.6335   23.0948 H   0  0  0  0  0  0
  -27.8548  -20.1529   23.4968 H   0  0  0  0  0  0
  -29.1406  -24.2844   23.2790 H   0  0  0  0  0  0
  -30.3295  -23.1011   22.7932 H   0  0  0  0  0  0
  -28.8837  -22.6030   23.6377 H   0  0  0  0  0  0
  -29.9147  -24.2831   20.2637 H   0  0  0  0  0  0
  -28.3711  -23.9852   19.5233 H   0  0  0  0  0  0
  -27.2874  -25.4446   21.3442 H   0  0  0  0  0  0
  -28.8748  -25.9314   21.8309 H   0  0  0  0  0  0
  -27.1855  -20.6397   20.5690 H   0  0  0  0  0  0
  -27.4726  -23.1279   21.6453 H   0  0  0  0  0  0
  -25.9587  -18.7418   21.2141 H   0  0  0  0  0  0
  -26.0276  -17.0954   20.9887 H   0  0  0  0  0  0
  -31.2092  -15.5861   22.0726 H   0  0  0  0  0  0
  -29.7944  -21.4214   21.3953 H   0  0  0  0  0  0
  -28.9996  -21.7150   20.0209 H   0  0  0  0  0  0
  1 25  1  0  0  0
  1 30  2  0  0  0
  1 84  1  0  0  0
  2  3  1  0  0  0
  2 25  1  0  0  0
  2 86  1  0  0  0
  2 87  1  0  0  0
  3  4  1  0  0  0
  3 88  1  0  0  0
  3 89  1  0  0  0
  4  5  1  0  0  0
  4 90  1  0  0  0
  4 91  1  0  0  0
  5  6  1  0  0  0
  5 26  1  0  0  0
  5 92  1  0  0  0
  6 25  1  0  0  0
  6 93  1  0  0  0
  6 94  1  0  0  0
  7  8  2  0  0  0
  7 26  1  0  0  0
  7 29  1  0  0  0
  8  9  1  0  0  0
  8 22  1  0  0  0
  9 10  1  0  0  0
  9 27  2  0  0  0
 10 11  2  0  0  0
 10 15  1  0  0  0
 11 12  1  0  0  0
 11 95  1  0  0  0
 12 13  2  0  0  0
 12 96  1  0  0  0
 13 14  1  0  0  0
 13 31  1  0  0  0
 14 15  2  0  0  0
 14 97  1  0  0  0
 15 98  1  0  0  0
 16 17  2  0  0  0
 16 21  1  0  0  0
 16 31  1  0  0  0
 17 18  1  0  0  0
 17 99  1  0  0  0
 18 19  2  0  0  0
 18100  1  0  0  0
 19 20  1  0  0  0
 19 24  1  0  0  0
 20 21  2  0  0  0
 20101  1  0  0  0
 21 23  1  0  0  0
 22 28  1  0  0  0
 22 32  2  0  0  0
 26 27  1  0  0  0
 28102  1  0  0  0
 28103  1  0  0  0
 29104  1  0  0  0
 29105  1  0  0  0
 33 34  1  0  0  0
 33 66  1  0  0  0
 33 70  2  0  0  0
 34 36  1  0  0  0
 34 59  1  0  0  0
 34106  1  0  0  0
 35 44  2  0  0  0
 35 45  1  0  0  0
 35 68  1  0  0  0
 36 56  1  0  0  0
 36107  1  0  0  0
 37 39  1  0  0  0
 37 47  1  0  0  0
 37 66  1  0  0  0
 37108  1  0  0  0
 38 43  2  0  0  0
 38 46  1  0  0  0
 38 47  1  0  0  0
 39 64  1  0  0  0
 39 67  2  0  0  0
 40 52  1  0  0  0
 40 53  2  0  0  0
 40 58  1  0  0  0
 41109  1  0  0  0
 41110  1  0  0  0
 41111  1  0  0  0
 41 48  1  0  0  0
 42 43  1  0  0  0
 42 66  1  0  0  0
 42112  1  0  0  0
 42113  1  0  0  0
 43 44  1  0  0  0
 44114  1  0  0  0
 45 46  2  0  0  0
 45115  1  0  0  0
 46116  1  0  0  0
 47117  1  0  0  0
 47118  1  0  0  0
 48 56  1  0  0  0
 48 65  1  0  0  0
 48119  1  0  0  0
 49 50  1  0  0  0
 49 53  1  0  0  0
 49 64  1  0  0  0
 49120  1  0  0  0
 50 51  1  0  0  0
 50121  1  0  0  0
 50122  1  0  0  0
 51 52  1  0  0  0
 51123  1  0  0  0
 51124  1  0  0  0
 52125  1  0  0  0
 52126  1  0  0  0
 53 54  1  0  0  0
 54 55  2  0  0  0
 54127  1  0  0  0
 55 57  1  0  0  0
 55128  1  0  0  0
 56 69  2  0  0  0
 57 58  2  0  0  0
 57129  1  0  0  0
 58130  1  0  0  0
 59 60  1  0  0  0
 59 61  1  0  0  0
 59 62  1  0  0  0
 60131  1  0  0  0
 60132  1  0  0  0
 60133  1  0  0  0
 61134  1  0  0  0
 61135  1  0  0  0
 61136  1  0  0  0
 62137  1  0  0  0
 62138  1  0  0  0
 62139  1  0  0  0
 63 65  1  0  0  0
 63140  1  0  0  0
 63141  1  0  0  0
 63142  1  0  0  0
 64143  1  0  0  0
 65144  1  0  0  0
 68 78  1  0  0  0
 71 73  2  0  0  0
 71 81  1  0  0  0
 71145  1  0  0  0
 72 74  1  0  0  0
 72 79  1  0  0  0
 72 81  2  0  0  0
 73 82  1  0  0  0
 73 84  1  0  0  0
 74 82  2  0  0  0
 74 83  1  0  0  0
 75146  1  0  0  0
 75147  1  0  0  0
 75148  1  0  0  0
 75 79  1  0  0  0
 76149  1  0  0  0
 76150  1  0  0  0
 76151  1  0  0  0
 76 80  1  0  0  0
 77 78  1  0  0  0
 77 80  1  0  0  0
 77152  1  0  0  0
 77153  1  0  0  0
 78154  1  0  0  0
 78155  1  0  0  0
 79 85  1  0  0  0
 79156  1  0  0  0
 80 85  1  0  0  0
 80157  1  0  0  0
 83158  1  0  0  0
 83159  1  0  0  0
 84160  1  0  0  0
 85161  1  0  0  0
 85162  1  0  0  0
M  CHG  1  85   1
M  ISO  4   1 100  68 101  78 101  84 100
M  END
> <chiral flag>
0

> <version>
0

> <s_m_source_file>
/data/baiqing/PycharmProjects/Reinvent-master-3.2/result/LINK_invent/BTK/process_docking_weight1_custom_product_contain_oxygen_bond_distance_aromatic_linkinvent_7_9_3/rearranged_h_0198.sdf

> <i_m_source_file_index>
26

> <r_mmod_Potential_Energy-OPLS-2005>
-125.086563110352

> <r_mmod_Stretch_Energy-OPLS-2005>
48.7328643798828

> <r_mmod_Bend_Energy-OPLS-2005>
134.757400512695

> <r_mmod_Torsional_Energy-OPLS-2005>
306.897155761719

> <r_mmod_Improper_Torsional_Energy-OPLS-2005>
14.9676198959351

> <r_mmod_Van_der_Waal_Energy-OPLS-2005>
153.008224487305

> <r_mmod_Electrostatic_Energy-OPLS-2005>
-342.692047119141

> <r_mmod_Solvation_Energy-OPLS-2005>
-458.392120361328

> <b_mmod_Minimization_Converged-OPLS-2005>
0

> <r_mmod_RMS_Derivative-OPLS-2005>
10.1307401657104

$$$$
26
                    3D
 Structure written by MMmdl.
150158  0  0  1  0            999 V2000
  -30.6394  -14.5150   20.5675 C   0  0  0  0  0  0
  -30.4454  -12.3291   19.4162 C   0  0  0  0  0  0
  -29.5044  -12.5118   18.2042 C   0  0  0  0  0  0
  -28.0231  -12.3619   18.6158 C   0  0  0  0  0  0
  -27.6668  -13.1950   19.8760 C   0  0  2  0  0  0
  -28.7095  -12.9478   20.9909 C   0  0  0  0  0  0
  -25.2630  -13.8137   20.5667 C   0  0  0  0  0  0
  -24.1855  -13.0435   20.9152 C   0  0  0  0  0  0
  -24.6378  -11.6895   20.8712 C   0  0  0  0  0  0
  -23.9039  -10.4294   21.0406 C   0  0  0  0  0  0
  -24.3599   -9.4207   21.9188 C   0  0  0  0  0  0
  -23.6272   -8.2240   22.0758 C   0  0  0  0  0  0
  -22.4255   -8.0277   21.3550 C   0  0  0  0  0  0
  -21.9887   -9.0248   20.4657 C   0  0  0  0  0  0
  -22.7210  -10.2129   20.3056 C   0  0  0  0  0  0
  -21.6842   -6.0733   22.5281 C   0  0  0  0  0  0
  -21.4013   -6.5637   23.8216 C   0  0  0  0  0  0
  -21.3660   -5.6791   24.9178 C   0  0  0  0  0  0
  -21.6042   -4.3053   24.7227 C   0  0  0  0  0  0
  -21.8819   -3.8147   23.4348 C   0  0  0  0  0  0
  -21.9189   -4.6965   22.3405 C   0  0  0  0  0  0
  -22.7884  -13.5259   21.1823 C   0  0  0  0  0  0
  -22.1660   -4.2152   21.0977 F   0  0  0  0  0  0
  -21.5622   -3.4536   25.7739 F   0  0  0  0  0  0
  -30.0398  -13.2942   20.4504 N   0  0  0  0  0  0
  -26.3052  -12.9278   20.3355 N   0  0  0  0  0  0
  -25.9306  -11.6450   20.5740 N   0  0  0  0  0  0
  -22.0506  -12.8272   22.0387 N   0  0  0  0  0  0
  -25.4385  -15.1860   20.4123 N   0  0  0  0  0  0
  -31.7526  -14.7664   20.0931 O   0  0  0  0  0  0
  -21.6620   -6.8872   21.4240 O   0  0  0  0  0  0
  -22.3578  -14.5569   20.6672 O   0  0  0  0  0  0
  -24.6167  -31.8660   23.2065 C   0  0  0  0  0  0
  -25.9053  -32.4806   23.8374 C   0  0  1  0  0  0
  -27.2345  -27.4087   20.1092 C   0  0  0  0  0  0
  -25.5896  -33.8605   24.2305 N   0  0  0  0  0  0
  -23.4055  -30.4882   21.5484 C   0  0  2  0  0  0
  -24.8521  -28.9453   20.1189 C   0  0  0  0  0  0
  -22.7418  -29.4651   22.4983 C   0  0  0  0  0  0
  -18.0272  -28.1377   22.8502 C   0  0  0  0  0  0
  -24.1485  -36.7314   23.2639 C   0  0  0  0  0  0
  -25.9362  -30.8248   21.3613 C   0  0  0  0  0  0
  -26.0136  -29.4556   20.7119 C   0  0  0  0  0  0
  -27.2099  -28.6982   20.6962 C   0  0  0  0  0  0
  -26.0558  -26.9162   19.5101 C   0  0  0  0  0  0
  -24.8690  -27.6760   19.5130 C   0  0  0  0  0  0
  -23.6154  -29.8155   20.1654 C   0  0  0  0  0  0
  -25.4106  -36.3102   24.0336 C   0  0  1  0  0  0
  -20.5865  -28.3666   23.1319 C   0  0  2  0  0  0
  -20.6762  -26.9402   22.5419 C   0  0  0  0  0  0
  -19.5737  -26.6384   21.5219 C   0  0  0  0  0  0
  -18.1917  -26.7923   22.1632 C   0  0  0  0  0  0
  -19.1524  -28.8839   23.2908 C   0  0  0  0  0  0
  -18.9450  -30.1446   23.8916 C   0  0  0  0  0  0
  -17.6453  -30.6584   24.0568 C   0  0  0  0  0  0
  -25.9039  -34.9469   23.5120 C   0  0  0  0  0  0
  -16.5344  -29.9090   23.6322 C   0  0  0  0  0  0
  -16.7262  -28.6503   23.0353 C   0  0  0  0  0  0
  -26.4470  -31.6591   25.0711 C   0  0  0  0  0  0
  -25.3737  -31.3715   26.1468 C   0  0  0  0  0  0
  -27.0298  -30.3025   24.6103 C   0  0  0  0  0  0
  -27.6045  -32.4312   25.7471 C   0  0  0  0  0  0
  -27.5576  -37.1809   24.8462 C   0  0  0  0  0  0
  -21.4144  -29.3035   22.3727 N   0  0  0  0  0  0
  -26.4286  -37.3790   23.9411 N   0  0  0  0  0  0
  -24.6714  -31.0745   22.0970 N   0  0  0  0  0  0
  -23.4185  -28.8196   23.3035 O   0  0  0  0  0  0
  -28.4003  -26.6666   20.0814 O   0  0  0  0  0  0
  -26.5612  -34.8924   22.4688 O   0  0  0  0  0  0
  -23.5352  -32.1415   23.7447 O   0  0  0  0  0  0
  -28.4968  -18.7656   21.0616 C   0  0  0  0  0  0
  -29.6914  -19.3279   20.6571 C   0  0  0  0  0  0
  -29.7129  -16.8334   20.9642 C   0  0  0  0  0  0
  -29.1879  -21.7400   20.5149 C   0  0  0  0  0  0
  -29.8611  -23.1329   20.5190 C   0  0  0  0  0  0
  -29.1451  -24.3025   19.7599 C   0  0  0  0  0  0
  -28.3549  -25.3274   20.6269 C   0  0  0  0  0  0
  -28.5256  -17.3743   21.2430 N   0  0  0  0  0  0
  -30.0031  -20.6541   20.4821 N   0  0  0  0  0  0
  -29.8569  -15.4310   21.1734 N   0  0  0  0  0  0
  -27.9573  -21.6657   20.5426 O   0  0  0  0  0  0
  -30.8927  -18.0420   20.4311 S   0  0  0  0  0  0
  -31.4866  -12.4621   19.1142 H   0  0  0  0  0  0
  -30.3777  -11.3124   19.8050 H   0  0  0  0  0  0
  -29.7486  -11.7850   17.4282 H   0  0  0  0  0  0
  -29.6633  -13.4969   17.7619 H   0  0  0  0  0  0
  -27.8407  -11.3046   18.8093 H   0  0  0  0  0  0
  -27.3698  -12.6324   17.7850 H   0  0  0  0  0  0
  -27.7167  -14.2458   19.5890 H   0  0  0  0  0  0
  -28.6999  -11.8989   21.2918 H   0  0  0  0  0  0
  -28.4553  -13.4990   21.8972 H   0  0  0  0  0  0
  -25.2752   -9.5678   22.4744 H   0  0  0  0  0  0
  -23.9992   -7.4630   22.7475 H   0  0  0  0  0  0
  -21.0816   -8.8759   19.8964 H   0  0  0  0  0  0
  -22.3677  -10.9656   19.6152 H   0  0  0  0  0  0
  -21.2007   -7.6148   23.9726 H   0  0  0  0  0  0
  -21.1480   -6.0517   25.9080 H   0  0  0  0  0  0
  -22.0596   -2.7610   23.2840 H   0  0  0  0  0  0
  -22.4083  -11.9940   22.4815 H   0  0  0  0  0  0
  -21.1124  -13.1330   22.2565 H   0  0  0  0  0  0
  -24.6814  -15.8466   20.5502 H   0  0  0  0  0  0
  -26.3108  -15.6349   20.1602 H   0  0  0  0  0  0
  -26.7122  -32.5515   23.1139 H   0  0  0  0  0  0
  -25.0019  -33.9763   25.0432 H   0  0  0  0  0  0
  -22.6950  -31.3054   21.4068 H   0  0  0  0  0  0
  -23.3732  -35.9662   23.3311 H   0  0  0  0  0  0
  -24.3572  -36.8924   22.2049 H   0  0  0  0  0  0
  -23.7254  -37.6529   23.6651 H   0  0  0  0  0  0
  -26.0496  -31.5862   20.5885 H   0  0  0  0  0  0
  -26.8235  -30.8802   21.9803 H   0  0  0  0  0  0
  -28.1096  -29.0929   21.1471 H   0  0  0  0  0  0
  -26.0557  -25.9465   19.0324 H   0  0  0  0  0  0
  -23.9766  -27.2800   19.0490 H   0  0  0  0  0  0
  -23.7243  -30.5872   19.4028 H   0  0  0  0  0  0
  -22.7390  -29.2353   19.8698 H   0  0  0  0  0  0
  -25.1279  -36.1960   25.0827 H   0  0  0  0  0  0
  -20.9962  -28.3233   24.1438 H   0  0  0  0  0  0
  -20.5669  -26.2273   23.3611 H   0  0  0  0  0  0
  -21.6633  -26.7446   22.1211 H   0  0  0  0  0  0
  -19.6897  -25.6298   21.1241 H   0  0  0  0  0  0
  -19.6672  -27.3204   20.6758 H   0  0  0  0  0  0
  -17.4189  -26.6680   21.4032 H   0  0  0  0  0  0
  -18.0315  -26.0061   22.9024 H   0  0  0  0  0  0
  -19.7930  -30.7259   24.2292 H   0  0  0  0  0  0
  -17.5009  -31.6270   24.5167 H   0  0  0  0  0  0
  -15.5344  -30.3002   23.7629 H   0  0  0  0  0  0
  -15.8664  -28.0827   22.7056 H   0  0  0  0  0  0
  -24.5877  -30.7102   25.7801 H   0  0  0  0  0  0
  -24.8972  -32.2885   26.4945 H   0  0  0  0  0  0
  -25.8084  -30.8847   27.0210 H   0  0  0  0  0  0
  -26.2844  -29.6796   24.1143 H   0  0  0  0  0  0
  -27.4038  -29.7252   25.4568 H   0  0  0  0  0  0
  -27.8691  -30.4325   23.9268 H   0  0  0  0  0  0
  -27.2652  -33.3588   26.2096 H   0  0  0  0  0  0
  -28.3826  -32.6925   25.0287 H   0  0  0  0  0  0
  -28.0754  -31.8423   26.5355 H   0  0  0  0  0  0
  -28.2598  -38.0102   24.7505 H   0  0  0  0  0  0
  -28.1068  -36.2634   24.6284 H   0  0  0  0  0  0
  -27.2302  -37.1460   25.8868 H   0  0  0  0  0  0
  -20.9302  -29.8757   21.6952 H   0  0  0  0  0  0
  -26.0170  -38.2867   24.1412 H   0  0  0  0  0  0
  -27.5748  -19.2819   21.2890 H   0  0  0  0  0  0
  -30.8559  -23.0159   20.0879 H   0  0  0  0  0  0
  -30.0352  -23.4149   21.5578 H   0  0  0  0  0  0
  -28.4984  -23.9129   18.9721 H   0  0  0  0  0  0
  -29.9234  -24.8555   19.2334 H   0  0  0  0  0  0
  -28.8084  -25.3949   21.6163 H   0  0  0  0  0  0
  -27.3399  -24.9650   20.7968 H   0  0  0  0  0  0
  -30.9867  -20.8597   20.3693 H   0  0  0  0  0  0
  -29.0455  -15.0089   21.5929 H   0  0  0  0  0  0
  1 25  1  0  0  0
  1 30  2  0  0  0
  1 80  1  0  0  0
  2  3  1  0  0  0
  2 25  1  0  0  0
  2 83  1  0  0  0
  2 84  1  0  0  0
  3  4  1  0  0  0
  3 85  1  0  0  0
  3 86  1  0  0  0
  4  5  1  0  0  0
  4 87  1  0  0  0
  4 88  1  0  0  0
  5  6  1  0  0  0
  5 26  1  0  0  0
  5 89  1  0  0  0
  6 25  1  0  0  0
  6 90  1  0  0  0
  6 91  1  0  0  0
  7  8  2  0  0  0
  7 26  1  0  0  0
  7 29  1  0  0  0
  8  9  1  0  0  0
  8 22  1  0  0  0
  9 10  1  0  0  0
  9 27  2  0  0  0
 10 11  2  0  0  0
 10 15  1  0  0  0
 11 12  1  0  0  0
 11 92  1  0  0  0
 12 13  2  0  0  0
 12 93  1  0  0  0
 13 14  1  0  0  0
 13 31  1  0  0  0
 14 15  2  0  0  0
 14 94  1  0  0  0
 15 95  1  0  0  0
 16 17  2  0  0  0
 16 21  1  0  0  0
 16 31  1  0  0  0
 17 18  1  0  0  0
 17 96  1  0  0  0
 18 19  2  0  0  0
 18 97  1  0  0  0
 19 20  1  0  0  0
 19 24  1  0  0  0
 20 21  2  0  0  0
 20 98  1  0  0  0
 21 23  1  0  0  0
 22 28  1  0  0  0
 22 32  2  0  0  0
 26 27  1  0  0  0
 28 99  1  0  0  0
 28100  1  0  0  0
 29101  1  0  0  0
 29102  1  0  0  0
 33 34  1  0  0  0
 33 66  1  0  0  0
 33 70  2  0  0  0
 34 36  1  0  0  0
 34 59  1  0  0  0
 34103  1  0  0  0
 35 44  2  0  0  0
 35 45  1  0  0  0
 35 68  1  0  0  0
 36 56  1  0  0  0
 36104  1  0  0  0
 37 39  1  0  0  0
 37 47  1  0  0  0
 37 66  1  0  0  0
 37105  1  0  0  0
 38 43  2  0  0  0
 38 46  1  0  0  0
 38 47  1  0  0  0
 39 64  1  0  0  0
 39 67  2  0  0  0
 40 52  1  0  0  0
 40 53  2  0  0  0
 40 58  1  0  0  0
 41106  1  0  0  0
 41107  1  0  0  0
 41108  1  0  0  0
 41 48  1  0  0  0
 42 43  1  0  0  0
 42 66  1  0  0  0
 42109  1  0  0  0
 42110  1  0  0  0
 43 44  1  0  0  0
 44111  1  0  0  0
 45 46  2  0  0  0
 45112  1  0  0  0
 46113  1  0  0  0
 47114  1  0  0  0
 47115  1  0  0  0
 48 56  1  0  0  0
 48 65  1  0  0  0
 48116  1  0  0  0
 49 50  1  0  0  0
 49 53  1  0  0  0
 49 64  1  0  0  0
 49117  1  0  0  0
 50 51  1  0  0  0
 50118  1  0  0  0
 50119  1  0  0  0
 51 52  1  0  0  0
 51120  1  0  0  0
 51121  1  0  0  0
 52122  1  0  0  0
 52123  1  0  0  0
 53 54  1  0  0  0
 54 55  2  0  0  0
 54124  1  0  0  0
 55 57  1  0  0  0
 55125  1  0  0  0
 56 69  2  0  0  0
 57 58  2  0  0  0
 57126  1  0  0  0
 58127  1  0  0  0
 59 60  1  0  0  0
 59 61  1  0  0  0
 59 62  1  0  0  0
 60128  1  0  0  0
 60129  1  0  0  0
 60130  1  0  0  0
 61131  1  0  0  0
 61132  1  0  0  0
 61133  1  0  0  0
 62134  1  0  0  0
 62135  1  0  0  0
 62136  1  0  0  0
 63 65  1  0  0  0
 63137  1  0  0  0
 63138  1  0  0  0
 63139  1  0  0  0
 64140  1  0  0  0
 65141  1  0  0  0
 68 77  1  0  0  0
 71 72  2  0  0  0
 71 78  1  0  0  0
 71142  1  0  0  0
 72 79  1  0  0  0
 72 82  1  0  0  0
 73 78  2  0  0  0
 73 80  1  0  0  0
 73 82  1  0  0  0
 74 75  1  0  0  0
 74 79  1  0  0  0
 74 81  2  0  0  0
 75 76  1  0  0  0
 75143  1  0  0  0
 75144  1  0  0  0
 76 77  1  0  0  0
 76145  1  0  0  0
 76146  1  0  0  0
 77147  1  0  0  0
 77148  1  0  0  0
 79149  1  0  0  0
 80150  1  0  0  0
M  ISO  4   1 100  68 101  77 101  80 100
M  END
> <chiral flag>
0

> <version>
0

> <s_m_source_file>
/data/baiqing/PycharmProjects/Reinvent-master-3.2/result/LINK_invent/BTK/process_docking_weight1_custom_product_contain_oxygen_bond_distance_aromatic_linkinvent_7_9_3/rearranged_h_0198.sdf

> <i_m_source_file_index>
27

> <r_mmod_Potential_Energy-OPLS-2005>
-156.581497192383

> <r_mmod_Stretch_Energy-OPLS-2005>
41.9275741577148

> <r_mmod_Bend_Energy-OPLS-2005>
118.231414794922

> <r_mmod_Torsional_Energy-OPLS-2005>
238.315902709961

> <r_mmod_Improper_Torsional_Energy-OPLS-2005>
4.09830379486084

> <r_mmod_Van_der_Waal_Energy-OPLS-2005>
127.40062713623

> <r_mmod_Electrostatic_Energy-OPLS-2005>
-478.394378662109

> <r_mmod_Solvation_Energy-OPLS-2005>
-225.252182006836

> <b_mmod_Minimization_Converged-OPLS-2005>
0

> <r_mmod_RMS_Derivative-OPLS-2005>
1.67451012134552

$$$$
27
                    3D
 Structure written by MMmdl.
153161  0  0  1  0            999 V2000
  -30.5894  -14.8313   20.4359 C   0  0  0  0  0  0
  -30.4375  -12.5131   19.4915 C   0  0  0  0  0  0
  -29.5164  -12.5052   18.2521 C   0  0  0  0  0  0
  -28.0537  -12.2877   18.6803 C   0  0  0  0  0  0
  -27.6366  -13.2175   19.8497 C   0  0  2  0  0  0
  -28.6783  -13.2220   20.9887 C   0  0  0  0  0  0
  -25.2472  -13.8066   20.5759 C   0  0  0  0  0  0
  -24.1772  -13.0345   20.9282 C   0  0  0  0  0  0
  -24.6381  -11.6834   20.8843 C   0  0  0  0  0  0
  -23.9085  -10.4224   21.0485 C   0  0  0  0  0  0
  -24.3630   -9.4127   21.9256 C   0  0  0  0  0  0
  -23.6288   -8.2171   22.0803 C   0  0  0  0  0  0
  -22.4294   -8.0235   21.3560 C   0  0  0  0  0  0
  -21.9934   -9.0216   20.4678 C   0  0  0  0  0  0
  -22.7261  -10.2096   20.3119 C   0  0  0  0  0  0
  -21.6830   -6.0712   22.5298 C   0  0  0  0  0  0
  -21.3985   -6.5611   23.8233 C   0  0  0  0  0  0
  -21.3632   -5.6768   24.9195 C   0  0  0  0  0  0
  -21.6026   -4.3035   24.7251 C   0  0  0  0  0  0
  -21.8842   -3.8130   23.4381 C   0  0  0  0  0  0
  -21.9192   -4.6939   22.3430 C   0  0  0  0  0  0
  -22.7790  -13.5165   21.1881 C   0  0  0  0  0  0
  -22.1668   -4.2112   21.1019 F   0  0  0  0  0  0
  -21.5618   -3.4520   25.7774 F   0  0  0  0  0  0
  -29.9708  -13.5936   20.3965 N   0  0  0  0  0  0
  -26.2915  -12.9283   20.3305 N   0  0  0  0  0  0
  -25.9304  -11.6448   20.5805 N   0  0  0  0  0  0
  -22.0363  -12.8258   22.0461 N   0  0  0  0  0  0
  -25.4013  -15.1770   20.4231 N   0  0  0  0  0  0
  -31.7803  -14.9075   20.1210 O   0  0  0  0  0  0
  -21.6638   -6.8844   21.4251 O   0  0  0  0  0  0
  -22.3518  -14.5469   20.6682 O   0  0  0  0  0  0
  -24.6289  -31.8510   23.1983 C   0  0  0  0  0  0
  -25.9119  -32.4729   23.8322 C   0  0  1  0  0  0
  -27.2398  -27.2569   20.1315 C   0  0  0  0  0  0
  -25.5912  -33.8536   24.2261 N   0  0  0  0  0  0
  -23.4290  -30.4716   21.5377 C   0  0  2  0  0  0
  -24.8820  -28.9122   20.1092 C   0  0  0  0  0  0
  -22.7498  -29.4574   22.4900 C   0  0  0  0  0  0
  -18.0285  -28.1378   22.8493 C   0  0  0  0  0  0
  -24.1465  -36.7237   23.2648 C   0  0  0  0  0  0
  -25.9722  -30.7654   21.3773 C   0  0  0  0  0  0
  -26.0477  -29.3843   20.7227 C   0  0  0  0  0  0
  -27.2221  -28.5668   20.7242 C   0  0  0  0  0  0
  -26.0495  -26.8470   19.4897 C   0  0  0  0  0  0
  -24.8895  -27.6549   19.4819 C   0  0  0  0  0  0
  -23.6515  -29.8014   20.1543 C   0  0  0  0  0  0
  -25.4097  -36.3052   24.0334 C   0  0  1  0  0  0
  -20.5887  -28.3672   23.1271 C   0  0  2  0  0  0
  -20.6747  -26.9382   22.5421 C   0  0  0  0  0  0
  -19.5731  -26.6377   21.5208 C   0  0  0  0  0  0
  -18.1918  -26.7917   22.1634 C   0  0  0  0  0  0
  -19.1542  -28.8850   23.2875 C   0  0  0  0  0  0
  -18.9464  -30.1450   23.8897 C   0  0  0  0  0  0
  -17.6467  -30.6585   24.0560 C   0  0  0  0  0  0
  -25.9050  -34.9416   23.5106 C   0  0  0  0  0  0
  -16.5353  -29.9086   23.6333 C   0  0  0  0  0  0
  -16.7273  -28.6495   23.0363 C   0  0  0  0  0  0
  -26.4507  -31.6547   25.0704 C   0  0  0  0  0  0
  -25.3739  -31.3658   26.1426 C   0  0  0  0  0  0
  -27.0349  -30.2968   24.6162 C   0  0  0  0  0  0
  -27.6069  -32.4272   25.7471 C   0  0  0  0  0  0
  -27.5558  -37.1772   24.8486 C   0  0  0  0  0  0
  -21.4197  -29.3009   22.3651 N   0  0  0  0  0  0
  -26.4269  -37.3758   23.9437 N   0  0  0  0  0  0
  -24.6957  -31.0468   22.0949 N   0  0  0  0  0  0
  -23.4191  -28.8130   23.3020 O   0  0  0  0  0  0
  -28.3777  -26.4181   20.2175 O   0  0  0  0  0  0
  -26.5634  -34.8903   22.4687 O   0  0  0  0  0  0
  -23.5439  -32.1345   23.7275 O   0  0  0  0  0  0
  -27.6088  -19.7913   18.8558 C   0  0  0  0  0  0
  -28.3398  -18.6305   19.1665 C   0  0  0  0  0  0
  -29.3770  -18.7418   20.1172 C   0  0  0  0  0  0
  -28.9106  -21.1179   20.1759 C   0  0  0  0  0  0
  -30.2933  -17.4739   20.5429 C   0  0  0  0  0  0
  -28.3330  -23.6949   20.6760 C   0  0  0  0  0  0
  -28.4898  -24.9980   19.7202 C   0  0  0  0  0  0
  -27.9996  -17.3360   18.4579 C   0  0  0  0  0  0
  -27.8824  -21.0132   19.3620 N   0  0  0  0  0  0
  -29.6568  -20.0387   20.5796 N   0  0  0  0  0  0
  -29.2358  -22.4676   20.5255 N   0  0  0  0  0  0
  -29.8399  -15.9949   20.6314 N   0  0  0  0  0  0
  -27.4383  -16.5373   19.3509 F   0  0  0  0  0  0
  -27.1343  -17.5148   17.4623 F   0  0  0  0  0  0
  -29.0882  -16.7574   17.9567 F   0  0  0  0  0  0
  -31.4770  -12.6535   19.1870 H   0  0  0  0  0  0
  -30.4092  -11.5504   20.0029 H   0  0  0  0  0  0
  -29.8261  -11.7207   17.5602 H   0  0  0  0  0  0
  -29.6072  -13.4469   17.7106 H   0  0  0  0  0  0
  -27.9652  -11.2480   18.9962 H   0  0  0  0  0  0
  -27.3812  -12.4046   17.8315 H   0  0  0  0  0  0
  -27.6112  -14.2117   19.4191 H   0  0  0  0  0  0
  -28.7418  -12.2449   21.4685 H   0  0  0  0  0  0
  -28.3942  -13.9284   21.7714 H   0  0  0  0  0  0
  -25.2735   -9.5575   22.4900 H   0  0  0  0  0  0
  -23.9946   -7.4547   22.7531 H   0  0  0  0  0  0
  -21.0841   -8.8789   19.9003 H   0  0  0  0  0  0
  -22.3736  -10.9668   19.6256 H   0  0  0  0  0  0
  -21.1981   -7.6115   23.9712 H   0  0  0  0  0  0
  -21.1410   -6.0506   25.9081 H   0  0  0  0  0  0
  -22.0654   -2.7591   23.2918 H   0  0  0  0  0  0
  -22.3852  -11.9939   22.4973 H   0  0  0  0  0  0
  -21.0986  -13.1404   22.2533 H   0  0  0  0  0  0
  -24.6257  -15.8187   20.5307 H   0  0  0  0  0  0
  -26.2336  -15.6234   20.0509 H   0  0  0  0  0  0
  -26.7175  -32.5402   23.1054 H   0  0  0  0  0  0
  -25.0018  -33.9652   25.0377 H   0  0  0  0  0  0
  -22.7251  -31.2941   21.3896 H   0  0  0  0  0  0
  -23.3743  -35.9556   23.3322 H   0  0  0  0  0  0
  -24.3554  -36.8850   22.2066 H   0  0  0  0  0  0
  -23.7193  -37.6423   23.6668 H   0  0  0  0  0  0
  -26.1051  -31.5244   20.6066 H   0  0  0  0  0  0
  -26.8500  -30.8226   22.0081 H   0  0  0  0  0  0
  -28.1159  -28.9220   21.2160 H   0  0  0  0  0  0
  -25.9875  -25.8847   19.0026 H   0  0  0  0  0  0
  -23.9973  -27.2895   18.9920 H   0  0  0  0  0  0
  -23.7840  -30.5796   19.4014 H   0  0  0  0  0  0
  -22.7701  -29.2392   19.8412 H   0  0  0  0  0  0
  -25.1279  -36.1888   25.0821 H   0  0  0  0  0  0
  -20.9987  -28.3242   24.1388 H   0  0  0  0  0  0
  -20.5601  -26.2276   23.3621 H   0  0  0  0  0  0
  -21.6613  -26.7368   22.1242 H   0  0  0  0  0  0
  -19.6871  -25.6290   21.1227 H   0  0  0  0  0  0
  -19.6663  -27.3193   20.6740 H   0  0  0  0  0  0
  -17.4171  -26.6661   21.4052 H   0  0  0  0  0  0
  -18.0328  -26.0057   22.9032 H   0  0  0  0  0  0
  -19.7940  -30.7257   24.2266 H   0  0  0  0  0  0
  -17.5023  -31.6270   24.5149 H   0  0  0  0  0  0
  -15.5354  -30.2992   23.7650 H   0  0  0  0  0  0
  -15.8665  -28.0814   22.7090 H   0  0  0  0  0  0
  -24.5950  -30.6964   25.7752 H   0  0  0  0  0  0
  -24.8883  -32.2798   26.4850 H   0  0  0  0  0  0
  -25.8089  -30.8847   27.0199 H   0  0  0  0  0  0
  -26.2892  -29.6676   24.1285 H   0  0  0  0  0  0
  -27.4138  -29.7274   25.4659 H   0  0  0  0  0  0
  -27.8734  -30.4233   23.9314 H   0  0  0  0  0  0
  -27.2697  -33.3583   26.2032 H   0  0  0  0  0  0
  -28.3895  -32.6796   25.0305 H   0  0  0  0  0  0
  -28.0708  -31.8387   26.5398 H   0  0  0  0  0  0
  -28.2597  -38.0046   24.7520 H   0  0  0  0  0  0
  -28.1028  -36.2581   24.6331 H   0  0  0  0  0  0
  -27.2277  -37.1446   25.8889 H   0  0  0  0  0  0
  -20.9386  -29.8719   21.6839 H   0  0  0  0  0  0
  -26.0135  -38.2815   24.1489 H   0  0  0  0  0  0
  -26.7891  -19.7711   18.1524 H   0  0  0  0  0  0
  -31.1292  -17.4963   19.8447 H   0  0  0  0  0  0
  -30.7321  -17.7104   21.5106 H   0  0  0  0  0  0
  -27.2892  -23.3726   20.6531 H   0  0  0  0  0  0
  -28.4868  -24.0470   21.6970 H   0  0  0  0  0  0
  -27.8669  -24.8588   18.8384 H   0  0  0  0  0  0
  -29.5039  -24.9519   19.3229 H   0  0  0  0  0  0
  -30.0871  -22.5345   21.0757 H   0  0  0  0  0  0
  -28.8759  -15.8596   20.8991 H   0  0  0  0  0  0
  1 25  1  0  0  0
  1 30  2  0  0  0
  1 82  1  0  0  0
  2  3  1  0  0  0
  2 25  1  0  0  0
  2 86  1  0  0  0
  2 87  1  0  0  0
  3  4  1  0  0  0
  3 88  1  0  0  0
  3 89  1  0  0  0
  4  5  1  0  0  0
  4 90  1  0  0  0
  4 91  1  0  0  0
  5  6  1  0  0  0
  5 26  1  0  0  0
  5 92  1  0  0  0
  6 25  1  0  0  0
  6 93  1  0  0  0
  6 94  1  0  0  0
  7  8  2  0  0  0
  7 26  1  0  0  0
  7 29  1  0  0  0
  8  9  1  0  0  0
  8 22  1  0  0  0
  9 10  1  0  0  0
  9 27  2  0  0  0
 10 11  2  0  0  0
 10 15  1  0  0  0
 11 12  1  0  0  0
 11 95  1  0  0  0
 12 13  2  0  0  0
 12 96  1  0  0  0
 13 14  1  0  0  0
 13 31  1  0  0  0
 14 15  2  0  0  0
 14 97  1  0  0  0
 15 98  1  0  0  0
 16 17  2  0  0  0
 16 21  1  0  0  0
 16 31  1  0  0  0
 17 18  1  0  0  0
 17 99  1  0  0  0
 18 19  2  0  0  0
 18100  1  0  0  0
 19 20  1  0  0  0
 19 24  1  0  0  0
 20 21  2  0  0  0
 20101  1  0  0  0
 21 23  1  0  0  0
 22 28  1  0  0  0
 22 32  2  0  0  0
 26 27  1  0  0  0
 28102  1  0  0  0
 28103  1  0  0  0
 29104  1  0  0  0
 29105  1  0  0  0
 33 34  1  0  0  0
 33 66  1  0  0  0
 33 70  2  0  0  0
 34 36  1  0  0  0
 34 59  1  0  0  0
 34106  1  0  0  0
 35 44  2  0  0  0
 35 45  1  0  0  0
 35 68  1  0  0  0
 36 56  1  0  0  0
 36107  1  0  0  0
 37 39  1  0  0  0
 37 47  1  0  0  0
 37 66  1  0  0  0
 37108  1  0  0  0
 38 43  2  0  0  0
 38 46  1  0  0  0
 38 47  1  0  0  0
 39 64  1  0  0  0
 39 67  2  0  0  0
 40 52  1  0  0  0
 40 53  2  0  0  0
 40 58  1  0  0  0
 41109  1  0  0  0
 41110  1  0  0  0
 41111  1  0  0  0
 41 48  1  0  0  0
 42 43  1  0  0  0
 42 66  1  0  0  0
 42112  1  0  0  0
 42113  1  0  0  0
 43 44  1  0  0  0
 44114  1  0  0  0
 45 46  2  0  0  0
 45115  1  0  0  0
 46116  1  0  0  0
 47117  1  0  0  0
 47118  1  0  0  0
 48 56  1  0  0  0
 48 65  1  0  0  0
 48119  1  0  0  0
 49 50  1  0  0  0
 49 53  1  0  0  0
 49 64  1  0  0  0
 49120  1  0  0  0
 50 51  1  0  0  0
 50121  1  0  0  0
 50122  1  0  0  0
 51 52  1  0  0  0
 51123  1  0  0  0
 51124  1  0  0  0
 52125  1  0  0  0
 52126  1  0  0  0
 53 54  1  0  0  0
 54 55  2  0  0  0
 54127  1  0  0  0
 55 57  1  0  0  0
 55128  1  0  0  0
 56 69  2  0  0  0
 57 58  2  0  0  0
 57129  1  0  0  0
 58130  1  0  0  0
 59 60  1  0  0  0
 59 61  1  0  0  0
 59 62  1  0  0  0
 60131  1  0  0  0
 60132  1  0  0  0
 60133  1  0  0  0
 61134  1  0  0  0
 61135  1  0  0  0
 61136  1  0  0  0
 62137  1  0  0  0
 62138  1  0  0  0
 62139  1  0  0  0
 63 65  1  0  0  0
 63140  1  0  0  0
 63141  1  0  0  0
 63142  1  0  0  0
 64143  1  0  0  0
 65144  1  0  0  0
 68 77  1  0  0  0
 71 72  2  0  0  0
 71 79  1  0  0  0
 71145  1  0  0  0
 72 73  1  0  0  0
 72 78  1  0  0  0
 73 75  1  0  0  0
 73 80  2  0  0  0
 74 79  2  0  0  0
 74 80  1  0  0  0
 74 81  1  0  0  0
 75 82  1  0  0  0
 75146  1  0  0  0
 75147  1  0  0  0
 76 77  1  0  0  0
 76 81  1  0  0  0
 76148  1  0  0  0
 76149  1  0  0  0
 77150  1  0  0  0
 77151  1  0  0  0
 78 83  1  0  0  0
 78 84  1  0  0  0
 78 85  1  0  0  0
 81152  1  0  0  0
 82153  1  0  0  0
M  ISO  4   1 100  68 101  77 101  82 100
M  END
> <chiral flag>
0

> <version>
0

> <s_m_source_file>
/data/baiqing/PycharmProjects/Reinvent-master-3.2/result/LINK_invent/BTK/process_docking_weight1_custom_product_contain_oxygen_bond_distance_aromatic_linkinvent_7_9_3/rearranged_h_0198.sdf

> <i_m_source_file_index>
28

> <r_mmod_Potential_Energy-OPLS-2005>
-504.867248535156

> <r_mmod_Stretch_Energy-OPLS-2005>
138.313430786133

> <r_mmod_Bend_Energy-OPLS-2005>
210.434509277344

> <r_mmod_Torsional_Energy-OPLS-2005>
196.539825439453

> <r_mmod_Improper_Torsional_Energy-OPLS-2005>
6.42601585388184

> <r_mmod_Van_der_Waal_Energy-OPLS-2005>
150.761291503906

> <r_mmod_Electrostatic_Energy-OPLS-2005>
-1077.20971679688

> <r_mmod_Solvation_Energy-OPLS-2005>
-238.127105712891

> <b_mmod_Minimization_Converged-OPLS-2005>
0

> <r_mmod_RMS_Derivative-OPLS-2005>
4.20403480529785

$$$$
28
                    3D
 Structure written by MMmdl.
172180  0  0  1  0            999 V2000
  -30.6767  -14.5837   20.4748 C   0  0  0  0  0  0
  -30.4234  -12.3434   19.4619 C   0  0  0  0  0  0
  -29.5077  -12.4891   18.2271 C   0  0  0  0  0  0
  -28.0335  -12.3359   18.6402 C   0  0  0  0  0  0
  -27.6568  -13.2182   19.8613 C   0  0  2  0  0  0
  -28.6970  -13.0802   20.9934 C   0  0  0  0  0  0
  -25.2564  -13.8188   20.5636 C   0  0  0  0  0  0
  -24.1827  -13.0455   20.9129 C   0  0  0  0  0  0
  -24.6400  -11.6932   20.8702 C   0  0  0  0  0  0
  -23.9047  -10.4317   21.0361 C   0  0  0  0  0  0
  -24.3604   -9.4249   21.9146 C   0  0  0  0  0  0
  -23.6262   -8.2304   22.0746 C   0  0  0  0  0  0
  -22.4244   -8.0313   21.3560 C   0  0  0  0  0  0
  -21.9870   -9.0275   20.4655 C   0  0  0  0  0  0
  -22.7192  -10.2157   20.3033 C   0  0  0  0  0  0
  -21.6882   -6.0721   22.5243 C   0  0  0  0  0  0
  -21.4020   -6.5621   23.8169 C   0  0  0  0  0  0
  -21.3658   -5.6762   24.9127 C   0  0  0  0  0  0
  -21.6011   -4.3023   24.7173 C   0  0  0  0  0  0
  -21.8837   -3.8135   23.4305 C   0  0  0  0  0  0
  -21.9213   -4.6959   22.3375 C   0  0  0  0  0  0
  -22.7856  -13.5287   21.1747 C   0  0  0  0  0  0
  -22.1692   -4.2144   21.0961 F   0  0  0  0  0  0
  -21.5594   -3.4508   25.7685 F   0  0  0  0  0  0
  -30.0255  -13.3798   20.4342 N   0  0  0  0  0  0
  -26.3013  -12.9375   20.3296 N   0  0  0  0  0  0
  -25.9326  -11.6535   20.5712 N   0  0  0  0  0  0
  -22.0508  -12.8381   22.0356 N   0  0  0  0  0  0
  -25.4254  -15.1924   20.4071 N   0  0  0  0  0  0
  -31.8395  -14.6947   20.0734 O   0  0  0  0  0  0
  -21.6643   -6.8888   21.4227 O   0  0  0  0  0  0
  -22.3595  -14.5603   20.6581 O   0  0  0  0  0  0
  -24.6241  -31.8632   23.2084 C   0  0  0  0  0  0
  -25.9089  -32.4804   23.8408 C   0  0  1  0  0  0
  -27.2315  -27.3645   20.1241 C   0  0  0  0  0  0
  -25.5935  -33.8611   24.2365 N   0  0  0  0  0  0
  -23.4155  -30.4818   21.5524 C   0  0  2  0  0  0
  -24.8668  -28.9403   20.1202 C   0  0  0  0  0  0
  -22.7475  -29.4613   22.5020 C   0  0  0  0  0  0
  -18.0246  -28.1393   22.8479 C   0  0  0  0  0  0
  -24.1481  -36.7293   23.2626 C   0  0  0  0  0  0
  -25.9507  -30.8097   21.3662 C   0  0  0  0  0  0
  -26.0317  -29.4351   20.7221 C   0  0  0  0  0  0
  -27.2189  -28.6565   20.7209 C   0  0  0  0  0  0
  -26.0518  -26.9055   19.5014 C   0  0  0  0  0  0
  -24.8759  -27.6800   19.5005 C   0  0  0  0  0  0
  -23.6298  -29.8118   20.1695 C   0  0  0  0  0  0
  -25.4093  -36.3117   24.0352 C   0  0  1  0  0  0
  -20.5858  -28.3680   23.1306 C   0  0  2  0  0  0
  -20.6736  -26.9402   22.5416 C   0  0  0  0  0  0
  -19.5725  -26.6406   21.5204 C   0  0  0  0  0  0
  -18.1902  -26.7931   22.1619 C   0  0  0  0  0  0
  -19.1495  -28.8851   23.2884 C   0  0  0  0  0  0
  -18.9430  -30.1463   23.8909 C   0  0  0  0  0  0
  -17.6434  -30.6589   24.0567 C   0  0  0  0  0  0
  -25.9045  -34.9474   23.5155 C   0  0  0  0  0  0
  -16.5327  -29.9102   23.6322 C   0  0  0  0  0  0
  -16.7239  -28.6517   23.0330 C   0  0  0  0  0  0
  -26.4506  -31.6562   25.0726 C   0  0  0  0  0  0
  -25.3774  -31.3637   26.1477 C   0  0  0  0  0  0
  -27.0326  -30.3012   24.6066 C   0  0  0  0  0  0
  -27.6162  -32.4207   25.7436 C   0  0  0  0  0  0
  -27.5575  -37.1795   24.8471 C   0  0  0  0  0  0
  -21.4189  -29.3035   22.3739 N   0  0  0  0  0  0
  -26.4283  -37.3800   23.9434 N   0  0  0  0  0  0
  -24.6841  -31.0660   22.1028 N   0  0  0  0  0  0
  -23.4210  -28.8143   23.3064 O   0  0  0  0  0  0
  -28.3397  -26.5275   20.1362 O   0  0  0  0  0  0
  -26.5595  -34.8934   22.4711 O   0  0  0  0  0  0
  -23.5416  -32.1414   23.7416 O   0  0  0  0  0  0
  -30.5059  -18.7494   18.8801 C   0  0  0  0  0  0
  -29.9461  -19.5315   19.8762 C   0  0  0  0  0  0
  -30.0827  -17.0466   20.3857 C   0  0  0  0  0  0
  -29.8822  -19.7679   16.6265 C   0  0  0  0  0  0
  -32.2057  -21.0855   23.1269 C   0  0  0  0  0  0
  -34.0279  -20.8186   21.4053 C   0  0  0  0  0  0
  -31.0025  -19.2249   17.5371 C   0  0  0  0  0  0
  -31.8270  -21.8243   20.7070 C   0  0  0  0  0  0
  -29.8798  -23.4109   20.4069 C   0  0  0  0  0  0
  -28.2840  -25.4532   21.1264 C   0  0  0  0  0  0
  -32.5079  -20.8068   21.6434 C   0  0  0  0  0  0
  -30.2714  -21.9105   20.7349 C   0  0  1  0  0  0
  -28.4370  -23.9281   20.7084 C   0  0  1  0  0  0
  -30.5640  -17.3689   19.1760 N   0  0  0  0  0  0
  -29.6869  -20.9326   19.7940 N   0  0  0  0  0  0
  -29.9534  -15.6753   20.8503 N   0  0  0  0  0  0
  -27.4835  -23.5071   19.6580 N   0  3  0  0  0  0
  -29.4885  -18.4987   21.2438 S   0  0  0  0  0  0
  -31.4741  -12.4163   19.1757 H   0  0  0  0  0  0
  -30.3059  -11.3517   19.9006 H   0  0  0  0  0  0
  -29.7633  -11.7335   17.4824 H   0  0  0  0  0  0
  -29.6672  -13.4563   17.7519 H   0  0  0  0  0  0
  -27.8789  -11.2853   18.8880 H   0  0  0  0  0  0
  -27.3718  -12.5429   17.7987 H   0  0  0  0  0  0
  -27.6820  -14.2517   19.5185 H   0  0  0  0  0  0
  -28.6800  -12.0696   21.4052 H   0  0  0  0  0  0
  -28.4503  -13.7423   21.8230 H   0  0  0  0  0  0
  -25.2762   -9.5748   22.4694 H   0  0  0  0  0  0
  -23.9948   -7.4718   22.7526 H   0  0  0  0  0  0
  -21.0752   -8.8802   19.9011 H   0  0  0  0  0  0
  -22.3605  -10.9673   19.6159 H   0  0  0  0  0  0
  -21.2033   -7.6128   23.9669 H   0  0  0  0  0  0
  -21.1437   -6.0487   25.9006 H   0  0  0  0  0  0
  -22.0615   -2.7583   23.2795 H   0  0  0  0  0  0
  -22.4107  -12.0092   22.4892 H   0  0  0  0  0  0
  -21.1173  -13.1538   22.2508 H   0  0  0  0  0  0
  -24.6445  -15.8366   20.4645 H   0  0  0  0  0  0
  -26.2749  -15.6298   20.0770 H   0  0  0  0  0  0
  -26.7174  -32.5510   23.1190 H   0  0  0  0  0  0
  -25.0125  -33.9765   25.0538 H   0  0  0  0  0  0
  -22.7073  -31.3004   21.4089 H   0  0  0  0  0  0
  -23.3761  -35.9609   23.3286 H   0  0  0  0  0  0
  -24.3580  -36.8885   22.2039 H   0  0  0  0  0  0
  -23.7207  -37.6493   23.6622 H   0  0  0  0  0  0
  -26.0486  -31.5598   20.5808 H   0  0  0  0  0  0
  -26.8465  -30.8874   21.9709 H   0  0  0  0  0  0
  -28.1143  -29.0301   21.2006 H   0  0  0  0  0  0
  -26.0299  -25.9371   19.0267 H   0  0  0  0  0  0
  -23.9844  -27.2954   19.0278 H   0  0  0  0  0  0
  -23.7446  -30.5867   19.4108 H   0  0  0  0  0  0
  -22.7535  -29.2345   19.8716 H   0  0  0  0  0  0
  -25.1247  -36.1996   25.0842 H   0  0  0  0  0  0
  -20.9905  -28.3231   24.1447 H   0  0  0  0  0  0
  -20.5601  -26.2296   23.3613 H   0  0  0  0  0  0
  -21.6606  -26.7433   22.1222 H   0  0  0  0  0  0
  -19.6893  -25.6337   21.1195 H   0  0  0  0  0  0
  -19.6647  -27.3247   20.6759 H   0  0  0  0  0  0
  -17.4160  -26.6663   21.4025 H   0  0  0  0  0  0
  -18.0313  -26.0069   22.9015 H   0  0  0  0  0  0
  -19.7905  -30.7256   24.2300 H   0  0  0  0  0  0
  -17.4987  -31.6256   24.5188 H   0  0  0  0  0  0
  -15.5326  -30.3011   23.7645 H   0  0  0  0  0  0
  -15.8637  -28.0861   22.7045 H   0  0  0  0  0  0
  -24.6027  -30.6877   25.7819 H   0  0  0  0  0  0
  -24.8847  -32.2753   26.4874 H   0  0  0  0  0  0
  -25.8131  -30.8883   27.0275 H   0  0  0  0  0  0
  -26.2884  -29.6774   24.1102 H   0  0  0  0  0  0
  -27.4122  -29.7214   25.4486 H   0  0  0  0  0  0
  -27.8698  -30.4338   23.9208 H   0  0  0  0  0  0
  -27.2931  -33.3551   26.2025 H   0  0  0  0  0  0
  -28.3957  -32.6650   25.0204 H   0  0  0  0  0  0
  -28.0857  -31.8285   26.5306 H   0  0  0  0  0  0
  -28.2616  -38.0072   24.7523 H   0  0  0  0  0  0
  -28.1070  -36.2623   24.6299 H   0  0  0  0  0  0
  -27.2311  -37.1414   25.8878 H   0  0  0  0  0  0
  -20.9424  -29.8798   21.6953 H   0  0  0  0  0  0
  -26.0184  -38.2878   24.1471 H   0  0  0  0  0  0
  -30.2640  -19.9632   15.6238 H   0  0  0  0  0  0
  -29.4601  -20.7003   17.0024 H   0  0  0  0  0  0
  -29.0624  -19.0579   16.5310 H   0  0  0  0  0  0
  -32.7993  -20.4437   23.7776 H   0  0  0  0  0  0
  -31.1585  -20.9056   23.3641 H   0  0  0  0  0  0
  -32.4382  -22.1192   23.3907 H   0  0  0  0  0  0
  -34.5444  -20.1119   22.0557 H   0  0  0  0  0  0
  -34.4517  -21.8070   21.5911 H   0  0  0  0  0  0
  -34.2697  -20.5452   20.3794 H   0  0  0  0  0  0
  -31.4990  -18.4079   17.0134 H   0  0  0  0  0  0
  -31.7702  -19.9895   17.6773 H   0  0  0  0  0  0
  -32.1646  -21.6677   19.6811 H   0  0  0  0  0  0
  -32.2483  -22.7944   20.9687 H   0  0  0  0  0  0
  -30.1743  -23.6730   19.3921 H   0  0  0  0  0  0
  -30.5111  -24.0294   21.0455 H   0  0  0  0  0  0
  -29.0633  -25.6701   21.8590 H   0  0  0  0  0  0
  -27.3658  -25.5460   21.7091 H   0  0  0  0  0  0
  -32.1614  -19.8046   21.4048 H   0  0  0  0  0  0
  -29.9044  -21.6865   21.7351 H   0  0  0  0  0  0
  -28.1306  -23.3804   21.6021 H   0  0  0  0  0  0
  -29.8391  -21.2062   18.8295 H   0  0  0  0  0  0
  -29.1359  -15.4800   21.4021 H   0  0  0  0  0  0
  -27.6715  -23.9631   18.7836 H   0  0  0  0  0  0
  -26.5308  -23.6890   19.9271 H   0  0  0  0  0  0
  -27.5714  -22.5140   19.5148 H   0  0  0  0  0  0
  1 25  1  0  0  0
  1 30  2  0  0  0
  1 86  1  0  0  0
  2  3  1  0  0  0
  2 25  1  0  0  0
  2 89  1  0  0  0
  2 90  1  0  0  0
  3  4  1  0  0  0
  3 91  1  0  0  0
  3 92  1  0  0  0
  4  5  1  0  0  0
  4 93  1  0  0  0
  4 94  1  0  0  0
  5  6  1  0  0  0
  5 26  1  0  0  0
  5 95  1  0  0  0
  6 25  1  0  0  0
  6 96  1  0  0  0
  6 97  1  0  0  0
  7  8  2  0  0  0
  7 26  1  0  0  0
  7 29  1  0  0  0
  8  9  1  0  0  0
  8 22  1  0  0  0
  9 10  1  0  0  0
  9 27  2  0  0  0
 10 11  2  0  0  0
 10 15  1  0  0  0
 11 12  1  0  0  0
 11 98  1  0  0  0
 12 13  2  0  0  0
 12 99  1  0  0  0
 13 14  1  0  0  0
 13 31  1  0  0  0
 14 15  2  0  0  0
 14100  1  0  0  0
 15101  1  0  0  0
 16 17  2  0  0  0
 16 21  1  0  0  0
 16 31  1  0  0  0
 17 18  1  0  0  0
 17102  1  0  0  0
 18 19  2  0  0  0
 18103  1  0  0  0
 19 20  1  0  0  0
 19 24  1  0  0  0
 20 21  2  0  0  0
 20104  1  0  0  0
 21 23  1  0  0  0
 22 28  1  0  0  0
 22 32  2  0  0  0
 26 27  1  0  0  0
 28105  1  0  0  0
 28106  1  0  0  0
 29107  1  0  0  0
 29108  1  0  0  0
 33 34  1  0  0  0
 33 66  1  0  0  0
 33 70  2  0  0  0
 34 36  1  0  0  0
 34 59  1  0  0  0
 34109  1  0  0  0
 35 44  2  0  0  0
 35 45  1  0  0  0
 35 68  1  0  0  0
 36 56  1  0  0  0
 36110  1  0  0  0
 37 39  1  0  0  0
 37 47  1  0  0  0
 37 66  1  0  0  0
 37111  1  0  0  0
 38 43  2  0  0  0
 38 46  1  0  0  0
 38 47  1  0  0  0
 39 64  1  0  0  0
 39 67  2  0  0  0
 40 52  1  0  0  0
 40 53  2  0  0  0
 40 58  1  0  0  0
 41112  1  0  0  0
 41113  1  0  0  0
 41114  1  0  0  0
 41 48  1  0  0  0
 42 43  1  0  0  0
 42 66  1  0  0  0
 42115  1  0  0  0
 42116  1  0  0  0
 43 44  1  0  0  0
 44117  1  0  0  0
 45 46  2  0  0  0
 45118  1  0  0  0
 46119  1  0  0  0
 47120  1  0  0  0
 47121  1  0  0  0
 48 56  1  0  0  0
 48 65  1  0  0  0
 48122  1  0  0  0
 49 50  1  0  0  0
 49 53  1  0  0  0
 49 64  1  0  0  0
 49123  1  0  0  0
 50 51  1  0  0  0
 50124  1  0  0  0
 50125  1  0  0  0
 51 52  1  0  0  0
 51126  1  0  0  0
 51127  1  0  0  0
 52128  1  0  0  0
 52129  1  0  0  0
 53 54  1  0  0  0
 54 55  2  0  0  0
 54130  1  0  0  0
 55 57  1  0  0  0
 55131  1  0  0  0
 56 69  2  0  0  0
 57 58  2  0  0  0
 57132  1  0  0  0
 58133  1  0  0  0
 59 60  1  0  0  0
 59 61  1  0  0  0
 59 62  1  0  0  0
 60134  1  0  0  0
 60135  1  0  0  0
 60136  1  0  0  0
 61137  1  0  0  0
 61138  1  0  0  0
 61139  1  0  0  0
 62140  1  0  0  0
 62141  1  0  0  0
 62142  1  0  0  0
 63 65  1  0  0  0
 63143  1  0  0  0
 63144  1  0  0  0
 63145  1  0  0  0
 64146  1  0  0  0
 65147  1  0  0  0
 68 80  1  0  0  0
 71 72  2  0  0  0
 71 77  1  0  0  0
 71 84  1  0  0  0
 72 85  1  0  0  0
 72 88  1  0  0  0
 73 84  2  0  0  0
 73 86  1  0  0  0
 73 88  1  0  0  0
 74 77  1  0  0  0
 74148  1  0  0  0
 74149  1  0  0  0
 74150  1  0  0  0
 75151  1  0  0  0
 75152  1  0  0  0
 75153  1  0  0  0
 75 81  1  0  0  0
 76 81  1  0  0  0
 76154  1  0  0  0
 76155  1  0  0  0
 76156  1  0  0  0
 77157  1  0  0  0
 77158  1  0  0  0
 78 81  1  0  0  0
 78159  1  0  0  0
 78160  1  0  0  0
 78 82  1  0  0  0
 79 82  1  0  0  0
 79 83  1  0  0  0
 79161  1  0  0  0
 79162  1  0  0  0
 80 83  1  0  0  0
 80163  1  0  0  0
 80164  1  0  0  0
 81165  1  0  0  0
 82 85  1  0  0  0
 82166  1  0  0  0
 83 87  1  0  0  0
 83167  1  0  0  0
 85168  1  0  0  0
 86169  1  0  0  0
 87170  1  0  0  0
 87171  1  0  0  0
 87172  1  0  0  0
M  CHG  1  87   1
M  ISO  4   1 100  68 101  80 101  86 100
M  END
> <chiral flag>
0

> <version>
0

> <s_m_source_file>
/data/baiqing/PycharmProjects/Reinvent-master-3.2/result/LINK_invent/BTK/process_docking_weight1_custom_product_contain_oxygen_bond_distance_aromatic_linkinvent_7_9_3/rearranged_h_0198.sdf

> <i_m_source_file_index>
29

> <r_mmod_Potential_Energy-OPLS-2005>
-133.368148803711

> <r_mmod_Stretch_Energy-OPLS-2005>
60.5196952819824

> <r_mmod_Bend_Energy-OPLS-2005>
140.917831420898

> <r_mmod_Torsional_Energy-OPLS-2005>
290.166473388672

> <r_mmod_Improper_Torsional_Energy-OPLS-2005>
9.07489776611328

> <r_mmod_Van_der_Waal_Energy-OPLS-2005>
110.093406677246

> <r_mmod_Electrostatic_Energy-OPLS-2005>
-313.325317382812

> <r_mmod_Solvation_Energy-OPLS-2005>
-464.968841552734

> <b_mmod_Minimization_Converged-OPLS-2005>
0

> <r_mmod_RMS_Derivative-OPLS-2005>
5.3868522644043

$$$$
29
                    3D
 Structure written by MMmdl.
159167  0  0  1  0            999 V2000
  -30.6190  -14.6711   20.4934 C   0  0  0  0  0  0
  -30.4427  -12.4133   19.4559 C   0  0  0  0  0  0
  -29.5163  -12.5283   18.2268 C   0  0  0  0  0  0
  -28.0398  -12.3581   18.6371 C   0  0  0  0  0  0
  -27.6538  -13.2254   19.8662 C   0  0  2  0  0  0
  -28.6977  -13.0946   20.9963 C   0  0  0  0  0  0
  -25.2564  -13.8176   20.5702 C   0  0  0  0  0  0
  -24.1843  -13.0378   20.9197 C   0  0  0  0  0  0
  -24.6448  -11.6896   20.8724 C   0  0  0  0  0  0
  -23.9130  -10.4259   21.0394 C   0  0  0  0  0  0
  -24.3672   -9.4184   21.9191 C   0  0  0  0  0  0
  -23.6318   -8.2226   22.0783 C   0  0  0  0  0  0
  -22.4292   -8.0273   21.3569 C   0  0  0  0  0  0
  -21.9949   -9.0241   20.4656 C   0  0  0  0  0  0
  -22.7307  -10.2108   20.3059 C   0  0  0  0  0  0
  -21.6854   -6.0742   22.5282 C   0  0  0  0  0  0
  -21.3992   -6.5653   23.8208 C   0  0  0  0  0  0
  -21.3665   -5.6820   24.9184 C   0  0  0  0  0  0
  -21.6060   -4.3074   24.7227 C   0  0  0  0  0  0
  -21.8828   -3.8157   23.4345 C   0  0  0  0  0  0
  -21.9178   -4.6969   22.3400 C   0  0  0  0  0  0
  -22.7865  -13.5150   21.1843 C   0  0  0  0  0  0
  -22.1665   -4.2165   21.0974 F   0  0  0  0  0  0
  -21.5620   -3.4554   25.7729 F   0  0  0  0  0  0
  -30.0098  -13.4408   20.4286 N   0  0  0  0  0  0
  -26.3005  -12.9383   20.3346 N   0  0  0  0  0  0
  -25.9396  -11.6528   20.5782 N   0  0  0  0  0  0
  -22.0535  -12.8108   22.0417 N   0  0  0  0  0  0
  -25.4133  -15.1896   20.4090 N   0  0  0  0  0  0
  -31.7974  -14.8032   20.1444 O   0  0  0  0  0  0
  -21.6631   -6.8893   21.4257 O   0  0  0  0  0  0
  -22.3528  -14.5450   20.6711 O   0  0  0  0  0  0
  -24.6262  -31.8561   23.1998 C   0  0  0  0  0  0
  -25.9103  -32.4757   23.8279 C   0  0  1  0  0  0
  -27.2315  -27.3038   20.1094 C   0  0  0  0  0  0
  -25.5884  -33.8546   24.2212 N   0  0  0  0  0  0
  -23.4199  -30.4785   21.5449 C   0  0  2  0  0  0
  -24.8684  -28.9313   20.1079 C   0  0  0  0  0  0
  -22.7487  -29.4576   22.4933 C   0  0  0  0  0  0
  -18.0247  -28.1426   22.8474 C   0  0  0  0  0  0
  -24.1477  -36.7321   23.2652 C   0  0  0  0  0  0
  -25.9598  -30.7858   21.3656 C   0  0  0  0  0  0
  -26.0351  -29.4067   20.7193 C   0  0  0  0  0  0
  -27.2157  -28.6025   20.7147 C   0  0  0  0  0  0
  -26.0527  -26.9072   19.4370 C   0  0  0  0  0  0
  -24.8814  -27.6920   19.4525 C   0  0  0  0  0  0
  -23.6347  -29.8121   20.1592 C   0  0  0  0  0  0
  -25.4099  -36.3063   24.0324 C   0  0  1  0  0  0
  -20.5864  -28.3714   23.1293 C   0  0  2  0  0  0
  -20.6726  -26.9414   22.5470 C   0  0  0  0  0  0
  -19.5676  -26.6371   21.5284 C   0  0  0  0  0  0
  -18.1857  -26.7948   22.1672 C   0  0  0  0  0  0
  -19.1512  -28.8881   23.2872 C   0  0  0  0  0  0
  -18.9459  -30.1507   23.8846 C   0  0  0  0  0  0
  -17.6466  -30.6620   24.0571 C   0  0  0  0  0  0
  -25.9063  -34.9440   23.5082 C   0  0  0  0  0  0
  -16.5343  -29.9130   23.6348 C   0  0  0  0  0  0
  -16.7248  -28.6588   23.0286 C   0  0  0  0  0  0
  -26.4479  -31.6533   25.0631 C   0  0  0  0  0  0
  -25.3766  -31.3597   26.1377 C   0  0  0  0  0  0
  -27.0341  -30.2973   24.6047 C   0  0  0  0  0  0
  -27.5971  -32.4305   25.7457 C   0  0  0  0  0  0
  -27.5553  -37.1808   24.8466 C   0  0  0  0  0  0
  -21.4203  -29.3035   22.3684 N   0  0  0  0  0  0
  -26.4250  -37.3795   23.9442 N   0  0  0  0  0  0
  -24.6884  -31.0576   22.0943 N   0  0  0  0  0  0
  -23.4210  -28.8100   23.2986 O   0  0  0  0  0  0
  -28.3506  -26.4492   20.1873 O   0  0  0  0  0  0
  -26.5703  -34.8923   22.4688 O   0  0  0  0  0  0
  -23.5449  -32.1283   23.7413 O   0  0  0  0  0  0
  -28.8319  -18.0084   20.3851 C   0  0  0  0  0  0
  -30.0251  -20.0378   20.3853 C   0  0  0  0  0  0
  -29.9893  -17.1980   20.6100 C   0  0  0  0  0  0
  -31.1959  -19.2312   20.6202 C   0  0  0  0  0  0
  -30.2203  -21.8701   18.6176 C   0  0  0  0  0  0
  -28.5854  -24.2217   22.3518 C   0  0  0  0  0  0
  -28.2224  -24.9786   19.9373 C   0  0  0  0  0  0
  -30.0536  -21.6134   20.1244 C   0  0  1  0  0  0
  -29.0421  -23.9665   20.8875 C   0  0  2  0  0  0
  -28.8389  -19.3783   20.2674 N   0  0  0  0  0  0
  -31.1736  -17.8650   20.7261 N   0  0  0  0  0  0
  -32.4775  -19.7558   20.7446 N   0  0  0  0  0  0
  -29.8023  -15.7466   20.7472 N   0  0  0  0  0  0
  -28.8864  -22.4580   20.6149 N   0  3  0  0  0  0
  -31.4844  -12.5334   19.1522 H   0  0  0  0  0  0
  -30.3698  -11.4176   19.8968 H   0  0  0  0  0  0
  -29.7817  -11.7859   17.4735 H   0  0  0  0  0  0
  -29.6541  -13.5062   17.7597 H   0  0  0  0  0  0
  -27.8729  -11.3016   18.8564 H   0  0  0  0  0  0
  -27.3901  -12.5908   17.7905 H   0  0  0  0  0  0
  -27.6635  -14.2618   19.5273 H   0  0  0  0  0  0
  -28.7143  -12.0770   21.3854 H   0  0  0  0  0  0
  -28.4439  -13.7263   21.8461 H   0  0  0  0  0  0
  -25.2858   -9.5588   22.4722 H   0  0  0  0  0  0
  -24.0006   -7.4605   22.7511 H   0  0  0  0  0  0
  -21.0892   -8.8781   19.8933 H   0  0  0  0  0  0
  -22.3846  -10.9625   19.6109 H   0  0  0  0  0  0
  -21.2000   -7.6168   23.9716 H   0  0  0  0  0  0
  -21.1486   -6.0552   25.9095 H   0  0  0  0  0  0
  -22.0605   -2.7610   23.2842 H   0  0  0  0  0  0
  -22.4219  -11.9794   22.4774 H   0  0  0  0  0  0
  -21.1129  -13.1073   22.2619 H   0  0  0  0  0  0
  -24.6214  -15.8178   20.4982 H   0  0  0  0  0  0
  -26.2381  -15.6438   20.0392 H   0  0  0  0  0  0
  -26.7161  -32.5442   23.1010 H   0  0  0  0  0  0
  -24.9822  -33.9616   25.0209 H   0  0  0  0  0  0
  -22.7120  -31.2992   21.4093 H   0  0  0  0  0  0
  -23.3720  -35.9671   23.3290 H   0  0  0  0  0  0
  -24.3556  -36.8995   22.2069 H   0  0  0  0  0  0
  -23.7239  -37.6506   23.6734 H   0  0  0  0  0  0
  -26.0732  -31.5335   20.5795 H   0  0  0  0  0  0
  -26.8472  -30.8568   21.9815 H   0  0  0  0  0  0
  -28.1086  -28.9657   21.2072 H   0  0  0  0  0  0
  -26.0150  -25.9848   18.8795 H   0  0  0  0  0  0
  -23.9947  -27.3447   18.9396 H   0  0  0  0  0  0
  -23.7527  -30.5896   19.4033 H   0  0  0  0  0  0
  -22.7535  -29.2421   19.8598 H   0  0  0  0  0  0
  -25.1285  -36.1872   25.0817 H   0  0  0  0  0  0
  -20.9949  -28.3325   24.1416 H   0  0  0  0  0  0
  -20.5659  -26.2334   23.3698 H   0  0  0  0  0  0
  -21.6584  -26.7421   22.1242 H   0  0  0  0  0  0
  -19.6830  -25.6296   21.1270 H   0  0  0  0  0  0
  -19.6588  -27.3216   20.6842 H   0  0  0  0  0  0
  -17.4141  -26.6691   21.4067 H   0  0  0  0  0  0
  -18.0230  -26.0119   22.9087 H   0  0  0  0  0  0
  -19.7929  -30.7363   24.2150 H   0  0  0  0  0  0
  -17.5012  -31.6287   24.5214 H   0  0  0  0  0  0
  -15.5346  -30.3028   23.7747 H   0  0  0  0  0  0
  -15.8630  -28.0995   22.6897 H   0  0  0  0  0  0
  -24.6008  -30.6848   25.7733 H   0  0  0  0  0  0
  -24.8867  -32.2723   26.4776 H   0  0  0  0  0  0
  -25.8132  -30.8819   27.0152 H   0  0  0  0  0  0
  -26.2880  -29.6696   24.1153 H   0  0  0  0  0  0
  -27.4161  -29.7202   25.4471 H   0  0  0  0  0  0
  -27.8674  -30.4248   23.9137 H   0  0  0  0  0  0
  -27.2484  -33.3619   26.1914 H   0  0  0  0  0  0
  -28.3836  -32.6836   25.0353 H   0  0  0  0  0  0
  -28.0559  -31.8516   26.5473 H   0  0  0  0  0  0
  -28.2554  -38.0126   24.7569 H   0  0  0  0  0  0
  -28.1054  -36.2658   24.6226 H   0  0  0  0  0  0
  -27.2287  -37.1396   25.8869 H   0  0  0  0  0  0
  -20.9448  -29.8785   21.6880 H   0  0  0  0  0  0
  -26.0104  -38.2849   24.1489 H   0  0  0  0  0  0
  -27.8585  -17.5463   20.3029 H   0  0  0  0  0  0
  -31.1270  -21.4042   18.2336 H   0  0  0  0  0  0
  -30.2796  -22.9362   18.3944 H   0  0  0  0  0  0
  -29.3809  -21.4563   18.0574 H   0  0  0  0  0  0
  -28.7442  -25.2597   22.6499 H   0  0  0  0  0  0
  -29.1137  -23.6069   23.0837 H   0  0  0  0  0  0
  -27.5151  -24.0211   22.4719 H   0  0  0  0  0  0
  -27.1827  -24.6641   20.0286 H   0  0  0  0  0  0
  -28.4793  -24.8078   18.8869 H   0  0  0  0  0  0
  -30.9439  -21.9875   20.6338 H   0  0  0  0  0  0
  -30.1053  -24.2208   20.8112 H   0  0  0  0  0  0
  -32.6062  -20.7416   20.9376 H   0  0  0  0  0  0
  -33.1630  -19.1733   21.2126 H   0  0  0  0  0  0
  -28.8544  -15.4755   20.9525 H   0  0  0  0  0  0
  -28.6210  -22.0356   21.4909 H   0  0  0  0  0  0
  -28.1153  -22.2984   19.9874 H   0  0  0  0  0  0
  1 25  1  0  0  0
  1 30  2  0  0  0
  1 83  1  0  0  0
  2  3  1  0  0  0
  2 25  1  0  0  0
  2 85  1  0  0  0
  2 86  1  0  0  0
  3  4  1  0  0  0
  3 87  1  0  0  0
  3 88  1  0  0  0
  4  5  1  0  0  0
  4 89  1  0  0  0
  4 90  1  0  0  0
  5  6  1  0  0  0
  5 26  1  0  0  0
  5 91  1  0  0  0
  6 25  1  0  0  0
  6 92  1  0  0  0
  6 93  1  0  0  0
  7  8  2  0  0  0
  7 26  1  0  0  0
  7 29  1  0  0  0
  8  9  1  0  0  0
  8 22  1  0  0  0
  9 10  1  0  0  0
  9 27  2  0  0  0
 10 11  2  0  0  0
 10 15  1  0  0  0
 11 12  1  0  0  0
 11 94  1  0  0  0
 12 13  2  0  0  0
 12 95  1  0  0  0
 13 14  1  0  0  0
 13 31  1  0  0  0
 14 15  2  0  0  0
 14 96  1  0  0  0
 15 97  1  0  0  0
 16 17  2  0  0  0
 16 21  1  0  0  0
 16 31  1  0  0  0
 17 18  1  0  0  0
 17 98  1  0  0  0
 18 19  2  0  0  0
 18 99  1  0  0  0
 19 20  1  0  0  0
 19 24  1  0  0  0
 20 21  2  0  0  0
 20100  1  0  0  0
 21 23  1  0  0  0
 22 28  1  0  0  0
 22 32  2  0  0  0
 26 27  1  0  0  0
 28101  1  0  0  0
 28102  1  0  0  0
 29103  1  0  0  0
 29104  1  0  0  0
 33 34  1  0  0  0
 33 66  1  0  0  0
 33 70  2  0  0  0
 34 36  1  0  0  0
 34 59  1  0  0  0
 34105  1  0  0  0
 35 44  2  0  0  0
 35 45  1  0  0  0
 35 68  1  0  0  0
 36 56  1  0  0  0
 36106  1  0  0  0
 37 39  1  0  0  0
 37 47  1  0  0  0
 37 66  1  0  0  0
 37107  1  0  0  0
 38 43  2  0  0  0
 38 46  1  0  0  0
 38 47  1  0  0  0
 39 64  1  0  0  0
 39 67  2  0  0  0
 40 52  1  0  0  0
 40 53  2  0  0  0
 40 58  1  0  0  0
 41108  1  0  0  0
 41109  1  0  0  0
 41110  1  0  0  0
 41 48  1  0  0  0
 42 43  1  0  0  0
 42 66  1  0  0  0
 42111  1  0  0  0
 42112  1  0  0  0
 43 44  1  0  0  0
 44113  1  0  0  0
 45 46  2  0  0  0
 45114  1  0  0  0
 46115  1  0  0  0
 47116  1  0  0  0
 47117  1  0  0  0
 48 56  1  0  0  0
 48 65  1  0  0  0
 48118  1  0  0  0
 49 50  1  0  0  0
 49 53  1  0  0  0
 49 64  1  0  0  0
 49119  1  0  0  0
 50 51  1  0  0  0
 50120  1  0  0  0
 50121  1  0  0  0
 51 52  1  0  0  0
 51122  1  0  0  0
 51123  1  0  0  0
 52124  1  0  0  0
 52125  1  0  0  0
 53 54  1  0  0  0
 54 55  2  0  0  0
 54126  1  0  0  0
 55 57  1  0  0  0
 55127  1  0  0  0
 56 69  2  0  0  0
 57 58  2  0  0  0
 57128  1  0  0  0
 58129  1  0  0  0
 59 60  1  0  0  0
 59 61  1  0  0  0
 59 62  1  0  0  0
 60130  1  0  0  0
 60131  1  0  0  0
 60132  1  0  0  0
 61133  1  0  0  0
 61134  1  0  0  0
 61135  1  0  0  0
 62136  1  0  0  0
 62137  1  0  0  0
 62138  1  0  0  0
 63 65  1  0  0  0
 63139  1  0  0  0
 63140  1  0  0  0
 63141  1  0  0  0
 64142  1  0  0  0
 65143  1  0  0  0
 68 77  1  0  0  0
 71 73  2  0  0  0
 71 80  1  0  0  0
 71144  1  0  0  0
 72 74  1  0  0  0
 72 78  1  0  0  0
 72 80  2  0  0  0
 73 81  1  0  0  0
 73 83  1  0  0  0
 74 81  2  0  0  0
 74 82  1  0  0  0
 75145  1  0  0  0
 75146  1  0  0  0
 75147  1  0  0  0
 75 78  1  0  0  0
 76148  1  0  0  0
 76149  1  0  0  0
 76150  1  0  0  0
 76 79  1  0  0  0
 77 79  1  0  0  0
 77151  1  0  0  0
 77152  1  0  0  0
 78 84  1  0  0  0
 78153  1  0  0  0
 79 84  1  0  0  0
 79154  1  0  0  0
 82155  1  0  0  0
 82156  1  0  0  0
 83157  1  0  0  0
 84158  1  0  0  0
 84159  1  0  0  0
M  CHG  1  84   1
M  ISO  4   1 100  68 101  77 101  83 100
M  END
> <chiral flag>
0

> <version>
0

> <s_m_source_file>
/data/baiqing/PycharmProjects/Reinvent-master-3.2/result/LINK_invent/BTK/process_docking_weight1_custom_product_contain_oxygen_bond_distance_aromatic_linkinvent_7_9_3/rearranged_h_0198.sdf

> <i_m_source_file_index>
30

> <r_mmod_Potential_Energy-OPLS-2005>
-50.0546798706055

> <r_mmod_Stretch_Energy-OPLS-2005>
102.377372741699

> <r_mmod_Bend_Energy-OPLS-2005>
159.647964477539

> <r_mmod_Torsional_Energy-OPLS-2005>
220.316711425781

> <r_mmod_Improper_Torsional_Energy-OPLS-2005>
8.92262649536133

> <r_mmod_Van_der_Waal_Energy-OPLS-2005>
140.387542724609

> <r_mmod_Electrostatic_Energy-OPLS-2005>
-257.133728027344

> <r_mmod_Solvation_Energy-OPLS-2005>
-481.612091064453

> <b_mmod_Minimization_Converged-OPLS-2005>
0

> <r_mmod_RMS_Derivative-OPLS-2005>
6.50517511367798

$$$$
30
                    3D
 Structure written by MMmdl.
153161  0  0  1  0            999 V2000
  -30.6262  -14.6534   20.4971 C   0  0  0  0  0  0
  -30.4411  -12.4008   19.4515 C   0  0  0  0  0  0
  -29.5078  -12.5098   18.2248 C   0  0  0  0  0  0
  -28.0309  -12.3477   18.6386 C   0  0  0  0  0  0
  -27.6530  -13.2210   19.8654 C   0  0  2  0  0  0
  -28.7017  -13.0800   20.9924 C   0  0  0  0  0  0
  -25.2521  -13.8155   20.5661 C   0  0  0  0  0  0
  -24.1796  -13.0404   20.9127 C   0  0  0  0  0  0
  -24.6397  -11.6891   20.8716 C   0  0  0  0  0  0
  -23.9072  -10.4276   21.0392 C   0  0  0  0  0  0
  -24.3620   -9.4198   21.9178 C   0  0  0  0  0  0
  -23.6290   -8.2238   22.0754 C   0  0  0  0  0  0
  -22.4271   -8.0277   21.3545 C   0  0  0  0  0  0
  -21.9907   -9.0248   20.4646 C   0  0  0  0  0  0
  -22.7241  -10.2121   20.3046 C   0  0  0  0  0  0
  -21.6851   -6.0733   22.5280 C   0  0  0  0  0  0
  -21.4014   -6.5637   23.8213 C   0  0  0  0  0  0
  -21.3659   -5.6790   24.9176 C   0  0  0  0  0  0
  -21.6043   -4.3053   24.7227 C   0  0  0  0  0  0
  -21.8820   -3.8145   23.4348 C   0  0  0  0  0  0
  -21.9192   -4.6961   22.3404 C   0  0  0  0  0  0
  -22.7822  -13.5199   21.1821 C   0  0  0  0  0  0
  -22.1662   -4.2147   21.0981 F   0  0  0  0  0  0
  -21.5628   -3.4537   25.7740 F   0  0  0  0  0  0
  -30.0165  -13.4253   20.4263 N   0  0  0  0  0  0
  -26.2998  -12.9371   20.3368 N   0  0  0  0  0  0
  -25.9342  -11.6514   20.5786 N   0  0  0  0  0  0
  -22.0484  -12.8197   22.0399 N   0  0  0  0  0  0
  -25.4110  -15.1884   20.4148 N   0  0  0  0  0  0
  -31.7944  -14.8052   20.1254 O   0  0  0  0  0  0
  -21.6635   -6.8875   21.4243 O   0  0  0  0  0  0
  -22.3498  -14.5514   20.6695 O   0  0  0  0  0  0
  -24.6275  -31.8597   23.2031 C   0  0  0  0  0  0
  -25.9119  -32.4779   23.8359 C   0  0  1  0  0  0
  -27.2235  -27.3130   20.1129 C   0  0  0  0  0  0
  -25.5930  -33.8579   24.2285 N   0  0  0  0  0  0
  -23.4211  -30.4851   21.5464 C   0  0  2  0  0  0
  -24.8669  -28.9424   20.1119 C   0  0  0  0  0  0
  -22.7481  -29.4627   22.4934 C   0  0  0  0  0  0
  -18.0289  -28.1383   22.8486 C   0  0  0  0  0  0
  -24.1490  -36.7296   23.2638 C   0  0  0  0  0  0
  -25.9642  -30.7892   21.3753 C   0  0  0  0  0  0
  -26.0384  -29.4171   20.7151 C   0  0  0  0  0  0
  -27.2204  -28.6157   20.7041 C   0  0  0  0  0  0
  -26.0242  -26.8958   19.4872 C   0  0  0  0  0  0
  -24.8624  -27.6871   19.4892 C   0  0  0  0  0  0
  -23.6358  -29.8231   20.1611 C   0  0  0  0  0  0
  -25.4113  -36.3084   24.0330 C   0  0  1  0  0  0
  -20.5890  -28.3690   23.1278 C   0  0  2  0  0  0
  -20.6778  -26.9412   22.5406 C   0  0  0  0  0  0
  -19.5752  -26.6384   21.5210 C   0  0  0  0  0  0
  -18.1933  -26.7926   22.1625 C   0  0  0  0  0  0
  -19.1541  -28.8854   23.2878 C   0  0  0  0  0  0
  -18.9463  -30.1456   23.8894 C   0  0  0  0  0  0
  -17.6462  -30.6586   24.0563 C   0  0  0  0  0  0
  -25.9051  -34.9452   23.5107 C   0  0  0  0  0  0
  -16.5354  -29.9083   23.6329 C   0  0  0  0  0  0
  -16.7275  -28.6501   23.0351 C   0  0  0  0  0  0
  -26.4499  -31.6587   25.0730 C   0  0  0  0  0  0
  -25.3732  -31.3725   26.1456 C   0  0  0  0  0  0
  -27.0342  -30.3010   24.6187 C   0  0  0  0  0  0
  -27.6060  -32.4320   25.7500 C   0  0  0  0  0  0
  -27.5580  -37.1803   24.8464 C   0  0  0  0  0  0
  -21.4193  -29.3046   22.3675 N   0  0  0  0  0  0
  -26.4293  -37.3777   23.9407 N   0  0  0  0  0  0
  -24.6899  -31.0608   22.0984 N   0  0  0  0  0  0
  -23.4202  -28.8159   23.3009 O   0  0  0  0  0  0
  -28.3359  -26.4510   20.1573 O   0  0  0  0  0  0
  -26.5617  -34.8919   22.4672 O   0  0  0  0  0  0
  -23.5436  -32.1396   23.7356 O   0  0  0  0  0  0
  -28.6362  -19.2598   20.8528 C   0  0  0  0  0  0
  -28.6882  -17.8418   20.9964 C   0  0  0  0  0  0
  -29.8089  -19.9535   20.4673 C   0  0  0  0  0  0
  -29.8963  -17.1411   20.7080 C   0  0  0  0  0  0
  -28.8063  -22.3739   20.3077 C   0  0  0  0  0  0
  -28.0630  -24.9894   20.1345 C   0  0  0  0  0  0
  -29.2238  -23.9211   20.3774 C   0  0  1  0  0  0
  -30.9410  -19.2280   20.2247 N   0  0  0  0  0  0
  -30.9842  -17.8752   20.3264 N   0  0  0  0  0  0
  -27.5545  -17.1394   21.4332 N   0  0  0  0  0  0
  -29.8115  -15.6943   20.8401 N   0  0  0  0  0  0
  -29.9212  -21.3753   20.3415 N   0  0  0  0  0  0
  -29.7005  -24.1157   21.6959 O   0  0  0  0  0  0
  -31.4814  -12.5273   19.1466 H   0  0  0  0  0  0
  -30.3791  -11.4066   19.8967 H   0  0  0  0  0  0
  -29.7721  -11.7559   17.4819 H   0  0  0  0  0  0
  -29.6483  -13.4775   17.7405 H   0  0  0  0  0  0
  -27.8692  -11.2948   18.8726 H   0  0  0  0  0  0
  -27.3755  -12.5751   17.7971 H   0  0  0  0  0  0
  -27.6650  -14.2559   19.5225 H   0  0  0  0  0  0
  -28.7160  -12.0589   21.3764 H   0  0  0  0  0  0
  -28.4473  -13.7123   21.8443 H   0  0  0  0  0  0
  -25.2766   -9.5674   22.4751 H   0  0  0  0  0  0
  -23.9997   -7.4631   22.7476 H   0  0  0  0  0  0
  -21.0837   -8.8767   19.8955 H   0  0  0  0  0  0
  -22.3702  -10.9657   19.6151 H   0  0  0  0  0  0
  -21.2007   -7.6145   23.9716 H   0  0  0  0  0  0
  -21.1481   -6.0521   25.9078 H   0  0  0  0  0  0
  -22.0599   -2.7607   23.2849 H   0  0  0  0  0  0
  -22.4103  -11.9855   22.4777 H   0  0  0  0  0  0
  -21.1110  -13.1232   22.2630 H   0  0  0  0  0  0
  -24.6409  -15.8239   20.5877 H   0  0  0  0  0  0
  -26.3010  -15.6783   20.3563 H   0  0  0  0  0  0
  -26.7186  -32.5446   23.1106 H   0  0  0  0  0  0
  -25.0076  -33.9723   25.0428 H   0  0  0  0  0  0
  -22.7154  -31.3062   21.4047 H   0  0  0  0  0  0
  -23.3750  -35.9630   23.3302 H   0  0  0  0  0  0
  -24.3582  -36.8915   22.2053 H   0  0  0  0  0  0
  -23.7246  -37.6500   23.6659 H   0  0  0  0  0  0
  -26.0972  -31.5536   20.6085 H   0  0  0  0  0  0
  -26.8441  -30.8362   22.0053 H   0  0  0  0  0  0
  -28.1186  -28.9766   21.1855 H   0  0  0  0  0  0
  -25.9463  -25.9409   18.9918 H   0  0  0  0  0  0
  -23.9650  -27.3179   19.0118 H   0  0  0  0  0  0
  -23.7564  -30.6010   19.4064 H   0  0  0  0  0  0
  -22.7552  -29.2543   19.8570 H   0  0  0  0  0  0
  -25.1293  -36.1938   25.0823 H   0  0  0  0  0  0
  -20.9984  -28.3265   24.1398 H   0  0  0  0  0  0
  -20.5681  -26.2299   23.3606 H   0  0  0  0  0  0
  -21.6646  -26.7442   22.1198 H   0  0  0  0  0  0
  -19.6914  -25.6294   21.1240 H   0  0  0  0  0  0
  -19.6687  -27.3193   20.6740 H   0  0  0  0  0  0
  -17.4201  -26.6670   21.4031 H   0  0  0  0  0  0
  -18.0339  -26.0068   22.9023 H   0  0  0  0  0  0
  -19.7939  -30.7274   24.2261 H   0  0  0  0  0  0
  -17.5016  -31.6265   24.5166 H   0  0  0  0  0  0
  -15.5354  -30.2985   23.7652 H   0  0  0  0  0  0
  -15.8676  -28.0819   22.7065 H   0  0  0  0  0  0
  -24.5898  -30.7087   25.7781 H   0  0  0  0  0  0
  -24.8934  -32.2892   26.4894 H   0  0  0  0  0  0
  -25.8054  -30.8887   27.0224 H   0  0  0  0  0  0
  -26.2918  -29.6759   24.1212 H   0  0  0  0  0  0
  -27.4041  -29.7268   25.4692 H   0  0  0  0  0  0
  -27.8788  -30.4296   23.9413 H   0  0  0  0  0  0
  -27.2672  -33.3617   26.2083 H   0  0  0  0  0  0
  -28.3867  -32.6884   25.0327 H   0  0  0  0  0  0
  -28.0732  -31.8441   26.5411 H   0  0  0  0  0  0
  -28.2597  -38.0100   24.7511 H   0  0  0  0  0  0
  -28.1076  -36.2631   24.6291 H   0  0  0  0  0  0
  -27.2298  -37.1455   25.8868 H   0  0  0  0  0  0
  -20.9368  -29.8777   21.6893 H   0  0  0  0  0  0
  -26.0175  -38.2854   24.1405 H   0  0  0  0  0  0
  -27.7285  -19.8029   21.0642 H   0  0  0  0  0  0
  -28.2581  -22.2089   19.3787 H   0  0  0  0  0  0
  -28.1006  -22.1522   21.1098 H   0  0  0  0  0  0
  -27.2543  -24.7787   20.8369 H   0  0  0  0  0  0
  -27.6767  -24.7502   19.1439 H   0  0  0  0  0  0
  -30.0266  -24.1174   19.6648 H   0  0  0  0  0  0
  -26.7649  -17.7225   21.6889 H   0  0  0  0  0  0
  -27.7275  -16.4816   22.1855 H   0  0  0  0  0  0
  -28.8799  -15.4122   21.0962 H   0  0  0  0  0  0
  -30.8486  -21.7347   20.1424 H   0  0  0  0  0  0
  -29.9272  -25.0384   21.7732 H   0  0  0  0  0  0
  1 25  1  0  0  0
  1 30  2  0  0  0
  1 81  1  0  0  0
  2  3  1  0  0  0
  2 25  1  0  0  0
  2 84  1  0  0  0
  2 85  1  0  0  0
  3  4  1  0  0  0
  3 86  1  0  0  0
  3 87  1  0  0  0
  4  5  1  0  0  0
  4 88  1  0  0  0
  4 89  1  0  0  0
  5  6  1  0  0  0
  5 26  1  0  0  0
  5 90  1  0  0  0
  6 25  1  0  0  0
  6 91  1  0  0  0
  6 92  1  0  0  0
  7  8  2  0  0  0
  7 26  1  0  0  0
  7 29  1  0  0  0
  8  9  1  0  0  0
  8 22  1  0  0  0
  9 10  1  0  0  0
  9 27  2  0  0  0
 10 11  2  0  0  0
 10 15  1  0  0  0
 11 12  1  0  0  0
 11 93  1  0  0  0
 12 13  2  0  0  0
 12 94  1  0  0  0
 13 14  1  0  0  0
 13 31  1  0  0  0
 14 15  2  0  0  0
 14 95  1  0  0  0
 15 96  1  0  0  0
 16 17  2  0  0  0
 16 21  1  0  0  0
 16 31  1  0  0  0
 17 18  1  0  0  0
 17 97  1  0  0  0
 18 19  2  0  0  0
 18 98  1  0  0  0
 19 20  1  0  0  0
 19 24  1  0  0  0
 20 21  2  0  0  0
 20 99  1  0  0  0
 21 23  1  0  0  0
 22 28  1  0  0  0
 22 32  2  0  0  0
 26 27  1  0  0  0
 28100  1  0  0  0
 28101  1  0  0  0
 29102  1  0  0  0
 29103  1  0  0  0
 33 34  1  0  0  0
 33 66  1  0  0  0
 33 70  2  0  0  0
 34 36  1  0  0  0
 34 59  1  0  0  0
 34104  1  0  0  0
 35 44  2  0  0  0
 35 45  1  0  0  0
 35 68  1  0  0  0
 36 56  1  0  0  0
 36105  1  0  0  0
 37 39  1  0  0  0
 37 47  1  0  0  0
 37 66  1  0  0  0
 37106  1  0  0  0
 38 43  2  0  0  0
 38 46  1  0  0  0
 38 47  1  0  0  0
 39 64  1  0  0  0
 39 67  2  0  0  0
 40 52  1  0  0  0
 40 53  2  0  0  0
 40 58  1  0  0  0
 41107  1  0  0  0
 41108  1  0  0  0
 41109  1  0  0  0
 41 48  1  0  0  0
 42 43  1  0  0  0
 42 66  1  0  0  0
 42110  1  0  0  0
 42111  1  0  0  0
 43 44  1  0  0  0
 44112  1  0  0  0
 45 46  2  0  0  0
 45113  1  0  0  0
 46114  1  0  0  0
 47115  1  0  0  0
 47116  1  0  0  0
 48 56  1  0  0  0
 48 65  1  0  0  0
 48117  1  0  0  0
 49 50  1  0  0  0
 49 53  1  0  0  0
 49 64  1  0  0  0
 49118  1  0  0  0
 50 51  1  0  0  0
 50119  1  0  0  0
 50120  1  0  0  0
 51 52  1  0  0  0
 51121  1  0  0  0
 51122  1  0  0  0
 52123  1  0  0  0
 52124  1  0  0  0
 53 54  1  0  0  0
 54 55  2  0  0  0
 54125  1  0  0  0
 55 57  1  0  0  0
 55126  1  0  0  0
 56 69  2  0  0  0
 57 58  2  0  0  0
 57127  1  0  0  0
 58128  1  0  0  0
 59 60  1  0  0  0
 59 61  1  0  0  0
 59 62  1  0  0  0
 60129  1  0  0  0
 60130  1  0  0  0
 60131  1  0  0  0
 61132  1  0  0  0
 61133  1  0  0  0
 61134  1  0  0  0
 62135  1  0  0  0
 62136  1  0  0  0
 62137  1  0  0  0
 63 65  1  0  0  0
 63138  1  0  0  0
 63139  1  0  0  0
 63140  1  0  0  0
 64141  1  0  0  0
 65142  1  0  0  0
 68 76  1  0  0  0
 71 72  2  0  0  0
 71 73  1  0  0  0
 71143  1  0  0  0
 72 74  1  0  0  0
 72 80  1  0  0  0
 73 78  2  0  0  0
 73 82  1  0  0  0
 74 79  2  0  0  0
 74 81  1  0  0  0
 75 77  1  0  0  0
 75 82  1  0  0  0
 75144  1  0  0  0
 75145  1  0  0  0
 76 77  1  0  0  0
 76146  1  0  0  0
 76147  1  0  0  0
 77 83  1  0  0  0
 77148  1  0  0  0
 78 79  1  0  0  0
 80149  1  0  0  0
 80150  1  0  0  0
 81151  1  0  0  0
 82152  1  0  0  0
 83153  1  0  0  0
M  ISO  4   1 100  68 101  76 101  81 100
M  END
> <chiral flag>
0

> <version>
0

> <s_m_source_file>
/data/baiqing/PycharmProjects/Reinvent-master-3.2/result/LINK_invent/BTK/process_docking_weight1_custom_product_contain_oxygen_bond_distance_aromatic_linkinvent_7_9_3/rearranged_h_0198.sdf

> <i_m_source_file_index>
31

> <r_mmod_Potential_Energy-OPLS-2005>
-82.785758972168

> <r_mmod_Stretch_Energy-OPLS-2005>
80.703369140625

> <r_mmod_Bend_Energy-OPLS-2005>
156.753479003906

> <r_mmod_Torsional_Energy-OPLS-2005>
234.064102172852

> <r_mmod_Improper_Torsional_Energy-OPLS-2005>
10.0938014984131

> <r_mmod_Van_der_Waal_Energy-OPLS-2005>
150.470748901367

> <r_mmod_Electrostatic_Energy-OPLS-2005>
-491.289184570312

> <r_mmod_Solvation_Energy-OPLS-2005>
-275.650939941406

> <b_mmod_Minimization_Converged-OPLS-2005>
0

> <r_mmod_RMS_Derivative-OPLS-2005>
0.186644062399864

$$$$
31
                    3D
 Structure written by MMmdl.
160168  0  0  1  0            999 V2000
  -30.7073  -14.4596   20.5895 C   0  0  0  0  0  0
  -30.4210  -12.3010   19.4296 C   0  0  0  0  0  0
  -29.4994  -12.5166   18.2102 C   0  0  0  0  0  0
  -28.0181  -12.3796   18.6151 C   0  0  0  0  0  0
  -27.6615  -13.2091   19.8776 C   0  0  2  0  0  0
  -28.6999  -12.9822   20.9991 C   0  0  0  0  0  0
  -25.2576  -13.8191   20.5656 C   0  0  0  0  0  0
  -24.1845  -13.0461   20.9190 C   0  0  0  0  0  0
  -24.6398  -11.6927   20.8732 C   0  0  0  0  0  0
  -23.9062  -10.4309   21.0413 C   0  0  0  0  0  0
  -24.3627   -9.4218   21.9181 C   0  0  0  0  0  0
  -23.6301   -8.2256   22.0754 C   0  0  0  0  0  0
  -22.4277   -8.0292   21.3550 C   0  0  0  0  0  0
  -21.9913   -9.0262   20.4643 C   0  0  0  0  0  0
  -22.7246  -10.2146   20.3046 C   0  0  0  0  0  0
  -21.6867   -6.0739   22.5281 C   0  0  0  0  0  0
  -21.4022   -6.5639   23.8215 C   0  0  0  0  0  0
  -21.3657   -5.6785   24.9177 C   0  0  0  0  0  0
  -21.6052   -4.3049   24.7224 C   0  0  0  0  0  0
  -21.8821   -3.8142   23.4341 C   0  0  0  0  0  0
  -21.9202   -4.6966   22.3399 C   0  0  0  0  0  0
  -22.7863  -13.5241   21.1857 C   0  0  0  0  0  0
  -22.1669   -4.2158   21.0971 F   0  0  0  0  0  0
  -21.5627   -3.4526   25.7733 F   0  0  0  0  0  0
  -30.0366  -13.2832   20.4559 N   0  0  0  0  0  0
  -26.3017  -12.9358   20.3355 N   0  0  0  0  0  0
  -25.9316  -11.6515   20.5739 N   0  0  0  0  0  0
  -22.0502  -12.8216   22.0395 N   0  0  0  0  0  0
  -25.4280  -15.1912   20.4004 N   0  0  0  0  0  0
  -31.8259  -14.6439   20.0989 O   0  0  0  0  0  0
  -21.6653   -6.8885   21.4243 O   0  0  0  0  0  0
  -22.3531  -14.5528   20.6684 O   0  0  0  0  0  0
  -24.6119  -31.8693   23.2097 C   0  0  0  0  0  0
  -25.9014  -32.4835   23.8394 C   0  0  1  0  0  0
  -27.2357  -27.4376   20.0902 C   0  0  0  0  0  0
  -25.5890  -33.8643   24.2320 N   0  0  0  0  0  0
  -23.3978  -30.4929   21.5511 C   0  0  2  0  0  0
  -24.8425  -28.9559   20.1138 C   0  0  0  0  0  0
  -22.7381  -29.4679   22.5008 C   0  0  0  0  0  0
  -18.0265  -28.1364   22.8501 C   0  0  0  0  0  0
  -24.1490  -36.7344   23.2638 C   0  0  0  0  0  0
  -25.9252  -30.8338   21.3609 C   0  0  0  0  0  0
  -26.0007  -29.4682   20.7101 C   0  0  0  0  0  0
  -27.1943  -28.7135   20.6994 C   0  0  0  0  0  0
  -26.0531  -26.9340   19.4993 C   0  0  0  0  0  0
  -24.8632  -27.6878   19.5096 C   0  0  0  0  0  0
  -23.6012  -29.8183   20.1669 C   0  0  0  0  0  0
  -25.4114  -36.3134   24.0326 C   0  0  1  0  0  0
  -20.5853  -28.3663   23.1332 C   0  0  2  0  0  0
  -20.6761  -26.9411   22.5417 C   0  0  0  0  0  0
  -19.5735  -26.6379   21.5220 C   0  0  0  0  0  0
  -18.1914  -26.7917   22.1623 C   0  0  0  0  0  0
  -19.1512  -28.8827   23.2911 C   0  0  0  0  0  0
  -18.9440  -30.1436   23.8919 C   0  0  0  0  0  0
  -17.6444  -30.6582   24.0561 C   0  0  0  0  0  0
  -25.9042  -34.9499   23.5129 C   0  0  0  0  0  0
  -16.5338  -29.9080   23.6332 C   0  0  0  0  0  0
  -16.7251  -28.6490   23.0369 C   0  0  0  0  0  0
  -26.4438  -31.6632   25.0739 C   0  0  0  0  0  0
  -25.3688  -31.3763   26.1481 C   0  0  0  0  0  0
  -27.0279  -30.3070   24.6151 C   0  0  0  0  0  0
  -27.6004  -32.4378   25.7500 C   0  0  0  0  0  0
  -27.5592  -37.1824   24.8451 C   0  0  0  0  0  0
  -21.4113  -29.3024   22.3729 N   0  0  0  0  0  0
  -26.4303  -37.3810   23.9399 N   0  0  0  0  0  0
  -24.6637  -31.0808   22.0985 N   0  0  0  0  0  0
  -23.4165  -28.8229   23.3040 O   0  0  0  0  0  0
  -28.4295  -26.7440   20.1195 O   0  0  0  0  0  0
  -26.5602  -34.8946   22.4690 O   0  0  0  0  0  0
  -23.5315  -32.1451   23.7494 O   0  0  0  0  0  0
  -29.1253  -17.6090   20.5351 C   0  0  0  0  0  0
  -30.4337  -19.5160   20.4019 C   0  0  0  0  0  0
  -30.2238  -16.8428   21.0052 C   0  0  0  0  0  0
  -31.5226  -18.7736   20.9547 C   0  0  0  0  0  0
  -30.9438  -20.8188   18.3203 C   0  0  0  0  0  0
  -29.5527  -23.2011   19.5053 C   0  0  0  0  0  0
  -28.6357  -25.5876   19.2960 C   0  0  0  0  0  0
  -30.6028  -20.9362   19.8236 C   0  0  1  0  0  0
  -28.5127  -24.2210   20.0389 C   0  0  1  0  0  0
  -29.2235  -18.9278   20.2206 N   0  0  0  0  0  0
  -31.4127  -17.4572   21.2508 N   0  0  0  0  0  0
  -32.7876  -19.3065   21.1876 N   0  0  0  0  0  0
  -30.0102  -15.4460   21.1846 N   0  0  0  0  0  0
  -29.4339  -21.8300   20.0797 N   0  3  0  0  0  0
  -27.2104  -23.6724   19.8690 O   0  0  0  0  0  0
  -31.4677  -12.3945   19.1334 H   0  0  0  0  0  0
  -30.3090  -11.2888   19.8195 H   0  0  0  0  0  0
  -29.7404  -11.8058   17.4189 H   0  0  0  0  0  0
  -29.6758  -13.5093   17.7941 H   0  0  0  0  0  0
  -27.8195  -11.3233   18.7949 H   0  0  0  0  0  0
  -27.3766  -12.6745   17.7841 H   0  0  0  0  0  0
  -27.7061  -14.2596   19.5900 H   0  0  0  0  0  0
  -28.6708  -11.9458   21.3357 H   0  0  0  0  0  0
  -28.4569  -13.5749   21.8818 H   0  0  0  0  0  0
  -25.2789   -9.5700   22.4735 H   0  0  0  0  0  0
  -24.0036   -7.4639   22.7459 H   0  0  0  0  0  0
  -21.0857   -8.8768   19.8922 H   0  0  0  0  0  0
  -22.3721  -10.9675   19.6130 H   0  0  0  0  0  0
  -21.2012   -7.6149   23.9718 H   0  0  0  0  0  0
  -21.1478   -6.0518   25.9082 H   0  0  0  0  0  0
  -22.0603   -2.7601   23.2841 H   0  0  0  0  0  0
  -22.4125  -11.9877   22.4784 H   0  0  0  0  0  0
  -21.1095  -13.1208   22.2575 H   0  0  0  0  0  0
  -24.6519  -15.8400   20.4781 H   0  0  0  0  0  0
  -26.2606  -15.6183   20.0157 H   0  0  0  0  0  0
  -26.7087  -32.5547   23.1162 H   0  0  0  0  0  0
  -25.0010  -33.9811   25.0443 H   0  0  0  0  0  0
  -22.6858  -31.3092   21.4111 H   0  0  0  0  0  0
  -23.3749  -35.9680   23.3297 H   0  0  0  0  0  0
  -24.3576  -36.8976   22.2054 H   0  0  0  0  0  0
  -23.7248  -37.6551   23.6659 H   0  0  0  0  0  0
  -26.0356  -31.5987   20.5905 H   0  0  0  0  0  0
  -26.8140  -30.8902   21.9783 H   0  0  0  0  0  0
  -28.0890  -29.1090   21.1593 H   0  0  0  0  0  0
  -26.0235  -25.9576   19.0409 H   0  0  0  0  0  0
  -23.9680  -27.2849   19.0559 H   0  0  0  0  0  0
  -23.6967  -30.5881   19.4010 H   0  0  0  0  0  0
  -22.7264  -29.2297   19.8817 H   0  0  0  0  0  0
  -25.1291  -36.2001   25.0815 H   0  0  0  0  0  0
  -20.9949  -28.3234   24.1452 H   0  0  0  0  0  0
  -20.5694  -26.2280   23.3603 H   0  0  0  0  0  0
  -21.6639  -26.7469   22.1198 H   0  0  0  0  0  0
  -19.6917  -25.6289   21.1254 H   0  0  0  0  0  0
  -19.6687  -27.3185   20.6749 H   0  0  0  0  0  0
  -17.4201  -26.6693   21.4001 H   0  0  0  0  0  0
  -18.0296  -26.0027   22.8990 H   0  0  0  0  0  0
  -19.7910  -30.7240   24.2315 H   0  0  0  0  0  0
  -17.4993  -31.6267   24.5152 H   0  0  0  0  0  0
  -15.5337  -30.2985   23.7637 H   0  0  0  0  0  0
  -15.8654  -28.0797   22.7105 H   0  0  0  0  0  0
  -24.5804  -30.7189   25.7788 H   0  0  0  0  0  0
  -24.8941  -32.2940   26.4965 H   0  0  0  0  0  0
  -25.8000  -30.8865   27.0213 H   0  0  0  0  0  0
  -26.2842  -29.6840   24.1164 H   0  0  0  0  0  0
  -27.3976  -29.7313   25.4643 H   0  0  0  0  0  0
  -27.8696  -30.4380   23.9351 H   0  0  0  0  0  0
  -27.2589  -33.3636   26.2139 H   0  0  0  0  0  0
  -28.3764  -32.7025   25.0310 H   0  0  0  0  0  0
  -28.0725  -31.8485   26.5369 H   0  0  0  0  0  0
  -28.2602  -38.0128   24.7511 H   0  0  0  0  0  0
  -28.1096  -36.2664   24.6253 H   0  0  0  0  0  0
  -27.2308  -37.1446   25.8851 H   0  0  0  0  0  0
  -20.9287  -29.8738   21.6941 H   0  0  0  0  0  0
  -26.0204  -38.2897   24.1370 H   0  0  0  0  0  0
  -28.1640  -17.1471   20.3564 H   0  0  0  0  0  0
  -31.8174  -20.1809   18.1787 H   0  0  0  0  0  0
  -31.1891  -21.7776   17.8649 H   0  0  0  0  0  0
  -30.1238  -20.3716   17.7570 H   0  0  0  0  0  0
  -30.5514  -23.5890   19.7149 H   0  0  0  0  0  0
  -29.4640  -23.1461   18.4201 H   0  0  0  0  0  0
  -28.0743  -25.6105   18.3616 H   0  0  0  0  0  0
  -29.6746  -25.6975   18.9824 H   0  0  0  0  0  0
  -31.4526  -21.3981   20.3284 H   0  0  0  0  0  0
  -28.6954  -24.3745   21.1034 H   0  0  0  0  0  0
  -32.9623  -20.3055   21.1817 H   0  0  0  0  0  0
  -33.4755  -18.7671   21.7008 H   0  0  0  0  0  0
  -29.0916  -15.1754   21.4967 H   0  0  0  0  0  0
  -28.5994  -21.3928   19.7253 H   0  0  0  0  0  0
  -29.3120  -21.9114   21.0755 H   0  0  0  0  0  0
  -26.9996  -23.6684   18.9393 H   0  0  0  0  0  0
  1 25  1  0  0  0
  1 30  2  0  0  0
  1 83  1  0  0  0
  2  3  1  0  0  0
  2 25  1  0  0  0
  2 86  1  0  0  0
  2 87  1  0  0  0
  3  4  1  0  0  0
  3 88  1  0  0  0
  3 89  1  0  0  0
  4  5  1  0  0  0
  4 90  1  0  0  0
  4 91  1  0  0  0
  5  6  1  0  0  0
  5 26  1  0  0  0
  5 92  1  0  0  0
  6 25  1  0  0  0
  6 93  1  0  0  0
  6 94  1  0  0  0
  7  8  2  0  0  0
  7 26  1  0  0  0
  7 29  1  0  0  0
  8  9  1  0  0  0
  8 22  1  0  0  0
  9 10  1  0  0  0
  9 27  2  0  0  0
 10 11  2  0  0  0
 10 15  1  0  0  0
 11 12  1  0  0  0
 11 95  1  0  0  0
 12 13  2  0  0  0
 12 96  1  0  0  0
 13 14  1  0  0  0
 13 31  1  0  0  0
 14 15  2  0  0  0
 14 97  1  0  0  0
 15 98  1  0  0  0
 16 17  2  0  0  0
 16 21  1  0  0  0
 16 31  1  0  0  0
 17 18  1  0  0  0
 17 99  1  0  0  0
 18 19  2  0  0  0
 18100  1  0  0  0
 19 20  1  0  0  0
 19 24  1  0  0  0
 20 21  2  0  0  0
 20101  1  0  0  0
 21 23  1  0  0  0
 22 28  1  0  0  0
 22 32  2  0  0  0
 26 27  1  0  0  0
 28102  1  0  0  0
 28103  1  0  0  0
 29104  1  0  0  0
 29105  1  0  0  0
 33 34  1  0  0  0
 33 66  1  0  0  0
 33 70  2  0  0  0
 34 36  1  0  0  0
 34 59  1  0  0  0
 34106  1  0  0  0
 35 44  2  0  0  0
 35 45  1  0  0  0
 35 68  1  0  0  0
 36 56  1  0  0  0
 36107  1  0  0  0
 37 39  1  0  0  0
 37 47  1  0  0  0
 37 66  1  0  0  0
 37108  1  0  0  0
 38 43  2  0  0  0
 38 46  1  0  0  0
 38 47  1  0  0  0
 39 64  1  0  0  0
 39 67  2  0  0  0
 40 52  1  0  0  0
 40 53  2  0  0  0
 40 58  1  0  0  0
 41109  1  0  0  0
 41110  1  0  0  0
 41111  1  0  0  0
 41 48  1  0  0  0
 42 43  1  0  0  0
 42 66  1  0  0  0
 42112  1  0  0  0
 42113  1  0  0  0
 43 44  1  0  0  0
 44114  1  0  0  0
 45 46  2  0  0  0
 45115  1  0  0  0
 46116  1  0  0  0
 47117  1  0  0  0
 47118  1  0  0  0
 48 56  1  0  0  0
 48 65  1  0  0  0
 48119  1  0  0  0
 49 50  1  0  0  0
 49 53  1  0  0  0
 49 64  1  0  0  0
 49120  1  0  0  0
 50 51  1  0  0  0
 50121  1  0  0  0
 50122  1  0  0  0
 51 52  1  0  0  0
 51123  1  0  0  0
 51124  1  0  0  0
 52125  1  0  0  0
 52126  1  0  0  0
 53 54  1  0  0  0
 54 55  2  0  0  0
 54127  1  0  0  0
 55 57  1  0  0  0
 55128  1  0  0  0
 56 69  2  0  0  0
 57 58  2  0  0  0
 57129  1  0  0  0
 58130  1  0  0  0
 59 60  1  0  0  0
 59 61  1  0  0  0
 59 62  1  0  0  0
 60131  1  0  0  0
 60132  1  0  0  0
 60133  1  0  0  0
 61134  1  0  0  0
 61135  1  0  0  0
 61136  1  0  0  0
 62137  1  0  0  0
 62138  1  0  0  0
 62139  1  0  0  0
 63 65  1  0  0  0
 63140  1  0  0  0
 63141  1  0  0  0
 63142  1  0  0  0
 64143  1  0  0  0
 65144  1  0  0  0
 68 77  1  0  0  0
 71 73  2  0  0  0
 71 80  1  0  0  0
 71145  1  0  0  0
 72 74  1  0  0  0
 72 78  1  0  0  0
 72 80  2  0  0  0
 73 81  1  0  0  0
 73 83  1  0  0  0
 74 81  2  0  0  0
 74 82  1  0  0  0
 75146  1  0  0  0
 75147  1  0  0  0
 75148  1  0  0  0
 75 78  1  0  0  0
 76 79  1  0  0  0
 76 84  1  0  0  0
 76149  1  0  0  0
 76150  1  0  0  0
 77 79  1  0  0  0
 77151  1  0  0  0
 77152  1  0  0  0
 78 84  1  0  0  0
 78153  1  0  0  0
 79 85  1  0  0  0
 79154  1  0  0  0
 82155  1  0  0  0
 82156  1  0  0  0
 83157  1  0  0  0
 84158  1  0  0  0
 84159  1  0  0  0
 85160  1  0  0  0
M  CHG  1  84   1
M  ISO  4   1 100  68 101  77 101  83 100
M  END
> <chiral flag>
0

> <version>
0

> <s_m_source_file>
/data/baiqing/PycharmProjects/Reinvent-master-3.2/result/LINK_invent/BTK/process_docking_weight1_custom_product_contain_oxygen_bond_distance_aromatic_linkinvent_7_9_3/rearranged_h_0198.sdf

> <i_m_source_file_index>
32

> <r_mmod_Potential_Energy-OPLS-2005>
-305.485626220703

> <r_mmod_Stretch_Energy-OPLS-2005>
42.3013648986816

> <r_mmod_Bend_Energy-OPLS-2005>
115.814613342285

> <r_mmod_Torsional_Energy-OPLS-2005>
220.988571166992

> <r_mmod_Improper_Torsional_Energy-OPLS-2005>
6.46263980865479

> <r_mmod_Van_der_Waal_Energy-OPLS-2005>
159.065063476562

> <r_mmod_Electrostatic_Energy-OPLS-2005>
-347.297821044922

> <r_mmod_Solvation_Energy-OPLS-2005>
-514.648254394531

> <b_mmod_Minimization_Converged-OPLS-2005>
0

> <r_mmod_RMS_Derivative-OPLS-2005>
3.06396961212158

$$$$
32
                    3D
 Structure written by MMmdl.
152160  0  0  1  0            999 V2000
  -30.6000  -14.7650   20.4361 C   0  0  0  0  0  0
  -30.4306  -12.4657   19.4713 C   0  0  0  0  0  0
  -29.5076  -12.5090   18.2336 C   0  0  0  0  0  0
  -28.0337  -12.3313   18.6495 C   0  0  0  0  0  0
  -27.6372  -13.2360   19.8481 C   0  0  2  0  0  0
  -28.6841  -13.1816   20.9814 C   0  0  0  0  0  0
  -25.2476  -13.8201   20.5718 C   0  0  0  0  0  0
  -24.1770  -13.0422   20.9170 C   0  0  0  0  0  0
  -24.6390  -11.6911   20.8724 C   0  0  0  0  0  0
  -23.9074  -10.4285   21.0392 C   0  0  0  0  0  0
  -24.3623   -9.4204   21.9175 C   0  0  0  0  0  0
  -23.6295   -8.2241   22.0747 C   0  0  0  0  0  0
  -22.4277   -8.0279   21.3541 C   0  0  0  0  0  0
  -21.9914   -9.0249   20.4641 C   0  0  0  0  0  0
  -22.7245  -10.2124   20.3044 C   0  0  0  0  0  0
  -21.6854   -6.0734   22.5281 C   0  0  0  0  0  0
  -21.4017   -6.5636   23.8217 C   0  0  0  0  0  0
  -21.3663   -5.6786   24.9177 C   0  0  0  0  0  0
  -21.6042   -4.3049   24.7227 C   0  0  0  0  0  0
  -21.8822   -3.8143   23.4350 C   0  0  0  0  0  0
  -21.9195   -4.6960   22.3407 C   0  0  0  0  0  0
  -22.7796  -13.5193   21.1853 C   0  0  0  0  0  0
  -22.1657   -4.2145   21.0984 F   0  0  0  0  0  0
  -21.5635   -3.4535   25.7740 F   0  0  0  0  0  0
  -29.9824  -13.5336   20.3939 N   0  0  0  0  0  0
  -26.2920  -12.9423   20.3310 N   0  0  0  0  0  0
  -25.9325  -11.6556   20.5757 N   0  0  0  0  0  0
  -22.0468  -12.8170   22.0423 N   0  0  0  0  0  0
  -25.4123  -15.1940   20.4269 N   0  0  0  0  0  0
  -31.7932  -14.8606   20.1403 O   0  0  0  0  0  0
  -21.6640   -6.8875   21.4240 O   0  0  0  0  0  0
  -22.3459  -14.5507   20.6724 O   0  0  0  0  0  0
  -24.6322  -31.8527   23.1959 C   0  0  0  0  0  0
  -25.9142  -32.4737   23.8311 C   0  0  1  0  0  0
  -27.2233  -27.2473   20.1228 C   0  0  0  0  0  0
  -25.5931  -33.8542   24.2234 N   0  0  0  0  0  0
  -23.4295  -30.4732   21.5395 C   0  0  2  0  0  0
  -24.8755  -28.9133   20.1088 C   0  0  0  0  0  0
  -22.7510  -29.4582   22.4911 C   0  0  0  0  0  0
  -18.0301  -28.1371   22.8477 C   0  0  0  0  0  0
  -24.1492  -36.7275   23.2642 C   0  0  0  0  0  0
  -25.9750  -30.7597   21.3774 C   0  0  0  0  0  0
  -26.0459  -29.3813   20.7169 C   0  0  0  0  0  0
  -27.2181  -28.5600   20.7120 C   0  0  0  0  0  0
  -26.0242  -26.8404   19.4980 C   0  0  0  0  0  0
  -24.8699  -27.6523   19.4907 C   0  0  0  0  0  0
  -23.6477  -29.8036   20.1564 C   0  0  0  0  0  0
  -25.4122  -36.3057   24.0322 C   0  0  1  0  0  0
  -20.5904  -28.3686   23.1263 C   0  0  2  0  0  0
  -20.6794  -26.9407   22.5403 C   0  0  0  0  0  0
  -19.5771  -26.6371   21.5209 C   0  0  0  0  0  0
  -18.1948  -26.7919   22.1610 C   0  0  0  0  0  0
  -19.1554  -28.8846   23.2863 C   0  0  0  0  0  0
  -18.9475  -30.1450   23.8877 C   0  0  0  0  0  0
  -17.6471  -30.6578   24.0548 C   0  0  0  0  0  0
  -25.9062  -34.9428   23.5083 C   0  0  0  0  0  0
  -16.5363  -29.9070   23.6325 C   0  0  0  0  0  0
  -16.7289  -28.6485   23.0351 C   0  0  0  0  0  0
  -26.4502  -31.6580   25.0718 C   0  0  0  0  0  0
  -25.3710  -31.3741   26.1431 C   0  0  0  0  0  0
  -27.0363  -30.2993   24.6238 C   0  0  0  0  0  0
  -27.6047  -32.4336   25.7493 C   0  0  0  0  0  0
  -27.5580  -37.1796   24.8465 C   0  0  0  0  0  0
  -21.4218  -29.3030   22.3657 N   0  0  0  0  0  0
  -26.4294  -37.3760   23.9403 N   0  0  0  0  0  0
  -24.6980  -31.0479   22.0935 N   0  0  0  0  0  0
  -23.4207  -28.8136   23.3025 O   0  0  0  0  0  0
  -28.3474  -26.3894   20.2027 O   0  0  0  0  0  0
  -26.5640  -34.8907   22.4658 O   0  0  0  0  0  0
  -23.5469  -32.1363   23.7242 O   0  0  0  0  0  0
  -27.5050  -20.7266   21.2715 C   0  0  0  0  0  0
  -29.2023  -18.6163   20.6775 C   0  0  0  0  0  0
  -28.6715  -20.9891   20.5131 C   0  0  0  0  0  0
  -28.0158  -18.4664   21.4495 C   0  0  0  0  0  0
  -30.1886  -17.3803   20.3748 C   0  0  0  0  0  0
  -28.3679  -23.6404   20.5668 C   0  0  0  0  0  0
  -28.4341  -24.9868   19.6517 C   0  0  0  0  0  0
  -27.1793  -19.4909   21.7232 N   0  0  0  0  0  0
  -29.5077  -19.9073   20.2177 N   0  0  0  0  0  0
  -27.6193  -17.2584   22.0054 N   0  0  0  0  0  0
  -28.9601  -22.3312   20.0395 N   0  0  0  0  0  0
  -29.8171  -15.9017   20.5842 N   0  0  0  0  0  0
  -31.4714  -12.5928   19.1673 H   0  0  0  0  0  0
  -30.3776  -11.4921   19.9608 H   0  0  0  0  0  0
  -29.7924  -11.7335   17.5209 H   0  0  0  0  0  0
  -29.6303  -13.4614   17.7154 H   0  0  0  0  0  0
  -27.8948  -11.2829   18.9175 H   0  0  0  0  0  0
  -27.3751  -12.5152   17.7996 H   0  0  0  0  0  0
  -27.6226  -14.2555   19.4604 H   0  0  0  0  0  0
  -28.7219  -12.1876   21.4294 H   0  0  0  0  0  0
  -28.4183  -13.8717   21.7842 H   0  0  0  0  0  0
  -25.2773   -9.5678   22.4743 H   0  0  0  0  0  0
  -24.0003   -7.4636   22.7473 H   0  0  0  0  0  0
  -21.0842   -8.8772   19.8951 H   0  0  0  0  0  0
  -22.3711  -10.9656   19.6146 H   0  0  0  0  0  0
  -21.2005   -7.6144   23.9720 H   0  0  0  0  0  0
  -21.1480   -6.0516   25.9082 H   0  0  0  0  0  0
  -22.0599   -2.7603   23.2853 H   0  0  0  0  0  0
  -22.4092  -11.9820   22.4780 H   0  0  0  0  0  0
  -21.1090  -13.1180   22.2667 H   0  0  0  0  0  0
  -24.6532  -15.8386   20.6166 H   0  0  0  0  0  0
  -26.3050  -15.6655   20.3363 H   0  0  0  0  0  0
  -26.7206  -32.5372   23.1046 H   0  0  0  0  0  0
  -25.0054  -33.9675   25.0363 H   0  0  0  0  0  0
  -22.7256  -31.2953   21.3921 H   0  0  0  0  0  0
  -23.3754  -35.9609   23.3301 H   0  0  0  0  0  0
  -24.3579  -36.8907   22.2057 H   0  0  0  0  0  0
  -23.7245  -37.6473   23.6676 H   0  0  0  0  0  0
  -26.1199  -31.5219   20.6106 H   0  0  0  0  0  0
  -26.8498  -30.8049   22.0142 H   0  0  0  0  0  0
  -28.1159  -28.9141   21.1988 H   0  0  0  0  0  0
  -25.9394  -25.8698   19.0353 H   0  0  0  0  0  0
  -23.9689  -27.2857   19.0184 H   0  0  0  0  0  0
  -23.7753  -30.5785   19.3993 H   0  0  0  0  0  0
  -22.7646  -29.2388   19.8513 H   0  0  0  0  0  0
  -25.1308  -36.1901   25.0814 H   0  0  0  0  0  0
  -20.9983  -28.3251   24.1390 H   0  0  0  0  0  0
  -20.5698  -26.2304   23.3612 H   0  0  0  0  0  0
  -21.6662  -26.7430   22.1195 H   0  0  0  0  0  0
  -19.6930  -25.6271   21.1263 H   0  0  0  0  0  0
  -19.6715  -27.3165   20.6724 H   0  0  0  0  0  0
  -17.4231  -26.6676   21.3997 H   0  0  0  0  0  0
  -18.0340  -26.0049   22.8994 H   0  0  0  0  0  0
  -19.7950  -30.7273   24.2234 H   0  0  0  0  0  0
  -17.5023  -31.6263   24.5137 H   0  0  0  0  0  0
  -15.5361  -30.2962   23.7644 H   0  0  0  0  0  0
  -15.8696  -28.0789   22.7069 H   0  0  0  0  0  0
  -24.5889  -30.7092   25.7749 H   0  0  0  0  0  0
  -24.8898  -32.2915   26.4831 H   0  0  0  0  0  0
  -25.8014  -30.8928   27.0221 H   0  0  0  0  0  0
  -26.2964  -29.6725   24.1248 H   0  0  0  0  0  0
  -27.4013  -29.7278   25.4780 H   0  0  0  0  0  0
  -27.8849  -30.4256   23.9511 H   0  0  0  0  0  0
  -27.2648  -33.3642   26.2049 H   0  0  0  0  0  0
  -28.3865  -32.6895   25.0328 H   0  0  0  0  0  0
  -28.0710  -31.8482   26.5427 H   0  0  0  0  0  0
  -28.2595  -38.0095   24.7508 H   0  0  0  0  0  0
  -28.1079  -36.2624   24.6298 H   0  0  0  0  0  0
  -27.2294  -37.1450   25.8867 H   0  0  0  0  0  0
  -20.9410  -29.8747   21.6852 H   0  0  0  0  0  0
  -26.0168  -38.2833   24.1401 H   0  0  0  0  0  0
  -26.8034  -21.5078   21.5194 H   0  0  0  0  0  0
  -31.0900  -17.5652   20.9597 H   0  0  0  0  0  0
  -30.4969  -17.4797   19.3337 H   0  0  0  0  0  0
  -28.8924  -23.8530   21.4991 H   0  0  0  0  0  0
  -27.3265  -23.4872   20.8485 H   0  0  0  0  0  0
  -27.7750  -24.8650   18.7937 H   0  0  0  0  0  0
  -29.4270  -24.9745   19.2014 H   0  0  0  0  0  0
  -28.3734  -16.6792   22.3520 H   0  0  0  0  0  0
  -26.8576  -17.3181   22.6714 H   0  0  0  0  0  0
  -29.8123  -22.4266   19.4959 H   0  0  0  0  0  0
  -28.8353  -15.7371   20.7499 H   0  0  0  0  0  0
  1 25  1  0  0  0
  1 30  2  0  0  0
  1 82  1  0  0  0
  2  3  1  0  0  0
  2 25  1  0  0  0
  2 83  1  0  0  0
  2 84  1  0  0  0
  3  4  1  0  0  0
  3 85  1  0  0  0
  3 86  1  0  0  0
  4  5  1  0  0  0
  4 87  1  0  0  0
  4 88  1  0  0  0
  5  6  1  0  0  0
  5 26  1  0  0  0
  5 89  1  0  0  0
  6 25  1  0  0  0
  6 90  1  0  0  0
  6 91  1  0  0  0
  7  8  2  0  0  0
  7 26  1  0  0  0
  7 29  1  0  0  0
  8  9  1  0  0  0
  8 22  1  0  0  0
  9 10  1  0  0  0
  9 27  2  0  0  0
 10 11  2  0  0  0
 10 15  1  0  0  0
 11 12  1  0  0  0
 11 92  1  0  0  0
 12 13  2  0  0  0
 12 93  1  0  0  0
 13 14  1  0  0  0
 13 31  1  0  0  0
 14 15  2  0  0  0
 14 94  1  0  0  0
 15 95  1  0  0  0
 16 17  2  0  0  0
 16 21  1  0  0  0
 16 31  1  0  0  0
 17 18  1  0  0  0
 17 96  1  0  0  0
 18 19  2  0  0  0
 18 97  1  0  0  0
 19 20  1  0  0  0
 19 24  1  0  0  0
 20 21  2  0  0  0
 20 98  1  0  0  0
 21 23  1  0  0  0
 22 28  1  0  0  0
 22 32  2  0  0  0
 26 27  1  0  0  0
 28 99  1  0  0  0
 28100  1  0  0  0
 29101  1  0  0  0
 29102  1  0  0  0
 33 34  1  0  0  0
 33 66  1  0  0  0
 33 70  2  0  0  0
 34 36  1  0  0  0
 34 59  1  0  0  0
 34103  1  0  0  0
 35 44  2  0  0  0
 35 45  1  0  0  0
 35 68  1  0  0  0
 36 56  1  0  0  0
 36104  1  0  0  0
 37 39  1  0  0  0
 37 47  1  0  0  0
 37 66  1  0  0  0
 37105  1  0  0  0
 38 43  2  0  0  0
 38 46  1  0  0  0
 38 47  1  0  0  0
 39 64  1  0  0  0
 39 67  2  0  0  0
 40 52  1  0  0  0
 40 53  2  0  0  0
 40 58  1  0  0  0
 41106  1  0  0  0
 41107  1  0  0  0
 41108  1  0  0  0
 41 48  1  0  0  0
 42 43  1  0  0  0
 42 66  1  0  0  0
 42109  1  0  0  0
 42110  1  0  0  0
 43 44  1  0  0  0
 44111  1  0  0  0
 45 46  2  0  0  0
 45112  1  0  0  0
 46113  1  0  0  0
 47114  1  0  0  0
 47115  1  0  0  0
 48 56  1  0  0  0
 48 65  1  0  0  0
 48116  1  0  0  0
 49 50  1  0  0  0
 49 53  1  0  0  0
 49 64  1  0  0  0
 49117  1  0  0  0
 50 51  1  0  0  0
 50118  1  0  0  0
 50119  1  0  0  0
 51 52  1  0  0  0
 51120  1  0  0  0
 51121  1  0  0  0
 52122  1  0  0  0
 52123  1  0  0  0
 53 54  1  0  0  0
 54 55  2  0  0  0
 54124  1  0  0  0
 55 57  1  0  0  0
 55125  1  0  0  0
 56 69  2  0  0  0
 57 58  2  0  0  0
 57126  1  0  0  0
 58127  1  0  0  0
 59 60  1  0  0  0
 59 61  1  0  0  0
 59 62  1  0  0  0
 60128  1  0  0  0
 60129  1  0  0  0
 60130  1  0  0  0
 61131  1  0  0  0
 61132  1  0  0  0
 61133  1  0  0  0
 62134  1  0  0  0
 62135  1  0  0  0
 62136  1  0  0  0
 63 65  1  0  0  0
 63137  1  0  0  0
 63138  1  0  0  0
 63139  1  0  0  0
 64140  1  0  0  0
 65141  1  0  0  0
 68 77  1  0  0  0
 71 73  2  0  0  0
 71 78  1  0  0  0
 71142  1  0  0  0
 72 74  1  0  0  0
 72 75  1  0  0  0
 72 79  2  0  0  0
 73 79  1  0  0  0
 73 81  1  0  0  0
 74 78  2  0  0  0
 74 80  1  0  0  0
 75 82  1  0  0  0
 75143  1  0  0  0
 75144  1  0  0  0
 76 77  1  0  0  0
 76 81  1  0  0  0
 76145  1  0  0  0
 76146  1  0  0  0
 77147  1  0  0  0
 77148  1  0  0  0
 80149  1  0  0  0
 80150  1  0  0  0
 81151  1  0  0  0
 82152  1  0  0  0
M  ISO  4   1 100  68 101  77 101  82 100
M  END
> <chiral flag>
0

> <version>
0

> <s_m_source_file>
/data/baiqing/PycharmProjects/Reinvent-master-3.2/result/LINK_invent/BTK/process_docking_weight1_custom_product_contain_oxygen_bond_distance_aromatic_linkinvent_7_9_3/rearranged_h_0198.sdf

> <i_m_source_file_index>
33

> <r_mmod_Potential_Energy-OPLS-2005>
83.0324478149414

> <r_mmod_Stretch_Energy-OPLS-2005>
134.929138183594

> <r_mmod_Bend_Energy-OPLS-2005>
193.237640380859

> <r_mmod_Torsional_Energy-OPLS-2005>
198.142120361328

> <r_mmod_Improper_Torsional_Energy-OPLS-2005>
11.070650100708

> <r_mmod_Van_der_Waal_Energy-OPLS-2005>
139.689544677734

> <r_mmod_Electrostatic_Energy-OPLS-2005>
-450.310455322266

> <r_mmod_Solvation_Energy-OPLS-2005>
-236.275619506836

> <b_mmod_Minimization_Converged-OPLS-2005>
0

> <r_mmod_RMS_Derivative-OPLS-2005>
1.17269062995911

$$$$
33
                    3D
 Structure written by MMmdl.
156164  0  0  1  0            999 V2000
  -30.6228  -14.6646   20.5046 C   0  0  0  0  0  0
  -30.4416  -12.4127   19.4523 C   0  0  0  0  0  0
  -29.5092  -12.5095   18.2237 C   0  0  0  0  0  0
  -28.0311  -12.3470   18.6332 C   0  0  0  0  0  0
  -27.6511  -13.2202   19.8587 C   0  0  2  0  0  0
  -28.6967  -13.0892   20.9893 C   0  0  0  0  0  0
  -25.2553  -13.8178   20.5692 C   0  0  0  0  0  0
  -24.1830  -13.0440   20.9218 C   0  0  0  0  0  0
  -24.6390  -11.6911   20.8746 C   0  0  0  0  0  0
  -23.9055  -10.4299   21.0409 C   0  0  0  0  0  0
  -24.3607   -9.4213   21.9190 C   0  0  0  0  0  0
  -23.6294   -8.2238   22.0752 C   0  0  0  0  0  0
  -22.4274   -8.0276   21.3540 C   0  0  0  0  0  0
  -21.9898   -9.0256   20.4641 C   0  0  0  0  0  0
  -22.7223  -10.2139   20.3057 C   0  0  0  0  0  0
  -21.6850   -6.0737   22.5285 C   0  0  0  0  0  0
  -21.4017   -6.5640   23.8220 C   0  0  0  0  0  0
  -21.3655   -5.6786   24.9178 C   0  0  0  0  0  0
  -21.6041   -4.3051   24.7225 C   0  0  0  0  0  0
  -21.8827   -3.8140   23.4343 C   0  0  0  0  0  0
  -21.9194   -4.6961   22.3401 C   0  0  0  0  0  0
  -22.7852  -13.5238   21.1874 C   0  0  0  0  0  0
  -22.1667   -4.2153   21.0974 F   0  0  0  0  0  0
  -21.5622   -3.4526   25.7734 F   0  0  0  0  0  0
  -30.0092  -13.4388   20.4232 N   0  0  0  0  0  0
  -26.2973  -12.9358   20.3280 N   0  0  0  0  0  0
  -25.9318  -11.6512   20.5738 N   0  0  0  0  0  0
  -22.0465  -12.8247   22.0417 N   0  0  0  0  0  0
  -25.4259  -15.1904   20.4109 N   0  0  0  0  0  0
  -31.7961  -14.8059   20.1436 O   0  0  0  0  0  0
  -21.6633   -6.8874   21.4243 O   0  0  0  0  0  0
  -22.3548  -14.5539   20.6701 O   0  0  0  0  0  0
  -24.6272  -31.8587   23.2018 C   0  0  0  0  0  0
  -25.9114  -32.4768   23.8357 C   0  0  1  0  0  0
  -27.2375  -27.3196   20.1192 C   0  0  0  0  0  0
  -25.5933  -33.8570   24.2280 N   0  0  0  0  0  0
  -23.4214  -30.4821   21.5428 C   0  0  2  0  0  0
  -24.8714  -28.9362   20.1103 C   0  0  0  0  0  0
  -22.7475  -29.4619   22.4921 C   0  0  0  0  0  0
  -18.0281  -28.1372   22.8474 C   0  0  0  0  0  0
  -24.1485  -36.7287   23.2628 C   0  0  0  0  0  0
  -25.9635  -30.7895   21.3742 C   0  0  0  0  0  0
  -26.0394  -29.4181   20.7144 C   0  0  0  0  0  0
  -27.2238  -28.6223   20.7070 C   0  0  0  0  0  0
  -26.0430  -26.8926   19.4898 C   0  0  0  0  0  0
  -24.8756  -27.6788   19.4887 C   0  0  0  0  0  0
  -23.6372  -29.8136   20.1596 C   0  0  0  0  0  0
  -25.4098  -36.3069   24.0331 C   0  0  1  0  0  0
  -20.5882  -28.3678   23.1261 C   0  0  2  0  0  0
  -20.6761  -26.9399   22.5385 C   0  0  0  0  0  0
  -19.5746  -26.6372   21.5180 C   0  0  0  0  0  0
  -18.1932  -26.7913   22.1607 C   0  0  0  0  0  0
  -19.1534  -28.8839   23.2862 C   0  0  0  0  0  0
  -18.9461  -30.1436   23.8883 C   0  0  0  0  0  0
  -17.6467  -30.6579   24.0546 C   0  0  0  0  0  0
  -25.9052  -34.9445   23.5103 C   0  0  0  0  0  0
  -16.5351  -29.9074   23.6325 C   0  0  0  0  0  0
  -16.7270  -28.6483   23.0356 C   0  0  0  0  0  0
  -26.4499  -31.6586   25.0739 C   0  0  0  0  0  0
  -25.3753  -31.3742   26.1488 C   0  0  0  0  0  0
  -27.0327  -30.2999   24.6207 C   0  0  0  0  0  0
  -27.6058  -32.4326   25.7506 C   0  0  0  0  0  0
  -27.5597  -37.1751   24.8429 C   0  0  0  0  0  0
  -21.4188  -29.3046   22.3667 N   0  0  0  0  0  0
  -26.4255  -37.3786   23.9458 N   0  0  0  0  0  0
  -24.6888  -31.0607   22.0958 N   0  0  0  0  0  0
  -23.4195  -28.8159   23.2998 O   0  0  0  0  0  0
  -28.3622  -26.4752   20.1837 O   0  0  0  0  0  0
  -26.5620  -34.8913   22.4671 O   0  0  0  0  0  0
  -23.5432  -32.1378   23.7348 O   0  0  0  0  0  0
  -28.7970  -17.9896   20.7369 C   0  0  0  0  0  0
  -29.9788  -17.1812   20.7214 C   0  0  0  0  0  0
  -29.9804  -20.0023   20.5856 C   0  0  0  0  0  0
  -31.1743  -19.2117   20.5933 C   0  0  0  0  0  0
  -29.7370  -22.5469   17.6359 C   0  0  0  0  0  0
  -28.6240  -22.1541   18.6218 C   0  0  0  0  0  0
  -29.2706  -23.9521   20.3933 C   0  0  0  0  0  0
  -28.1695  -25.0231   19.9514 C   0  0  0  0  0  0
  -28.9742  -22.3941   20.1067 C   0  0  2  0  0  0
  -28.7836  -19.3613   20.6597 N   0  0  0  0  0  0
  -31.1716  -17.8401   20.6496 N   0  0  0  0  0  0
  -29.8085  -15.7266   20.8094 N   0  0  0  0  0  0
  -30.0459  -21.4385   20.5330 N   0  0  0  0  0  0
  -32.3748  -19.8403   20.5507 F   0  0  0  0  0  0
  -31.4801  -12.5494   19.1450 H   0  0  0  0  0  0
  -30.3887  -11.4188   19.9014 H   0  0  0  0  0  0
  -29.7787  -11.7507   17.4877 H   0  0  0  0  0  0
  -29.6480  -13.4727   17.7295 H   0  0  0  0  0  0
  -27.8654  -11.2947   18.8642 H   0  0  0  0  0  0
  -27.3783  -12.5776   17.7902 H   0  0  0  0  0  0
  -27.6617  -14.2535   19.5107 H   0  0  0  0  0  0
  -28.7151  -12.0702   21.3790 H   0  0  0  0  0  0
  -28.4397  -13.7275   21.8356 H   0  0  0  0  0  0
  -25.2755   -9.5703   22.4759 H   0  0  0  0  0  0
  -24.0018   -7.4627   22.7461 H   0  0  0  0  0  0
  -21.0831   -8.8769   19.8950 H   0  0  0  0  0  0
  -22.3678  -10.9679   19.6162 H   0  0  0  0  0  0
  -21.2012   -7.6152   23.9730 H   0  0  0  0  0  0
  -21.1466   -6.0509   25.9086 H   0  0  0  0  0  0
  -22.0605   -2.7605   23.2832 H   0  0  0  0  0  0
  -22.4058  -11.9910   22.4835 H   0  0  0  0  0  0
  -21.1086  -13.1305   22.2593 H   0  0  0  0  0  0
  -24.6520  -15.8366   20.5216 H   0  0  0  0  0  0
  -26.2415  -15.6189   19.9948 H   0  0  0  0  0  0
  -26.7188  -32.5429   23.1112 H   0  0  0  0  0  0
  -25.0083  -33.9706   25.0426 H   0  0  0  0  0  0
  -22.7143  -31.3017   21.3969 H   0  0  0  0  0  0
  -23.3775  -35.9586   23.3197 H   0  0  0  0  0  0
  -24.3609  -36.9004   22.2064 H   0  0  0  0  0  0
  -23.7182  -37.6439   23.6708 H   0  0  0  0  0  0
  -26.1004  -31.5542   20.6084 H   0  0  0  0  0  0
  -26.8419  -30.8339   22.0064 H   0  0  0  0  0  0
  -28.1195  -28.9898   21.1879 H   0  0  0  0  0  0
  -25.9795  -25.9316   19.0022 H   0  0  0  0  0  0
  -23.9817  -27.3010   19.0113 H   0  0  0  0  0  0
  -23.7503  -30.5872   19.3994 H   0  0  0  0  0  0
  -22.7594  -29.2380   19.8613 H   0  0  0  0  0  0
  -25.1256  -36.1897   25.0816 H   0  0  0  0  0  0
  -20.9969  -28.3239   24.1381 H   0  0  0  0  0  0
  -20.5613  -26.2295   23.3586 H   0  0  0  0  0  0
  -21.6635  -26.7398   22.1209 H   0  0  0  0  0  0
  -19.6910  -25.6274   21.1223 H   0  0  0  0  0  0
  -19.6692  -27.3161   20.6691 H   0  0  0  0  0  0
  -17.4189  -26.6625   21.4026 H   0  0  0  0  0  0
  -18.0369  -26.0055   22.9011 H   0  0  0  0  0  0
  -19.7941  -30.7239   24.2260 H   0  0  0  0  0  0
  -17.5027  -31.6262   24.5141 H   0  0  0  0  0  0
  -15.5353  -30.2977   23.7656 H   0  0  0  0  0  0
  -15.8663  -28.0792   22.7101 H   0  0  0  0  0  0
  -24.5857  -30.7172   25.7824 H   0  0  0  0  0  0
  -24.9046  -32.2929   26.5000 H   0  0  0  0  0  0
  -25.8091  -30.8836   27.0213 H   0  0  0  0  0  0
  -26.2897  -29.6759   24.1227 H   0  0  0  0  0  0
  -27.3996  -29.7246   25.4719 H   0  0  0  0  0  0
  -27.8788  -30.4261   23.9449 H   0  0  0  0  0  0
  -27.2654  -33.3609   26.2105 H   0  0  0  0  0  0
  -28.3862  -32.6917   25.0340 H   0  0  0  0  0  0
  -28.0744  -31.8451   26.5411 H   0  0  0  0  0  0
  -28.2471  -38.0187   24.7686 H   0  0  0  0  0  0
  -28.1234  -36.2737   24.5973 H   0  0  0  0  0  0
  -27.2367  -37.1051   25.8829 H   0  0  0  0  0  0
  -20.9356  -29.8800   21.6912 H   0  0  0  0  0  0
  -26.0125  -38.2828   24.1586 H   0  0  0  0  0  0
  -27.8239  -17.5243   20.8109 H   0  0  0  0  0  0
  -29.4227  -22.3606   16.6092 H   0  0  0  0  0  0
  -30.6490  -21.9761   17.8116 H   0  0  0  0  0  0
  -29.9854  -23.6060   17.7066 H   0  0  0  0  0  0
  -28.3650  -21.1064   18.4651 H   0  0  0  0  0  0
  -27.7168  -22.7037   18.3706 H   0  0  0  0  0  0
  -29.4338  -24.0741   21.4646 H   0  0  0  0  0  0
  -30.2191  -24.2280   19.9315 H   0  0  0  0  0  0
  -27.2440  -24.7136   20.4395 H   0  0  0  0  0  0
  -28.0090  -24.9085   18.8797 H   0  0  0  0  0  0
  -28.0902  -22.1319   20.6903 H   0  0  0  0  0  0
  -28.8680  -15.4393   21.0317 H   0  0  0  0  0  0
  -30.9987  -21.7835   20.4560 H   0  0  0  0  0  0
  1 25  1  0  0  0
  1 30  2  0  0  0
  1 82  1  0  0  0
  2  3  1  0  0  0
  2 25  1  0  0  0
  2 85  1  0  0  0
  2 86  1  0  0  0
  3  4  1  0  0  0
  3 87  1  0  0  0
  3 88  1  0  0  0
  4  5  1  0  0  0
  4 89  1  0  0  0
  4 90  1  0  0  0
  5  6  1  0  0  0
  5 26  1  0  0  0
  5 91  1  0  0  0
  6 25  1  0  0  0
  6 92  1  0  0  0
  6 93  1  0  0  0
  7  8  2  0  0  0
  7 26  1  0  0  0
  7 29  1  0  0  0
  8  9  1  0  0  0
  8 22  1  0  0  0
  9 10  1  0  0  0
  9 27  2  0  0  0
 10 11  2  0  0  0
 10 15  1  0  0  0
 11 12  1  0  0  0
 11 94  1  0  0  0
 12 13  2  0  0  0
 12 95  1  0  0  0
 13 14  1  0  0  0
 13 31  1  0  0  0
 14 15  2  0  0  0
 14 96  1  0  0  0
 15 97  1  0  0  0
 16 17  2  0  0  0
 16 21  1  0  0  0
 16 31  1  0  0  0
 17 18  1  0  0  0
 17 98  1  0  0  0
 18 19  2  0  0  0
 18 99  1  0  0  0
 19 20  1  0  0  0
 19 24  1  0  0  0
 20 21  2  0  0  0
 20100  1  0  0  0
 21 23  1  0  0  0
 22 28  1  0  0  0
 22 32  2  0  0  0
 26 27  1  0  0  0
 28101  1  0  0  0
 28102  1  0  0  0
 29103  1  0  0  0
 29104  1  0  0  0
 33 34  1  0  0  0
 33 66  1  0  0  0
 33 70  2  0  0  0
 34 36  1  0  0  0
 34 59  1  0  0  0
 34105  1  0  0  0
 35 44  2  0  0  0
 35 45  1  0  0  0
 35 68  1  0  0  0
 36 56  1  0  0  0
 36106  1  0  0  0
 37 39  1  0  0  0
 37 47  1  0  0  0
 37 66  1  0  0  0
 37107  1  0  0  0
 38 43  2  0  0  0
 38 46  1  0  0  0
 38 47  1  0  0  0
 39 64  1  0  0  0
 39 67  2  0  0  0
 40 52  1  0  0  0
 40 53  2  0  0  0
 40 58  1  0  0  0
 41108  1  0  0  0
 41109  1  0  0  0
 41110  1  0  0  0
 41 48  1  0  0  0
 42 43  1  0  0  0
 42 66  1  0  0  0
 42111  1  0  0  0
 42112  1  0  0  0
 43 44  1  0  0  0
 44113  1  0  0  0
 45 46  2  0  0  0
 45114  1  0  0  0
 46115  1  0  0  0
 47116  1  0  0  0
 47117  1  0  0  0
 48 56  1  0  0  0
 48 65  1  0  0  0
 48118  1  0  0  0
 49 50  1  0  0  0
 49 53  1  0  0  0
 49 64  1  0  0  0
 49119  1  0  0  0
 50 51  1  0  0  0
 50120  1  0  0  0
 50121  1  0  0  0
 51 52  1  0  0  0
 51122  1  0  0  0
 51123  1  0  0  0
 52124  1  0  0  0
 52125  1  0  0  0
 53 54  1  0  0  0
 54 55  2  0  0  0
 54126  1  0  0  0
 55 57  1  0  0  0
 55127  1  0  0  0
 56 69  2  0  0  0
 57 58  2  0  0  0
 57128  1  0  0  0
 58129  1  0  0  0
 59 60  1  0  0  0
 59 61  1  0  0  0
 59 62  1  0  0  0
 60130  1  0  0  0
 60131  1  0  0  0
 60132  1  0  0  0
 61133  1  0  0  0
 61134  1  0  0  0
 61135  1  0  0  0
 62136  1  0  0  0
 62137  1  0  0  0
 62138  1  0  0  0
 63 65  1  0  0  0
 63139  1  0  0  0
 63140  1  0  0  0
 63141  1  0  0  0
 64142  1  0  0  0
 65143  1  0  0  0
 68 78  1  0  0  0
 71 72  2  0  0  0
 71 80  1  0  0  0
 71144  1  0  0  0
 72 81  1  0  0  0
 72 82  1  0  0  0
 73 74  1  0  0  0
 73 80  2  0  0  0
 73 83  1  0  0  0
 74 81  2  0  0  0
 74 84  1  0  0  0
 75 76  1  0  0  0
 75145  1  0  0  0
 75146  1  0  0  0
 75147  1  0  0  0
 76148  1  0  0  0
 76149  1  0  0  0
 76 79  1  0  0  0
 77 78  1  0  0  0
 77 79  1  0  0  0
 77150  1  0  0  0
 77151  1  0  0  0
 78152  1  0  0  0
 78153  1  0  0  0
 79 83  1  0  0  0
 79154  1  0  0  0
 82155  1  0  0  0
 83156  1  0  0  0
M  ISO  4   1 100  68 101  78 101  82 100
M  END
> <chiral flag>
0

> <version>
0

> <s_m_source_file>
/data/baiqing/PycharmProjects/Reinvent-master-3.2/result/LINK_invent/BTK/process_docking_weight1_custom_product_contain_oxygen_bond_distance_aromatic_linkinvent_7_9_3/rearranged_h_0198.sdf

> <i_m_source_file_index>
34

> <r_mmod_Potential_Energy-OPLS-2005>
88.8292770385742

> <r_mmod_Stretch_Energy-OPLS-2005>
87.6556625366211

> <r_mmod_Bend_Energy-OPLS-2005>
151.876724243164

> <r_mmod_Torsional_Energy-OPLS-2005>
204.210189819336

> <r_mmod_Improper_Torsional_Energy-OPLS-2005>
6.23208141326904

> <r_mmod_Van_der_Waal_Energy-OPLS-2005>
146.693328857422

> <r_mmod_Electrostatic_Energy-OPLS-2005>
-329.448822021484

> <r_mmod_Solvation_Energy-OPLS-2005>
-231.303924560547

> <b_mmod_Minimization_Converged-OPLS-2005>
0

> <r_mmod_RMS_Derivative-OPLS-2005>
1.89150404930115

$$$$
34
                    3D
 Structure written by MMmdl.
152160  0  0  1  0            999 V2000
  -30.7272  -14.4656   20.5994 C   0  0  0  0  0  0
  -30.4175  -12.3159   19.4215 C   0  0  0  0  0  0
  -29.4911  -12.5094   18.2052 C   0  0  0  0  0  0
  -28.0142  -12.3664   18.6198 C   0  0  0  0  0  0
  -27.6599  -13.2108   19.8732 C   0  0  2  0  0  0
  -28.7014  -13.0040   20.9957 C   0  0  0  0  0  0
  -25.2580  -13.8171   20.5682 C   0  0  0  0  0  0
  -24.1834  -13.0443   20.9181 C   0  0  0  0  0  0
  -24.6391  -11.6911   20.8732 C   0  0  0  0  0  0
  -23.9058  -10.4295   21.0400 C   0  0  0  0  0  0
  -24.3611   -9.4211   21.9179 C   0  0  0  0  0  0
  -23.6289   -8.2244   22.0751 C   0  0  0  0  0  0
  -22.4272   -8.0279   21.3543 C   0  0  0  0  0  0
  -21.9905   -9.0253   20.4646 C   0  0  0  0  0  0
  -22.7229  -10.2134   20.3051 C   0  0  0  0  0  0
  -21.6853   -6.0733   22.5279 C   0  0  0  0  0  0
  -21.4013   -6.5635   23.8212 C   0  0  0  0  0  0
  -21.3660   -5.6788   24.9174 C   0  0  0  0  0  0
  -21.6045   -4.3052   24.7224 C   0  0  0  0  0  0
  -21.8820   -3.8144   23.4345 C   0  0  0  0  0  0
  -21.9195   -4.6961   22.3403 C   0  0  0  0  0  0
  -22.7857  -13.5241   21.1845 C   0  0  0  0  0  0
  -22.1664   -4.2148   21.0980 F   0  0  0  0  0  0
  -21.5629   -3.4535   25.7736 F   0  0  0  0  0  0
  -30.0315  -13.3055   20.4413 N   0  0  0  0  0  0
  -26.3016  -12.9347   20.3360 N   0  0  0  0  0  0
  -25.9320  -11.6503   20.5761 N   0  0  0  0  0  0
  -22.0494  -12.8237   22.0400 N   0  0  0  0  0  0
  -25.4310  -15.1886   20.4085 N   0  0  0  0  0  0
  -31.8343  -14.6466   20.0860 O   0  0  0  0  0  0
  -21.6639   -6.8875   21.4240 O   0  0  0  0  0  0
  -22.3545  -14.5549   20.6693 O   0  0  0  0  0  0
  -24.6159  -31.8675   23.2096 C   0  0  0  0  0  0
  -25.9048  -32.4820   23.8396 C   0  0  1  0  0  0
  -27.2285  -27.4230   20.1022 C   0  0  0  0  0  0
  -25.5903  -33.8618   24.2329 N   0  0  0  0  0  0
  -23.4047  -30.4912   21.5502 C   0  0  2  0  0  0
  -24.8518  -28.9584   20.1121 C   0  0  0  0  0  0
  -22.7419  -29.4655   22.4982 C   0  0  0  0  0  0
  -18.0274  -28.1378   22.8491 C   0  0  0  0  0  0
  -24.1487  -36.7311   23.2638 C   0  0  0  0  0  0
  -25.9354  -30.8303   21.3648 C   0  0  0  0  0  0
  -26.0135  -29.4649   20.7099 C   0  0  0  0  0  0
  -27.2087  -28.7059   20.6991 C   0  0  0  0  0  0
  -26.0546  -26.9409   19.4849 C   0  0  0  0  0  0
  -24.8679  -27.6964   19.4943 C   0  0  0  0  0  0
  -23.6137  -29.8251   20.1643 C   0  0  0  0  0  0
  -25.4107  -36.3111   24.0340 C   0  0  1  0  0  0
  -20.5866  -28.3665   23.1314 C   0  0  2  0  0  0
  -20.6764  -26.9400   22.5417 C   0  0  0  0  0  0
  -19.5744  -26.6384   21.5211 C   0  0  0  0  0  0
  -18.1921  -26.7926   22.1619 C   0  0  0  0  0  0
  -19.1524  -28.8838   23.2899 C   0  0  0  0  0  0
  -18.9451  -30.1446   23.8906 C   0  0  0  0  0  0
  -17.6453  -30.6584   24.0562 C   0  0  0  0  0  0
  -25.9033  -34.9475   23.5131 C   0  0  0  0  0  0
  -16.5345  -29.9084   23.6327 C   0  0  0  0  0  0
  -16.7264  -28.6501   23.0348 C   0  0  0  0  0  0
  -26.4472  -31.6597   25.0725 C   0  0  0  0  0  0
  -25.3740  -31.3707   26.1476 C   0  0  0  0  0  0
  -27.0296  -30.3037   24.6101 C   0  0  0  0  0  0
  -27.6056  -32.4310   25.7480 C   0  0  0  0  0  0
  -27.5583  -37.1806   24.8463 C   0  0  0  0  0  0
  -21.4145  -29.3032   22.3722 N   0  0  0  0  0  0
  -26.4294  -37.3793   23.9411 N   0  0  0  0  0  0
  -24.6702  -31.0772   22.0998 N   0  0  0  0  0  0
  -23.4188  -28.8195   23.3025 O   0  0  0  0  0  0
  -28.3638  -26.6382   20.1165 O   0  0  0  0  0  0
  -26.5591  -34.8926   22.4689 O   0  0  0  0  0  0
  -23.5348  -32.1429   23.7484 O   0  0  0  0  0  0
  -28.7078  -18.3345   21.5011 C   0  0  0  0  0  0
  -30.0344  -17.9972   21.3475 C   0  0  0  0  0  0
  -29.4909  -20.3681   20.8254 C   0  0  0  0  0  0
  -30.7496  -16.7124   21.7103 C   0  0  0  0  0  0
  -28.5651  -22.8306   20.8150 C   0  0  0  0  0  0
  -28.2143  -25.3939   20.8380 C   0  0  0  0  0  0
  -29.0622  -24.2093   20.2857 C   0  0  1  0  0  0
  -28.4158  -19.6819   21.2163 N   0  0  0  0  0  0
  -29.5032  -21.7359   20.5525 N   0  0  0  0  0  0
  -30.1171  -15.4454   21.2963 N   0  0  0  0  0  0
  -30.4081  -24.3454   20.7207 O   0  0  0  0  0  0
  -30.9454  -19.3756   20.7511 S   0  0  0  0  0  0
  -31.4620  -12.4084   19.1187 H   0  0  0  0  0  0
  -30.3160  -11.3070   19.8242 H   0  0  0  0  0  0
  -29.7328  -11.7836   17.4276 H   0  0  0  0  0  0
  -29.6577  -13.4947   17.7668 H   0  0  0  0  0  0
  -27.8285  -11.3106   18.8207 H   0  0  0  0  0  0
  -27.3619  -12.6358   17.7884 H   0  0  0  0  0  0
  -27.7017  -14.2575   19.5713 H   0  0  0  0  0  0
  -28.6794  -11.9717   21.3481 H   0  0  0  0  0  0
  -28.4576  -13.6133   21.8667 H   0  0  0  0  0  0
  -25.2756   -9.5691   22.4751 H   0  0  0  0  0  0
  -24.0004   -7.4636   22.7468 H   0  0  0  0  0  0
  -21.0837   -8.8767   19.8952 H   0  0  0  0  0  0
  -22.3684  -10.9670   19.6158 H   0  0  0  0  0  0
  -21.2001   -7.6144   23.9714 H   0  0  0  0  0  0
  -21.1481   -6.0517   25.9077 H   0  0  0  0  0  0
  -22.0598   -2.7607   23.2844 H   0  0  0  0  0  0
  -22.4103  -11.9897   22.4794 H   0  0  0  0  0  0
  -21.1112  -13.1268   22.2599 H   0  0  0  0  0  0
  -24.6643  -15.8449   20.5081 H   0  0  0  0  0  0
  -26.2821  -15.6216   20.0728 H   0  0  0  0  0  0
  -26.7122  -32.5530   23.1163 H   0  0  0  0  0  0
  -25.0072  -33.9780   25.0487 H   0  0  0  0  0  0
  -22.6934  -31.3080   21.4115 H   0  0  0  0  0  0
  -23.3749  -35.9644   23.3308 H   0  0  0  0  0  0
  -24.3583  -36.8916   22.2051 H   0  0  0  0  0  0
  -23.7238  -37.6520   23.6643 H   0  0  0  0  0  0
  -26.0509  -31.5975   20.5977 H   0  0  0  0  0  0
  -26.8219  -30.8820   21.9850 H   0  0  0  0  0  0
  -28.1049  -29.0896   21.1663 H   0  0  0  0  0  0
  -26.0539  -25.9736   19.0025 H   0  0  0  0  0  0
  -23.9768  -27.3027   19.0251 H   0  0  0  0  0  0
  -23.7208  -30.6007   19.4050 H   0  0  0  0  0  0
  -22.7379  -29.2445   19.8689 H   0  0  0  0  0  0
  -25.1282  -36.1978   25.0833 H   0  0  0  0  0  0
  -20.9958  -28.3232   24.1434 H   0  0  0  0  0  0
  -20.5669  -26.2271   23.3602 H   0  0  0  0  0  0
  -21.6636  -26.7444   22.1210 H   0  0  0  0  0  0
  -19.6905  -25.6297   21.1235 H   0  0  0  0  0  0
  -19.6688  -27.3199   20.6745 H   0  0  0  0  0  0
  -17.4196  -26.6685   21.4014 H   0  0  0  0  0  0
  -18.0315  -26.0062   22.9008 H   0  0  0  0  0  0
  -19.7928  -30.7260   24.2279 H   0  0  0  0  0  0
  -17.5009  -31.6267   24.5159 H   0  0  0  0  0  0
  -15.5345  -30.2988   23.7645 H   0  0  0  0  0  0
  -15.8665  -28.0823   22.7056 H   0  0  0  0  0  0
  -24.5911  -30.7052   25.7819 H   0  0  0  0  0  0
  -24.8930  -32.2861   26.4930 H   0  0  0  0  0  0
  -25.8096  -30.8875   27.0231 H   0  0  0  0  0  0
  -26.2835  -29.6803   24.1156 H   0  0  0  0  0  0
  -27.4067  -29.7268   25.4556 H   0  0  0  0  0  0
  -27.8673  -30.4353   23.9248 H   0  0  0  0  0  0
  -27.2685  -33.3602   26.2087 H   0  0  0  0  0  0
  -28.3846  -32.6881   25.0291 H   0  0  0  0  0  0
  -28.0745  -31.8415   26.5368 H   0  0  0  0  0  0
  -28.2605  -38.0100   24.7516 H   0  0  0  0  0  0
  -28.1073  -36.2633   24.6277 H   0  0  0  0  0  0
  -27.2305  -37.1449   25.8867 H   0  0  0  0  0  0
  -20.9305  -29.8755   21.6946 H   0  0  0  0  0  0
  -26.0187  -38.2874   24.1408 H   0  0  0  0  0  0
  -27.9153  -17.6954   21.8648 H   0  0  0  0  0  0
  -30.8468  -16.6714   22.7959 H   0  0  0  0  0  0
  -31.7771  -16.7694   21.3469 H   0  0  0  0  0  0
  -27.5981  -22.5901   20.3697 H   0  0  0  0  0  0
  -28.3988  -22.8821   21.8925 H   0  0  0  0  0  0
  -28.4522  -25.5722   21.8877 H   0  0  0  0  0  0
  -27.1733  -25.0677   20.8406 H   0  0  0  0  0  0
  -29.0284  -24.2115   19.1947 H   0  0  0  0  0  0
  -30.4134  -22.0930   20.2707 H   0  0  0  0  0  0
  -29.2057  -15.2318   21.6720 H   0  0  0  0  0  0
  -30.4043  -24.2947   21.6714 H   0  0  0  0  0  0
  1 25  1  0  0  0
  1 30  2  0  0  0
  1 80  1  0  0  0
  2  3  1  0  0  0
  2 25  1  0  0  0
  2 83  1  0  0  0
  2 84  1  0  0  0
  3  4  1  0  0  0
  3 85  1  0  0  0
  3 86  1  0  0  0
  4  5  1  0  0  0
  4 87  1  0  0  0
  4 88  1  0  0  0
  5  6  1  0  0  0
  5 26  1  0  0  0
  5 89  1  0  0  0
  6 25  1  0  0  0
  6 90  1  0  0  0
  6 91  1  0  0  0
  7  8  2  0  0  0
  7 26  1  0  0  0
  7 29  1  0  0  0
  8  9  1  0  0  0
  8 22  1  0  0  0
  9 10  1  0  0  0
  9 27  2  0  0  0
 10 11  2  0  0  0
 10 15  1  0  0  0
 11 12  1  0  0  0
 11 92  1  0  0  0
 12 13  2  0  0  0
 12 93  1  0  0  0
 13 14  1  0  0  0
 13 31  1  0  0  0
 14 15  2  0  0  0
 14 94  1  0  0  0
 15 95  1  0  0  0
 16 17  2  0  0  0
 16 21  1  0  0  0
 16 31  1  0  0  0
 17 18  1  0  0  0
 17 96  1  0  0  0
 18 19  2  0  0  0
 18 97  1  0  0  0
 19 20  1  0  0  0
 19 24  1  0  0  0
 20 21  2  0  0  0
 20 98  1  0  0  0
 21 23  1  0  0  0
 22 28  1  0  0  0
 22 32  2  0  0  0
 26 27  1  0  0  0
 28 99  1  0  0  0
 28100  1  0  0  0
 29101  1  0  0  0
 29102  1  0  0  0
 33 34  1  0  0  0
 33 66  1  0  0  0
 33 70  2  0  0  0
 34 36  1  0  0  0
 34 59  1  0  0  0
 34103  1  0  0  0
 35 44  2  0  0  0
 35 45  1  0  0  0
 35 68  1  0  0  0
 36 56  1  0  0  0
 36104  1  0  0  0
 37 39  1  0  0  0
 37 47  1  0  0  0
 37 66  1  0  0  0
 37105  1  0  0  0
 38 43  2  0  0  0
 38 46  1  0  0  0
 38 47  1  0  0  0
 39 64  1  0  0  0
 39 67  2  0  0  0
 40 52  1  0  0  0
 40 53  2  0  0  0
 40 58  1  0  0  0
 41106  1  0  0  0
 41107  1  0  0  0
 41108  1  0  0  0
 41 48  1  0  0  0
 42 43  1  0  0  0
 42 66  1  0  0  0
 42109  1  0  0  0
 42110  1  0  0  0
 43 44  1  0  0  0
 44111  1  0  0  0
 45 46  2  0  0  0
 45112  1  0  0  0
 46113  1  0  0  0
 47114  1  0  0  0
 47115  1  0  0  0
 48 56  1  0  0  0
 48 65  1  0  0  0
 48116  1  0  0  0
 49 50  1  0  0  0
 49 53  1  0  0  0
 49 64  1  0  0  0
 49117  1  0  0  0
 50 51  1  0  0  0
 50118  1  0  0  0
 50119  1  0  0  0
 51 52  1  0  0  0
 51120  1  0  0  0
 51121  1  0  0  0
 52122  1  0  0  0
 52123  1  0  0  0
 53 54  1  0  0  0
 54 55  2  0  0  0
 54124  1  0  0  0
 55 57  1  0  0  0
 55125  1  0  0  0
 56 69  2  0  0  0
 57 58  2  0  0  0
 57126  1  0  0  0
 58127  1  0  0  0
 59 60  1  0  0  0
 59 61  1  0  0  0
 59 62  1  0  0  0
 60128  1  0  0  0
 60129  1  0  0  0
 60130  1  0  0  0
 61131  1  0  0  0
 61132  1  0  0  0
 61133  1  0  0  0
 62134  1  0  0  0
 62135  1  0  0  0
 62136  1  0  0  0
 63 65  1  0  0  0
 63137  1  0  0  0
 63138  1  0  0  0
 63139  1  0  0  0
 64140  1  0  0  0
 65141  1  0  0  0
 68 76  1  0  0  0
 71 72  2  0  0  0
 71 78  1  0  0  0
 71142  1  0  0  0
 72 74  1  0  0  0
 72 82  1  0  0  0
 73 78  2  0  0  0
 73 79  1  0  0  0
 73 82  1  0  0  0
 74 80  1  0  0  0
 74143  1  0  0  0
 74144  1  0  0  0
 75 77  1  0  0  0
 75 79  1  0  0  0
 75145  1  0  0  0
 75146  1  0  0  0
 76 77  1  0  0  0
 76147  1  0  0  0
 76148  1  0  0  0
 77 81  1  0  0  0
 77149  1  0  0  0
 79150  1  0  0  0
 80151  1  0  0  0
 81152  1  0  0  0
M  ISO  4   1 100  68 101  76 101  80 100
M  END
> <chiral flag>
0

> <version>
0

> <s_m_source_file>
/data/baiqing/PycharmProjects/Reinvent-master-3.2/result/LINK_invent/BTK/process_docking_weight1_custom_product_contain_oxygen_bond_distance_aromatic_linkinvent_7_9_3/rearranged_h_0198.sdf

> <i_m_source_file_index>
35

> <r_mmod_Potential_Energy-OPLS-2005>
-203.585586547852

> <r_mmod_Stretch_Energy-OPLS-2005>
37.3699645996094

> <r_mmod_Bend_Energy-OPLS-2005>
92.718864440918

> <r_mmod_Torsional_Energy-OPLS-2005>
235.400360107422

> <r_mmod_Improper_Torsional_Energy-OPLS-2005>
3.01354026794434

> <r_mmod_Van_der_Waal_Energy-OPLS-2005>
131.488494873047

> <r_mmod_Electrostatic_Energy-OPLS-2005>
-469.348663330078

> <r_mmod_Solvation_Energy-OPLS-2005>
-248.008026123047

> <b_mmod_Minimization_Converged-OPLS-2005>
0

> <r_mmod_RMS_Derivative-OPLS-2005>
0.319778501987457

$$$$
35
                    3D
 Structure written by MMmdl.
153161  0  0  1  0            999 V2000
  -30.6912  -14.4893   20.5461 C   0  0  0  0  0  0
  -30.4192  -12.3045   19.4355 C   0  0  0  0  0  0
  -29.4946  -12.4926   18.2142 C   0  0  0  0  0  0
  -28.0150  -12.3551   18.6239 C   0  0  0  0  0  0
  -27.6581  -13.2086   19.8702 C   0  0  2  0  0  0
  -28.7000  -13.0138   20.9952 C   0  0  0  0  0  0
  -25.2577  -13.8168   20.5691 C   0  0  0  0  0  0
  -24.1833  -13.0439   20.9184 C   0  0  0  0  0  0
  -24.6390  -11.6907   20.8742 C   0  0  0  0  0  0
  -23.9059  -10.4293   21.0404 C   0  0  0  0  0  0
  -24.3612   -9.4206   21.9182 C   0  0  0  0  0  0
  -23.6292   -8.2240   22.0750 C   0  0  0  0  0  0
  -22.4273   -8.0280   21.3541 C   0  0  0  0  0  0
  -21.9907   -9.0252   20.4640 C   0  0  0  0  0  0
  -22.7232  -10.2133   20.3052 C   0  0  0  0  0  0
  -21.6852   -6.0738   22.5278 C   0  0  0  0  0  0
  -21.4011   -6.5640   23.8211 C   0  0  0  0  0  0
  -21.3661   -5.6791   24.9173 C   0  0  0  0  0  0
  -21.6040   -4.3054   24.7220 C   0  0  0  0  0  0
  -21.8824   -3.8149   23.4340 C   0  0  0  0  0  0
  -21.9192   -4.6966   22.3398 C   0  0  0  0  0  0
  -22.7854  -13.5227   21.1856 C   0  0  0  0  0  0
  -22.1662   -4.2156   21.0975 F   0  0  0  0  0  0
  -21.5627   -3.4538   25.7733 F   0  0  0  0  0  0
  -30.0283  -13.3049   20.4424 N   0  0  0  0  0  0
  -26.3010  -12.9338   20.3359 N   0  0  0  0  0  0
  -25.9316  -11.6496   20.5768 N   0  0  0  0  0  0
  -22.0507  -12.8216   22.0417 N   0  0  0  0  0  0
  -25.4308  -15.1888   20.4108 N   0  0  0  0  0  0
  -31.8415  -14.6171   20.1166 O   0  0  0  0  0  0
  -21.6636   -6.8879   21.4239 O   0  0  0  0  0  0
  -22.3532  -14.5532   20.6705 O   0  0  0  0  0  0
  -24.6135  -31.8684   23.2100 C   0  0  0  0  0  0
  -25.9030  -32.4823   23.8401 C   0  0  1  0  0  0
  -27.2385  -27.4437   20.1017 C   0  0  0  0  0  0
  -25.5893  -33.8623   24.2331 N   0  0  0  0  0  0
  -23.4033  -30.4896   21.5494 C   0  0  2  0  0  0
  -24.8546  -28.9558   20.1154 C   0  0  0  0  0  0
  -22.7413  -29.4650   22.4987 C   0  0  0  0  0  0
  -18.0274  -28.1376   22.8490 C   0  0  0  0  0  0
  -24.1483  -36.7309   23.2637 C   0  0  0  0  0  0
  -25.9303  -30.8364   21.3630 C   0  0  0  0  0  0
  -26.0118  -29.4691   20.7160 C   0  0  0  0  0  0
  -27.2096  -28.7171   20.7134 C   0  0  0  0  0  0
  -26.0709  -26.9422   19.4940 C   0  0  0  0  0  0
  -24.8776  -27.6899   19.5025 C   0  0  0  0  0  0
  -23.6144  -29.8205   20.1643 C   0  0  0  0  0  0
  -25.4099  -36.3110   24.0340 C   0  0  1  0  0  0
  -20.5862  -28.3663   23.1323 C   0  0  2  0  0  0
  -20.6762  -26.9398   22.5424 C   0  0  0  0  0  0
  -19.5744  -26.6388   21.5216 C   0  0  0  0  0  0
  -18.1922  -26.7922   22.1621 C   0  0  0  0  0  0
  -19.1521  -28.8836   23.2902 C   0  0  0  0  0  0
  -18.9454  -30.1440   23.8915 C   0  0  0  0  0  0
  -17.6459  -30.6588   24.0564 C   0  0  0  0  0  0
  -25.9028  -34.9478   23.5132 C   0  0  0  0  0  0
  -16.5349  -29.9092   23.6320 C   0  0  0  0  0  0
  -16.7263  -28.6504   23.0344 C   0  0  0  0  0  0
  -26.4471  -31.6600   25.0725 C   0  0  0  0  0  0
  -25.3742  -31.3699   26.1478 C   0  0  0  0  0  0
  -27.0303  -30.3051   24.6070 C   0  0  0  0  0  0
  -27.6055  -32.4317   25.7482 C   0  0  0  0  0  0
  -27.5582  -37.1794   24.8460 C   0  0  0  0  0  0
  -21.4140  -29.3030   22.3727 N   0  0  0  0  0  0
  -26.4287  -37.3794   23.9419 N   0  0  0  0  0  0
  -24.6670  -31.0788   22.1000 N   0  0  0  0  0  0
  -23.4188  -28.8192   23.3028 O   0  0  0  0  0  0
  -28.3742  -26.6699   20.0833 O   0  0  0  0  0  0
  -26.5594  -34.8932   22.4694 O   0  0  0  0  0  0
  -23.5326  -32.1427   23.7497 O   0  0  0  0  0  0
  -28.4202  -18.7880   20.1893 C   0  0  0  0  0  0
  -29.7010  -18.3373   20.4194 C   0  0  0  0  0  0
  -29.3610  -20.7570   20.8364 C   0  0  0  0  0  0
  -30.2885  -16.9836   20.0935 C   0  0  0  0  0  0
  -29.9762  -15.7820   21.0346 C   0  0  0  0  0  0
  -28.6177  -23.2913   20.9592 C   0  0  0  0  0  0
  -28.5535  -25.8949   21.2741 C   0  0  0  0  0  0
  -29.4198  -24.6190   21.0468 C   0  0  1  0  0  0
  -28.2412  -20.1624   20.4247 N   0  0  0  0  0  0
  -29.4975  -22.1242   21.0552 N   0  0  0  0  0  0
  -30.3376  -24.4729   22.1237 O   0  0  0  0  0  0
  -30.7049  -19.6340   21.0402 S   0  0  0  0  0  0
  -31.4646  -12.3923   19.1347 H   0  0  0  0  0  0
  -30.3140  -11.2993   19.8467 H   0  0  0  0  0  0
  -29.7366  -11.7609   17.4425 H   0  0  0  0  0  0
  -29.6634  -13.4752   17.7703 H   0  0  0  0  0  0
  -27.8273  -11.3011   18.8320 H   0  0  0  0  0  0
  -27.3654  -12.6184   17.7886 H   0  0  0  0  0  0
  -27.6948  -14.2508   19.5538 H   0  0  0  0  0  0
  -28.6745  -11.9861   21.3604 H   0  0  0  0  0  0
  -28.4724  -13.6360   21.8611 H   0  0  0  0  0  0
  -25.2758   -9.5683   22.4755 H   0  0  0  0  0  0
  -24.0003   -7.4629   22.7469 H   0  0  0  0  0  0
  -21.0839   -8.8768   19.8944 H   0  0  0  0  0  0
  -22.3690  -10.9672   19.6163 H   0  0  0  0  0  0
  -21.2008   -7.6150   23.9716 H   0  0  0  0  0  0
  -21.1475   -6.0521   25.9076 H   0  0  0  0  0  0
  -22.0604   -2.7612   23.2837 H   0  0  0  0  0  0
  -22.4131  -11.9871   22.4789 H   0  0  0  0  0  0
  -21.1128  -13.1233   22.2642 H   0  0  0  0  0  0
  -24.6674  -15.8470   20.5213 H   0  0  0  0  0  0
  -26.2894  -15.6244   20.0999 H   0  0  0  0  0  0
  -26.7113  -32.5551   23.1182 H   0  0  0  0  0  0
  -25.0060  -33.9789   25.0486 H   0  0  0  0  0  0
  -22.6909  -31.3052   21.4084 H   0  0  0  0  0  0
  -23.3757  -35.9633   23.3285 H   0  0  0  0  0  0
  -24.3582  -36.8935   22.2058 H   0  0  0  0  0  0
  -23.7227  -37.6502   23.6661 H   0  0  0  0  0  0
  -26.0363  -31.6009   20.5917 H   0  0  0  0  0  0
  -26.8196  -30.8973   21.9782 H   0  0  0  0  0  0
  -28.1038  -29.1067   21.1795 H   0  0  0  0  0  0
  -26.0864  -25.9697   19.0227 H   0  0  0  0  0  0
  -23.9888  -27.2885   19.0353 H   0  0  0  0  0  0
  -23.7216  -30.5949   19.4040 H   0  0  0  0  0  0
  -22.7405  -29.2374   19.8679 H   0  0  0  0  0  0
  -25.1272  -36.1975   25.0834 H   0  0  0  0  0  0
  -20.9952  -28.3237   24.1443 H   0  0  0  0  0  0
  -20.5677  -26.2268   23.3609 H   0  0  0  0  0  0
  -21.6631  -26.7449   22.1209 H   0  0  0  0  0  0
  -19.6908  -25.6305   21.1233 H   0  0  0  0  0  0
  -19.6687  -27.3207   20.6756 H   0  0  0  0  0  0
  -17.4190  -26.6675   21.4023 H   0  0  0  0  0  0
  -18.0312  -26.0066   22.9017 H   0  0  0  0  0  0
  -19.7932  -30.7239   24.2308 H   0  0  0  0  0  0
  -17.5020  -31.6270   24.5165 H   0  0  0  0  0  0
  -15.5349  -30.3005   23.7641 H   0  0  0  0  0  0
  -15.8657  -28.0837   22.7052 H   0  0  0  0  0  0
  -24.5915  -30.7049   25.7813 H   0  0  0  0  0  0
  -24.8941  -32.2859   26.4937 H   0  0  0  0  0  0
  -25.8106  -30.8861   27.0227 H   0  0  0  0  0  0
  -26.2838  -29.6811   24.1148 H   0  0  0  0  0  0
  -27.4121  -29.7286   25.4504 H   0  0  0  0  0  0
  -27.8649  -30.4383   23.9183 H   0  0  0  0  0  0
  -27.2674  -33.3603   26.2095 H   0  0  0  0  0  0
  -28.3846  -32.6897   25.0296 H   0  0  0  0  0  0
  -28.0743  -31.8422   26.5368 H   0  0  0  0  0  0
  -28.2577  -38.0115   24.7552 H   0  0  0  0  0  0
  -28.1102  -36.2651   24.6226 H   0  0  0  0  0  0
  -27.2307  -37.1374   25.8864 H   0  0  0  0  0  0
  -20.9313  -29.8751   21.6939 H   0  0  0  0  0  0
  -26.0176  -38.2864   24.1461 H   0  0  0  0  0  0
  -27.5918  -18.2150   19.7953 H   0  0  0  0  0  0
  -31.3708  -17.1045   20.0258 H   0  0  0  0  0  0
  -29.9758  -16.7151   19.0832 H   0  0  0  0  0  0
  -28.8967  -15.6519   21.0738 H   0  0  0  0  0  0
  -30.3036  -15.9988   22.0510 H   0  0  0  0  0  0
  -28.0553  -23.2554   20.0247 H   0  0  0  0  0  0
  -27.8846  -23.2377   21.7656 H   0  0  0  0  0  0
  -29.0433  -26.5555   21.9919 H   0  0  0  0  0  0
  -27.5986  -25.6215   21.7277 H   0  0  0  0  0  0
  -30.0131  -24.7520   20.1403 H   0  0  0  0  0  0
  -30.4234  -22.4002   21.3767 H   0  0  0  0  0  0
  -29.8271  -24.2898   22.9067 H   0  0  0  0  0  0
  1 25  1  0  0  0
  1 30  2  0  0  0
  1 75  1  0  0  0
  2  3  1  0  0  0
  2 25  1  0  0  0
  2 83  1  0  0  0
  2 84  1  0  0  0
  3  4  1  0  0  0
  3 85  1  0  0  0
  3 86  1  0  0  0
  4  5  1  0  0  0
  4 87  1  0  0  0
  4 88  1  0  0  0
  5  6  1  0  0  0
  5 26  1  0  0  0
  5 89  1  0  0  0
  6 25  1  0  0  0
  6 90  1  0  0  0
  6 91  1  0  0  0
  7  8  2  0  0  0
  7 26  1  0  0  0
  7 29  1  0  0  0
  8  9  1  0  0  0
  8 22  1  0  0  0
  9 10  1  0  0  0
  9 27  2  0  0  0
 10 11  2  0  0  0
 10 15  1  0  0  0
 11 12  1  0  0  0
 11 92  1  0  0  0
 12 13  2  0  0  0
 12 93  1  0  0  0
 13 14  1  0  0  0
 13 31  1  0  0  0
 14 15  2  0  0  0
 14 94  1  0  0  0
 15 95  1  0  0  0
 16 17  2  0  0  0
 16 21  1  0  0  0
 16 31  1  0  0  0
 17 18  1  0  0  0
 17 96  1  0  0  0
 18 19  2  0  0  0
 18 97  1  0  0  0
 19 20  1  0  0  0
 19 24  1  0  0  0
 20 21  2  0  0  0
 20 98  1  0  0  0
 21 23  1  0  0  0
 22 28  1  0  0  0
 22 32  2  0  0  0
 26 27  1  0  0  0
 28 99  1  0  0  0
 28100  1  0  0  0
 29101  1  0  0  0
 29102  1  0  0  0
 33 34  1  0  0  0
 33 66  1  0  0  0
 33 70  2  0  0  0
 34 36  1  0  0  0
 34 59  1  0  0  0
 34103  1  0  0  0
 35 44  2  0  0  0
 35 45  1  0  0  0
 35 68  1  0  0  0
 36 56  1  0  0  0
 36104  1  0  0  0
 37 39  1  0  0  0
 37 47  1  0  0  0
 37 66  1  0  0  0
 37105  1  0  0  0
 38 43  2  0  0  0
 38 46  1  0  0  0
 38 47  1  0  0  0
 39 64  1  0  0  0
 39 67  2  0  0  0
 40 52  1  0  0  0
 40 53  2  0  0  0
 40 58  1  0  0  0
 41106  1  0  0  0
 41107  1  0  0  0
 41108  1  0  0  0
 41 48  1  0  0  0
 42 43  1  0  0  0
 42 66  1  0  0  0
 42109  1  0  0  0
 42110  1  0  0  0
 43 44  1  0  0  0
 44111  1  0  0  0
 45 46  2  0  0  0
 45112  1  0  0  0
 46113  1  0  0  0
 47114  1  0  0  0
 47115  1  0  0  0
 48 56  1  0  0  0
 48 65  1  0  0  0
 48116  1  0  0  0
 49 50  1  0  0  0
 49 53  1  0  0  0
 49 64  1  0  0  0
 49117  1  0  0  0
 50 51  1  0  0  0
 50118  1  0  0  0
 50119  1  0  0  0
 51 52  1  0  0  0
 51120  1  0  0  0
 51121  1  0  0  0
 52122  1  0  0  0
 52123  1  0  0  0
 53 54  1  0  0  0
 54 55  2  0  0  0
 54124  1  0  0  0
 55 57  1  0  0  0
 55125  1  0  0  0
 56 69  2  0  0  0
 57 58  2  0  0  0
 57126  1  0  0  0
 58127  1  0  0  0
 59 60  1  0  0  0
 59 61  1  0  0  0
 59 62  1  0  0  0
 60128  1  0  0  0
 60129  1  0  0  0
 60130  1  0  0  0
 61131  1  0  0  0
 61132  1  0  0  0
 61133  1  0  0  0
 62134  1  0  0  0
 62135  1  0  0  0
 62136  1  0  0  0
 63 65  1  0  0  0
 63137  1  0  0  0
 63138  1  0  0  0
 63139  1  0  0  0
 64140  1  0  0  0
 65141  1  0  0  0
 68 77  1  0  0  0
 71 72  2  0  0  0
 71 79  1  0  0  0
 71142  1  0  0  0
 72 74  1  0  0  0
 72 82  1  0  0  0
 73 79  2  0  0  0
 73 80  1  0  0  0
 73 82  1  0  0  0
 74 75  1  0  0  0
 74143  1  0  0  0
 74144  1  0  0  0
 75145  1  0  0  0
 75146  1  0  0  0
 76 78  1  0  0  0
 76 80  1  0  0  0
 76147  1  0  0  0
 76148  1  0  0  0
 77 78  1  0  0  0
 77149  1  0  0  0
 77150  1  0  0  0
 78 81  1  0  0  0
 78151  1  0  0  0
 80152  1  0  0  0
 81153  1  0  0  0
M  ISO  4   1 100  68 101  75 100  77 101
M  END
> <chiral flag>
0

> <version>
0

> <s_m_source_file>
/data/baiqing/PycharmProjects/Reinvent-master-3.2/result/LINK_invent/BTK/process_docking_weight1_custom_product_contain_oxygen_bond_distance_aromatic_linkinvent_7_9_3/rearranged_h_0198.sdf

> <i_m_source_file_index>
36

> <r_mmod_Potential_Energy-OPLS-2005>
-146.591918945312

> <r_mmod_Stretch_Energy-OPLS-2005>
35.9012107849121

> <r_mmod_Bend_Energy-OPLS-2005>
91.9834213256836

> <r_mmod_Torsional_Energy-OPLS-2005>
214.707412719727

> <r_mmod_Improper_Torsional_Energy-OPLS-2005>
3.90614652633667

> <r_mmod_Van_der_Waal_Energy-OPLS-2005>
126.317489624023

> <r_mmod_Electrostatic_Energy-OPLS-2005>
-406.709991455078

> <r_mmod_Solvation_Energy-OPLS-2005>
-227.154281616211

> <b_mmod_Minimization_Converged-OPLS-2005>
0

> <r_mmod_RMS_Derivative-OPLS-2005>
1.05794584751129

$$$$
36
                    3D
 Structure written by MMmdl.
152160  0  0  1  0            999 V2000
  -30.6266  -14.7365   20.4482 C   0  0  0  0  0  0
  -30.4307  -12.4469   19.4818 C   0  0  0  0  0  0
  -29.5124  -12.5043   18.2414 C   0  0  0  0  0  0
  -28.0396  -12.3297   18.6563 C   0  0  0  0  0  0
  -27.6439  -13.2338   19.8541 C   0  0  2  0  0  0
  -28.6878  -13.1771   20.9915 C   0  0  0  0  0  0
  -25.2518  -13.8199   20.5709 C   0  0  0  0  0  0
  -24.1802  -13.0437   20.9207 C   0  0  0  0  0  0
  -24.6399  -11.6923   20.8739 C   0  0  0  0  0  0
  -23.9078  -10.4295   21.0402 C   0  0  0  0  0  0
  -24.3625   -9.4210   21.9179 C   0  0  0  0  0  0
  -23.6294   -8.2248   22.0753 C   0  0  0  0  0  0
  -22.4281   -8.0282   21.3541 C   0  0  0  0  0  0
  -21.9916   -9.0256   20.4642 C   0  0  0  0  0  0
  -22.7246  -10.2137   20.3051 C   0  0  0  0  0  0
  -21.6852   -6.0731   22.5271 C   0  0  0  0  0  0
  -21.4016   -6.5633   23.8206 C   0  0  0  0  0  0
  -21.3663   -5.6785   24.9164 C   0  0  0  0  0  0
  -21.6051   -4.3049   24.7214 C   0  0  0  0  0  0
  -21.8819   -3.8142   23.4335 C   0  0  0  0  0  0
  -21.9190   -4.6960   22.3390 C   0  0  0  0  0  0
  -22.7824  -13.5218   21.1858 C   0  0  0  0  0  0
  -22.1659   -4.2146   21.0965 F   0  0  0  0  0  0
  -21.5634   -3.4533   25.7724 F   0  0  0  0  0  0
  -29.9905  -13.5164   20.4083 N   0  0  0  0  0  0
  -26.2951  -12.9417   20.3304 N   0  0  0  0  0  0
  -25.9335  -11.6558   20.5773 N   0  0  0  0  0  0
  -22.0459  -12.8208   22.0414 N   0  0  0  0  0  0
  -25.4198  -15.1916   20.4136 N   0  0  0  0  0  0
  -31.8163  -14.8125   20.1286 O   0  0  0  0  0  0
  -21.6638   -6.8881   21.4237 O   0  0  0  0  0  0
  -22.3513  -14.5516   20.6695 O   0  0  0  0  0  0
  -24.6313  -31.8548   23.1972 C   0  0  0  0  0  0
  -25.9136  -32.4743   23.8327 C   0  0  1  0  0  0
  -27.2204  -27.2610   20.1218 C   0  0  0  0  0  0
  -25.5949  -33.8551   24.2270 N   0  0  0  0  0  0
  -23.4270  -30.4774   21.5394 C   0  0  2  0  0  0
  -24.8719  -28.9211   20.1069 C   0  0  0  0  0  0
  -22.7501  -29.4598   22.4891 C   0  0  0  0  0  0
  -18.0295  -28.1387   22.8471 C   0  0  0  0  0  0
  -24.1492  -36.7275   23.2641 C   0  0  0  0  0  0
  -25.9712  -30.7675   21.3746 C   0  0  0  0  0  0
  -26.0409  -29.3889   20.7178 C   0  0  0  0  0  0
  -27.2130  -28.5692   20.7160 C   0  0  0  0  0  0
  -26.0234  -26.8544   19.4893 C   0  0  0  0  0  0
  -24.8683  -27.6637   19.4828 C   0  0  0  0  0  0
  -23.6441  -29.8108   20.1550 C   0  0  0  0  0  0
  -25.4118  -36.3071   24.0336 C   0  0  1  0  0  0
  -20.5902  -28.3696   23.1270 C   0  0  2  0  0  0
  -20.6784  -26.9414   22.5404 C   0  0  0  0  0  0
  -19.5762  -26.6379   21.5204 C   0  0  0  0  0  0
  -18.1937  -26.7927   22.1610 C   0  0  0  0  0  0
  -19.1551  -28.8855   23.2864 C   0  0  0  0  0  0
  -18.9471  -30.1456   23.8891 C   0  0  0  0  0  0
  -17.6472  -30.6584   24.0560 C   0  0  0  0  0  0
  -25.9060  -34.9433   23.5100 C   0  0  0  0  0  0
  -16.5357  -29.9085   23.6324 C   0  0  0  0  0  0
  -16.7280  -28.6505   23.0342 C   0  0  0  0  0  0
  -26.4517  -31.6561   25.0701 C   0  0  0  0  0  0
  -25.3749  -31.3685   26.1424 C   0  0  0  0  0  0
  -27.0365  -30.2991   24.6151 C   0  0  0  0  0  0
  -27.6087  -32.4289   25.7475 C   0  0  0  0  0  0
  -27.5583  -37.1785   24.8463 C   0  0  0  0  0  0
  -21.4212  -29.3041   22.3648 N   0  0  0  0  0  0
  -26.4289  -37.3771   23.9420 N   0  0  0  0  0  0
  -24.6958  -31.0514   22.0943 N   0  0  0  0  0  0
  -23.4200  -28.8150   23.3001 O   0  0  0  0  0  0
  -28.3478  -26.4125   20.2019 O   0  0  0  0  0  0
  -26.5616  -34.8911   22.4657 O   0  0  0  0  0  0
  -23.5466  -32.1375   23.7271 O   0  0  0  0  0  0
  -29.5179  -19.8626   19.8640 C   0  0  0  0  0  0
  -28.6946  -20.6350   21.8776 C   0  0  0  0  0  0
  -28.9855  -21.0264   20.5930 C   0  0  0  0  0  0
  -29.6185  -18.6436   20.5640 C   0  0  0  0  0  0
  -26.9968  -23.5859   21.2698 C   0  0  0  0  0  0
  -30.3042  -17.2886   20.1274 C   0  0  0  0  0  0
  -28.4162  -25.0048   19.6783 C   0  0  0  0  0  0
  -28.3944  -23.6970   20.6410 C   0  0  2  0  0  0
  -28.8217  -22.3713   20.0221 N   0  0  0  0  0  0
  -29.8765  -15.8960   20.5915 N   0  0  0  0  0  0
  -29.0249  -18.9256   22.1823 S   0  0  0  0  0  0
  -31.4747  -12.5587   19.1825 H   0  0  0  0  0  0
  -30.3658  -11.4711   19.9662 H   0  0  0  0  0  0
  -29.7940  -11.7315   17.5253 H   0  0  0  0  0  0
  -29.6413  -13.4578   17.7270 H   0  0  0  0  0  0
  -27.9019  -11.2814   18.9247 H   0  0  0  0  0  0
  -27.3814  -12.5174   17.8074 H   0  0  0  0  0  0
  -27.6377  -14.2536   19.4689 H   0  0  0  0  0  0
  -28.7196  -12.1850   21.4435 H   0  0  0  0  0  0
  -28.4272  -13.8705   21.7926 H   0  0  0  0  0  0
  -25.2767   -9.5671   22.4757 H   0  0  0  0  0  0
  -23.9986   -7.4636   22.7476 H   0  0  0  0  0  0
  -21.0843   -8.8779   19.8947 H   0  0  0  0  0  0
  -22.3702  -10.9676   19.6160 H   0  0  0  0  0  0
  -21.2014   -7.6144   23.9702 H   0  0  0  0  0  0
  -21.1492   -6.0517   25.9064 H   0  0  0  0  0  0
  -22.0599   -2.7605   23.2824 H   0  0  0  0  0  0
  -22.4090  -11.9883   22.4813 H   0  0  0  0  0  0
  -21.1073  -13.1242   22.2611 H   0  0  0  0  0  0
  -24.6519  -15.8433   20.5318 H   0  0  0  0  0  0
  -26.2635  -15.6344   20.0732 H   0  0  0  0  0  0
  -26.7196  -32.5391   23.1062 H   0  0  0  0  0  0
  -25.0128  -33.9697   25.0439 H   0  0  0  0  0  0
  -22.7230  -31.2997   21.3936 H   0  0  0  0  0  0
  -23.3756  -35.9603   23.3300 H   0  0  0  0  0  0
  -24.3582  -36.8888   22.2052 H   0  0  0  0  0  0
  -23.7233  -37.6473   23.6661 H   0  0  0  0  0  0
  -26.1051  -31.5283   20.6041 H   0  0  0  0  0  0
  -26.8520  -30.8189   22.0032 H   0  0  0  0  0  0
  -28.1084  -28.9238   21.2080 H   0  0  0  0  0  0
  -25.9343  -25.8894   19.0166 H   0  0  0  0  0  0
  -23.9702  -27.3013   19.0012 H   0  0  0  0  0  0
  -23.7710  -30.5888   19.4015 H   0  0  0  0  0  0
  -22.7612  -29.2470   19.8472 H   0  0  0  0  0  0
  -25.1288  -36.1926   25.0828 H   0  0  0  0  0  0
  -20.9992  -28.3278   24.1395 H   0  0  0  0  0  0
  -20.5687  -26.2305   23.3608 H   0  0  0  0  0  0
  -21.6648  -26.7430   22.1203 H   0  0  0  0  0  0
  -19.6931  -25.6290   21.1231 H   0  0  0  0  0  0
  -19.6714  -27.3194   20.6746 H   0  0  0  0  0  0
  -17.4209  -26.6680   21.4008 H   0  0  0  0  0  0
  -18.0343  -26.0069   22.9015 H   0  0  0  0  0  0
  -19.7949  -30.7268   24.2259 H   0  0  0  0  0  0
  -17.5027  -31.6262   24.5162 H   0  0  0  0  0  0
  -15.5359  -30.2987   23.7659 H   0  0  0  0  0  0
  -15.8682  -28.0827   22.7061 H   0  0  0  0  0  0
  -24.5991  -30.6945   25.7768 H   0  0  0  0  0  0
  -24.8856  -32.2825   26.4805 H   0  0  0  0  0  0
  -25.8096  -30.8929   27.0220 H   0  0  0  0  0  0
  -26.2933  -29.6718   24.1209 H   0  0  0  0  0  0
  -27.4124  -29.7271   25.4639 H   0  0  0  0  0  0
  -27.8779  -30.4288   23.9337 H   0  0  0  0  0  0
  -27.2735  -33.3626   26.2001 H   0  0  0  0  0  0
  -28.3934  -32.6777   25.0314 H   0  0  0  0  0  0
  -28.0703  -31.8416   26.5421 H   0  0  0  0  0  0
  -28.2578  -38.0107   24.7543 H   0  0  0  0  0  0
  -28.1107  -36.2633   24.6258 H   0  0  0  0  0  0
  -27.2297  -37.1388   25.8864 H   0  0  0  0  0  0
  -20.9401  -29.8769   21.6859 H   0  0  0  0  0  0
  -26.0165  -38.2836   24.1447 H   0  0  0  0  0  0
  -29.8486  -19.9642   18.8397 H   0  0  0  0  0  0
  -28.3094  -21.2333   22.6932 H   0  0  0  0  0  0
  -26.7116  -24.5322   21.7305 H   0  0  0  0  0  0
  -26.9511  -22.8297   22.0495 H   0  0  0  0  0  0
  -26.2369  -23.3448   20.5256 H   0  0  0  0  0  0
  -31.3607  -17.3845   20.3812 H   0  0  0  0  0  0
  -30.2985  -17.2527   19.0365 H   0  0  0  0  0  0
  -27.7197  -24.8558   18.8563 H   0  0  0  0  0  0
  -29.3846  -24.9782   19.1790 H   0  0  0  0  0  0
  -29.1067  -23.8900   21.4446 H   0  0  0  0  0  0
  -29.1336  -22.4603   19.0577 H   0  0  0  0  0  0
  -28.9015  -15.7749   20.8188 H   0  0  0  0  0  0
  1 25  1  0  0  0
  1 30  2  0  0  0
  1 80  1  0  0  0
  2  3  1  0  0  0
  2 25  1  0  0  0
  2 82  1  0  0  0
  2 83  1  0  0  0
  3  4  1  0  0  0
  3 84  1  0  0  0
  3 85  1  0  0  0
  4  5  1  0  0  0
  4 86  1  0  0  0
  4 87  1  0  0  0
  5  6  1  0  0  0
  5 26  1  0  0  0
  5 88  1  0  0  0
  6 25  1  0  0  0
  6 89  1  0  0  0
  6 90  1  0  0  0
  7  8  2  0  0  0
  7 26  1  0  0  0
  7 29  1  0  0  0
  8  9  1  0  0  0
  8 22  1  0  0  0
  9 10  1  0  0  0
  9 27  2  0  0  0
 10 11  2  0  0  0
 10 15  1  0  0  0
 11 12  1  0  0  0
 11 91  1  0  0  0
 12 13  2  0  0  0
 12 92  1  0  0  0
 13 14  1  0  0  0
 13 31  1  0  0  0
 14 15  2  0  0  0
 14 93  1  0  0  0
 15 94  1  0  0  0
 16 17  2  0  0  0
 16 21  1  0  0  0
 16 31  1  0  0  0
 17 18  1  0  0  0
 17 95  1  0  0  0
 18 19  2  0  0  0
 18 96  1  0  0  0
 19 20  1  0  0  0
 19 24  1  0  0  0
 20 21  2  0  0  0
 20 97  1  0  0  0
 21 23  1  0  0  0
 22 28  1  0  0  0
 22 32  2  0  0  0
 26 27  1  0  0  0
 28 98  1  0  0  0
 28 99  1  0  0  0
 29100  1  0  0  0
 29101  1  0  0  0
 33 34  1  0  0  0
 33 66  1  0  0  0
 33 70  2  0  0  0
 34 36  1  0  0  0
 34 59  1  0  0  0
 34102  1  0  0  0
 35 44  2  0  0  0
 35 45  1  0  0  0
 35 68  1  0  0  0
 36 56  1  0  0  0
 36103  1  0  0  0
 37 39  1  0  0  0
 37 47  1  0  0  0
 37 66  1  0  0  0
 37104  1  0  0  0
 38 43  2  0  0  0
 38 46  1  0  0  0
 38 47  1  0  0  0
 39 64  1  0  0  0
 39 67  2  0  0  0
 40 52  1  0  0  0
 40 53  2  0  0  0
 40 58  1  0  0  0
 41105  1  0  0  0
 41106  1  0  0  0
 41107  1  0  0  0
 41 48  1  0  0  0
 42 43  1  0  0  0
 42 66  1  0  0  0
 42108  1  0  0  0
 42109  1  0  0  0
 43 44  1  0  0  0
 44110  1  0  0  0
 45 46  2  0  0  0
 45111  1  0  0  0
 46112  1  0  0  0
 47113  1  0  0  0
 47114  1  0  0  0
 48 56  1  0  0  0
 48 65  1  0  0  0
 48115  1  0  0  0
 49 50  1  0  0  0
 49 53  1  0  0  0
 49 64  1  0  0  0
 49116  1  0  0  0
 50 51  1  0  0  0
 50117  1  0  0  0
 50118  1  0  0  0
 51 52  1  0  0  0
 51119  1  0  0  0
 51120  1  0  0  0
 52121  1  0  0  0
 52122  1  0  0  0
 53 54  1  0  0  0
 54 55  2  0  0  0
 54123  1  0  0  0
 55 57  1  0  0  0
 55124  1  0  0  0
 56 69  2  0  0  0
 57 58  2  0  0  0
 57125  1  0  0  0
 58126  1  0  0  0
 59 60  1  0  0  0
 59 61  1  0  0  0
 59 62  1  0  0  0
 60127  1  0  0  0
 60128  1  0  0  0
 60129  1  0  0  0
 61130  1  0  0  0
 61131  1  0  0  0
 61132  1  0  0  0
 62133  1  0  0  0
 62134  1  0  0  0
 62135  1  0  0  0
 63 65  1  0  0  0
 63136  1  0  0  0
 63137  1  0  0  0
 63138  1  0  0  0
 64139  1  0  0  0
 65140  1  0  0  0
 68 77  1  0  0  0
 71 73  1  0  0  0
 71 74  2  0  0  0
 71141  1  0  0  0
 72 73  2  0  0  0
 72 81  1  0  0  0
 72142  1  0  0  0
 73 79  1  0  0  0
 74 76  1  0  0  0
 74 81  1  0  0  0
 75143  1  0  0  0
 75144  1  0  0  0
 75145  1  0  0  0
 75 78  1  0  0  0
 76 80  1  0  0  0
 76146  1  0  0  0
 76147  1  0  0  0
 77 78  1  0  0  0
 77148  1  0  0  0
 77149  1  0  0  0
 78 79  1  0  0  0
 78150  1  0  0  0
 79151  1  0  0  0
 80152  1  0  0  0
M  ISO  4   1 100  68 101  77 101  80 100
M  END
> <chiral flag>
0

> <version>
0

> <s_m_source_file>
/data/baiqing/PycharmProjects/Reinvent-master-3.2/result/LINK_invent/BTK/process_docking_weight1_custom_product_contain_oxygen_bond_distance_aromatic_linkinvent_7_9_3/rearranged_h_0198.sdf

> <i_m_source_file_index>
37

> <r_mmod_Potential_Energy-OPLS-2005>
49.1441040039062

> <r_mmod_Stretch_Energy-OPLS-2005>
114.858375549316

> <r_mmod_Bend_Energy-OPLS-2005>
185.350509643555

> <r_mmod_Torsional_Energy-OPLS-2005>
198.811386108398

> <r_mmod_Improper_Torsional_Energy-OPLS-2005>
7.10631132125854

> <r_mmod_Van_der_Waal_Energy-OPLS-2005>
114.404937744141

> <r_mmod_Electrostatic_Energy-OPLS-2005>
-432.158386230469

> <r_mmod_Solvation_Energy-OPLS-2005>
-220.580718994141

> <b_mmod_Minimization_Converged-OPLS-2005>
0

> <r_mmod_RMS_Derivative-OPLS-2005>
1.78207111358643

$$$$
37
                    3D
 Structure written by MMmdl.
158166  0  0  1  0            999 V2000
  -30.7400  -14.4144   20.5694 C   0  0  0  0  0  0
  -30.4079  -12.2690   19.4407 C   0  0  0  0  0  0
  -29.5025  -12.5087   18.2167 C   0  0  0  0  0  0
  -28.0160  -12.3874   18.6121 C   0  0  0  0  0  0
  -27.6628  -13.2128   19.8784 C   0  0  2  0  0  0
  -28.6943  -12.9954   21.0092 C   0  0  0  0  0  0
  -25.2549  -13.8167   20.5636 C   0  0  0  0  0  0
  -24.1799  -13.0455   20.9134 C   0  0  0  0  0  0
  -24.6361  -11.6921   20.8678 C   0  0  0  0  0  0
  -23.9024  -10.4316   21.0395 C   0  0  0  0  0  0
  -24.3585   -9.4239   21.9175 C   0  0  0  0  0  0
  -23.6286   -8.2262   22.0753 C   0  0  0  0  0  0
  -22.4253   -8.0296   21.3554 C   0  0  0  0  0  0
  -21.9874   -9.0252   20.4623 C   0  0  0  0  0  0
  -22.7192  -10.2154   20.3049 C   0  0  0  0  0  0
  -21.6869   -6.0732   22.5273 C   0  0  0  0  0  0
  -21.4017   -6.5638   23.8205 C   0  0  0  0  0  0
  -21.3667   -5.6782   24.9162 C   0  0  0  0  0  0
  -21.6057   -4.3048   24.7203 C   0  0  0  0  0  0
  -21.8818   -3.8134   23.4322 C   0  0  0  0  0  0
  -21.9187   -4.6955   22.3382 C   0  0  0  0  0  0
  -22.7835  -13.5287   21.1813 C   0  0  0  0  0  0
  -22.1674   -4.2136   21.0962 F   0  0  0  0  0  0
  -21.5627   -3.4545   25.7727 F   0  0  0  0  0  0
  -30.0389  -13.2612   20.4599 N   0  0  0  0  0  0
  -26.3001  -12.9356   20.3332 N   0  0  0  0  0  0
  -25.9292  -11.6507   20.5714 N   0  0  0  0  0  0
  -22.0452  -12.8297   22.0361 N   0  0  0  0  0  0
  -25.4277  -15.1879   20.4057 N   0  0  0  0  0  0
  -31.8537  -14.5820   20.0628 O   0  0  0  0  0  0
  -21.6647   -6.8878   21.4243 O   0  0  0  0  0  0
  -22.3547  -14.5610   20.6678 O   0  0  0  0  0  0
  -24.6187  -31.8657   23.2089 C   0  0  0  0  0  0
  -25.9061  -32.4841   23.8388 C   0  0  1  0  0  0
  -27.2295  -27.4021   20.0783 C   0  0  0  0  0  0
  -25.5917  -33.8631   24.2342 N   0  0  0  0  0  0
  -23.4118  -30.4867   21.5492 C   0  0  2  0  0  0
  -24.8554  -28.9569   20.1085 C   0  0  0  0  0  0
  -22.7448  -29.4648   22.4990 C   0  0  0  0  0  0
  -18.0276  -28.1355   22.8448 C   0  0  0  0  0  0
  -24.1487  -36.7304   23.2625 C   0  0  0  0  0  0
  -25.9401  -30.8227   21.3596 C   0  0  0  0  0  0
  -26.0177  -29.4510   20.7113 C   0  0  0  0  0  0
  -27.2099  -28.6847   20.6893 C   0  0  0  0  0  0
  -26.0486  -26.9490   19.4484 C   0  0  0  0  0  0
  -24.8701  -27.7129   19.4598 C   0  0  0  0  0  0
  -23.6207  -29.8234   20.1604 C   0  0  0  0  0  0
  -25.4107  -36.3111   24.0327 C   0  0  1  0  0  0
  -20.5839  -28.3716   23.1298 C   0  0  2  0  0  0
  -20.6791  -26.9461   22.5395 C   0  0  0  0  0  0
  -19.5825  -26.6388   21.5176 C   0  0  0  0  0  0
  -18.1998  -26.7867   22.1615 C   0  0  0  0  0  0
  -19.1501  -28.8867   23.2843 C   0  0  0  0  0  0
  -18.9400  -30.1451   23.8895 C   0  0  0  0  0  0
  -17.6387  -30.6558   24.0518 C   0  0  0  0  0  0
  -25.9032  -34.9488   23.5131 C   0  0  0  0  0  0
  -16.5293  -29.9015   23.6294 C   0  0  0  0  0  0
  -16.7258  -28.6443   23.0297 C   0  0  0  0  0  0
  -26.4466  -31.6621   25.0713 C   0  0  0  0  0  0
  -25.3700  -31.3720   26.1433 C   0  0  0  0  0  0
  -27.0242  -30.3082   24.6002 C   0  0  0  0  0  0
  -27.6082  -32.4283   25.7463 C   0  0  0  0  0  0
  -27.5585  -37.1818   24.8476 C   0  0  0  0  0  0
  -21.4174  -29.3077   22.3742 N   0  0  0  0  0  0
  -26.4313  -37.3793   23.9392 N   0  0  0  0  0  0
  -24.6768  -31.0719   22.1012 N   0  0  0  0  0  0
  -23.4202  -28.8157   23.3024 O   0  0  0  0  0  0
  -28.3911  -26.6374   20.1109 O   0  0  0  0  0  0
  -26.5573  -34.8936   22.4684 O   0  0  0  0  0  0
  -23.5368  -32.1432   23.7449 O   0  0  0  0  0  0
  -28.4150  -18.9142   23.4780 C   0  0  0  0  0  0
  -28.3900  -19.4990   22.2387 C   0  0  0  0  0  0
  -29.7612  -17.7236   21.8222 C   0  0  0  0  0  0
  -28.3035  -21.4541   19.6260 C   0  0  0  0  0  0
  -30.6220  -16.8027   21.0324 C   0  0  0  0  0  0
  -27.4270  -23.0820   21.4184 C   0  0  0  0  0  0
  -28.3033  -25.1835   20.0062 C   0  0  0  0  0  0
  -28.2393  -21.7811   21.1363 C   0  0  1  0  0  0
  -28.1682  -24.4621   21.3843 C   0  0  1  0  0  0
  -29.1576  -18.8009   21.3068 N   0  0  0  0  0  0
  -27.6706  -20.6628   21.9058 N   0  0  0  0  0  0
  -30.1002  -15.4436   21.1284 N   0  0  0  0  0  0
  -27.4109  -25.3206   22.2193 O   0  0  0  0  0  0
  -29.4529  -17.5157   23.5375 S   0  0  0  0  0  0
  -31.4615  -12.3185   19.1607 H   0  0  0  0  0  0
  -30.2621  -11.2635   19.8341 H   0  0  0  0  0  0
  -29.7411  -11.7960   17.4283 H   0  0  0  0  0  0
  -29.6940  -13.4955   17.7930 H   0  0  0  0  0  0
  -27.8021  -11.3320   18.7831 H   0  0  0  0  0  0
  -27.3781  -12.6943   17.7811 H   0  0  0  0  0  0
  -27.7079  -14.2634   19.5919 H   0  0  0  0  0  0
  -28.6395  -11.9741   21.3849 H   0  0  0  0  0  0
  -28.4560  -13.6357   21.8590 H   0  0  0  0  0  0
  -25.2749   -9.5748   22.4721 H   0  0  0  0  0  0
  -24.0001   -7.4683   22.7504 H   0  0  0  0  0  0
  -21.0806   -8.8790   19.8947 H   0  0  0  0  0  0
  -22.3659  -10.9694   19.6144 H   0  0  0  0  0  0
  -21.2032   -7.6144   23.9720 H   0  0  0  0  0  0
  -21.1488   -6.0495   25.9071 H   0  0  0  0  0  0
  -22.0576   -2.7590   23.2820 H   0  0  0  0  0  0
  -22.4090  -11.9991   22.4778 H   0  0  0  0  0  0
  -21.1080  -13.1383   22.2569 H   0  0  0  0  0  0
  -24.6568  -15.8414   20.4901 H   0  0  0  0  0  0
  -26.2753  -15.6244   20.0660 H   0  0  0  0  0  0
  -26.7130  -32.5515   23.1146 H   0  0  0  0  0  0
  -25.0155  -33.9795   25.0548 H   0  0  0  0  0  0
  -22.7010  -31.3013   21.4061 H   0  0  0  0  0  0
  -23.3744  -35.9650   23.3344 H   0  0  0  0  0  0
  -24.3568  -36.8877   22.2030 H   0  0  0  0  0  0
  -23.7253  -37.6535   23.6599 H   0  0  0  0  0  0
  -26.0300  -31.5757   20.5759 H   0  0  0  0  0  0
  -26.8396  -30.8986   21.9583 H   0  0  0  0  0  0
  -28.1129  -29.0577   21.1546 H   0  0  0  0  0  0
  -25.9914  -26.0111   18.9214 H   0  0  0  0  0  0
  -23.9927  -27.3433   18.9494 H   0  0  0  0  0  0
  -23.7377  -30.5968   19.4022 H   0  0  0  0  0  0
  -22.7459  -29.2460   19.8583 H   0  0  0  0  0  0
  -25.1276  -36.1992   25.0822 H   0  0  0  0  0  0
  -20.9834  -28.3242   24.1465 H   0  0  0  0  0  0
  -20.5733  -26.2344   23.3588 H   0  0  0  0  0  0
  -21.6690  -26.7569   22.1222 H   0  0  0  0  0  0
  -19.7107  -25.6283   21.1281 H   0  0  0  0  0  0
  -19.6749  -27.3135   20.6627 H   0  0  0  0  0  0
  -17.4247  -26.6477   21.4064 H   0  0  0  0  0  0
  -18.0540  -26.0006   22.9034 H   0  0  0  0  0  0
  -19.7842  -30.7271   24.2331 H   0  0  0  0  0  0
  -17.4901  -31.6242   24.5082 H   0  0  0  0  0  0
  -15.5282  -30.2896   23.7612 H   0  0  0  0  0  0
  -15.8677  -28.0733   22.7007 H   0  0  0  0  0  0
  -24.5908  -30.7035   25.7764 H   0  0  0  0  0  0
  -24.8804  -32.2860   26.4821 H   0  0  0  0  0  0
  -25.8020  -30.8942   27.0235 H   0  0  0  0  0  0
  -26.2757  -29.6908   24.1020 H   0  0  0  0  0  0
  -27.4060  -29.7253   25.4394 H   0  0  0  0  0  0
  -27.8580  -30.4487   23.9106 H   0  0  0  0  0  0
  -27.2792  -33.3621   26.2035 H   0  0  0  0  0  0
  -28.3888  -32.6772   25.0259 H   0  0  0  0  0  0
  -28.0716  -31.8358   26.5364 H   0  0  0  0  0  0
  -28.2625  -38.0091   24.7451 H   0  0  0  0  0  0
  -28.1065  -36.2617   24.6386 H   0  0  0  0  0  0
  -27.2286  -37.1554   25.8882 H   0  0  0  0  0  0
  -20.9399  -29.8750   21.6870 H   0  0  0  0  0  0
  -26.0210  -38.2891   24.1370 H   0  0  0  0  0  0
  -27.9133  -19.2216   24.3842 H   0  0  0  0  0  0
  -28.7419  -22.2735   19.0522 H   0  0  0  0  0  0
  -27.3133  -21.2527   19.2078 H   0  0  0  0  0  0
  -28.9281  -20.5859   19.4153 H   0  0  0  0  0  0
  -31.6438  -16.8586   21.4140 H   0  0  0  0  0  0
  -30.6423  -17.1195   19.9848 H   0  0  0  0  0  0
  -27.0439  -22.9742   22.4370 H   0  0  0  0  0  0
  -26.5291  -23.1079   20.7967 H   0  0  0  0  0  0
  -27.5576  -24.8279   19.3060 H   0  0  0  0  0  0
  -29.2363  -24.8458   19.5494 H   0  0  0  0  0  0
  -29.2523  -21.9297   21.5165 H   0  0  0  0  0  0
  -29.1597  -24.3611   21.8299 H   0  0  0  0  0  0
  -27.0489  -20.9559   22.6555 H   0  0  0  0  0  0
  -29.1771  -15.2985   21.5086 H   0  0  0  0  0  0
  -27.6803  -26.2088   21.9952 H   0  0  0  0  0  0
  1 25  1  0  0  0
  1 30  2  0  0  0
  1 82  1  0  0  0
  2  3  1  0  0  0
  2 25  1  0  0  0
  2 85  1  0  0  0
  2 86  1  0  0  0
  3  4  1  0  0  0
  3 87  1  0  0  0
  3 88  1  0  0  0
  4  5  1  0  0  0
  4 89  1  0  0  0
  4 90  1  0  0  0
  5  6  1  0  0  0
  5 26  1  0  0  0
  5 91  1  0  0  0
  6 25  1  0  0  0
  6 92  1  0  0  0
  6 93  1  0  0  0
  7  8  2  0  0  0
  7 26  1  0  0  0
  7 29  1  0  0  0
  8  9  1  0  0  0
  8 22  1  0  0  0
  9 10  1  0  0  0
  9 27  2  0  0  0
 10 11  2  0  0  0
 10 15  1  0  0  0
 11 12  1  0  0  0
 11 94  1  0  0  0
 12 13  2  0  0  0
 12 95  1  0  0  0
 13 14  1  0  0  0
 13 31  1  0  0  0
 14 15  2  0  0  0
 14 96  1  0  0  0
 15 97  1  0  0  0
 16 17  2  0  0  0
 16 21  1  0  0  0
 16 31  1  0  0  0
 17 18  1  0  0  0
 17 98  1  0  0  0
 18 19  2  0  0  0
 18 99  1  0  0  0
 19 20  1  0  0  0
 19 24  1  0  0  0
 20 21  2  0  0  0
 20100  1  0  0  0
 21 23  1  0  0  0
 22 28  1  0  0  0
 22 32  2  0  0  0
 26 27  1  0  0  0
 28101  1  0  0  0
 28102  1  0  0  0
 29103  1  0  0  0
 29104  1  0  0  0
 33 34  1  0  0  0
 33 66  1  0  0  0
 33 70  2  0  0  0
 34 36  1  0  0  0
 34 59  1  0  0  0
 34105  1  0  0  0
 35 44  2  0  0  0
 35 45  1  0  0  0
 35 68  1  0  0  0
 36 56  1  0  0  0
 36106  1  0  0  0
 37 39  1  0  0  0
 37 47  1  0  0  0
 37 66  1  0  0  0
 37107  1  0  0  0
 38 43  2  0  0  0
 38 46  1  0  0  0
 38 47  1  0  0  0
 39 64  1  0  0  0
 39 67  2  0  0  0
 40 52  1  0  0  0
 40 53  2  0  0  0
 40 58  1  0  0  0
 41108  1  0  0  0
 41109  1  0  0  0
 41110  1  0  0  0
 41 48  1  0  0  0
 42 43  1  0  0  0
 42 66  1  0  0  0
 42111  1  0  0  0
 42112  1  0  0  0
 43 44  1  0  0  0
 44113  1  0  0  0
 45 46  2  0  0  0
 45114  1  0  0  0
 46115  1  0  0  0
 47116  1  0  0  0
 47117  1  0  0  0
 48 56  1  0  0  0
 48 65  1  0  0  0
 48118  1  0  0  0
 49 50  1  0  0  0
 49 53  1  0  0  0
 49 64  1  0  0  0
 49119  1  0  0  0
 50 51  1  0  0  0
 50120  1  0  0  0
 50121  1  0  0  0
 51 52  1  0  0  0
 51122  1  0  0  0
 51123  1  0  0  0
 52124  1  0  0  0
 52125  1  0  0  0
 53 54  1  0  0  0
 54 55  2  0  0  0
 54126  1  0  0  0
 55 57  1  0  0  0
 55127  1  0  0  0
 56 69  2  0  0  0
 57 58  2  0  0  0
 57128  1  0  0  0
 58129  1  0  0  0
 59 60  1  0  0  0
 59 61  1  0  0  0
 59 62  1  0  0  0
 60130  1  0  0  0
 60131  1  0  0  0
 60132  1  0  0  0
 61133  1  0  0  0
 61134  1  0  0  0
 61135  1  0  0  0
 62136  1  0  0  0
 62137  1  0  0  0
 62138  1  0  0  0
 63 65  1  0  0  0
 63139  1  0  0  0
 63140  1  0  0  0
 63141  1  0  0  0
 64142  1  0  0  0
 65143  1  0  0  0
 68 77  1  0  0  0
 71 72  2  0  0  0
 71 84  1  0  0  0
 71144  1  0  0  0
 72 80  1  0  0  0
 72 81  1  0  0  0
 73 75  1  0  0  0
 73 80  2  0  0  0
 73 84  1  0  0  0
 74145  1  0  0  0
 74146  1  0  0  0
 74147  1  0  0  0
 74 78  1  0  0  0
 75 82  1  0  0  0
 75148  1  0  0  0
 75149  1  0  0  0
 76 78  1  0  0  0
 76 79  1  0  0  0
 76150  1  0  0  0
 76151  1  0  0  0
 77 79  1  0  0  0
 77152  1  0  0  0
 77153  1  0  0  0
 78 81  1  0  0  0
 78154  1  0  0  0
 79 83  1  0  0  0
 79155  1  0  0  0
 81156  1  0  0  0
 82157  1  0  0  0
 83158  1  0  0  0
M  ISO  4   1 100  68 101  77 101  82 100
M  END
> <chiral flag>
0

> <version>
0

> <s_m_source_file>
/data/baiqing/PycharmProjects/Reinvent-master-3.2/result/LINK_invent/BTK/process_docking_weight1_custom_product_contain_oxygen_bond_distance_aromatic_linkinvent_7_9_3/rearranged_h_0198.sdf

> <i_m_source_file_index>
38

> <r_mmod_Potential_Energy-OPLS-2005>
-203.048904418945

> <r_mmod_Stretch_Energy-OPLS-2005>
40.7872200012207

> <r_mmod_Bend_Energy-OPLS-2005>
112.14729309082

> <r_mmod_Torsional_Energy-OPLS-2005>
236.214004516602

> <r_mmod_Improper_Torsional_Energy-OPLS-2005>
6.90969514846802

> <r_mmod_Van_der_Waal_Energy-OPLS-2005>
135.933090209961

> <r_mmod_Electrostatic_Energy-OPLS-2005>
-514.279235839844

> <r_mmod_Solvation_Energy-OPLS-2005>
-235.751419067383

> <b_mmod_Minimization_Converged-OPLS-2005>
0

> <r_mmod_RMS_Derivative-OPLS-2005>
6.38994836807251

$$$$
38
                    3D
 Structure written by MMmdl.
154162  0  0  1  0            999 V2000
  -30.7267  -14.5008   20.5813 C   0  0  0  0  0  0
  -30.4061  -12.3125   19.4654 C   0  0  0  0  0  0
  -29.5169  -12.5520   18.2379 C   0  0  0  0  0  0
  -28.0385  -12.3950   18.6409 C   0  0  0  0  0  0
  -27.6737  -13.2212   19.9060 C   0  0  2  0  0  0
  -28.7156  -13.0290   21.0358 C   0  0  0  0  0  0
  -25.2637  -13.8205   20.5736 C   0  0  0  0  0  0
  -24.1911  -13.0457   20.9196 C   0  0  0  0  0  0
  -24.6488  -11.6918   20.8792 C   0  0  0  0  0  0
  -23.9158  -10.4284   21.0415 C   0  0  0  0  0  0
  -24.3673   -9.4158   21.9183 C   0  0  0  0  0  0
  -23.6306   -8.2222   22.0752 C   0  0  0  0  0  0
  -22.4289   -8.0304   21.3543 C   0  0  0  0  0  0
  -21.9956   -9.0286   20.4647 C   0  0  0  0  0  0
  -22.7322  -10.2146   20.3038 C   0  0  0  0  0  0
  -21.6859   -6.0758   22.5280 C   0  0  0  0  0  0
  -21.4031   -6.5649   23.8215 C   0  0  0  0  0  0
  -21.3641   -5.6797   24.9171 C   0  0  0  0  0  0
  -21.6033   -4.3060   24.7227 C   0  0  0  0  0  0
  -21.8805   -3.8152   23.4345 C   0  0  0  0  0  0
  -21.9179   -4.6985   22.3396 C   0  0  0  0  0  0
  -22.7913  -13.5190   21.1850 C   0  0  0  0  0  0
  -22.1644   -4.2150   21.0981 F   0  0  0  0  0  0
  -21.5623   -3.4537   25.7746 F   0  0  0  0  0  0
  -30.0331  -13.3301   20.4683 N   0  0  0  0  0  0
  -26.3109  -12.9386   20.3490 N   0  0  0  0  0  0
  -25.9445  -11.6529   20.5935 N   0  0  0  0  0  0
  -22.0606  -12.8133   22.0401 N   0  0  0  0  0  0
  -25.4375  -15.1931   20.4145 N   0  0  0  0  0  0
  -31.8354  -14.6423   20.0701 O   0  0  0  0  0  0
  -21.6628   -6.8919   21.4257 O   0  0  0  0  0  0
  -22.3567  -14.5470   20.6701 O   0  0  0  0  0  0
  -24.6140  -31.8669   23.2162 C   0  0  0  0  0  0
  -25.9043  -32.4815   23.8401 C   0  0  1  0  0  0
  -27.2157  -27.4099   20.0998 C   0  0  0  0  0  0
  -25.5915  -33.8600   24.2312 N   0  0  0  0  0  0
  -23.4004  -30.4947   21.5615 C   0  0  2  0  0  0
  -24.8390  -28.9579   20.1175 C   0  0  0  0  0  0
  -22.7457  -29.4613   22.5073 C   0  0  0  0  0  0
  -18.0276  -28.1451   22.8495 C   0  0  0  0  0  0
  -24.1502  -36.7304   23.2634 C   0  0  0  0  0  0
  -25.9292  -30.8303   21.3653 C   0  0  0  0  0  0
  -26.0053  -29.4659   20.7075 C   0  0  0  0  0  0
  -27.2008  -28.7026   20.6874 C   0  0  0  0  0  0
  -26.0328  -26.9281   19.4995 C   0  0  0  0  0  0
  -24.8513  -27.6934   19.5054 C   0  0  0  0  0  0
  -23.6030  -29.8302   20.1715 C   0  0  0  0  0  0
  -25.4120  -36.3067   24.0321 C   0  0  1  0  0  0
  -20.5848  -28.3781   23.1482 C   0  0  2  0  0  0
  -20.6862  -26.9540   22.5505 C   0  0  0  0  0  0
  -19.5829  -26.6530   21.5310 C   0  0  0  0  0  0
  -18.1920  -26.8056   22.1586 C   0  0  0  0  0  0
  -19.1506  -28.8861   23.3068 C   0  0  0  0  0  0
  -18.9399  -30.1300   23.9336 C   0  0  0  0  0  0
  -17.6407  -30.6469   24.0929 C   0  0  0  0  0  0
  -25.9018  -34.9447   23.5088 C   0  0  0  0  0  0
  -16.5338  -29.9154   23.6321 C   0  0  0  0  0  0
  -16.7268  -28.6586   23.0264 C   0  0  0  0  0  0
  -26.4487  -31.6560   25.0708 C   0  0  0  0  0  0
  -25.3752  -31.3670   26.1460 C   0  0  0  0  0  0
  -27.0331  -30.3007   24.6051 C   0  0  0  0  0  0
  -27.6058  -32.4261   25.7482 C   0  0  0  0  0  0
  -27.5583  -37.1801   24.8452 C   0  0  0  0  0  0
  -21.4150  -29.3273   22.4047 N   0  0  0  0  0  0
  -26.4307  -37.3769   23.9397 N   0  0  0  0  0  0
  -24.6698  -31.0767   22.1058 N   0  0  0  0  0  0
  -23.4263  -28.7922   23.2911 O   0  0  0  0  0  0
  -28.3554  -26.6275   20.0667 O   0  0  0  0  0  0
  -26.5589  -34.8857   22.4652 O   0  0  0  0  0  0
  -23.5323  -32.1453   23.7556 O   0  0  0  0  0  0
  -29.7711  -18.0718   21.6071 C   0  0  0  0  0  0
  -28.7741  -18.1334   22.5654 C   0  0  0  0  0  0
  -29.0800  -20.2825   21.3657 C   0  0  0  0  0  0
  -30.7007  -16.9048   21.2592 C   0  0  0  0  0  0
  -28.5036  -22.8919   21.3626 C   0  0  0  0  0  0
  -28.3749  -25.4895   20.9663 C   0  0  0  0  0  0
  -28.5367  -24.0694   20.3139 C   0  0  1  0  0  0
  -29.9381  -19.3250   20.9620 N   0  0  0  0  0  0
  -28.3431  -17.1659   23.4660 N   0  0  0  0  0  0
  -29.0930  -21.6077   20.9023 N   0  0  0  0  0  0
  -30.1123  -15.5456   21.1884 N   0  0  0  0  0  0
  -29.8045  -23.9769   19.6824 O   0  0  0  0  0  0
  -27.9943  -19.7025   22.6137 S   0  0  0  0  0  0
  -31.4642  -12.3321   19.2107 H   0  0  0  0  0  0
  -30.2300  -11.3154   19.8628 H   0  0  0  0  0  0
  -29.7747  -11.8638   17.4309 H   0  0  0  0  0  0
  -29.6972  -13.5574   17.8598 H   0  0  0  0  0  0
  -27.8512  -11.3344   18.8278 H   0  0  0  0  0  0
  -27.3968  -12.6809   17.8102 H   0  0  0  0  0  0
  -27.7228  -14.2658   19.5979 H   0  0  0  0  0  0
  -28.7211  -12.0030   21.4044 H   0  0  0  0  0  0
  -28.4989  -13.6525   21.9070 H   0  0  0  0  0  0
  -25.2851   -9.5597   22.4717 H   0  0  0  0  0  0
  -24.0005   -7.4605   22.7443 H   0  0  0  0  0  0
  -21.0878   -8.8802   19.8960 H   0  0  0  0  0  0
  -22.3796  -10.9675   19.6101 H   0  0  0  0  0  0
  -21.2047   -7.6152   23.9728 H   0  0  0  0  0  0
  -21.1484   -6.0524   25.9071 H   0  0  0  0  0  0
  -22.0618   -2.7618   23.2845 H   0  0  0  0  0  0
  -22.4270  -11.9741   22.4629 H   0  0  0  0  0  0
  -21.1257  -13.1133   22.2725 H   0  0  0  0  0  0
  -24.6802  -15.8580   20.5226 H   0  0  0  0  0  0
  -26.2935  -15.6329   20.0982 H   0  0  0  0  0  0
  -26.7058  -32.5489   23.1101 H   0  0  0  0  0  0
  -25.0090  -33.9773   25.0471 H   0  0  0  0  0  0
  -22.6776  -31.3112   21.4379 H   0  0  0  0  0  0
  -23.3747  -35.9658   23.3291 H   0  0  0  0  0  0
  -24.3588  -36.8942   22.2047 H   0  0  0  0  0  0
  -23.7280  -37.6508   23.6657 H   0  0  0  0  0  0
  -26.0336  -31.6029   20.6051 H   0  0  0  0  0  0
  -26.8206  -30.8840   21.9784 H   0  0  0  0  0  0
  -28.1092  -29.0933   21.1260 H   0  0  0  0  0  0
  -26.0251  -25.9588   19.0232 H   0  0  0  0  0  0
  -23.9563  -27.3034   19.0443 H   0  0  0  0  0  0
  -23.7108  -30.6066   19.4114 H   0  0  0  0  0  0
  -22.7211  -29.2600   19.8796 H   0  0  0  0  0  0
  -25.1300  -36.1939   25.0823 H   0  0  0  0  0  0
  -20.9817  -28.3364   24.1629 H   0  0  0  0  0  0
  -20.5792  -26.2300   23.3601 H   0  0  0  0  0  0
  -21.6761  -26.7677   22.1419 H   0  0  0  0  0  0
  -19.6853  -25.6456   21.1235 H   0  0  0  0  0  0
  -19.6850  -27.3400   20.6929 H   0  0  0  0  0  0
  -17.4310  -26.6767   21.3886 H   0  0  0  0  0  0
  -18.0125  -26.0265   22.8970 H   0  0  0  0  0  0
  -19.7872  -30.6996   24.2960 H   0  0  0  0  0  0
  -17.5064  -31.6095   24.5787 H   0  0  0  0  0  0
  -15.5370  -30.3192   23.7394 H   0  0  0  0  0  0
  -15.8688  -28.0941   22.6817 H   0  0  0  0  0  0
  -24.5941  -30.7006   25.7770 H   0  0  0  0  0  0
  -24.8969  -32.2849   26.4866 H   0  0  0  0  0  0
  -25.8145  -30.8856   27.0212 H   0  0  0  0  0  0
  -26.2888  -29.6792   24.1059 H   0  0  0  0  0  0
  -27.4071  -29.7204   25.4490 H   0  0  0  0  0  0
  -27.8717  -30.4339   23.9228 H   0  0  0  0  0  0
  -27.2669  -33.3547   26.2075 H   0  0  0  0  0  0
  -28.3884  -32.6831   25.0333 H   0  0  0  0  0  0
  -28.0674  -31.8357   26.5404 H   0  0  0  0  0  0
  -28.2565  -38.0119   24.7491 H   0  0  0  0  0  0
  -28.1112  -36.2647   24.6299 H   0  0  0  0  0  0
  -27.2272  -37.1447   25.8842 H   0  0  0  0  0  0
  -20.9302  -29.9706   21.7894 H   0  0  0  0  0  0
  -26.0175  -38.2830   24.1456 H   0  0  0  0  0  0
  -31.5150  -16.8632   21.9857 H   0  0  0  0  0  0
  -31.1764  -17.1065   20.2998 H   0  0  0  0  0  0
  -29.0690  -23.2011   22.2459 H   0  0  0  0  0  0
  -27.4733  -22.7545   21.7096 H   0  0  0  0  0  0
  -29.2185  -25.6573   21.6399 H   0  0  0  0  0  0
  -27.4741  -25.4779   21.5914 H   0  0  0  0  0  0
  -27.7561  -23.9479   19.5581 H   0  0  0  0  0  0
  -28.5798  -16.1839   23.4402 H   0  0  0  0  0  0
  -27.4911  -17.3435   23.9947 H   0  0  0  0  0  0
  -29.9755  -21.7763   20.4346 H   0  0  0  0  0  0
  -29.2124  -15.4095   21.6215 H   0  0  0  0  0  0
  -29.7402  -23.2580   19.0651 H   0  0  0  0  0  0
  1 25  1  0  0  0
  1 30  2  0  0  0
  1 81  1  0  0  0
  2  3  1  0  0  0
  2 25  1  0  0  0
  2 84  1  0  0  0
  2 85  1  0  0  0
  3  4  1  0  0  0
  3 86  1  0  0  0
  3 87  1  0  0  0
  4  5  1  0  0  0
  4 88  1  0  0  0
  4 89  1  0  0  0
  5  6  1  0  0  0
  5 26  1  0  0  0
  5 90  1  0  0  0
  6 25  1  0  0  0
  6 91  1  0  0  0
  6 92  1  0  0  0
  7  8  2  0  0  0
  7 26  1  0  0  0
  7 29  1  0  0  0
  8  9  1  0  0  0
  8 22  1  0  0  0
  9 10  1  0  0  0
  9 27  2  0  0  0
 10 11  2  0  0  0
 10 15  1  0  0  0
 11 12  1  0  0  0
 11 93  1  0  0  0
 12 13  2  0  0  0
 12 94  1  0  0  0
 13 14  1  0  0  0
 13 31  1  0  0  0
 14 15  2  0  0  0
 14 95  1  0  0  0
 15 96  1  0  0  0
 16 17  2  0  0  0
 16 21  1  0  0  0
 16 31  1  0  0  0
 17 18  1  0  0  0
 17 97  1  0  0  0
 18 19  2  0  0  0
 18 98  1  0  0  0
 19 20  1  0  0  0
 19 24  1  0  0  0
 20 21  2  0  0  0
 20 99  1  0  0  0
 21 23  1  0  0  0
 22 28  1  0  0  0
 22 32  2  0  0  0
 26 27  1  0  0  0
 28100  1  0  0  0
 28101  1  0  0  0
 29102  1  0  0  0
 29103  1  0  0  0
 33 34  1  0  0  0
 33 66  1  0  0  0
 33 70  2  0  0  0
 34 36  1  0  0  0
 34 59  1  0  0  0
 34104  1  0  0  0
 35 44  2  0  0  0
 35 45  1  0  0  0
 35 68  1  0  0  0
 36 56  1  0  0  0
 36105  1  0  0  0
 37 39  1  0  0  0
 37 47  1  0  0  0
 37 66  1  0  0  0
 37106  1  0  0  0
 38 43  2  0  0  0
 38 46  1  0  0  0
 38 47  1  0  0  0
 39 64  1  0  0  0
 39 67  2  0  0  0
 40 52  1  0  0  0
 40 53  2  0  0  0
 40 58  1  0  0  0
 41107  1  0  0  0
 41108  1  0  0  0
 41109  1  0  0  0
 41 48  1  0  0  0
 42 43  1  0  0  0
 42 66  1  0  0  0
 42110  1  0  0  0
 42111  1  0  0  0
 43 44  1  0  0  0
 44112  1  0  0  0
 45 46  2  0  0  0
 45113  1  0  0  0
 46114  1  0  0  0
 47115  1  0  0  0
 47116  1  0  0  0
 48 56  1  0  0  0
 48 65  1  0  0  0
 48117  1  0  0  0
 49 50  1  0  0  0
 49 53  1  0  0  0
 49 64  1  0  0  0
 49118  1  0  0  0
 50 51  1  0  0  0
 50119  1  0  0  0
 50120  1  0  0  0
 51 52  1  0  0  0
 51121  1  0  0  0
 51122  1  0  0  0
 52123  1  0  0  0
 52124  1  0  0  0
 53 54  1  0  0  0
 54 55  2  0  0  0
 54125  1  0  0  0
 55 57  1  0  0  0
 55126  1  0  0  0
 56 69  2  0  0  0
 57 58  2  0  0  0
 57127  1  0  0  0
 58128  1  0  0  0
 59 60  1  0  0  0
 59 61  1  0  0  0
 59 62  1  0  0  0
 60129  1  0  0  0
 60130  1  0  0  0
 60131  1  0  0  0
 61132  1  0  0  0
 61133  1  0  0  0
 61134  1  0  0  0
 62135  1  0  0  0
 62136  1  0  0  0
 62137  1  0  0  0
 63 65  1  0  0  0
 63138  1  0  0  0
 63139  1  0  0  0
 63140  1  0  0  0
 64141  1  0  0  0
 65142  1  0  0  0
 68 76  1  0  0  0
 71 72  2  0  0  0
 71 74  1  0  0  0
 71 78  1  0  0  0
 72 79  1  0  0  0
 72 83  1  0  0  0
 73 78  2  0  0  0
 73 80  1  0  0  0
 73 83  1  0  0  0
 74 81  1  0  0  0
 74143  1  0  0  0
 74144  1  0  0  0
 75 77  1  0  0  0
 75 80  1  0  0  0
 75145  1  0  0  0
 75146  1  0  0  0
 76 77  1  0  0  0
 76147  1  0  0  0
 76148  1  0  0  0
 77 82  1  0  0  0
 77149  1  0  0  0
 79150  1  0  0  0
 79151  1  0  0  0
 80152  1  0  0  0
 81153  1  0  0  0
 82154  1  0  0  0
M  ISO  4   1 100  68 101  76 101  81 100
M  END
> <chiral flag>
0

> <version>
0

> <s_m_source_file>
/data/baiqing/PycharmProjects/Reinvent-master-3.2/result/LINK_invent/BTK/process_docking_weight1_custom_product_contain_oxygen_bond_distance_aromatic_linkinvent_7_9_3/rearranged_h_0198.sdf

> <i_m_source_file_index>
39

> <r_mmod_Potential_Energy-OPLS-2005>
-127.79833984375

> <r_mmod_Stretch_Energy-OPLS-2005>
47.8382034301758

> <r_mmod_Bend_Energy-OPLS-2005>
112.995475769043

> <r_mmod_Torsional_Energy-OPLS-2005>
251.839599609375

> <r_mmod_Improper_Torsional_Energy-OPLS-2005>
6.17232704162598

> <r_mmod_Van_der_Waal_Energy-OPLS-2005>
123.820098876953

> <r_mmod_Electrostatic_Energy-OPLS-2005>
-438.837036132812

> <r_mmod_Solvation_Energy-OPLS-2005>
-249.417877197266

> <b_mmod_Minimization_Converged-OPLS-2005>
0

> <r_mmod_RMS_Derivative-OPLS-2005>
11.0547571182251

$$$$
39
                    3D
 Structure written by MMmdl.
154162  0  0  1  0            999 V2000
  -30.6640  -14.5492   20.5363 C   0  0  0  0  0  0
  -30.4373  -12.3440   19.4311 C   0  0  0  0  0  0
  -29.5025  -12.4968   18.2120 C   0  0  0  0  0  0
  -28.0272  -12.3408   18.6329 C   0  0  0  0  0  0
  -27.6620  -13.2042   19.8697 C   0  0  2  0  0  0
  -28.7079  -13.0226   20.9940 C   0  0  0  0  0  0
  -25.2606  -13.8140   20.5673 C   0  0  0  0  0  0
  -24.1861  -13.0427   20.9181 C   0  0  0  0  0  0
  -24.6402  -11.6889   20.8741 C   0  0  0  0  0  0
  -23.9066  -10.4286   21.0416 C   0  0  0  0  0  0
  -24.3615   -9.4205   21.9193 C   0  0  0  0  0  0
  -23.6289   -8.2245   22.0764 C   0  0  0  0  0  0
  -22.4272   -8.0282   21.3557 C   0  0  0  0  0  0
  -21.9910   -9.0256   20.4657 C   0  0  0  0  0  0
  -22.7239  -10.2133   20.3065 C   0  0  0  0  0  0
  -21.6853   -6.0733   22.5282 C   0  0  0  0  0  0
  -21.4008   -6.5636   23.8212 C   0  0  0  0  0  0
  -21.3659   -5.6795   24.9177 C   0  0  0  0  0  0
  -21.6046   -4.3057   24.7232 C   0  0  0  0  0  0
  -21.8818   -3.8142   23.4354 C   0  0  0  0  0  0
  -21.9193   -4.6960   22.3407 C   0  0  0  0  0  0
  -22.7886  -13.5228   21.1850 C   0  0  0  0  0  0
  -22.1663   -4.2140   21.0989 F   0  0  0  0  0  0
  -21.5634   -3.4542   25.7747 F   0  0  0  0  0  0
  -30.0292  -13.3459   20.4303 N   0  0  0  0  0  0
  -26.3040  -12.9302   20.3354 N   0  0  0  0  0  0
  -25.9334  -11.6465   20.5789 N   0  0  0  0  0  0
  -22.0522  -12.8226   22.0399 N   0  0  0  0  0  0
  -25.4325  -15.1862   20.4056 N   0  0  0  0  0  0
  -31.8094  -14.7359   20.1194 O   0  0  0  0  0  0
  -21.6639   -6.8878   21.4244 O   0  0  0  0  0  0
  -22.3583  -14.5548   20.6716 O   0  0  0  0  0  0
  -24.6203  -31.8649   23.2073 C   0  0  0  0  0  0
  -25.9079  -32.4796   23.8363 C   0  0  1  0  0  0
  -27.2261  -27.3702   20.0958 C   0  0  0  0  0  0
  -25.5930  -33.8595   24.2304 N   0  0  0  0  0  0
  -23.4089  -30.4913   21.5488 C   0  0  2  0  0  0
  -24.8544  -28.9528   20.1099 C   0  0  0  0  0  0
  -22.7422  -29.4658   22.4956 C   0  0  0  0  0  0
  -18.0274  -28.1385   22.8497 C   0  0  0  0  0  0
  -24.1503  -36.7307   23.2643 C   0  0  0  0  0  0
  -25.9466  -30.8076   21.3727 C   0  0  0  0  0  0
  -26.0205  -29.4405   20.7120 C   0  0  0  0  0  0
  -27.2074  -28.6588   20.6995 C   0  0  0  0  0  0
  -26.0358  -26.9229   19.4739 C   0  0  0  0  0  0
  -24.8600  -27.6953   19.4879 C   0  0  0  0  0  0
  -23.6212  -29.8301   20.1617 C   0  0  0  0  0  0
  -25.4120  -36.3094   24.0336 C   0  0  1  0  0  0
  -20.5861  -28.3676   23.1311 C   0  0  2  0  0  0
  -20.6749  -26.9418   22.5403 C   0  0  0  0  0  0
  -19.5721  -26.6392   21.5204 C   0  0  0  0  0  0
  -18.1908  -26.7935   22.1617 C   0  0  0  0  0  0
  -19.1527  -28.8835   23.2910 C   0  0  0  0  0  0
  -18.9472  -30.1438   23.8928 C   0  0  0  0  0  0
  -17.6480  -30.6591   24.0566 C   0  0  0  0  0  0
  -25.9046  -34.9462   23.5120 C   0  0  0  0  0  0
  -16.5361  -29.9091   23.6351 C   0  0  0  0  0  0
  -16.7268  -28.6505   23.0372 C   0  0  0  0  0  0
  -26.4493  -31.6574   25.0703 C   0  0  0  0  0  0
  -25.3744  -31.3689   26.1446 C   0  0  0  0  0  0
  -27.0337  -30.3008   24.6114 C   0  0  0  0  0  0
  -27.6059  -32.4294   25.7473 C   0  0  0  0  0  0
  -27.5585  -37.1813   24.8465 C   0  0  0  0  0  0
  -21.4129  -29.3087   22.3746 N   0  0  0  0  0  0
  -26.4300  -37.3780   23.9406 N   0  0  0  0  0  0
  -24.6770  -31.0697   22.1002 N   0  0  0  0  0  0
  -23.4178  -28.8176   23.2993 O   0  0  0  0  0  0
  -28.3721  -26.5749   20.1351 O   0  0  0  0  0  0
  -26.5608  -34.8917   22.4684 O   0  0  0  0  0  0
  -23.5388  -32.1437   23.7448 O   0  0  0  0  0  0
  -29.1237  -19.4691   20.8747 C   0  0  0  0  0  0
  -28.2187  -20.7909   22.4029 C   0  0  0  0  0  0
  -29.1113  -21.7046   20.6194 C   0  0  0  0  0  0
  -29.2932  -18.0188   20.3329 C   0  0  0  0  0  0
  -30.2106  -17.0261   21.1413 C   0  0  0  0  0  0
  -29.4201  -24.2481   20.3270 C   0  0  0  0  0  0
  -28.2398  -25.1504   19.8369 C   0  0  0  0  0  0
  -28.4931  -19.5520   22.0455 N   0  0  0  0  0  0
  -29.4672  -20.5225   20.1041 N   0  0  0  0  0  0
  -28.4851  -21.9119   21.7658 N   0  0  0  0  0  0
  -27.5687  -20.9257   23.5877 N   0  0  0  0  0  0
  -29.3890  -22.8381   19.8570 N   0  0  0  0  0  0
  -29.8915  -15.5738   20.9739 N   0  0  0  0  0  0
  -31.4800  -12.4597   19.1273 H   0  0  0  0  0  0
  -30.3605  -11.3393   19.8500 H   0  0  0  0  0  0
  -29.7528  -11.7577   17.4501 H   0  0  0  0  0  0
  -29.6539  -13.4741   17.7502 H   0  0  0  0  0  0
  -27.8644  -11.2875   18.8644 H   0  0  0  0  0  0
  -27.3662  -12.5744   17.7978 H   0  0  0  0  0  0
  -27.6953  -14.2449   19.5468 H   0  0  0  0  0  0
  -28.7011  -11.9953   21.3608 H   0  0  0  0  0  0
  -28.4654  -13.6422   21.8587 H   0  0  0  0  0  0
  -25.2763   -9.5673   22.4767 H   0  0  0  0  0  0
  -23.9993   -7.4635   22.7485 H   0  0  0  0  0  0
  -21.0841   -8.8778   19.8961 H   0  0  0  0  0  0
  -22.3706  -10.9675   19.6173 H   0  0  0  0  0  0
  -21.1993   -7.6142   23.9710 H   0  0  0  0  0  0
  -21.1485   -6.0530   25.9082 H   0  0  0  0  0  0
  -22.0597   -2.7604   23.2864 H   0  0  0  0  0  0
  -22.4115  -11.9859   22.4743 H   0  0  0  0  0  0
  -21.1159  -13.1280   22.2637 H   0  0  0  0  0  0
  -24.6638  -15.8391   20.5087 H   0  0  0  0  0  0
  -26.2776  -15.6211   20.0587 H   0  0  0  0  0  0
  -26.7137  -32.5482   23.1104 H   0  0  0  0  0  0
  -25.0052  -33.9725   25.0433 H   0  0  0  0  0  0
  -22.7006  -31.3110   21.4099 H   0  0  0  0  0  0
  -23.3755  -35.9652   23.3308 H   0  0  0  0  0  0
  -24.3599  -36.8920   22.2058 H   0  0  0  0  0  0
  -23.7262  -37.6517   23.6651 H   0  0  0  0  0  0
  -26.0776  -31.5763   20.6101 H   0  0  0  0  0  0
  -26.8285  -30.8520   21.9996 H   0  0  0  0  0  0
  -28.1033  -29.0305   21.1760 H   0  0  0  0  0  0
  -25.9870  -25.9697   18.9679 H   0  0  0  0  0  0
  -23.9655  -27.3156   19.0135 H   0  0  0  0  0  0
  -23.7386  -30.6120   19.4101 H   0  0  0  0  0  0
  -22.7413  -29.2606   19.8567 H   0  0  0  0  0  0
  -25.1304  -36.1957   25.0826 H   0  0  0  0  0  0
  -20.9971  -28.3213   24.1429 H   0  0  0  0  0  0
  -20.5630  -26.2293   23.3583 H   0  0  0  0  0  0
  -21.6620  -26.7436   22.1206 H   0  0  0  0  0  0
  -19.6881  -25.6308   21.1232 H   0  0  0  0  0  0
  -19.6656  -27.3197   20.6731 H   0  0  0  0  0  0
  -17.4179  -26.6717   21.4013 H   0  0  0  0  0  0
  -18.0284  -26.0046   22.8984 H   0  0  0  0  0  0
  -19.7961  -30.7233   24.2300 H   0  0  0  0  0  0
  -17.5055  -31.6294   24.5136 H   0  0  0  0  0  0
  -15.5361  -30.2998   23.7679 H   0  0  0  0  0  0
  -15.8670  -28.0829   22.7077 H   0  0  0  0  0  0
  -24.5913  -30.7042   25.7779 H   0  0  0  0  0  0
  -24.8946  -32.2851   26.4901 H   0  0  0  0  0  0
  -25.8096  -30.8845   27.0196 H   0  0  0  0  0  0
  -26.2888  -29.6740   24.1195 H   0  0  0  0  0  0
  -27.4128  -29.7270   25.4580 H   0  0  0  0  0  0
  -27.8715  -30.4315   23.9260 H   0  0  0  0  0  0
  -27.2668  -33.3579   26.2071 H   0  0  0  0  0  0
  -28.3855  -32.6871   25.0293 H   0  0  0  0  0  0
  -28.0732  -31.8397   26.5371 H   0  0  0  0  0  0
  -28.2613  -38.0099   24.7505 H   0  0  0  0  0  0
  -28.1068  -36.2636   24.6304 H   0  0  0  0  0  0
  -27.2295  -37.1473   25.8862 H   0  0  0  0  0  0
  -20.9243  -29.8924   21.7091 H   0  0  0  0  0  0
  -26.0194  -38.2863   24.1384 H   0  0  0  0  0  0
  -29.6476  -18.0645   19.3025 H   0  0  0  0  0  0
  -28.2901  -17.5966   20.2730 H   0  0  0  0  0  0
  -31.2611  -17.2320   20.9275 H   0  0  0  0  0  0
  -30.0780  -17.2326   22.2037 H   0  0  0  0  0  0
  -29.4719  -24.2796   21.4160 H   0  0  0  0  0  0
  -30.3551  -24.6822   19.9736 H   0  0  0  0  0  0
  -27.3269  -24.7543   20.2837 H   0  0  0  0  0  0
  -28.1392  -25.0407   18.7566 H   0  0  0  0  0  0
  -27.0949  -20.1037   23.9378 H   0  0  0  0  0  0
  -27.0797  -21.7989   23.7332 H   0  0  0  0  0  0
  -29.8971  -22.6460   19.0027 H   0  0  0  0  0  0
  -28.9668  -15.2944   21.2659 H   0  0  0  0  0  0
  1 25  1  0  0  0
  1 30  2  0  0  0
  1 83  1  0  0  0
  2  3  1  0  0  0
  2 25  1  0  0  0
  2 84  1  0  0  0
  2 85  1  0  0  0
  3  4  1  0  0  0
  3 86  1  0  0  0
  3 87  1  0  0  0
  4  5  1  0  0  0
  4 88  1  0  0  0
  4 89  1  0  0  0
  5  6  1  0  0  0
  5 26  1  0  0  0
  5 90  1  0  0  0
  6 25  1  0  0  0
  6 91  1  0  0  0
  6 92  1  0  0  0
  7  8  2  0  0  0
  7 26  1  0  0  0
  7 29  1  0  0  0
  8  9  1  0  0  0
  8 22  1  0  0  0
  9 10  1  0  0  0
  9 27  2  0  0  0
 10 11  2  0  0  0
 10 15  1  0  0  0
 11 12  1  0  0  0
 11 93  1  0  0  0
 12 13  2  0  0  0
 12 94  1  0  0  0
 13 14  1  0  0  0
 13 31  1  0  0  0
 14 15  2  0  0  0
 14 95  1  0  0  0
 15 96  1  0  0  0
 16 17  2  0  0  0
 16 21  1  0  0  0
 16 31  1  0  0  0
 17 18  1  0  0  0
 17 97  1  0  0  0
 18 19  2  0  0  0
 18 98  1  0  0  0
 19 20  1  0  0  0
 19 24  1  0  0  0
 20 21  2  0  0  0
 20 99  1  0  0  0
 21 23  1  0  0  0
 22 28  1  0  0  0
 22 32  2  0  0  0
 26 27  1  0  0  0
 28100  1  0  0  0
 28101  1  0  0  0
 29102  1  0  0  0
 29103  1  0  0  0
 33 34  1  0  0  0
 33 66  1  0  0  0
 33 70  2  0  0  0
 34 36  1  0  0  0
 34 59  1  0  0  0
 34104  1  0  0  0
 35 44  2  0  0  0
 35 45  1  0  0  0
 35 68  1  0  0  0
 36 56  1  0  0  0
 36105  1  0  0  0
 37 39  1  0  0  0
 37 47  1  0  0  0
 37 66  1  0  0  0
 37106  1  0  0  0
 38 43  2  0  0  0
 38 46  1  0  0  0
 38 47  1  0  0  0
 39 64  1  0  0  0
 39 67  2  0  0  0
 40 52  1  0  0  0
 40 53  2  0  0  0
 40 58  1  0  0  0
 41107  1  0  0  0
 41108  1  0  0  0
 41109  1  0  0  0
 41 48  1  0  0  0
 42 43  1  0  0  0
 42 66  1  0  0  0
 42110  1  0  0  0
 42111  1  0  0  0
 43 44  1  0  0  0
 44112  1  0  0  0
 45 46  2  0  0  0
 45113  1  0  0  0
 46114  1  0  0  0
 47115  1  0  0  0
 47116  1  0  0  0
 48 56  1  0  0  0
 48 65  1  0  0  0
 48117  1  0  0  0
 49 50  1  0  0  0
 49 53  1  0  0  0
 49 64  1  0  0  0
 49118  1  0  0  0
 50 51  1  0  0  0
 50119  1  0  0  0
 50120  1  0  0  0
 51 52  1  0  0  0
 51121  1  0  0  0
 51122  1  0  0  0
 52123  1  0  0  0
 52124  1  0  0  0
 53 54  1  0  0  0
 54 55  2  0  0  0
 54125  1  0  0  0
 55 57  1  0  0  0
 55126  1  0  0  0
 56 69  2  0  0  0
 57 58  2  0  0  0
 57127  1  0  0  0
 58128  1  0  0  0
 59 60  1  0  0  0
 59 61  1  0  0  0
 59 62  1  0  0  0
 60129  1  0  0  0
 60130  1  0  0  0
 60131  1  0  0  0
 61132  1  0  0  0
 61133  1  0  0  0
 61134  1  0  0  0
 62135  1  0  0  0
 62136  1  0  0  0
 62137  1  0  0  0
 63 65  1  0  0  0
 63138  1  0  0  0
 63139  1  0  0  0
 63140  1  0  0  0
 64141  1  0  0  0
 65142  1  0  0  0
 68 77  1  0  0  0
 71 74  1  0  0  0
 71 78  1  0  0  0
 71 79  2  0  0  0
 72 78  2  0  0  0
 72 80  1  0  0  0
 72 81  1  0  0  0
 73 79  1  0  0  0
 73 80  2  0  0  0
 73 82  1  0  0  0
 74 75  1  0  0  0
 74143  1  0  0  0
 74144  1  0  0  0
 75 83  1  0  0  0
 75145  1  0  0  0
 75146  1  0  0  0
 76 77  1  0  0  0
 76 82  1  0  0  0
 76147  1  0  0  0
 76148  1  0  0  0
 77149  1  0  0  0
 77150  1  0  0  0
 81151  1  0  0  0
 81152  1  0  0  0
 82153  1  0  0  0
 83154  1  0  0  0
M  ISO  4   1 100  68 101  77 101  83 100
M  END
> <chiral flag>
0

> <version>
0

> <s_m_source_file>
/data/baiqing/PycharmProjects/Reinvent-master-3.2/result/LINK_invent/BTK/process_docking_weight1_custom_product_contain_oxygen_bond_distance_aromatic_linkinvent_7_9_3/rearranged_h_0198.sdf

> <i_m_source_file_index>
40

> <r_mmod_Potential_Energy-OPLS-2005>
-958.343505859375

> <r_mmod_Stretch_Energy-OPLS-2005>
53.2191772460938

> <r_mmod_Bend_Energy-OPLS-2005>
119.088348388672

> <r_mmod_Torsional_Energy-OPLS-2005>
187.769897460938

> <r_mmod_Improper_Torsional_Energy-OPLS-2005>
8.80979919433594

> <r_mmod_Van_der_Waal_Energy-OPLS-2005>
171.706970214844

> <r_mmod_Electrostatic_Energy-OPLS-2005>
-1267.84606933594

> <r_mmod_Solvation_Energy-OPLS-2005>
-257.542266845703

> <b_mmod_Minimization_Converged-OPLS-2005>
0

> <r_mmod_RMS_Derivative-OPLS-2005>
1.98806202411652

$$$$
40
                    3D
 Structure written by MMmdl.
151159  0  0  1  0            999 V2000
  -30.5027  -15.0261   20.3963 C   0  0  0  0  0  0
  -30.4412  -12.6332   19.5240 C   0  0  0  0  0  0
  -29.5316  -12.5388   18.2752 C   0  0  0  0  0  0
  -28.0642  -12.3157   18.6885 C   0  0  0  0  0  0
  -27.6273  -13.2574   19.8404 C   0  0  2  0  0  0
  -28.6634  -13.3138   20.9840 C   0  0  0  0  0  0
  -25.2440  -13.8240   20.5736 C   0  0  0  0  0  0
  -24.1761  -13.0453   20.9240 C   0  0  0  0  0  0
  -24.6392  -11.6940   20.8759 C   0  0  0  0  0  0
  -23.9086  -10.4302   21.0409 C   0  0  0  0  0  0
  -24.3634   -9.4212   21.9184 C   0  0  0  0  0  0
  -23.6300   -8.2247   22.0759 C   0  0  0  0  0  0
  -22.4270   -8.0290   21.3558 C   0  0  0  0  0  0
  -21.9910   -9.0260   20.4657 C   0  0  0  0  0  0
  -22.7253  -10.2131   20.3059 C   0  0  0  0  0  0
  -21.6845   -6.0733   22.5276 C   0  0  0  0  0  0
  -21.4016   -6.5637   23.8211 C   0  0  0  0  0  0
  -21.3665   -5.6791   24.9175 C   0  0  0  0  0  0
  -21.6043   -4.3052   24.7222 C   0  0  0  0  0  0
  -21.8820   -3.8144   23.4344 C   0  0  0  0  0  0
  -21.9192   -4.6963   22.3402 C   0  0  0  0  0  0
  -22.7776  -13.5220   21.1888 C   0  0  0  0  0  0
  -22.1660   -4.2152   21.0980 F   0  0  0  0  0  0
  -21.5633   -3.4538   25.7738 F   0  0  0  0  0  0
  -29.9359  -13.7445   20.3916 N   0  0  0  0  0  0
  -26.2868  -12.9486   20.3241 N   0  0  0  0  0  0
  -25.9328  -11.6608   20.5729 N   0  0  0  0  0  0
  -22.0424  -12.8201   22.0440 N   0  0  0  0  0  0
  -25.4118  -15.1968   20.4190 N   0  0  0  0  0  0
  -31.6920  -15.0898   20.0640 O   0  0  0  0  0  0
  -21.6649   -6.8874   21.4236 O   0  0  0  0  0  0
  -22.3458  -14.5527   20.6737 O   0  0  0  0  0  0
  -24.6465  -31.8371   23.1816 C   0  0  0  0  0  0
  -25.9218  -32.4658   23.8219 C   0  0  1  0  0  0
  -27.2290  -27.0931   20.1622 C   0  0  0  0  0  0
  -25.5947  -33.8464   24.2148 N   0  0  0  0  0  0
  -23.4527  -30.4514   21.5255 C   0  0  2  0  0  0
  -24.9052  -28.8608   20.1039 C   0  0  0  0  0  0
  -22.7580  -29.4504   22.4827 C   0  0  0  0  0  0
  -18.0304  -28.1401   22.8480 C   0  0  0  0  0  0
  -24.1488  -36.7246   23.2645 C   0  0  0  0  0  0
  -26.0074  -30.6963   21.3842 C   0  0  0  0  0  0
  -26.0779  -29.3014   20.7294 C   0  0  0  0  0  0
  -27.2319  -28.4303   20.7428 C   0  0  0  0  0  0
  -26.0365  -26.7547   19.4904 C   0  0  0  0  0  0
  -24.9007  -27.6042   19.4688 C   0  0  0  0  0  0
  -23.6816  -29.7675   20.1479 C   0  0  0  0  0  0
  -25.4122  -36.3015   24.0314 C   0  0  1  0  0  0
  -20.5919  -28.3729   23.1229 C   0  0  2  0  0  0
  -20.6787  -26.9420   22.5414 C   0  0  0  0  0  0
  -19.5764  -26.6379   21.5216 C   0  0  0  0  0  0
  -18.1945  -26.7938   22.1622 C   0  0  0  0  0  0
  -19.1564  -28.8880   23.2851 C   0  0  0  0  0  0
  -18.9482  -30.1479   23.8879 C   0  0  0  0  0  0
  -17.6479  -30.6595   24.0555 C   0  0  0  0  0  0
  -25.9075  -34.9390   23.5052 C   0  0  0  0  0  0
  -16.5371  -29.9090   23.6329 C   0  0  0  0  0  0
  -16.7290  -28.6506   23.0354 C   0  0  0  0  0  0
  -26.4523  -31.6553   25.0691 C   0  0  0  0  0  0
  -25.3694  -31.3775   26.1385 C   0  0  0  0  0  0
  -27.0399  -30.2945   24.6308 C   0  0  0  0  0  0
  -27.6040  -32.4329   25.7482 C   0  0  0  0  0  0
  -27.5574  -37.1778   24.8461 C   0  0  0  0  0  0
  -21.4262  -29.3049   22.3586 N   0  0  0  0  0  0
  -26.4281  -37.3738   23.9413 N   0  0  0  0  0  0
  -24.7221  -31.0182   22.0859 N   0  0  0  0  0  0
  -23.4203  -28.8071   23.3001 O   0  0  0  0  0  0
  -28.2987  -26.1299   20.3183 O   0  0  0  0  0  0
  -26.5672  -34.8897   22.4637 O   0  0  0  0  0  0
  -23.5578  -32.1252   23.7023 O   0  0  0  0  0  0
  -29.5361  -19.2231   20.5577 C   0  0  0  0  0  0
  -30.1582  -19.7312   21.6831 C   0  0  0  0  0  0
  -28.8901  -21.6857   20.5359 C   0  0  0  0  0  0
  -27.0892  -23.2945   21.5465 C   0  0  0  0  0  0
  -29.7909  -17.6898   19.9255 C   0  0  0  0  0  0
  -28.4995  -24.6503   19.8013 C   0  0  0  0  0  0
  -28.0155  -23.1006   20.3383 C   0  0  1  0  0  0
  -28.8073  -20.3895   19.9626 N   0  0  0  0  0  0
  -30.9500  -19.0391   22.5889 N   0  0  0  0  0  0
  -29.7145  -16.2173   20.5593 N   0  0  0  0  0  0
  -29.9534  -21.4854   21.9352 S   0  0  0  0  0  0
  -31.4760  -12.7923   19.2167 H   0  0  0  0  0  0
  -30.4435  -11.6902   20.0718 H   0  0  0  0  0  0
  -29.8652  -11.7302   17.6239 H   0  0  0  0  0  0
  -29.6161  -13.4562   17.6914 H   0  0  0  0  0  0
  -27.9684  -11.2773   19.0081 H   0  0  0  0  0  0
  -27.4041  -12.4334   17.8299 H   0  0  0  0  0  0
  -27.5828  -14.2532   19.3982 H   0  0  0  0  0  0
  -28.7601  -12.3461   21.4780 H   0  0  0  0  0  0
  -28.3488  -14.0229   21.7507 H   0  0  0  0  0  0
  -25.2781   -9.5686   22.4759 H   0  0  0  0  0  0
  -24.0006   -7.4636   22.7477 H   0  0  0  0  0  0
  -21.0843   -8.8788   19.8959 H   0  0  0  0  0  0
  -22.3723  -10.9668   19.6168 H   0  0  0  0  0  0
  -21.2010   -7.6144   23.9714 H   0  0  0  0  0  0
  -21.1487   -6.0524   25.9080 H   0  0  0  0  0  0
  -22.0594   -2.7604   23.2849 H   0  0  0  0  0  0
  -22.4041  -11.9868   22.4836 H   0  0  0  0  0  0
  -21.1042  -13.1213   22.2665 H   0  0  0  0  0  0
  -24.6457  -15.8495   20.5443 H   0  0  0  0  0  0
  -26.2527  -15.6362   20.0686 H   0  0  0  0  0  0
  -26.7276  -32.5246   23.0934 H   0  0  0  0  0  0
  -25.0051  -33.9555   25.0268 H   0  0  0  0  0  0
  -22.7581  -31.2788   21.3642 H   0  0  0  0  0  0
  -23.3758  -35.9572   23.3284 H   0  0  0  0  0  0
  -24.3566  -36.8906   22.2063 H   0  0  0  0  0  0
  -23.7235  -37.6431   23.6696 H   0  0  0  0  0  0
  -26.1655  -31.4445   20.6063 H   0  0  0  0  0  0
  -26.8778  -30.7515   22.0273 H   0  0  0  0  0  0
  -28.1199  -28.7570   21.2662 H   0  0  0  0  0  0
  -25.9575  -25.7829   19.0240 H   0  0  0  0  0  0
  -24.0027  -27.2618   18.9726 H   0  0  0  0  0  0
  -23.8190  -30.5365   19.3870 H   0  0  0  0  0  0
  -22.7953  -29.2099   19.8386 H   0  0  0  0  0  0
  -25.1311  -36.1832   25.0806 H   0  0  0  0  0  0
  -21.0020  -28.3333   24.1346 H   0  0  0  0  0  0
  -20.5670  -26.2338   23.3644 H   0  0  0  0  0  0
  -21.6654  -26.7416   22.1218 H   0  0  0  0  0  0
  -19.6923  -25.6283   21.1264 H   0  0  0  0  0  0
  -19.6706  -27.3171   20.6732 H   0  0  0  0  0  0
  -17.4214  -26.6685   21.4024 H   0  0  0  0  0  0
  -18.0343  -26.0085   22.9022 H   0  0  0  0  0  0
  -19.7961  -30.7298   24.2239 H   0  0  0  0  0  0
  -17.5033  -31.6269   24.5169 H   0  0  0  0  0  0
  -15.5373  -30.2986   23.7671 H   0  0  0  0  0  0
  -15.8688  -28.0819   22.7088 H   0  0  0  0  0  0
  -24.5868  -30.7124   25.7715 H   0  0  0  0  0  0
  -24.8889  -32.2974   26.4727 H   0  0  0  0  0  0
  -25.7963  -30.9001   27.0215 H   0  0  0  0  0  0
  -26.3031  -29.6652   24.1306 H   0  0  0  0  0  0
  -27.3989  -29.7264   25.4900 H   0  0  0  0  0  0
  -27.8939  -30.4175   23.9644 H   0  0  0  0  0  0
  -27.2622  -33.3651   26.1988 H   0  0  0  0  0  0
  -28.3889  -32.6857   25.0342 H   0  0  0  0  0  0
  -28.0659  -31.8501   26.5460 H   0  0  0  0  0  0
  -28.2582  -38.0085   24.7515 H   0  0  0  0  0  0
  -28.1081  -36.2615   24.6275 H   0  0  0  0  0  0
  -27.2290  -37.1407   25.8863 H   0  0  0  0  0  0
  -20.9486  -29.8734   21.6736 H   0  0  0  0  0  0
  -26.0144  -38.2805   24.1417 H   0  0  0  0  0  0
  -26.4833  -22.4056   21.7234 H   0  0  0  0  0  0
  -26.4084  -24.1315   21.3882 H   0  0  0  0  0  0
  -27.6584  -23.5013   22.4525 H   0  0  0  0  0  0
  -30.7905  -17.7198   19.4898 H   0  0  0  0  0  0
  -29.1421  -17.6161   19.0530 H   0  0  0  0  0  0
  -28.2825  -24.6881   18.7331 H   0  0  0  0  0  0
  -29.5867  -24.5763   19.8232 H   0  0  0  0  0  0
  -27.3277  -22.8156   19.5416 H   0  0  0  0  0  0
  -30.9051  -18.0251   22.6369 H   0  0  0  0  0  0
  -31.1768  -19.4506   23.4898 H   0  0  0  0  0  0
  -28.7985  -16.0169   20.9299 H   0  0  0  0  0  0
  1 25  1  0  0  0
  1 30  2  0  0  0
  1 80  1  0  0  0
  2  3  1  0  0  0
  2 25  1  0  0  0
  2 82  1  0  0  0
  2 83  1  0  0  0
  3  4  1  0  0  0
  3 84  1  0  0  0
  3 85  1  0  0  0
  4  5  1  0  0  0
  4 86  1  0  0  0
  4 87  1  0  0  0
  5  6  1  0  0  0
  5 26  1  0  0  0
  5 88  1  0  0  0
  6 25  1  0  0  0
  6 89  1  0  0  0
  6 90  1  0  0  0
  7  8  2  0  0  0
  7 26  1  0  0  0
  7 29  1  0  0  0
  8  9  1  0  0  0
  8 22  1  0  0  0
  9 10  1  0  0  0
  9 27  2  0  0  0
 10 11  2  0  0  0
 10 15  1  0  0  0
 11 12  1  0  0  0
 11 91  1  0  0  0
 12 13  2  0  0  0
 12 92  1  0  0  0
 13 14  1  0  0  0
 13 31  1  0  0  0
 14 15  2  0  0  0
 14 93  1  0  0  0
 15 94  1  0  0  0
 16 17  2  0  0  0
 16 21  1  0  0  0
 16 31  1  0  0  0
 17 18  1  0  0  0
 17 95  1  0  0  0
 18 19  2  0  0  0
 18 96  1  0  0  0
 19 20  1  0  0  0
 19 24  1  0  0  0
 20 21  2  0  0  0
 20 97  1  0  0  0
 21 23  1  0  0  0
 22 28  1  0  0  0
 22 32  2  0  0  0
 26 27  1  0  0  0
 28 98  1  0  0  0
 28 99  1  0  0  0
 29100  1  0  0  0
 29101  1  0  0  0
 33 34  1  0  0  0
 33 66  1  0  0  0
 33 70  2  0  0  0
 34 36  1  0  0  0
 34 59  1  0  0  0
 34102  1  0  0  0
 35 44  2  0  0  0
 35 45  1  0  0  0
 35 68  1  0  0  0
 36 56  1  0  0  0
 36103  1  0  0  0
 37 39  1  0  0  0
 37 47  1  0  0  0
 37 66  1  0  0  0
 37104  1  0  0  0
 38 43  2  0  0  0
 38 46  1  0  0  0
 38 47  1  0  0  0
 39 64  1  0  0  0
 39 67  2  0  0  0
 40 52  1  0  0  0
 40 53  2  0  0  0
 40 58  1  0  0  0
 41105  1  0  0  0
 41106  1  0  0  0
 41107  1  0  0  0
 41 48  1  0  0  0
 42 43  1  0  0  0
 42 66  1  0  0  0
 42108  1  0  0  0
 42109  1  0  0  0
 43 44  1  0  0  0
 44110  1  0  0  0
 45 46  2  0  0  0
 45111  1  0  0  0
 46112  1  0  0  0
 47113  1  0  0  0
 47114  1  0  0  0
 48 56  1  0  0  0
 48 65  1  0  0  0
 48115  1  0  0  0
 49 50  1  0  0  0
 49 53  1  0  0  0
 49 64  1  0  0  0
 49116  1  0  0  0
 50 51  1  0  0  0
 50117  1  0  0  0
 50118  1  0  0  0
 51 52  1  0  0  0
 51119  1  0  0  0
 51120  1  0  0  0
 52121  1  0  0  0
 52122  1  0  0  0
 53 54  1  0  0  0
 54 55  2  0  0  0
 54123  1  0  0  0
 55 57  1  0  0  0
 55124  1  0  0  0
 56 69  2  0  0  0
 57 58  2  0  0  0
 57125  1  0  0  0
 58126  1  0  0  0
 59 60  1  0  0  0
 59 61  1  0  0  0
 59 62  1  0  0  0
 60127  1  0  0  0
 60128  1  0  0  0
 60129  1  0  0  0
 61130  1  0  0  0
 61131  1  0  0  0
 61132  1  0  0  0
 62133  1  0  0  0
 62134  1  0  0  0
 62135  1  0  0  0
 63 65  1  0  0  0
 63136  1  0  0  0
 63137  1  0  0  0
 63138  1  0  0  0
 64139  1  0  0  0
 65140  1  0  0  0
 68 76  1  0  0  0
 71 72  2  0  0  0
 71 75  1  0  0  0
 71 78  1  0  0  0
 72 79  1  0  0  0
 72 81  1  0  0  0
 73 77  1  0  0  0
 73 78  2  0  0  0
 73 81  1  0  0  0
 74141  1  0  0  0
 74142  1  0  0  0
 74143  1  0  0  0
 74 77  1  0  0  0
 75 80  1  0  0  0
 75144  1  0  0  0
 75145  1  0  0  0
 76 77  1  0  0  0
 76146  1  0  0  0
 76147  1  0  0  0
 77148  1  0  0  0
 79149  1  0  0  0
 79150  1  0  0  0
 80151  1  0  0  0
M  ISO  4   1 100  68 101  76 101  80 100
M  END
> <chiral flag>
0

> <version>
0

> <s_m_source_file>
/data/baiqing/PycharmProjects/Reinvent-master-3.2/result/LINK_invent/BTK/process_docking_weight1_custom_product_contain_oxygen_bond_distance_aromatic_linkinvent_7_9_3/rearranged_h_0198.sdf

> <i_m_source_file_index>
41

> <r_mmod_Potential_Energy-OPLS-2005>
621.627014160156

> <r_mmod_Stretch_Energy-OPLS-2005>
320.53759765625

> <r_mmod_Bend_Energy-OPLS-2005>
363.379089355469

> <r_mmod_Torsional_Energy-OPLS-2005>
200.661697387695

> <r_mmod_Improper_Torsional_Energy-OPLS-2005>
10.5632209777832

> <r_mmod_Van_der_Waal_Energy-OPLS-2005>
101.227470397949

> <r_mmod_Electrostatic_Energy-OPLS-2005>
-384.059143066406

> <r_mmod_Solvation_Energy-OPLS-2005>
-233.278717041016

> <b_mmod_Minimization_Converged-OPLS-2005>
0

> <r_mmod_RMS_Derivative-OPLS-2005>
1.61811125278473

$$$$
41
                    3D
 Structure written by MMmdl.
159167  0  0  1  0            999 V2000
  -30.6987  -14.4389   20.6269 C   0  0  0  0  0  0
  -30.4344  -12.3059   19.4061 C   0  0  0  0  0  0
  -29.4973  -12.5156   18.1986 C   0  0  0  0  0  0
  -28.0173  -12.3767   18.6112 C   0  0  0  0  0  0
  -27.6678  -13.1993   19.8796 C   0  0  2  0  0  0
  -28.7070  -12.9327   20.9916 C   0  0  0  0  0  0
  -25.2620  -13.8141   20.5667 C   0  0  0  0  0  0
  -24.1861  -13.0432   20.9179 C   0  0  0  0  0  0
  -24.6402  -11.6893   20.8735 C   0  0  0  0  0  0
  -23.9058  -10.4284   21.0407 C   0  0  0  0  0  0
  -24.3609   -9.4199   21.9186 C   0  0  0  0  0  0
  -23.6285   -8.2235   22.0754 C   0  0  0  0  0  0
  -22.4269   -8.0273   21.3542 C   0  0  0  0  0  0
  -21.9904   -9.0252   20.4647 C   0  0  0  0  0  0
  -22.7234  -10.2129   20.3054 C   0  0  0  0  0  0
  -21.6847   -6.0728   22.5277 C   0  0  0  0  0  0
  -21.4010   -6.5630   23.8208 C   0  0  0  0  0  0
  -21.3659   -5.6785   24.9173 C   0  0  0  0  0  0
  -21.6042   -4.3047   24.7229 C   0  0  0  0  0  0
  -21.8821   -3.8141   23.4348 C   0  0  0  0  0  0
  -21.9192   -4.6957   22.3402 C   0  0  0  0  0  0
  -22.7883  -13.5240   21.1840 C   0  0  0  0  0  0
  -22.1661   -4.2139   21.0980 F   0  0  0  0  0  0
  -21.5630   -3.4533   25.7740 F   0  0  0  0  0  0
  -30.0442  -13.2578   20.4563 N   0  0  0  0  0  0
  -26.3057  -12.9297   20.3360 N   0  0  0  0  0  0
  -25.9323  -11.6470   20.5753 N   0  0  0  0  0  0
  -22.0503  -12.8242   22.0393 N   0  0  0  0  0  0
  -25.4354  -15.1853   20.4050 N   0  0  0  0  0  0
  -31.7936  -14.6802   20.1059 O   0  0  0  0  0  0
  -21.6630   -6.8871   21.4241 O   0  0  0  0  0  0
  -22.3582  -14.5553   20.6689 O   0  0  0  0  0  0
  -24.6108  -31.8712   23.2121 C   0  0  0  0  0  0
  -25.9010  -32.4846   23.8414 C   0  0  1  0  0  0
  -27.2471  -27.4568   20.1101 C   0  0  0  0  0  0
  -25.5881  -33.8638   24.2364 N   0  0  0  0  0  0
  -23.3989  -30.4946   21.5494 C   0  0  2  0  0  0
  -24.8505  -28.9583   20.1217 C   0  0  0  0  0  0
  -22.7406  -29.4684   22.4982 C   0  0  0  0  0  0
  -18.0294  -28.1393   22.8502 C   0  0  0  0  0  0
  -24.1484  -36.7310   23.2637 C   0  0  0  0  0  0
  -25.9234  -30.8425   21.3635 C   0  0  0  0  0  0
  -26.0043  -29.4727   20.7261 C   0  0  0  0  0  0
  -27.2046  -28.7294   20.7291 C   0  0  0  0  0  0
  -26.0807  -26.9568   19.4968 C   0  0  0  0  0  0
  -24.8795  -27.6941   19.5078 C   0  0  0  0  0  0
  -23.6114  -29.8253   20.1646 C   0  0  0  0  0  0
  -25.4097  -36.3126   24.0360 C   0  0  1  0  0  0
  -20.5882  -28.3672   23.1322 C   0  0  2  0  0  0
  -20.6788  -26.9409   22.5427 C   0  0  0  0  0  0
  -19.5768  -26.6403   21.5220 C   0  0  0  0  0  0
  -18.1940  -26.7939   22.1624 C   0  0  0  0  0  0
  -19.1544  -28.8848   23.2911 C   0  0  0  0  0  0
  -18.9468  -30.1461   23.8917 C   0  0  0  0  0  0
  -17.6469  -30.6596   24.0582 C   0  0  0  0  0  0
  -25.9031  -34.9491   23.5158 C   0  0  0  0  0  0
  -16.5361  -29.9100   23.6333 C   0  0  0  0  0  0
  -16.7284  -28.6524   23.0347 C   0  0  0  0  0  0
  -26.4450  -31.6609   25.0723 C   0  0  0  0  0  0
  -25.3737  -31.3703   26.1491 C   0  0  0  0  0  0
  -27.0283  -30.3069   24.6047 C   0  0  0  0  0  0
  -27.6043  -32.4309   25.7465 C   0  0  0  0  0  0
  -27.5584  -37.1809   24.8468 C   0  0  0  0  0  0
  -21.4137  -29.3038   22.3712 N   0  0  0  0  0  0
  -26.4283  -37.3815   23.9435 N   0  0  0  0  0  0
  -24.6622  -31.0833   22.1012 N   0  0  0  0  0  0
  -23.4176  -28.8252   23.3039 O   0  0  0  0  0  0
  -28.3834  -26.6872   20.0002 O   0  0  0  0  0  0
  -26.5578  -34.8942   22.4712 O   0  0  0  0  0  0
  -23.5310  -32.1464   23.7530 O   0  0  0  0  0  0
  -28.9155  -17.4260   21.7461 C   0  0  0  0  0  0
  -30.1152  -16.7495   21.4076 C   0  0  0  0  0  0
  -29.9655  -19.4736   21.6436 C   0  0  0  0  0  0
  -31.1740  -18.8093   21.2940 C   0  0  0  0  0  0
  -28.8954  -22.9988   22.7410 C   0  0  0  0  0  0
  -28.8516  -25.4971   22.1257 C   0  0  0  0  0  0
  -28.7351  -21.5050   22.3574 C   0  0  0  0  0  0
  -29.2789  -26.5798   21.1067 C   0  0  0  0  0  0
  -28.8077  -24.0388   21.5950 C   0  0  2  0  0  0
  -28.8296  -18.7726   21.8557 N   0  0  0  0  0  0
  -31.2534  -17.4629   21.1783 N   0  0  0  0  0  0
  -32.3399  -19.5221   21.0405 N   0  0  0  0  0  0
  -30.0106  -15.3337   21.3554 N   0  0  0  0  0  0
  -29.9290  -20.8730   21.7851 N   0  0  0  0  0  0
  -27.5876  -23.8541   20.8931 O   0  0  0  0  0  0
  -31.4763  -12.4238   19.1024 H   0  0  0  0  0  0
  -30.3509  -11.2848   19.7812 H   0  0  0  0  0  0
  -29.7329  -11.7955   17.4139 H   0  0  0  0  0  0
  -29.6683  -13.5030   17.7666 H   0  0  0  0  0  0
  -27.8243  -11.3191   18.7958 H   0  0  0  0  0  0
  -27.3667  -12.6637   17.7842 H   0  0  0  0  0  0
  -27.7254  -14.2537   19.6082 H   0  0  0  0  0  0
  -28.6827  -11.8799   21.2772 H   0  0  0  0  0  0
  -28.4556  -13.4744   21.9045 H   0  0  0  0  0  0
  -25.2754   -9.5665   22.4761 H   0  0  0  0  0  0
  -23.9986   -7.4620   22.7468 H   0  0  0  0  0  0
  -21.0831   -8.8777   19.8953 H   0  0  0  0  0  0
  -22.3701  -10.9668   19.6154 H   0  0  0  0  0  0
  -21.1999   -7.6138   23.9712 H   0  0  0  0  0  0
  -21.1478   -6.0515   25.9078 H   0  0  0  0  0  0
  -22.0602   -2.7603   23.2851 H   0  0  0  0  0  0
  -22.4093  -11.9896   22.4789 H   0  0  0  0  0  0
  -21.1120  -13.1280   22.2570 H   0  0  0  0  0  0
  -24.6618  -15.8360   20.4910 H   0  0  0  0  0  0
  -26.2708  -15.6145   20.0290 H   0  0  0  0  0  0
  -26.7079  -32.5592   23.1188 H   0  0  0  0  0  0
  -25.0061  -33.9803   25.0522 H   0  0  0  0  0  0
  -22.6882  -31.3115   21.4099 H   0  0  0  0  0  0
  -23.3755  -35.9637   23.3321 H   0  0  0  0  0  0
  -24.3584  -36.8901   22.2048 H   0  0  0  0  0  0
  -23.7229  -37.6520   23.6627 H   0  0  0  0  0  0
  -26.0284  -31.6002   20.5860 H   0  0  0  0  0  0
  -26.8131  -30.9060   21.9779 H   0  0  0  0  0  0
  -28.0889  -29.1547   21.1812 H   0  0  0  0  0  0
  -26.1063  -25.9913   19.0110 H   0  0  0  0  0  0
  -23.9950  -27.2920   19.0351 H   0  0  0  0  0  0
  -23.7244  -30.6008   19.4058 H   0  0  0  0  0  0
  -22.7345  -29.2483   19.8669 H   0  0  0  0  0  0
  -25.1276  -36.1987   25.0854 H   0  0  0  0  0  0
  -20.9995  -28.3248   24.1433 H   0  0  0  0  0  0
  -20.5709  -26.2280   23.3618 H   0  0  0  0  0  0
  -21.6651  -26.7478   22.1197 H   0  0  0  0  0  0
  -19.6928  -25.6323   21.1234 H   0  0  0  0  0  0
  -19.6705  -27.3231   20.6761 H   0  0  0  0  0  0
  -17.4220  -26.6729   21.4007 H   0  0  0  0  0  0
  -18.0321  -26.0074   22.9012 H   0  0  0  0  0  0
  -19.7950  -30.7286   24.2273 H   0  0  0  0  0  0
  -17.5030  -31.6277   24.5201 H   0  0  0  0  0  0
  -15.5365  -30.3013   23.7645 H   0  0  0  0  0  0
  -15.8693  -28.0862   22.7018 H   0  0  0  0  0  0
  -24.5878  -30.7081   25.7838 H   0  0  0  0  0  0
  -24.8943  -32.2853   26.4984 H   0  0  0  0  0  0
  -25.8096  -30.8840   27.0226 H   0  0  0  0  0  0
  -26.2813  -29.6826   24.1123 H   0  0  0  0  0  0
  -27.4127  -29.7305   25.4473 H   0  0  0  0  0  0
  -27.8619  -30.4445   23.9152 H   0  0  0  0  0  0
  -27.2684  -33.3594   26.2090 H   0  0  0  0  0  0
  -28.3803  -32.6887   25.0247 H   0  0  0  0  0  0
  -28.0758  -31.8398   26.5331 H   0  0  0  0  0  0
  -28.2604  -38.0105   24.7523 H   0  0  0  0  0  0
  -28.1082  -36.2641   24.6272 H   0  0  0  0  0  0
  -27.2319  -37.1437   25.8876 H   0  0  0  0  0  0
  -20.9305  -29.8718   21.6902 H   0  0  0  0  0  0
  -26.0187  -38.2903   24.1430 H   0  0  0  0  0  0
  -28.0020  -16.8784   21.9284 H   0  0  0  0  0  0
  -29.8278  -23.1317   23.2932 H   0  0  0  0  0  0
  -28.1091  -23.2344   23.4616 H   0  0  0  0  0  0
  -27.9000  -25.7673   22.5858 H   0  0  0  0  0  0
  -29.5798  -25.5390   22.9372 H   0  0  0  0  0  0
  -27.8928  -21.3757   21.6768 H   0  0  0  0  0  0
  -28.4708  -20.9597   23.2660 H   0  0  0  0  0  0
  -30.2569  -26.3161   20.7039 H   0  0  0  0  0  0
  -29.4277  -27.5325   21.6131 H   0  0  0  0  0  0
  -29.6403  -23.8712   20.9092 H   0  0  0  0  0  0
  -32.2021  -20.4795   20.7423 H   0  0  0  0  0  0
  -33.0442  -19.0397   20.4961 H   0  0  0  0  0  0
  -29.1534  -14.9602   21.7317 H   0  0  0  0  0  0
  -30.8329  -21.3231   21.8824 H   0  0  0  0  0  0
  -26.8701  -24.0747   21.4778 H   0  0  0  0  0  0
  1 25  1  0  0  0
  1 30  2  0  0  0
  1 83  1  0  0  0
  2  3  1  0  0  0
  2 25  1  0  0  0
  2 86  1  0  0  0
  2 87  1  0  0  0
  3  4  1  0  0  0
  3 88  1  0  0  0
  3 89  1  0  0  0
  4  5  1  0  0  0
  4 90  1  0  0  0
  4 91  1  0  0  0
  5  6  1  0  0  0
  5 26  1  0  0  0
  5 92  1  0  0  0
  6 25  1  0  0  0
  6 93  1  0  0  0
  6 94  1  0  0  0
  7  8  2  0  0  0
  7 26  1  0  0  0
  7 29  1  0  0  0
  8  9  1  0  0  0
  8 22  1  0  0  0
  9 10  1  0  0  0
  9 27  2  0  0  0
 10 11  2  0  0  0
 10 15  1  0  0  0
 11 12  1  0  0  0
 11 95  1  0  0  0
 12 13  2  0  0  0
 12 96  1  0  0  0
 13 14  1  0  0  0
 13 31  1  0  0  0
 14 15  2  0  0  0
 14 97  1  0  0  0
 15 98  1  0  0  0
 16 17  2  0  0  0
 16 21  1  0  0  0
 16 31  1  0  0  0
 17 18  1  0  0  0
 17 99  1  0  0  0
 18 19  2  0  0  0
 18100  1  0  0  0
 19 20  1  0  0  0
 19 24  1  0  0  0
 20 21  2  0  0  0
 20101  1  0  0  0
 21 23  1  0  0  0
 22 28  1  0  0  0
 22 32  2  0  0  0
 26 27  1  0  0  0
 28102  1  0  0  0
 28103  1  0  0  0
 29104  1  0  0  0
 29105  1  0  0  0
 33 34  1  0  0  0
 33 66  1  0  0  0
 33 70  2  0  0  0
 34 36  1  0  0  0
 34 59  1  0  0  0
 34106  1  0  0  0
 35 44  2  0  0  0
 35 45  1  0  0  0
 35 68  1  0  0  0
 36 56  1  0  0  0
 36107  1  0  0  0
 37 39  1  0  0  0
 37 47  1  0  0  0
 37 66  1  0  0  0
 37108  1  0  0  0
 38 43  2  0  0  0
 38 46  1  0  0  0
 38 47  1  0  0  0
 39 64  1  0  0  0
 39 67  2  0  0  0
 40 52  1  0  0  0
 40 53  2  0  0  0
 40 58  1  0  0  0
 41109  1  0  0  0
 41110  1  0  0  0
 41111  1  0  0  0
 41 48  1  0  0  0
 42 43  1  0  0  0
 42 66  1  0  0  0
 42112  1  0  0  0
 42113  1  0  0  0
 43 44  1  0  0  0
 44114  1  0  0  0
 45 46  2  0  0  0
 45115  1  0  0  0
 46116  1  0  0  0
 47117  1  0  0  0
 47118  1  0  0  0
 48 56  1  0  0  0
 48 65  1  0  0  0
 48119  1  0  0  0
 49 50  1  0  0  0
 49 53  1  0  0  0
 49 64  1  0  0  0
 49120  1  0  0  0
 50 51  1  0  0  0
 50121  1  0  0  0
 50122  1  0  0  0
 51 52  1  0  0  0
 51123  1  0  0  0
 51124  1  0  0  0
 52125  1  0  0  0
 52126  1  0  0  0
 53 54  1  0  0  0
 54 55  2  0  0  0
 54127  1  0  0  0
 55 57  1  0  0  0
 55128  1  0  0  0
 56 69  2  0  0  0
 57 58  2  0  0  0
 57129  1  0  0  0
 58130  1  0  0  0
 59 60  1  0  0  0
 59 61  1  0  0  0
 59 62  1  0  0  0
 60131  1  0  0  0
 60132  1  0  0  0
 60133  1  0  0  0
 61134  1  0  0  0
 61135  1  0  0  0
 61136  1  0  0  0
 62137  1  0  0  0
 62138  1  0  0  0
 62139  1  0  0  0
 63 65  1  0  0  0
 63140  1  0  0  0
 63141  1  0  0  0
 63142  1  0  0  0
 64143  1  0  0  0
 65144  1  0  0  0
 68 78  1  0  0  0
 71 72  2  0  0  0
 71 80  1  0  0  0
 71145  1  0  0  0
 72 81  1  0  0  0
 72 83  1  0  0  0
 73 74  1  0  0  0
 73 80  2  0  0  0
 73 84  1  0  0  0
 74 81  2  0  0  0
 74 82  1  0  0  0
 75 77  1  0  0  0
 75 79  1  0  0  0
 75146  1  0  0  0
 75147  1  0  0  0
 76 78  1  0  0  0
 76 79  1  0  0  0
 76148  1  0  0  0
 76149  1  0  0  0
 77 84  1  0  0  0
 77150  1  0  0  0
 77151  1  0  0  0
 78152  1  0  0  0
 78153  1  0  0  0
 79 85  1  0  0  0
 79154  1  0  0  0
 82155  1  0  0  0
 82156  1  0  0  0
 83157  1  0  0  0
 84158  1  0  0  0
 85159  1  0  0  0
M  ISO  4   1 100  68 101  78 101  83 100
M  END
> <chiral flag>
0

> <version>
0

> <s_m_source_file>
/data/baiqing/PycharmProjects/Reinvent-master-3.2/result/LINK_invent/BTK/process_docking_weight1_custom_product_contain_oxygen_bond_distance_aromatic_linkinvent_7_9_3/rearranged_h_0198.sdf

> <i_m_source_file_index>
42

> <r_mmod_Potential_Energy-OPLS-2005>
-138.047225952148

> <r_mmod_Stretch_Energy-OPLS-2005>
37.6277656555176

> <r_mmod_Bend_Energy-OPLS-2005>
116.99781036377

> <r_mmod_Torsional_Energy-OPLS-2005>
220.534622192383

> <r_mmod_Improper_Torsional_Energy-OPLS-2005>
9.24364471435547

> <r_mmod_Van_der_Waal_Energy-OPLS-2005>
161.345840454102

> <r_mmod_Electrostatic_Energy-OPLS-2005>
-421.706878662109

> <r_mmod_Solvation_Energy-OPLS-2005>
-270.505157470703

> <b_mmod_Minimization_Converged-OPLS-2005>
0

> <r_mmod_RMS_Derivative-OPLS-2005>
1.92664861679077

$$$$
42
                    3D
 Structure written by MMmdl.
164172  0  0  1  0            999 V2000
  -30.6223  -14.5523   20.5935 C   0  0  0  0  0  0
  -30.4494  -12.3679   19.4178 C   0  0  0  0  0  0
  -29.5011  -12.5269   18.2080 C   0  0  0  0  0  0
  -28.0225  -12.3708   18.6222 C   0  0  0  0  0  0
  -27.6653  -13.2011   19.8815 C   0  0  2  0  0  0
  -28.7097  -12.9571   20.9938 C   0  0  0  0  0  0
  -25.2602  -13.8140   20.5638 C   0  0  0  0  0  0
  -24.1852  -13.0427   20.9179 C   0  0  0  0  0  0
  -24.6415  -11.6904   20.8760 C   0  0  0  0  0  0
  -23.9068  -10.4287   21.0406 C   0  0  0  0  0  0
  -24.3615   -9.4194   21.9170 C   0  0  0  0  0  0
  -23.6287   -8.2233   22.0749 C   0  0  0  0  0  0
  -22.4265   -8.0278   21.3547 C   0  0  0  0  0  0
  -21.9901   -9.0252   20.4652 C   0  0  0  0  0  0
  -22.7242  -10.2125   20.3053 C   0  0  0  0  0  0
  -21.6848   -6.0727   22.5274 C   0  0  0  0  0  0
  -21.4005   -6.5634   23.8208 C   0  0  0  0  0  0
  -21.3655   -5.6787   24.9174 C   0  0  0  0  0  0
  -21.6057   -4.3052   24.7225 C   0  0  0  0  0  0
  -21.8835   -3.8142   23.4347 C   0  0  0  0  0  0
  -21.9200   -4.6957   22.3400 C   0  0  0  0  0  0
  -22.7879  -13.5236   21.1843 C   0  0  0  0  0  0
  -22.1669   -4.2145   21.0976 F   0  0  0  0  0  0
  -21.5632   -3.4541   25.7737 F   0  0  0  0  0  0
  -30.0326  -13.3264   20.4553 N   0  0  0  0  0  0
  -26.3044  -12.9297   20.3391 N   0  0  0  0  0  0
  -25.9334  -11.6473   20.5794 N   0  0  0  0  0  0
  -22.0531  -12.8211   22.0407 N   0  0  0  0  0  0
  -25.4311  -15.1849   20.3978 N   0  0  0  0  0  0
  -31.7062  -14.8263   20.0643 O   0  0  0  0  0  0
  -21.6645   -6.8865   21.4231 O   0  0  0  0  0  0
  -22.3540  -14.5531   20.6705 O   0  0  0  0  0  0
  -24.6171  -31.8650   23.2065 C   0  0  0  0  0  0
  -25.9051  -32.4792   23.8380 C   0  0  1  0  0  0
  -27.2431  -27.3970   20.0949 C   0  0  0  0  0  0
  -25.5901  -33.8597   24.2295 N   0  0  0  0  0  0
  -23.4045  -30.4864   21.5458 C   0  0  2  0  0  0
  -24.8520  -28.9406   20.1164 C   0  0  0  0  0  0
  -22.7395  -29.4654   22.4971 C   0  0  0  0  0  0
  -18.0298  -28.1365   22.8506 C   0  0  0  0  0  0
  -24.1494  -36.7329   23.2639 C   0  0  0  0  0  0
  -25.9358  -30.8149   21.3672 C   0  0  0  0  0  0
  -26.0117  -29.4445   20.7166 C   0  0  0  0  0  0
  -27.2030  -28.6776   20.7044 C   0  0  0  0  0  0
  -26.0577  -26.9094   19.4970 C   0  0  0  0  0  0
  -24.8718  -27.6736   19.5063 C   0  0  0  0  0  0
  -23.6168  -29.8144   20.1617 C   0  0  0  0  0  0
  -25.4112  -36.3097   24.0323 C   0  0  1  0  0  0
  -20.5876  -28.3663   23.1319 C   0  0  2  0  0  0
  -20.6794  -26.9392   22.5427 C   0  0  0  0  0  0
  -19.5776  -26.6399   21.5200 C   0  0  0  0  0  0
  -18.1947  -26.7907   22.1627 C   0  0  0  0  0  0
  -19.1545  -28.8829   23.2913 C   0  0  0  0  0  0
  -18.9467  -30.1436   23.8918 C   0  0  0  0  0  0
  -17.6473  -30.6571   24.0561 C   0  0  0  0  0  0
  -25.9039  -34.9456   23.5105 C   0  0  0  0  0  0
  -16.5367  -29.9088   23.6313 C   0  0  0  0  0  0
  -16.7283  -28.6496   23.0362 C   0  0  0  0  0  0
  -26.4485  -31.6590   25.0719 C   0  0  0  0  0  0
  -25.3753  -31.3714   26.1472 C   0  0  0  0  0  0
  -27.0317  -30.3026   24.6108 C   0  0  0  0  0  0
  -27.6030  -32.4331   25.7494 C   0  0  0  0  0  0
  -27.5582  -37.1822   24.8463 C   0  0  0  0  0  0
  -21.4117  -29.3063   22.3746 N   0  0  0  0  0  0
  -26.4297  -37.3785   23.9389 N   0  0  0  0  0  0
  -24.6698  -31.0726   22.0971 N   0  0  0  0  0  0
  -23.4168  -28.8195   23.3010 O   0  0  0  0  0  0
  -28.4344  -26.6826   20.1218 O   0  0  0  0  0  0
  -26.5618  -34.8917   22.4676 O   0  0  0  0  0  0
  -23.5364  -32.1418   23.7456 O   0  0  0  0  0  0
  -29.4435  -18.8095   22.5559 C   0  0  0  0  0  0
  -29.5992  -19.3684   21.3004 C   0  0  0  0  0  0
  -29.8745  -16.8603   21.4155 C   0  0  0  0  0  0
  -29.1682  -19.5193   23.8460 C   0  0  0  0  0  0
  -25.8158  -21.4989   20.4032 C   0  0  0  0  0  0
  -27.1533  -22.2032   22.4482 C   0  0  0  0  0  0
  -28.2663  -24.1304   20.2340 C   0  0  0  0  0  0
  -28.6083  -25.4247   19.4217 C   0  0  0  0  0  0
  -27.1214  -21.3057   21.1926 C   0  0  0  0  0  0
  -28.4003  -21.3637   20.2968 C   0  0  1  0  0  0
  -28.7180  -22.7613   19.5904 C   0  0  1  0  0  0
  -29.5590  -17.4106   22.5910 N   0  0  0  0  0  0
  -29.5618  -20.7565   20.9806 N   0  0  0  0  0  0
  -29.9131  -15.4262   21.3456 N   0  0  0  0  0  0
  -28.1293  -22.7004   18.3051 O   0  0  0  0  0  0
  -29.9809  -18.0886   20.1252 S   0  0  0  0  0  0
  -31.4846  -12.5218   19.1070 H   0  0  0  0  0  0
  -30.4049  -11.3497   19.8075 H   0  0  0  0  0  0
  -29.7521  -11.7992   17.4348 H   0  0  0  0  0  0
  -29.6478  -13.5095   17.7575 H   0  0  0  0  0  0
  -27.8405  -11.3126   18.8155 H   0  0  0  0  0  0
  -27.3673  -12.6457   17.7945 H   0  0  0  0  0  0
  -27.7157  -14.2529   19.5977 H   0  0  0  0  0  0
  -28.7146  -11.9047   21.2859 H   0  0  0  0  0  0
  -28.4475  -13.4949   21.9052 H   0  0  0  0  0  0
  -25.2767   -9.5683   22.4729 H   0  0  0  0  0  0
  -24.0023   -7.4624   22.7453 H   0  0  0  0  0  0
  -21.0843   -8.8788   19.8936 H   0  0  0  0  0  0
  -22.3719  -10.9669   19.6164 H   0  0  0  0  0  0
  -21.1978   -7.6140   23.9710 H   0  0  0  0  0  0
  -21.1458   -6.0514   25.9077 H   0  0  0  0  0  0
  -22.0614   -2.7602   23.2859 H   0  0  0  0  0  0
  -22.4162  -11.9871   22.4781 H   0  0  0  0  0  0
  -21.1150  -13.1216   22.2629 H   0  0  0  0  0  0
  -24.6575  -15.8355   20.4782 H   0  0  0  0  0  0
  -26.2794  -15.6185   20.0526 H   0  0  0  0  0  0
  -26.7107  -32.5497   23.1134 H   0  0  0  0  0  0
  -25.0040  -33.9770   25.0434 H   0  0  0  0  0  0
  -22.6945  -31.3038   21.4059 H   0  0  0  0  0  0
  -23.3723  -35.9700   23.3313 H   0  0  0  0  0  0
  -24.3599  -36.8953   22.2057 H   0  0  0  0  0  0
  -23.7279  -37.6543   23.6668 H   0  0  0  0  0  0
  -26.0516  -31.5793   20.5972 H   0  0  0  0  0  0
  -26.8235  -30.8697   21.9864 H   0  0  0  0  0  0
  -28.0976  -29.0643   21.1728 H   0  0  0  0  0  0
  -26.0275  -25.9349   19.0303 H   0  0  0  0  0  0
  -23.9786  -27.2798   19.0418 H   0  0  0  0  0  0
  -23.7328  -30.5905   19.4028 H   0  0  0  0  0  0
  -22.7389  -29.2401   19.8617 H   0  0  0  0  0  0
  -25.1291  -36.1956   25.0816 H   0  0  0  0  0  0
  -20.9936  -28.3224   24.1451 H   0  0  0  0  0  0
  -20.5674  -26.2274   23.3624 H   0  0  0  0  0  0
  -21.6711  -26.7413   22.1282 H   0  0  0  0  0  0
  -19.6965  -25.6334   21.1187 H   0  0  0  0  0  0
  -19.6730  -27.3224   20.6731 H   0  0  0  0  0  0
  -17.4203  -26.6648   21.4057 H   0  0  0  0  0  0
  -18.0371  -26.0039   22.9026 H   0  0  0  0  0  0
  -19.7951  -30.7256   24.2289 H   0  0  0  0  0  0
  -17.5032  -31.6247   24.5157 H   0  0  0  0  0  0
  -15.5375  -30.3012   23.7603 H   0  0  0  0  0  0
  -15.8687  -28.0836   22.7063 H   0  0  0  0  0  0
  -24.5893  -30.7092   25.7828 H   0  0  0  0  0  0
  -24.8991  -32.2883   26.4955 H   0  0  0  0  0  0
  -25.8122  -30.8862   27.0210 H   0  0  0  0  0  0
  -26.2868  -29.6770   24.1174 H   0  0  0  0  0  0
  -27.4090  -29.7276   25.4576 H   0  0  0  0  0  0
  -27.8703  -30.4330   23.9259 H   0  0  0  0  0  0
  -27.2601  -33.3597   26.2118 H   0  0  0  0  0  0
  -28.3829  -32.6961   25.0326 H   0  0  0  0  0  0
  -28.0716  -31.8437   26.5390 H   0  0  0  0  0  0
  -28.2600  -38.0119   24.7485 H   0  0  0  0  0  0
  -28.1073  -36.2640   24.6302 H   0  0  0  0  0  0
  -27.2317  -37.1500   25.8877 H   0  0  0  0  0  0
  -20.9250  -29.8854   21.7060 H   0  0  0  0  0  0
  -26.0178  -38.2870   24.1352 H   0  0  0  0  0  0
  -28.2408  -19.1733   24.3036 H   0  0  0  0  0  0
  -29.0851  -20.5931   23.7157 H   0  0  0  0  0  0
  -29.9737  -19.3513   24.5612 H   0  0  0  0  0  0
  -24.9487  -21.3373   21.0449 H   0  0  0  0  0  0
  -25.7464  -20.7858   19.5801 H   0  0  0  0  0  0
  -25.7234  -22.5019   19.9893 H   0  0  0  0  0  0
  -26.6023  -21.7414   23.2684 H   0  0  0  0  0  0
  -26.6948  -23.1775   22.2822 H   0  0  0  0  0  0
  -28.1686  -22.3839   22.7968 H   0  0  0  0  0  0
  -27.1918  -24.1400   20.3975 H   0  0  0  0  0  0
  -28.7340  -24.2170   21.2147 H   0  0  0  0  0  0
  -28.0848  -25.4378   18.4660 H   0  0  0  0  0  0
  -29.6653  -25.3755   19.1566 H   0  0  0  0  0  0
  -27.0633  -20.2816   21.5645 H   0  0  0  0  0  0
  -28.2210  -20.6503   19.4888 H   0  0  0  0  0  0
  -29.7957  -22.8191   19.4241 H   0  0  0  0  0  0
  -29.8411  -21.3181   21.7788 H   0  0  0  0  0  0
  -29.2017  -14.9765   21.8992 H   0  0  0  0  0  0
  -27.2100  -22.4921   18.4271 H   0  0  0  0  0  0
  1 25  1  0  0  0
  1 30  2  0  0  0
  1 84  1  0  0  0
  2  3  1  0  0  0
  2 25  1  0  0  0
  2 87  1  0  0  0
  2 88  1  0  0  0
  3  4  1  0  0  0
  3 89  1  0  0  0
  3 90  1  0  0  0
  4  5  1  0  0  0
  4 91  1  0  0  0
  4 92  1  0  0  0
  5  6  1  0  0  0
  5 26  1  0  0  0
  5 93  1  0  0  0
  6 25  1  0  0  0
  6 94  1  0  0  0
  6 95  1  0  0  0
  7  8  2  0  0  0
  7 26  1  0  0  0
  7 29  1  0  0  0
  8  9  1  0  0  0
  8 22  1  0  0  0
  9 10  1  0  0  0
  9 27  2  0  0  0
 10 11  2  0  0  0
 10 15  1  0  0  0
 11 12  1  0  0  0
 11 96  1  0  0  0
 12 13  2  0  0  0
 12 97  1  0  0  0
 13 14  1  0  0  0
 13 31  1  0  0  0
 14 15  2  0  0  0
 14 98  1  0  0  0
 15 99  1  0  0  0
 16 17  2  0  0  0
 16 21  1  0  0  0
 16 31  1  0  0  0
 17 18  1  0  0  0
 17100  1  0  0  0
 18 19  2  0  0  0
 18101  1  0  0  0
 19 20  1  0  0  0
 19 24  1  0  0  0
 20 21  2  0  0  0
 20102  1  0  0  0
 21 23  1  0  0  0
 22 28  1  0  0  0
 22 32  2  0  0  0
 26 27  1  0  0  0
 28103  1  0  0  0
 28104  1  0  0  0
 29105  1  0  0  0
 29106  1  0  0  0
 33 34  1  0  0  0
 33 66  1  0  0  0
 33 70  2  0  0  0
 34 36  1  0  0  0
 34 59  1  0  0  0
 34107  1  0  0  0
 35 44  2  0  0  0
 35 45  1  0  0  0
 35 68  1  0  0  0
 36 56  1  0  0  0
 36108  1  0  0  0
 37 39  1  0  0  0
 37 47  1  0  0  0
 37 66  1  0  0  0
 37109  1  0  0  0
 38 43  2  0  0  0
 38 46  1  0  0  0
 38 47  1  0  0  0
 39 64  1  0  0  0
 39 67  2  0  0  0
 40 52  1  0  0  0
 40 53  2  0  0  0
 40 58  1  0  0  0
 41110  1  0  0  0
 41111  1  0  0  0
 41112  1  0  0  0
 41 48  1  0  0  0
 42 43  1  0  0  0
 42 66  1  0  0  0
 42113  1  0  0  0
 42114  1  0  0  0
 43 44  1  0  0  0
 44115  1  0  0  0
 45 46  2  0  0  0
 45116  1  0  0  0
 46117  1  0  0  0
 47118  1  0  0  0
 47119  1  0  0  0
 48 56  1  0  0  0
 48 65  1  0  0  0
 48120  1  0  0  0
 49 50  1  0  0  0
 49 53  1  0  0  0
 49 64  1  0  0  0
 49121  1  0  0  0
 50 51  1  0  0  0
 50122  1  0  0  0
 50123  1  0  0  0
 51 52  1  0  0  0
 51124  1  0  0  0
 51125  1  0  0  0
 52126  1  0  0  0
 52127  1  0  0  0
 53 54  1  0  0  0
 54 55  2  0  0  0
 54128  1  0  0  0
 55 57  1  0  0  0
 55129  1  0  0  0
 56 69  2  0  0  0
 57 58  2  0  0  0
 57130  1  0  0  0
 58131  1  0  0  0
 59 60  1  0  0  0
 59 61  1  0  0  0
 59 62  1  0  0  0
 60132  1  0  0  0
 60133  1  0  0  0
 60134  1  0  0  0
 61135  1  0  0  0
 61136  1  0  0  0
 61137  1  0  0  0
 62138  1  0  0  0
 62139  1  0  0  0
 62140  1  0  0  0
 63 65  1  0  0  0
 63141  1  0  0  0
 63142  1  0  0  0
 63143  1  0  0  0
 64144  1  0  0  0
 65145  1  0  0  0
 68 78  1  0  0  0
 71 72  2  0  0  0
 71 74  1  0  0  0
 71 82  1  0  0  0
 72 83  1  0  0  0
 72 86  1  0  0  0
 73 82  2  0  0  0
 73 84  1  0  0  0
 73 86  1  0  0  0
 74146  1  0  0  0
 74147  1  0  0  0
 74148  1  0  0  0
 75149  1  0  0  0
 75150  1  0  0  0
 75151  1  0  0  0
 75 79  1  0  0  0
 76 79  1  0  0  0
 76152  1  0  0  0
 76153  1  0  0  0
 76154  1  0  0  0
 77 78  1  0  0  0
 77 81  1  0  0  0
 77155  1  0  0  0
 77156  1  0  0  0
 78157  1  0  0  0
 78158  1  0  0  0
 79 80  1  0  0  0
 79159  1  0  0  0
 80 81  1  0  0  0
 80 83  1  0  0  0
 80160  1  0  0  0
 81 85  1  0  0  0
 81161  1  0  0  0
 83162  1  0  0  0
 84163  1  0  0  0
 85164  1  0  0  0
M  ISO  4   1 100  68 101  78 101  84 100
M  END
> <chiral flag>
0

> <version>
0

> <s_m_source_file>
/data/baiqing/PycharmProjects/Reinvent-master-3.2/result/LINK_invent/BTK/process_docking_weight1_custom_product_contain_oxygen_bond_distance_aromatic_linkinvent_7_9_3/rearranged_h_0198.sdf

> <i_m_source_file_index>
43

> <r_mmod_Potential_Energy-OPLS-2005>
-50.5810623168945

> <r_mmod_Stretch_Energy-OPLS-2005>
54.8252372741699

> <r_mmod_Bend_Energy-OPLS-2005>
147.928680419922

> <r_mmod_Torsional_Energy-OPLS-2005>
258.901611328125

> <r_mmod_Improper_Torsional_Energy-OPLS-2005>
7.78799915313721

> <r_mmod_Van_der_Waal_Energy-OPLS-2005>
120.511833190918

> <r_mmod_Electrostatic_Energy-OPLS-2005>
-432.096557617188

> <r_mmod_Solvation_Energy-OPLS-2005>
-231.603134155273

> <b_mmod_Minimization_Converged-OPLS-2005>
0

> <r_mmod_RMS_Derivative-OPLS-2005>
3.24520015716553

$$$$
43
                    3D
 Structure written by MMmdl.
155163  0  0  1  0            999 V2000
  -30.6398  -14.5529   20.6329 C   0  0  0  0  0  0
  -30.4543  -12.3792   19.4339 C   0  0  0  0  0  0
  -29.5110  -12.5282   18.2168 C   0  0  0  0  0  0
  -28.0330  -12.3628   18.6249 C   0  0  0  0  0  0
  -27.6664  -13.2028   19.8757 C   0  0  2  0  0  0
  -28.7038  -12.9811   21.0005 C   0  0  0  0  0  0
  -25.2646  -13.8140   20.5682 C   0  0  0  0  0  0
  -24.1877  -13.0453   20.9195 C   0  0  0  0  0  0
  -24.6397  -11.6909   20.8739 C   0  0  0  0  0  0
  -23.9036  -10.4318   21.0393 C   0  0  0  0  0  0
  -24.3604   -9.4231   21.9166 C   0  0  0  0  0  0
  -23.6304   -8.2249   22.0725 C   0  0  0  0  0  0
  -22.4278   -8.0266   21.3520 C   0  0  0  0  0  0
  -21.9901   -9.0242   20.4629 C   0  0  0  0  0  0
  -22.7203  -10.2150   20.3039 C   0  0  0  0  0  0
  -21.6852   -6.0735   22.5284 C   0  0  0  0  0  0
  -21.4007   -6.5650   23.8232 C   0  0  0  0  0  0
  -21.3659   -5.6784   24.9179 C   0  0  0  0  0  0
  -21.6058   -4.3051   24.7228 C   0  0  0  0  0  0
  -21.8814   -3.8141   23.4344 C   0  0  0  0  0  0
  -21.9200   -4.6965   22.3402 C   0  0  0  0  0  0
  -22.7898  -13.5290   21.1856 C   0  0  0  0  0  0
  -22.1665   -4.2142   21.0983 F   0  0  0  0  0  0
  -21.5634   -3.4550   25.7752 F   0  0  0  0  0  0
  -30.0360  -13.3383   20.4737 N   0  0  0  0  0  0
  -26.3053  -12.9282   20.3322 N   0  0  0  0  0  0
  -25.9324  -11.6453   20.5717 N   0  0  0  0  0  0
  -22.0508  -12.8301   22.0406 N   0  0  0  0  0  0
  -25.4438  -15.1848   20.4077 N   0  0  0  0  0  0
  -31.7109  -14.8441   20.0911 O   0  0  0  0  0  0
  -21.6626   -6.8881   21.4242 O   0  0  0  0  0  0
  -22.3601  -14.5596   20.6679 O   0  0  0  0  0  0
  -24.6255  -31.8615   23.2109 C   0  0  0  0  0  0
  -25.9134  -32.4801   23.8383 C   0  0  1  0  0  0
  -27.2350  -27.3880   20.0823 C   0  0  0  0  0  0
  -25.5970  -33.8600   24.2323 N   0  0  0  0  0  0
  -23.4150  -30.4888   21.5481 C   0  0  2  0  0  0
  -24.8563  -28.9501   20.1107 C   0  0  0  0  0  0
  -22.7442  -29.4659   22.4947 C   0  0  0  0  0  0
  -18.0277  -28.1389   22.8496 C   0  0  0  0  0  0
  -24.1461  -36.7273   23.2654 C   0  0  0  0  0  0
  -25.9472  -30.8153   21.3636 C   0  0  0  0  0  0
  -26.0202  -29.4480   20.7060 C   0  0  0  0  0  0
  -27.2089  -28.6734   20.6878 C   0  0  0  0  0  0
  -26.0371  -26.9082   19.5015 C   0  0  0  0  0  0
  -24.8604  -27.6818   19.5072 C   0  0  0  0  0  0
  -23.6250  -29.8267   20.1591 C   0  0  0  0  0  0
  -25.4093  -36.3096   24.0350 C   0  0  1  0  0  0
  -20.5873  -28.3698   23.1276 C   0  0  2  0  0  0
  -20.6760  -26.9424   22.5392 C   0  0  0  0  0  0
  -19.5729  -26.6394   21.5198 C   0  0  0  0  0  0
  -18.1917  -26.7949   22.1610 C   0  0  0  0  0  0
  -19.1528  -28.8854   23.2896 C   0  0  0  0  0  0
  -18.9466  -30.1453   23.8921 C   0  0  0  0  0  0
  -17.6463  -30.6597   24.0566 C   0  0  0  0  0  0
  -25.9037  -34.9456   23.5112 C   0  0  0  0  0  0
  -16.5355  -29.9095   23.6328 C   0  0  0  0  0  0
  -16.7263  -28.6509   23.0373 C   0  0  0  0  0  0
  -26.4581  -31.6640   25.0738 C   0  0  0  0  0  0
  -25.3899  -31.3712   26.1534 C   0  0  0  0  0  0
  -27.0456  -30.3104   24.6128 C   0  0  0  0  0  0
  -27.6159  -32.4410   25.7452 C   0  0  0  0  0  0
  -27.5567  -37.1786   24.8472 C   0  0  0  0  0  0
  -21.4163  -29.3057   22.3690 N   0  0  0  0  0  0
  -26.4277  -37.3788   23.9436 N   0  0  0  0  0  0
  -24.6820  -31.0697   22.1007 N   0  0  0  0  0  0
  -23.4175  -28.8199   23.3025 O   0  0  0  0  0  0
  -28.4077  -26.6385   20.1062 O   0  0  0  0  0  0
  -26.5553  -34.8912   22.4644 O   0  0  0  0  0  0
  -23.5454  -32.1344   23.7514 O   0  0  0  0  0  0
  -30.5627  -17.7894   20.6362 C   0  0  0  0  0  0
  -28.7067  -17.4251   22.0622 C   0  0  0  0  0  0
  -29.7817  -16.8565   21.3552 C   0  0  0  0  0  0
  -29.2069  -19.5470   21.3194 C   0  0  0  0  0  0
  -28.8569  -21.0609   21.3367 C   0  0  0  0  0  0
  -29.5968  -23.3374   20.3887 C   0  0  0  0  0  0
  -28.6012  -25.5197   19.2033 C   0  0  0  0  0  0
  -28.3632  -24.0532   19.7389 C   0  0  1  0  0  0
  -30.2701  -19.1230   20.6232 N   0  0  0  0  0  0
  -28.4236  -18.7446   22.0367 N   0  0  0  0  0  0
  -29.9585  -15.4196   21.4214 N   0  0  0  0  0  0
  -29.5738  -21.8379   20.2987 N   0  3  0  0  0  0
  -27.9742  -23.2422   18.6328 O   0  0  0  0  0  0
  -31.4885  -12.5472   19.1269 H   0  0  0  0  0  0
  -30.4253  -11.3614   19.8297 H   0  0  0  0  0  0
  -29.7741  -11.8021   17.4466 H   0  0  0  0  0  0
  -29.6591  -13.5100   17.7651 H   0  0  0  0  0  0
  -27.8574  -11.3033   18.8282 H   0  0  0  0  0  0
  -27.3804  -12.6258   17.7919 H   0  0  0  0  0  0
  -27.7125  -14.2506   19.5771 H   0  0  0  0  0  0
  -28.7105  -11.9354   21.3113 H   0  0  0  0  0  0
  -28.4244  -13.5461   21.8898 H   0  0  0  0  0  0
  -25.2742   -9.5746   22.4745 H   0  0  0  0  0  0
  -24.0036   -7.4648   22.7441 H   0  0  0  0  0  0
  -21.0819   -8.8749   19.8954 H   0  0  0  0  0  0
  -22.3616  -10.9686   19.6164 H   0  0  0  0  0  0
  -21.1975   -7.6152   23.9743 H   0  0  0  0  0  0
  -21.1490   -6.0500   25.9102 H   0  0  0  0  0  0
  -22.0594   -2.7595   23.2840 H   0  0  0  0  0  0
  -22.4032  -11.9973   22.4872 H   0  0  0  0  0  0
  -21.1119  -13.1326   22.2567 H   0  0  0  0  0  0
  -24.6797  -15.8456   20.4993 H   0  0  0  0  0  0
  -26.2871  -15.6043   20.0386 H   0  0  0  0  0  0
  -26.7203  -32.5476   23.1150 H   0  0  0  0  0  0
  -25.0292  -33.9754   25.0587 H   0  0  0  0  0  0
  -22.7117  -31.3134   21.4102 H   0  0  0  0  0  0
  -23.3737  -35.9588   23.3314 H   0  0  0  0  0  0
  -24.3562  -36.8869   22.2065 H   0  0  0  0  0  0
  -23.7165  -37.6453   23.6668 H   0  0  0  0  0  0
  -26.0605  -31.5873   20.6013 H   0  0  0  0  0  0
  -26.8382  -30.8669   21.9804 H   0  0  0  0  0  0
  -28.1107  -29.0613   21.1387 H   0  0  0  0  0  0
  -25.9800  -25.9264   19.0554 H   0  0  0  0  0  0
  -23.9578  -27.2905   19.0586 H   0  0  0  0  0  0
  -23.7484  -30.6047   19.4034 H   0  0  0  0  0  0
  -22.7440  -29.2604   19.8532 H   0  0  0  0  0  0
  -25.1272  -36.1975   25.0846 H   0  0  0  0  0  0
  -20.9954  -28.3251   24.1399 H   0  0  0  0  0  0
  -20.5641  -26.2309   23.3580 H   0  0  0  0  0  0
  -21.6640  -26.7458   22.1211 H   0  0  0  0  0  0
  -19.6867  -25.6300   21.1237 H   0  0  0  0  0  0
  -19.6677  -27.3199   20.6719 H   0  0  0  0  0  0
  -17.4199  -26.6742   21.3993 H   0  0  0  0  0  0
  -18.0309  -26.0079   22.8991 H   0  0  0  0  0  0
  -19.7936  -30.7262   24.2305 H   0  0  0  0  0  0
  -17.5025  -31.6276   24.5168 H   0  0  0  0  0  0
  -15.5351  -30.3017   23.7626 H   0  0  0  0  0  0
  -15.8670  -28.0813   22.7091 H   0  0  0  0  0  0
  -24.5982  -30.7189   25.7859 H   0  0  0  0  0  0
  -24.9246  -32.2857   26.5205 H   0  0  0  0  0  0
  -25.8315  -30.8686   27.0156 H   0  0  0  0  0  0
  -26.2958  -29.6753   24.1412 H   0  0  0  0  0  0
  -27.4471  -29.7503   25.4585 H   0  0  0  0  0  0
  -27.8689  -30.4430   23.9110 H   0  0  0  0  0  0
  -27.2756  -33.3670   26.2097 H   0  0  0  0  0  0
  -28.3889  -32.7053   25.0230 H   0  0  0  0  0  0
  -28.0942  -31.8538   26.5295 H   0  0  0  0  0  0
  -28.2617  -38.0058   24.7550 H   0  0  0  0  0  0
  -28.1027  -36.2606   24.6275 H   0  0  0  0  0  0
  -27.2306  -37.1412   25.8878 H   0  0  0  0  0  0
  -20.9348  -29.8791   21.6913 H   0  0  0  0  0  0
  -26.0150  -38.2845   24.1517 H   0  0  0  0  0  0
  -31.4324  -17.4877   20.0742 H   0  0  0  0  0  0
  -28.0486  -16.8103   22.6573 H   0  0  0  0  0  0
  -29.0995  -21.4656   22.3215 H   0  0  0  0  0  0
  -27.7827  -21.1995   21.1990 H   0  0  0  0  0  0
  -29.7470  -23.6810   21.4139 H   0  0  0  0  0  0
  -30.4873  -23.6476   19.8406 H   0  0  0  0  0  0
  -28.0087  -25.6841   18.3035 H   0  0  0  0  0  0
  -29.6226  -25.5923   18.8250 H   0  0  0  0  0  0
  -27.5247  -24.0591   20.4396 H   0  0  0  0  0  0
  -29.2361  -14.9435   21.9460 H   0  0  0  0  0  0
  -29.1809  -21.5947   19.4019 H   0  0  0  0  0  0
  -30.5079  -21.4611   20.3319 H   0  0  0  0  0  0
  -27.2105  -23.6443   18.2296 H   0  0  0  0  0  0
  1 25  1  0  0  0
  1 30  2  0  0  0
  1 81  1  0  0  0
  2  3  1  0  0  0
  2 25  1  0  0  0
  2 84  1  0  0  0
  2 85  1  0  0  0
  3  4  1  0  0  0
  3 86  1  0  0  0
  3 87  1  0  0  0
  4  5  1  0  0  0
  4 88  1  0  0  0
  4 89  1  0  0  0
  5  6  1  0  0  0
  5 26  1  0  0  0
  5 90  1  0  0  0
  6 25  1  0  0  0
  6 91  1  0  0  0
  6 92  1  0  0  0
  7  8  2  0  0  0
  7 26  1  0  0  0
  7 29  1  0  0  0
  8  9  1  0  0  0
  8 22  1  0  0  0
  9 10  1  0  0  0
  9 27  2  0  0  0
 10 11  2  0  0  0
 10 15  1  0  0  0
 11 12  1  0  0  0
 11 93  1  0  0  0
 12 13  2  0  0  0
 12 94  1  0  0  0
 13 14  1  0  0  0
 13 31  1  0  0  0
 14 15  2  0  0  0
 14 95  1  0  0  0
 15 96  1  0  0  0
 16 17  2  0  0  0
 16 21  1  0  0  0
 16 31  1  0  0  0
 17 18  1  0  0  0
 17 97  1  0  0  0
 18 19  2  0  0  0
 18 98  1  0  0  0
 19 20  1  0  0  0
 19 24  1  0  0  0
 20 21  2  0  0  0
 20 99  1  0  0  0
 21 23  1  0  0  0
 22 28  1  0  0  0
 22 32  2  0  0  0
 26 27  1  0  0  0
 28100  1  0  0  0
 28101  1  0  0  0
 29102  1  0  0  0
 29103  1  0  0  0
 33 34  1  0  0  0
 33 66  1  0  0  0
 33 70  2  0  0  0
 34 36  1  0  0  0
 34 59  1  0  0  0
 34104  1  0  0  0
 35 44  2  0  0  0
 35 45  1  0  0  0
 35 68  1  0  0  0
 36 56  1  0  0  0
 36105  1  0  0  0
 37 39  1  0  0  0
 37 47  1  0  0  0
 37 66  1  0  0  0
 37106  1  0  0  0
 38 43  2  0  0  0
 38 46  1  0  0  0
 38 47  1  0  0  0
 39 64  1  0  0  0
 39 67  2  0  0  0
 40 52  1  0  0  0
 40 53  2  0  0  0
 40 58  1  0  0  0
 41107  1  0  0  0
 41108  1  0  0  0
 41109  1  0  0  0
 41 48  1  0  0  0
 42 43  1  0  0  0
 42 66  1  0  0  0
 42110  1  0  0  0
 42111  1  0  0  0
 43 44  1  0  0  0
 44112  1  0  0  0
 45 46  2  0  0  0
 45113  1  0  0  0
 46114  1  0  0  0
 47115  1  0  0  0
 47116  1  0  0  0
 48 56  1  0  0  0
 48 65  1  0  0  0
 48117  1  0  0  0
 49 50  1  0  0  0
 49 53  1  0  0  0
 49 64  1  0  0  0
 49118  1  0  0  0
 50 51  1  0  0  0
 50119  1  0  0  0
 50120  1  0  0  0
 51 52  1  0  0  0
 51121  1  0  0  0
 51122  1  0  0  0
 52123  1  0  0  0
 52124  1  0  0  0
 53 54  1  0  0  0
 54 55  2  0  0  0
 54125  1  0  0  0
 55 57  1  0  0  0
 55126  1  0  0  0
 56 69  2  0  0  0
 57 58  2  0  0  0
 57127  1  0  0  0
 58128  1  0  0  0
 59 60  1  0  0  0
 59 61  1  0  0  0
 59 62  1  0  0  0
 60129  1  0  0  0
 60130  1  0  0  0
 60131  1  0  0  0
 61132  1  0  0  0
 61133  1  0  0  0
 61134  1  0  0  0
 62135  1  0  0  0
 62136  1  0  0  0
 62137  1  0  0  0
 63 65  1  0  0  0
 63138  1  0  0  0
 63139  1  0  0  0
 63140  1  0  0  0
 64141  1  0  0  0
 65142  1  0  0  0
 68 77  1  0  0  0
 71 73  2  0  0  0
 71 79  1  0  0  0
 71143  1  0  0  0
 72 73  1  0  0  0
 72 80  2  0  0  0
 72144  1  0  0  0
 73 81  1  0  0  0
 74 75  1  0  0  0
 74 79  2  0  0  0
 74 80  1  0  0  0
 75 82  1  0  0  0
 75145  1  0  0  0
 75146  1  0  0  0
 76 78  1  0  0  0
 76 82  1  0  0  0
 76147  1  0  0  0
 76148  1  0  0  0
 77 78  1  0  0  0
 77149  1  0  0  0
 77150  1  0  0  0
 78 83  1  0  0  0
 78151  1  0  0  0
 81152  1  0  0  0
 82153  1  0  0  0
 82154  1  0  0  0
 83155  1  0  0  0
M  CHG  1  82   1
M  ISO  4   1 100  68 101  77 101  81 100
M  END
> <chiral flag>
0

> <version>
0

> <s_m_source_file>
/data/baiqing/PycharmProjects/Reinvent-master-3.2/result/LINK_invent/BTK/process_docking_weight1_custom_product_contain_oxygen_bond_distance_aromatic_linkinvent_7_9_3/rearranged_h_0198.sdf

> <i_m_source_file_index>
44

> <r_mmod_Potential_Energy-OPLS-2005>
-839.940063476562

> <r_mmod_Stretch_Energy-OPLS-2005>
51.966178894043

> <r_mmod_Bend_Energy-OPLS-2005>
132.578002929688

> <r_mmod_Torsional_Energy-OPLS-2005>
228.808502197266

> <r_mmod_Improper_Torsional_Energy-OPLS-2005>
3.42277050018311

> <r_mmod_Van_der_Waal_Energy-OPLS-2005>
159.597290039062

> <r_mmod_Electrostatic_Energy-OPLS-2005>
-971.027099609375

> <r_mmod_Solvation_Energy-OPLS-2005>
-470.739288330078

> <b_mmod_Minimization_Converged-OPLS-2005>
0

> <r_mmod_RMS_Derivative-OPLS-2005>
4.85933876037598

$$$$
44
                    3D
 Structure written by MMmdl.
158166  0  0  1  0            999 V2000
  -30.5646  -14.6906   20.4801 C   0  0  0  0  0  0
  -30.4479  -12.4220   19.4542 C   0  0  0  0  0  0
  -29.5121  -12.5101   18.2269 C   0  0  0  0  0  0
  -28.0336  -12.3441   18.6354 C   0  0  0  0  0  0
  -27.6491  -13.2120   19.8628 C   0  0  2  0  0  0
  -28.6953  -13.0600   20.9884 C   0  0  0  0  0  0
  -25.2554  -13.8153   20.5706 C   0  0  0  0  0  0
  -24.1807  -13.0415   20.9188 C   0  0  0  0  0  0
  -24.6366  -11.6889   20.8725 C   0  0  0  0  0  0
  -23.9037  -10.4273   21.0389 C   0  0  0  0  0  0
  -24.3599   -9.4198   21.9180 C   0  0  0  0  0  0
  -23.6281   -8.2230   22.0754 C   0  0  0  0  0  0
  -22.4261   -8.0271   21.3549 C   0  0  0  0  0  0
  -21.9886   -9.0234   20.4644 C   0  0  0  0  0  0
  -22.7202  -10.2116   20.3047 C   0  0  0  0  0  0
  -21.6848   -6.0730   22.5275 C   0  0  0  0  0  0
  -21.4003   -6.5632   23.8210 C   0  0  0  0  0  0
  -21.3665   -5.6790   24.9180 C   0  0  0  0  0  0
  -21.6044   -4.3050   24.7228 C   0  0  0  0  0  0
  -21.8823   -3.8142   23.4346 C   0  0  0  0  0  0
  -21.9183   -4.6959   22.3403 C   0  0  0  0  0  0
  -22.7837  -13.5220   21.1862 C   0  0  0  0  0  0
  -22.1659   -4.2133   21.0985 F   0  0  0  0  0  0
  -21.5631   -3.4542   25.7747 F   0  0  0  0  0  0
  -30.0069  -13.4355   20.4318 N   0  0  0  0  0  0
  -26.2958  -12.9315   20.3312 N   0  0  0  0  0  0
  -25.9289  -11.6477   20.5737 N   0  0  0  0  0  0
  -22.0477  -12.8207   22.0421 N   0  0  0  0  0  0
  -25.4287  -15.1884   20.4220 N   0  0  0  0  0  0
  -31.7290  -14.8824   20.1067 O   0  0  0  0  0  0
  -21.6628   -6.8867   21.4239 O   0  0  0  0  0  0
  -22.3506  -14.5530   20.6729 O   0  0  0  0  0  0
  -24.6266  -31.8583   23.1999 C   0  0  0  0  0  0
  -25.9113  -32.4769   23.8332 C   0  0  1  0  0  0
  -27.2231  -27.2991   20.1133 C   0  0  0  0  0  0
  -25.5925  -33.8576   24.2274 N   0  0  0  0  0  0
  -23.4185  -30.4815   21.5430 C   0  0  2  0  0  0
  -24.8607  -28.9286   20.1085 C   0  0  0  0  0  0
  -22.7452  -29.4642   22.4928 C   0  0  0  0  0  0
  -18.0281  -28.1384   22.8478 C   0  0  0  0  0  0
  -24.1490  -36.7295   23.2639 C   0  0  0  0  0  0
  -25.9589  -30.7830   21.3692 C   0  0  0  0  0  0
  -26.0303  -29.4076   20.7122 C   0  0  0  0  0  0
  -27.2084  -28.6040   20.7047 C   0  0  0  0  0  0
  -26.0273  -26.8663   19.4976 C   0  0  0  0  0  0
  -24.8623  -27.6644   19.4943 C   0  0  0  0  0  0
  -23.6286  -29.8128   20.1581 C   0  0  0  0  0  0
  -25.4113  -36.3076   24.0329 C   0  0  1  0  0  0
  -20.5875  -28.3699   23.1266 C   0  0  2  0  0  0
  -20.6768  -26.9417   22.5400 C   0  0  0  0  0  0
  -19.5753  -26.6384   21.5199 C   0  0  0  0  0  0
  -18.1933  -26.7926   22.1614 C   0  0  0  0  0  0
  -19.1527  -28.8855   23.2868 C   0  0  0  0  0  0
  -18.9461  -30.1459   23.8883 C   0  0  0  0  0  0
  -17.6469  -30.6587   24.0566 C   0  0  0  0  0  0
  -25.9053  -34.9449   23.5107 C   0  0  0  0  0  0
  -16.5360  -29.9084   23.6333 C   0  0  0  0  0  0
  -16.7270  -28.6501   23.0348 C   0  0  0  0  0  0
  -26.4486  -31.6582   25.0720 C   0  0  0  0  0  0
  -25.3724  -31.3713   26.1451 C   0  0  0  0  0  0
  -27.0328  -30.3007   24.6182 C   0  0  0  0  0  0
  -27.6045  -32.4315   25.7493 C   0  0  0  0  0  0
  -27.5572  -37.1800   24.8461 C   0  0  0  0  0  0
  -21.4164  -29.3057   22.3654 N   0  0  0  0  0  0
  -26.4288  -37.3776   23.9406 N   0  0  0  0  0  0
  -24.6876  -31.0580   22.0942 N   0  0  0  0  0  0
  -23.4170  -28.8188   23.3024 O   0  0  0  0  0  0
  -28.3663  -26.4810   20.1852 O   0  0  0  0  0  0
  -26.5624  -34.8918   22.4683 O   0  0  0  0  0  0
  -23.5434  -32.1382   23.7327 O   0  0  0  0  0  0
  -28.0259  -18.8099   21.1140 C   0  0  0  0  0  0
  -28.9581  -19.7813   20.6493 C   0  0  0  0  0  0
  -29.5170  -17.0838   20.7185 C   0  0  0  0  0  0
  -31.1998  -22.4504   21.6992 C   0  0  0  0  0  0
  -30.6746  -22.5357   20.2533 C   0  0  0  0  0  0
  -28.4614  -25.1056   19.6191 C   0  0  0  0  0  0
  -29.1419  -22.4233   20.0878 C   0  0  2  0  0  0
  -28.3845  -23.7856   20.5463 C   0  0  1  0  0  0
  -28.3076  -17.4848   21.1427 N   0  0  0  0  0  0
  -30.1612  -19.2978   20.2046 N   0  0  0  0  0  0
  -30.4462  -17.9558   20.2402 N   0  0  0  0  0  0
  -26.7626  -19.1668   21.5819 N   0  0  0  0  0  0
  -28.6095  -21.1785   20.7403 N   0  0  0  0  0  0
  -29.6819  -15.6842   20.8272 N   0  0  0  0  0  0
  -27.0178  -23.4218   20.6739 O   0  0  0  0  0  0
  -31.4840  -12.5765   19.1526 H   0  0  0  0  0  0
  -30.4124  -11.4275   19.9003 H   0  0  0  0  0  0
  -29.7845  -11.7487   17.4947 H   0  0  0  0  0  0
  -29.6444  -13.4735   17.7311 H   0  0  0  0  0  0
  -27.8712  -11.2908   18.8676 H   0  0  0  0  0  0
  -27.3801  -12.5711   17.7917 H   0  0  0  0  0  0
  -27.6630  -14.2472   19.5235 H   0  0  0  0  0  0
  -28.7173  -12.0280   21.3423 H   0  0  0  0  0  0
  -28.4259  -13.6601   21.8582 H   0  0  0  0  0  0
  -25.2742   -9.5674   22.4763 H   0  0  0  0  0  0
  -23.9984   -7.4613   22.7465 H   0  0  0  0  0  0
  -21.0819   -8.8752   19.8943 H   0  0  0  0  0  0
  -22.3660  -10.9667   19.6161 H   0  0  0  0  0  0
  -21.2002   -7.6141   23.9711 H   0  0  0  0  0  0
  -21.1484   -6.0524   25.9083 H   0  0  0  0  0  0
  -22.0598   -2.7596   23.2859 H   0  0  0  0  0  0
  -22.4100  -11.9861   22.4799 H   0  0  0  0  0  0
  -21.1106  -13.1257   22.2655 H   0  0  0  0  0  0
  -24.6700  -15.8457   20.5691 H   0  0  0  0  0  0
  -26.2958  -15.6469   20.1725 H   0  0  0  0  0  0
  -26.7187  -32.5413   23.1066 H   0  0  0  0  0  0
  -25.0052  -33.9725   25.0401 H   0  0  0  0  0  0
  -22.7146  -31.3045   21.4035 H   0  0  0  0  0  0
  -23.3752  -35.9628   23.3308 H   0  0  0  0  0  0
  -24.3570  -36.8912   22.2049 H   0  0  0  0  0  0
  -23.7245  -37.6503   23.6666 H   0  0  0  0  0  0
  -26.0911  -31.5450   20.6001 H   0  0  0  0  0  0
  -26.8374  -30.8303   21.9995 H   0  0  0  0  0  0
  -28.1063  -28.9688   21.1840 H   0  0  0  0  0  0
  -25.9583  -25.8934   19.0372 H   0  0  0  0  0  0
  -23.9616  -27.2932   19.0242 H   0  0  0  0  0  0
  -23.7388  -30.5912   19.4018 H   0  0  0  0  0  0
  -22.7440  -29.2451   19.8642 H   0  0  0  0  0  0
  -25.1295  -36.1932   25.0820 H   0  0  0  0  0  0
  -20.9980  -28.3289   24.1384 H   0  0  0  0  0  0
  -20.5660  -26.2312   23.3601 H   0  0  0  0  0  0
  -21.6640  -26.7435   22.1213 H   0  0  0  0  0  0
  -19.6927  -25.6290   21.1236 H   0  0  0  0  0  0
  -19.6709  -27.3179   20.6718 H   0  0  0  0  0  0
  -17.4201  -26.6659   21.4025 H   0  0  0  0  0  0
  -18.0360  -26.0069   22.9011 H   0  0  0  0  0  0
  -19.7943  -30.7266   24.2250 H   0  0  0  0  0  0
  -17.5027  -31.6265   24.5163 H   0  0  0  0  0  0
  -15.5355  -30.2990   23.7664 H   0  0  0  0  0  0
  -15.8666  -28.0817   22.7076 H   0  0  0  0  0  0
  -24.5912  -30.7042   25.7784 H   0  0  0  0  0  0
  -24.8889  -32.2873   26.4873 H   0  0  0  0  0  0
  -25.8053  -30.8903   27.0230 H   0  0  0  0  0  0
  -26.2902  -29.6765   24.1201 H   0  0  0  0  0  0
  -27.4010  -29.7264   25.4687 H   0  0  0  0  0  0
  -27.8779  -30.4294   23.9416 H   0  0  0  0  0  0
  -27.2667  -33.3621   26.2071 H   0  0  0  0  0  0
  -28.3864  -32.6864   25.0327 H   0  0  0  0  0  0
  -28.0717  -31.8444   26.5409 H   0  0  0  0  0  0
  -28.2596  -38.0090   24.7492 H   0  0  0  0  0  0
  -28.1064  -36.2617   24.6314 H   0  0  0  0  0  0
  -27.2285  -37.1476   25.8864 H   0  0  0  0  0  0
  -20.9330  -29.8746   21.6835 H   0  0  0  0  0  0
  -26.0174  -38.2858   24.1396 H   0  0  0  0  0  0
  -30.8940  -21.5291   22.1973 H   0  0  0  0  0  0
  -30.8638  -23.2896   22.3064 H   0  0  0  0  0  0
  -32.2894  -22.4630   21.7055 H   0  0  0  0  0  0
  -31.1519  -21.7532   19.6654 H   0  0  0  0  0  0
  -31.0211  -23.4692   19.8106 H   0  0  0  0  0  0
  -27.8508  -24.9786   18.7255 H   0  0  0  0  0  0
  -29.4691  -25.1064   19.2072 H   0  0  0  0  0  0
  -28.9440  -22.3013   19.0206 H   0  0  0  0  0  0
  -28.7439  -24.0548   21.5395 H   0  0  0  0  0  0
  -26.5540  -20.1394   21.7539 H   0  0  0  0  0  0
  -26.2639  -18.5180   22.1747 H   0  0  0  0  0  0
  -27.6867  -21.3315   21.1270 H   0  0  0  0  0  0
  -28.8323  -15.2703   21.1637 H   0  0  0  0  0  0
  -26.7114  -23.1694   19.8095 H   0  0  0  0  0  0
  1 25  1  0  0  0
  1 30  2  0  0  0
  1 84  1  0  0  0
  2  3  1  0  0  0
  2 25  1  0  0  0
  2 86  1  0  0  0
  2 87  1  0  0  0
  3  4  1  0  0  0
  3 88  1  0  0  0
  3 89  1  0  0  0
  4  5  1  0  0  0
  4 90  1  0  0  0
  4 91  1  0  0  0
  5  6  1  0  0  0
  5 26  1  0  0  0
  5 92  1  0  0  0
  6 25  1  0  0  0
  6 93  1  0  0  0
  6 94  1  0  0  0
  7  8  2  0  0  0
  7 26  1  0  0  0
  7 29  1  0  0  0
  8  9  1  0  0  0
  8 22  1  0  0  0
  9 10  1  0  0  0
  9 27  2  0  0  0
 10 11  2  0  0  0
 10 15  1  0  0  0
 11 12  1  0  0  0
 11 95  1  0  0  0
 12 13  2  0  0  0
 12 96  1  0  0  0
 13 14  1  0  0  0
 13 31  1  0  0  0
 14 15  2  0  0  0
 14 97  1  0  0  0
 15 98  1  0  0  0
 16 17  2  0  0  0
 16 21  1  0  0  0
 16 31  1  0  0  0
 17 18  1  0  0  0
 17 99  1  0  0  0
 18 19  2  0  0  0
 18100  1  0  0  0
 19 20  1  0  0  0
 19 24  1  0  0  0
 20 21  2  0  0  0
 20101  1  0  0  0
 21 23  1  0  0  0
 22 28  1  0  0  0
 22 32  2  0  0  0
 26 27  1  0  0  0
 28102  1  0  0  0
 28103  1  0  0  0
 29104  1  0  0  0
 29105  1  0  0  0
 33 34  1  0  0  0
 33 66  1  0  0  0
 33 70  2  0  0  0
 34 36  1  0  0  0
 34 59  1  0  0  0
 34106  1  0  0  0
 35 44  2  0  0  0
 35 45  1  0  0  0
 35 68  1  0  0  0
 36 56  1  0  0  0
 36107  1  0  0  0
 37 39  1  0  0  0
 37 47  1  0  0  0
 37 66  1  0  0  0
 37108  1  0  0  0
 38 43  2  0  0  0
 38 46  1  0  0  0
 38 47  1  0  0  0
 39 64  1  0  0  0
 39 67  2  0  0  0
 40 52  1  0  0  0
 40 53  2  0  0  0
 40 58  1  0  0  0
 41109  1  0  0  0
 41110  1  0  0  0
 41111  1  0  0  0
 41 48  1  0  0  0
 42 43  1  0  0  0
 42 66  1  0  0  0
 42112  1  0  0  0
 42113  1  0  0  0
 43 44  1  0  0  0
 44114  1  0  0  0
 45 46  2  0  0  0
 45115  1  0  0  0
 46116  1  0  0  0
 47117  1  0  0  0
 47118  1  0  0  0
 48 56  1  0  0  0
 48 65  1  0  0  0
 48119  1  0  0  0
 49 50  1  0  0  0
 49 53  1  0  0  0
 49 64  1  0  0  0
 49120  1  0  0  0
 50 51  1  0  0  0
 50121  1  0  0  0
 50122  1  0  0  0
 51 52  1  0  0  0
 51123  1  0  0  0
 51124  1  0  0  0
 52125  1  0  0  0
 52126  1  0  0  0
 53 54  1  0  0  0
 54 55  2  0  0  0
 54127  1  0  0  0
 55 57  1  0  0  0
 55128  1  0  0  0
 56 69  2  0  0  0
 57 58  2  0  0  0
 57129  1  0  0  0
 58130  1  0  0  0
 59 60  1  0  0  0
 59 61  1  0  0  0
 59 62  1  0  0  0
 60131  1  0  0  0
 60132  1  0  0  0
 60133  1  0  0  0
 61134  1  0  0  0
 61135  1  0  0  0
 61136  1  0  0  0
 62137  1  0  0  0
 62138  1  0  0  0
 62139  1  0  0  0
 63 65  1  0  0  0
 63140  1  0  0  0
 63141  1  0  0  0
 63142  1  0  0  0
 64143  1  0  0  0
 65144  1  0  0  0
 68 76  1  0  0  0
 71 72  2  0  0  0
 71 79  1  0  0  0
 71 82  1  0  0  0
 72 80  1  0  0  0
 72 83  1  0  0  0
 73 79  2  0  0  0
 73 81  1  0  0  0
 73 84  1  0  0  0
 74 75  1  0  0  0
 74145  1  0  0  0
 74146  1  0  0  0
 74147  1  0  0  0
 75148  1  0  0  0
 75149  1  0  0  0
 75 77  1  0  0  0
 76 78  1  0  0  0
 76150  1  0  0  0
 76151  1  0  0  0
 77 78  1  0  0  0
 77 83  1  0  0  0
 77152  1  0  0  0
 78 85  1  0  0  0
 78153  1  0  0  0
 80 81  2  0  0  0
 82154  1  0  0  0
 82155  1  0  0  0
 83156  1  0  0  0
 84157  1  0  0  0
 85158  1  0  0  0
M  ISO  4   1 100  68 101  76 101  84 100
M  END
> <chiral flag>
0

> <version>
0

> <s_m_source_file>
/data/baiqing/PycharmProjects/Reinvent-master-3.2/result/LINK_invent/BTK/process_docking_weight1_custom_product_contain_oxygen_bond_distance_aromatic_linkinvent_7_9_3/rearranged_h_0198.sdf

> <i_m_source_file_index>
45

> <r_mmod_Potential_Energy-OPLS-2005>
-84.4050827026367

> <r_mmod_Stretch_Energy-OPLS-2005>
97.9703369140625

> <r_mmod_Bend_Energy-OPLS-2005>
226.364013671875

> <r_mmod_Torsional_Energy-OPLS-2005>
236.636795043945

> <r_mmod_Improper_Torsional_Energy-OPLS-2005>
6.91583871841431

> <r_mmod_Van_der_Waal_Energy-OPLS-2005>
145.322830200195

> <r_mmod_Electrostatic_Energy-OPLS-2005>
-604.061218261719

> <r_mmod_Solvation_Energy-OPLS-2005>
-254.840377807617

> <b_mmod_Minimization_Converged-OPLS-2005>
0

> <r_mmod_RMS_Derivative-OPLS-2005>
3.19334721565247

$$$$
45
                    3D
 Structure written by MMmdl.
151159  0  0  1  0            999 V2000
  -30.5910  -14.7392   20.4608 C   0  0  0  0  0  0
  -30.4376  -12.4465   19.4750 C   0  0  0  0  0  0
  -29.5131  -12.5100   18.2379 C   0  0  0  0  0  0
  -28.0382  -12.3336   18.6491 C   0  0  0  0  0  0
  -27.6457  -13.2266   19.8560 C   0  0  2  0  0  0
  -28.6887  -13.1381   20.9922 C   0  0  0  0  0  0
  -25.2528  -13.8186   20.5690 C   0  0  0  0  0  0
  -24.1811  -13.0438   20.9203 C   0  0  0  0  0  0
  -24.6394  -11.6914   20.8746 C   0  0  0  0  0  0
  -23.9068  -10.4292   21.0407 C   0  0  0  0  0  0
  -24.3619   -9.4207   21.9185 C   0  0  0  0  0  0
  -23.6294   -8.2243   22.0754 C   0  0  0  0  0  0
  -22.4276   -8.0281   21.3544 C   0  0  0  0  0  0
  -21.9912   -9.0254   20.4647 C   0  0  0  0  0  0
  -22.7240  -10.2133   20.3056 C   0  0  0  0  0  0
  -21.6852   -6.0736   22.5279 C   0  0  0  0  0  0
  -21.4012   -6.5641   23.8212 C   0  0  0  0  0  0
  -21.3660   -5.6793   24.9174 C   0  0  0  0  0  0
  -21.6043   -4.3055   24.7225 C   0  0  0  0  0  0
  -21.8820   -3.8147   23.4346 C   0  0  0  0  0  0
  -21.9193   -4.6964   22.3402 C   0  0  0  0  0  0
  -22.7833  -13.5225   21.1864 C   0  0  0  0  0  0
  -22.1662   -4.2150   21.0980 F   0  0  0  0  0  0
  -21.5629   -3.4539   25.7738 F   0  0  0  0  0  0
  -29.9943  -13.4972   20.4208 N   0  0  0  0  0  0
  -26.2952  -12.9383   20.3290 N   0  0  0  0  0  0
  -25.9324  -11.6530   20.5752 N   0  0  0  0  0  0
  -22.0477  -12.8216   22.0420 N   0  0  0  0  0  0
  -25.4227  -15.1910   20.4103 N   0  0  0  0  0  0
  -31.7692  -14.8590   20.1058 O   0  0  0  0  0  0
  -21.6640   -6.8879   21.4241 O   0  0  0  0  0  0
  -22.3520  -14.5532   20.6712 O   0  0  0  0  0  0
  -24.6307  -31.8543   23.1966 C   0  0  0  0  0  0
  -25.9133  -32.4746   23.8315 C   0  0  1  0  0  0
  -27.2258  -27.2628   20.1214 C   0  0  0  0  0  0
  -25.5925  -33.8549   24.2238 N   0  0  0  0  0  0
  -23.4267  -30.4759   21.5402 C   0  0  2  0  0  0
  -24.8730  -28.9194   20.1091 C   0  0  0  0  0  0
  -22.7495  -29.4596   22.4912 C   0  0  0  0  0  0
  -18.0290  -28.1388   22.8487 C   0  0  0  0  0  0
  -24.1487  -36.7279   23.2642 C   0  0  0  0  0  0
  -25.9714  -30.7671   21.3751 C   0  0  0  0  0  0
  -26.0426  -29.3892   20.7171 C   0  0  0  0  0  0
  -27.2164  -28.5721   20.7127 C   0  0  0  0  0  0
  -26.0269  -26.8528   19.4951 C   0  0  0  0  0  0
  -24.8701  -27.6596   19.4897 C   0  0  0  0  0  0
  -23.6437  -29.8065   20.1567 C   0  0  0  0  0  0
  -25.4115  -36.3064   24.0325 C   0  0  1  0  0  0
  -20.5893  -28.3694   23.1272 C   0  0  2  0  0  0
  -20.6775  -26.9412   22.5410 C   0  0  0  0  0  0
  -19.5751  -26.6383   21.5213 C   0  0  0  0  0  0
  -18.1932  -26.7932   22.1625 C   0  0  0  0  0  0
  -19.1544  -28.8859   23.2874 C   0  0  0  0  0  0
  -18.9466  -30.1461   23.8890 C   0  0  0  0  0  0
  -17.6466  -30.6589   24.0565 C   0  0  0  0  0  0
  -25.9057  -34.9436   23.5087 C   0  0  0  0  0  0
  -16.5356  -29.9088   23.6333 C   0  0  0  0  0  0
  -16.7277  -28.6506   23.0354 C   0  0  0  0  0  0
  -26.4500  -31.6580   25.0711 C   0  0  0  0  0  0
  -25.3720  -31.3736   26.1430 C   0  0  0  0  0  0
  -27.0354  -30.2997   24.6204 C   0  0  0  0  0  0
  -27.6045  -32.4331   25.7489 C   0  0  0  0  0  0
  -27.5576  -37.1794   24.8466 C   0  0  0  0  0  0
  -21.4205  -29.3038   22.3657 N   0  0  0  0  0  0
  -26.4287  -37.3764   23.9410 N   0  0  0  0  0  0
  -24.6954  -31.0509   22.0938 N   0  0  0  0  0  0
  -23.4197  -28.8145   23.3017 O   0  0  0  0  0  0
  -28.3569  -26.4174   20.2053 O   0  0  0  0  0  0
  -26.5637  -34.8916   22.4661 O   0  0  0  0  0  0
  -23.5458  -32.1366   23.7266 O   0  0  0  0  0  0
  -29.0507  -18.2893   21.0176 C   0  0  0  0  0  0
  -30.5519  -19.2662   19.8232 C   0  0  0  0  0  0
  -29.9064  -17.2892   20.5245 C   0  0  0  0  0  0
  -28.9453  -22.2541   20.0117 C   0  0  0  0  0  0
  -28.9518  -20.9590   20.9877 C   0  0  0  0  0  0
  -28.4612  -25.0212   19.6526 C   0  0  0  0  0  0
  -28.6118  -23.7300   20.6220 C   0  0  2  0  0  0
  -30.8607  -17.9550   19.7467 N   0  0  0  0  0  0
  -29.4752  -19.5805   20.5721 N   0  0  0  0  0  0
  -29.7858  -15.8294   20.7644 N   0  0  0  0  0  0
  -29.6962  -24.0322   21.4811 O   0  0  0  0  0  0
  -31.4784  -12.5747   19.1731 H   0  0  0  0  0  0
  -30.3844  -11.4639   19.9466 H   0  0  0  0  0  0
  -29.7943  -11.7420   17.5161 H   0  0  0  0  0  0
  -29.6411  -13.4679   17.7311 H   0  0  0  0  0  0
  -27.8932  -11.2836   18.9062 H   0  0  0  0  0  0
  -27.3815  -12.5315   17.8012 H   0  0  0  0  0  0
  -27.6466  -14.2518   19.4852 H   0  0  0  0  0  0
  -28.7207  -12.1309   21.4105 H   0  0  0  0  0  0
  -28.4206  -13.7984   21.8182 H   0  0  0  0  0  0
  -25.2764   -9.5684   22.4760 H   0  0  0  0  0  0
  -24.0003   -7.4634   22.7472 H   0  0  0  0  0  0
  -21.0843   -8.8772   19.8951 H   0  0  0  0  0  0
  -22.3698  -10.9672   19.6165 H   0  0  0  0  0  0
  -21.2003   -7.6150   23.9716 H   0  0  0  0  0  0
  -21.1480   -6.0523   25.9077 H   0  0  0  0  0  0
  -22.0599   -2.7609   23.2845 H   0  0  0  0  0  0
  -22.4092  -11.9875   22.4804 H   0  0  0  0  0  0
  -21.1095  -13.1240   22.2628 H   0  0  0  0  0  0
  -24.6510  -15.8414   20.5119 H   0  0  0  0  0  0
  -26.2635  -15.6297   20.0574 H   0  0  0  0  0  0
  -26.7199  -32.5393   23.1054 H   0  0  0  0  0  0
  -25.0059  -33.9683   25.0375 H   0  0  0  0  0  0
  -22.7233  -31.2980   21.3930 H   0  0  0  0  0  0
  -23.3751  -35.9610   23.3302 H   0  0  0  0  0  0
  -24.3575  -36.8905   22.2057 H   0  0  0  0  0  0
  -23.7240  -37.6476   23.6673 H   0  0  0  0  0  0
  -26.1104  -31.5273   20.6051 H   0  0  0  0  0  0
  -26.8492  -30.8156   22.0080 H   0  0  0  0  0  0
  -28.1129  -28.9287   21.2004 H   0  0  0  0  0  0
  -25.9346  -25.8875   19.0253 H   0  0  0  0  0  0
  -23.9708  -27.2914   19.0152 H   0  0  0  0  0  0
  -23.7674  -30.5811   19.3990 H   0  0  0  0  0  0
  -22.7621  -29.2391   19.8530 H   0  0  0  0  0  0
  -25.1299  -36.1905   25.0818 H   0  0  0  0  0  0
  -20.9988  -28.3276   24.1392 H   0  0  0  0  0  0
  -20.5671  -26.2306   23.3616 H   0  0  0  0  0  0
  -21.6644  -26.7437   22.1203 H   0  0  0  0  0  0
  -19.6910  -25.6293   21.1243 H   0  0  0  0  0  0
  -19.6688  -27.3194   20.6744 H   0  0  0  0  0  0
  -17.4201  -26.6683   21.4028 H   0  0  0  0  0  0
  -18.0331  -26.0074   22.9021 H   0  0  0  0  0  0
  -19.7943  -30.7279   24.2253 H   0  0  0  0  0  0
  -17.5021  -31.6267   24.5171 H   0  0  0  0  0  0
  -15.5356  -30.2989   23.7661 H   0  0  0  0  0  0
  -15.8677  -28.0824   22.7073 H   0  0  0  0  0  0
  -24.5898  -30.7080   25.7760 H   0  0  0  0  0  0
  -24.8908  -32.2908   26.4834 H   0  0  0  0  0  0
  -25.8032  -30.8928   27.0219 H   0  0  0  0  0  0
  -26.2943  -29.6736   24.1224 H   0  0  0  0  0  0
  -27.4032  -29.7268   25.4727 H   0  0  0  0  0  0
  -27.8819  -30.4272   23.9453 H   0  0  0  0  0  0
  -27.2642  -33.3637   26.2045 H   0  0  0  0  0  0
  -28.3867  -32.6883   25.0328 H   0  0  0  0  0  0
  -28.0702  -31.8473   26.5425 H   0  0  0  0  0  0
  -28.2591  -38.0093   24.7508 H   0  0  0  0  0  0
  -28.1072  -36.2621   24.6298 H   0  0  0  0  0  0
  -27.2293  -37.1448   25.8869 H   0  0  0  0  0  0
  -20.9394  -29.8756   21.6856 H   0  0  0  0  0  0
  -26.0162  -38.2836   24.1412 H   0  0  0  0  0  0
  -28.1937  -18.1961   21.6720 H   0  0  0  0  0  0
  -31.1530  -20.0263   19.3440 H   0  0  0  0  0  0
  -28.2271  -22.0550   19.2157 H   0  0  0  0  0  0
  -29.9113  -22.3087   19.5089 H   0  0  0  0  0  0
  -27.9336  -20.8152   21.3499 H   0  0  0  0  0  0
  -29.5254  -21.2325   21.8737 H   0  0  0  0  0  0
  -29.3573  -25.0464   19.0315 H   0  0  0  0  0  0
  -27.6737  -24.8127   18.9339 H   0  0  0  0  0  0
  -27.7031  -23.6591   21.2219 H   0  0  0  0  0  0
  -28.8958  -15.5496   21.1462 H   0  0  0  0  0  0
  -29.5513  -24.9175   21.8074 H   0  0  0  0  0  0
  1 25  1  0  0  0
  1 30  2  0  0  0
  1 80  1  0  0  0
  2  3  1  0  0  0
  2 25  1  0  0  0
  2 82  1  0  0  0
  2 83  1  0  0  0
  3  4  1  0  0  0
  3 84  1  0  0  0
  3 85  1  0  0  0
  4  5  1  0  0  0
  4 86  1  0  0  0
  4 87  1  0  0  0
  5  6  1  0  0  0
  5 26  1  0  0  0
  5 88  1  0  0  0
  6 25  1  0  0  0
  6 89  1  0  0  0
  6 90  1  0  0  0
  7  8  2  0  0  0
  7 26  1  0  0  0
  7 29  1  0  0  0
  8  9  1  0  0  0
  8 22  1  0  0  0
  9 10  1  0  0  0
  9 27  2  0  0  0
 10 11  2  0  0  0
 10 15  1  0  0  0
 11 12  1  0  0  0
 11 91  1  0  0  0
 12 13  2  0  0  0
 12 92  1  0  0  0
 13 14  1  0  0  0
 13 31  1  0  0  0
 14 15  2  0  0  0
 14 93  1  0  0  0
 15 94  1  0  0  0
 16 17  2  0  0  0
 16 21  1  0  0  0
 16 31  1  0  0  0
 17 18  1  0  0  0
 17 95  1  0  0  0
 18 19  2  0  0  0
 18 96  1  0  0  0
 19 20  1  0  0  0
 19 24  1  0  0  0
 20 21  2  0  0  0
 20 97  1  0  0  0
 21 23  1  0  0  0
 22 28  1  0  0  0
 22 32  2  0  0  0
 26 27  1  0  0  0
 28 98  1  0  0  0
 28 99  1  0  0  0
 29100  1  0  0  0
 29101  1  0  0  0
 33 34  1  0  0  0
 33 66  1  0  0  0
 33 70  2  0  0  0
 34 36  1  0  0  0
 34 59  1  0  0  0
 34102  1  0  0  0
 35 44  2  0  0  0
 35 45  1  0  0  0
 35 68  1  0  0  0
 36 56  1  0  0  0
 36103  1  0  0  0
 37 39  1  0  0  0
 37 47  1  0  0  0
 37 66  1  0  0  0
 37104  1  0  0  0
 38 43  2  0  0  0
 38 46  1  0  0  0
 38 47  1  0  0  0
 39 64  1  0  0  0
 39 67  2  0  0  0
 40 52  1  0  0  0
 40 53  2  0  0  0
 40 58  1  0  0  0
 41105  1  0  0  0
 41106  1  0  0  0
 41107  1  0  0  0
 41 48  1  0  0  0
 42 43  1  0  0  0
 42 66  1  0  0  0
 42108  1  0  0  0
 42109  1  0  0  0
 43 44  1  0  0  0
 44110  1  0  0  0
 45 46  2  0  0  0
 45111  1  0  0  0
 46112  1  0  0  0
 47113  1  0  0  0
 47114  1  0  0  0
 48 56  1  0  0  0
 48 65  1  0  0  0
 48115  1  0  0  0
 49 50  1  0  0  0
 49 53  1  0  0  0
 49 64  1  0  0  0
 49116  1  0  0  0
 50 51  1  0  0  0
 50117  1  0  0  0
 50118  1  0  0  0
 51 52  1  0  0  0
 51119  1  0  0  0
 51120  1  0  0  0
 52121  1  0  0  0
 52122  1  0  0  0
 53 54  1  0  0  0
 54 55  2  0  0  0
 54123  1  0  0  0
 55 57  1  0  0  0
 55124  1  0  0  0
 56 69  2  0  0  0
 57 58  2  0  0  0
 57125  1  0  0  0
 58126  1  0  0  0
 59 60  1  0  0  0
 59 61  1  0  0  0
 59 62  1  0  0  0
 60127  1  0  0  0
 60128  1  0  0  0
 60129  1  0  0  0
 61130  1  0  0  0
 61131  1  0  0  0
 61132  1  0  0  0
 62133  1  0  0  0
 62134  1  0  0  0
 62135  1  0  0  0
 63 65  1  0  0  0
 63136  1  0  0  0
 63137  1  0  0  0
 63138  1  0  0  0
 64139  1  0  0  0
 65140  1  0  0  0
 68 76  1  0  0  0
 71 73  2  0  0  0
 71 79  1  0  0  0
 71141  1  0  0  0
 72 78  2  0  0  0
 72 79  1  0  0  0
 72142  1  0  0  0
 73 78  1  0  0  0
 73 80  1  0  0  0
 74 75  1  0  0  0
 74 77  1  0  0  0
 74143  1  0  0  0
 74144  1  0  0  0
 75 79  1  0  0  0
 75145  1  0  0  0
 75146  1  0  0  0
 76 77  1  0  0  0
 76147  1  0  0  0
 76148  1  0  0  0
 77 81  1  0  0  0
 77149  1  0  0  0
 80150  1  0  0  0
 81151  1  0  0  0
M  ISO  4   1 100  68 101  76 101  80 100
M  END
> <chiral flag>
0

> <version>
0

> <s_m_source_file>
/data/baiqing/PycharmProjects/Reinvent-master-3.2/result/LINK_invent/BTK/process_docking_weight1_custom_product_contain_oxygen_bond_distance_aromatic_linkinvent_7_9_3/rearranged_h_0198.sdf

> <i_m_source_file_index>
46

> <r_mmod_Potential_Energy-OPLS-2005>
126.861343383789

> <r_mmod_Stretch_Energy-OPLS-2005>
120.41593170166

> <r_mmod_Bend_Energy-OPLS-2005>
190.005935668945

> <r_mmod_Torsional_Energy-OPLS-2005>
228.947906494141

> <r_mmod_Improper_Torsional_Energy-OPLS-2005>
4.42500066757202

> <r_mmod_Van_der_Waal_Energy-OPLS-2005>
114.223121643066

> <r_mmod_Electrostatic_Energy-OPLS-2005>
-351.272644042969

> <r_mmod_Solvation_Energy-OPLS-2005>
-259.480499267578

> <b_mmod_Minimization_Converged-OPLS-2005>
0

> <r_mmod_RMS_Derivative-OPLS-2005>
0.247614115476608

$$$$
46
                    3D
 Structure written by MMmdl.
152160  0  0  1  0            999 V2000
  -30.6712  -14.5388   20.5146 C   0  0  0  0  0  0
  -30.4183  -12.3283   19.4483 C   0  0  0  0  0  0
  -29.4973  -12.4891   18.2200 C   0  0  0  0  0  0
  -28.0188  -12.3417   18.6322 C   0  0  0  0  0  0
  -27.6519  -13.2106   19.8657 C   0  0  2  0  0  0
  -28.6935  -13.0465   20.9963 C   0  0  0  0  0  0
  -25.2549  -13.8183   20.5681 C   0  0  0  0  0  0
  -24.1810  -13.0443   20.9193 C   0  0  0  0  0  0
  -24.6370  -11.6918   20.8738 C   0  0  0  0  0  0
  -23.9044  -10.4293   21.0404 C   0  0  0  0  0  0
  -24.3604   -9.4203   21.9175 C   0  0  0  0  0  0
  -23.6282   -8.2240   22.0744 C   0  0  0  0  0  0
  -22.4262   -8.0271   21.3542 C   0  0  0  0  0  0
  -21.9893   -9.0242   20.4644 C   0  0  0  0  0  0
  -22.7222  -10.2122   20.3050 C   0  0  0  0  0  0
  -21.6847   -6.0720   22.5279 C   0  0  0  0  0  0
  -21.4019   -6.5631   23.8210 C   0  0  0  0  0  0
  -21.3662   -5.6789   24.9177 C   0  0  0  0  0  0
  -21.6041   -4.3048   24.7231 C   0  0  0  0  0  0
  -21.8828   -3.8134   23.4355 C   0  0  0  0  0  0
  -21.9197   -4.6949   22.3408 C   0  0  0  0  0  0
  -22.7835  -13.5230   21.1865 C   0  0  0  0  0  0
  -22.1659   -4.2130   21.0985 F   0  0  0  0  0  0
  -21.5632   -3.4538   25.7750 F   0  0  0  0  0  0
  -30.0156  -13.3482   20.4322 N   0  0  0  0  0  0
  -26.2961  -12.9343   20.3343 N   0  0  0  0  0  0
  -25.9291  -11.6498   20.5768 N   0  0  0  0  0  0
  -22.0490  -12.8198   22.0426 N   0  0  0  0  0  0
  -25.4270  -15.1902   20.4091 N   0  0  0  0  0  0
  -31.8343  -14.6711   20.1241 O   0  0  0  0  0  0
  -21.6639   -6.8858   21.4236 O   0  0  0  0  0  0
  -22.3513  -14.5539   20.6719 O   0  0  0  0  0  0
  -24.6169  -31.8639   23.2060 C   0  0  0  0  0  0
  -25.9053  -32.4789   23.8371 C   0  0  1  0  0  0
  -27.2338  -27.3787   20.1046 C   0  0  0  0  0  0
  -25.5894  -33.8592   24.2301 N   0  0  0  0  0  0
  -23.4083  -30.4867   21.5453 C   0  0  2  0  0  0
  -24.8570  -28.9444   20.1084 C   0  0  0  0  0  0
  -22.7411  -29.4654   22.4943 C   0  0  0  0  0  0
  -18.0277  -28.1382   22.8503 C   0  0  0  0  0  0
  -24.1487  -36.7306   23.2641 C   0  0  0  0  0  0
  -25.9422  -30.8092   21.3710 C   0  0  0  0  0  0
  -26.0172  -29.4407   20.7139 C   0  0  0  0  0  0
  -27.2036  -28.6640   20.7094 C   0  0  0  0  0  0
  -26.0510  -26.9093   19.4882 C   0  0  0  0  0  0
  -24.8731  -27.6829   19.4889 C   0  0  0  0  0  0
  -23.6195  -29.8158   20.1599 C   0  0  0  0  0  0
  -25.4110  -36.3098   24.0332 C   0  0  1  0  0  0
  -20.5865  -28.3699   23.1296 C   0  0  2  0  0  0
  -20.6769  -26.9416   22.5458 C   0  0  0  0  0  0
  -19.5745  -26.6353   21.5279 C   0  0  0  0  0  0
  -18.1919  -26.7913   22.1673 C   0  0  0  0  0  0
  -19.1525  -28.8868   23.2881 C   0  0  0  0  0  0
  -18.9443  -30.1474   23.8882 C   0  0  0  0  0  0
  -17.6438  -30.6600   24.0547 C   0  0  0  0  0  0
  -25.9043  -34.9461   23.5119 C   0  0  0  0  0  0
  -16.5336  -29.9088   23.6332 C   0  0  0  0  0  0
  -16.7266  -28.6494   23.0369 C   0  0  0  0  0  0
  -26.4471  -31.6597   25.0723 C   0  0  0  0  0  0
  -25.3720  -31.3718   26.1460 C   0  0  0  0  0  0
  -27.0313  -30.3026   24.6163 C   0  0  0  0  0  0
  -27.6041  -32.4327   25.7474 C   0  0  0  0  0  0
  -27.5580  -37.1810   24.8463 C   0  0  0  0  0  0
  -21.4134  -29.3045   22.3670 N   0  0  0  0  0  0
  -26.4299  -37.3781   23.9396 N   0  0  0  0  0  0
  -24.6733  -31.0696   22.0980 N   0  0  0  0  0  0
  -23.4162  -28.8217   23.3019 O   0  0  0  0  0  0
  -28.4027  -26.6281   20.1659 O   0  0  0  0  0  0
  -26.5611  -34.8915   22.4686 O   0  0  0  0  0  0
  -23.5347  -32.1422   23.7427 O   0  0  0  0  0  0
  -28.3063  -18.2211   21.5655 C   0  0  0  0  0  0
  -29.4662  -18.1899   20.8284 C   0  0  0  0  0  0
  -28.9551  -20.4533   20.7042 C   0  0  0  0  0  0
  -30.4024  -17.0112   20.5533 C   0  0  0  0  0  0
  -28.7286  -23.0848   21.0438 C   0  0  0  0  0  0
  -28.5191  -25.3266   19.5277 C   0  0  0  0  0  0
  -27.8391  -24.0810   20.2139 C   0  0  1  0  0  0
  -29.7918  -19.4739   20.3234 N   0  0  0  0  0  0
  -29.1098  -21.8133   20.3708 N   0  0  0  0  0  0
  -29.9286  -15.6302   20.8206 N   0  0  0  0  0  0
  -27.2618  -23.2406   19.2380 O   0  0  0  0  0  0
  -27.6474  -19.8424   21.7122 S   0  0  0  0  0  0
  -31.4653  -12.4165   19.1526 H   0  0  0  0  0  0
  -30.3118  -11.3317   19.8808 H   0  0  0  0  0  0
  -29.7486  -11.7495   17.4589 H   0  0  0  0  0  0
  -29.6586  -13.4666   17.7619 H   0  0  0  0  0  0
  -27.8461  -11.2887   18.8591 H   0  0  0  0  0  0
  -27.3655  -12.5790   17.7915 H   0  0  0  0  0  0
  -27.6792  -14.2476   19.5321 H   0  0  0  0  0  0
  -28.6803  -12.0270   21.3857 H   0  0  0  0  0  0
  -28.4592  -13.6940   21.8424 H   0  0  0  0  0  0
  -25.2752   -9.5684   22.4738 H   0  0  0  0  0  0
  -23.9993   -7.4639   22.7459 H   0  0  0  0  0  0
  -21.0827   -8.8760   19.8954 H   0  0  0  0  0  0
  -22.3677  -10.9652   19.6157 H   0  0  0  0  0  0
  -21.2009   -7.6138   23.9712 H   0  0  0  0  0  0
  -21.1476   -6.0517   25.9082 H   0  0  0  0  0  0
  -22.0604   -2.7591   23.2872 H   0  0  0  0  0  0
  -22.4101  -11.9845   22.4779 H   0  0  0  0  0  0
  -21.1120  -13.1224   22.2677 H   0  0  0  0  0  0
  -24.6553  -15.8418   20.4992 H   0  0  0  0  0  0
  -26.2719  -15.6261   20.0627 H   0  0  0  0  0  0
  -26.7108  -32.5490   23.1116 H   0  0  0  0  0  0
  -25.0023  -33.9753   25.0432 H   0  0  0  0  0  0
  -22.7008  -31.3065   21.4030 H   0  0  0  0  0  0
  -23.3748  -35.9643   23.3315 H   0  0  0  0  0  0
  -24.3585  -36.8919   22.2057 H   0  0  0  0  0  0
  -23.7251  -37.6516   23.6653 H   0  0  0  0  0  0
  -26.0705  -31.5763   20.6061 H   0  0  0  0  0  0
  -26.8241  -30.8557   21.9985 H   0  0  0  0  0  0
  -28.0979  -29.0384   21.1880 H   0  0  0  0  0  0
  -26.0136  -25.9400   19.0139 H   0  0  0  0  0  0
  -23.9819  -27.2996   19.0122 H   0  0  0  0  0  0
  -23.7221  -30.5885   19.3971 H   0  0  0  0  0  0
  -22.7430  -29.2330   19.8690 H   0  0  0  0  0  0
  -25.1298  -36.1970   25.0827 H   0  0  0  0  0  0
  -20.9970  -28.3304   24.1421 H   0  0  0  0  0  0
  -20.5696  -26.2333   23.3688 H   0  0  0  0  0  0
  -21.6631  -26.7441   22.1243 H   0  0  0  0  0  0
  -19.6913  -25.6245   21.1358 H   0  0  0  0  0  0
  -19.6698  -27.3138   20.6778 H   0  0  0  0  0  0
  -17.4184  -26.6601   21.4083 H   0  0  0  0  0  0
  -18.0337  -26.0090   22.9114 H   0  0  0  0  0  0
  -19.7918  -30.7319   24.2208 H   0  0  0  0  0  0
  -17.4971  -31.6298   24.5108 H   0  0  0  0  0  0
  -15.5323  -30.2969   23.7629 H   0  0  0  0  0  0
  -15.8673  -28.0792   22.7101 H   0  0  0  0  0  0
  -24.5895  -30.7071   25.7784 H   0  0  0  0  0  0
  -24.8905  -32.2870   26.4900 H   0  0  0  0  0  0
  -25.8052  -30.8882   27.0225 H   0  0  0  0  0  0
  -26.2874  -29.6763   24.1224 H   0  0  0  0  0  0
  -27.4058  -29.7298   25.4663 H   0  0  0  0  0  0
  -27.8718  -30.4313   23.9340 H   0  0  0  0  0  0
  -27.2662  -33.3616   26.2071 H   0  0  0  0  0  0
  -28.3821  -32.6913   25.0283 H   0  0  0  0  0  0
  -28.0740  -31.8454   26.5374 H   0  0  0  0  0  0
  -28.2611  -38.0095   24.7504 H   0  0  0  0  0  0
  -28.1068  -36.2634   24.6302 H   0  0  0  0  0  0
  -27.2296  -37.1469   25.8866 H   0  0  0  0  0  0
  -20.9301  -29.8734   21.6859 H   0  0  0  0  0  0
  -26.0195  -38.2864   24.1389 H   0  0  0  0  0  0
  -27.8097  -17.4000   22.0657 H   0  0  0  0  0  0
  -31.3212  -17.1621   21.1224 H   0  0  0  0  0  0
  -30.7072  -17.0477   19.5052 H   0  0  0  0  0  0
  -28.1819  -22.8167   21.9499 H   0  0  0  0  0  0
  -29.6274  -23.5931   21.3966 H   0  0  0  0  0  0
  -28.1680  -25.4342   18.5011 H   0  0  0  0  0  0
  -29.5831  -25.1135   19.4166 H   0  0  0  0  0  0
  -27.0337  -24.4505   20.8515 H   0  0  0  0  0  0
  -29.9292  -21.9398   19.7832 H   0  0  0  0  0  0
  -28.9662  -15.4983   21.0898 H   0  0  0  0  0  0
  -27.8104  -22.4533   19.3038 H   0  0  0  0  0  0
  1 25  1  0  0  0
  1 30  2  0  0  0
  1 80  1  0  0  0
  2  3  1  0  0  0
  2 25  1  0  0  0
  2 83  1  0  0  0
  2 84  1  0  0  0
  3  4  1  0  0  0
  3 85  1  0  0  0
  3 86  1  0  0  0
  4  5  1  0  0  0
  4 87  1  0  0  0
  4 88  1  0  0  0
  5  6  1  0  0  0
  5 26  1  0  0  0
  5 89  1  0  0  0
  6 25  1  0  0  0
  6 90  1  0  0  0
  6 91  1  0  0  0
  7  8  2  0  0  0
  7 26  1  0  0  0
  7 29  1  0  0  0
  8  9  1  0  0  0
  8 22  1  0  0  0
  9 10  1  0  0  0
  9 27  2  0  0  0
 10 11  2  0  0  0
 10 15  1  0  0  0
 11 12  1  0  0  0
 11 92  1  0  0  0
 12 13  2  0  0  0
 12 93  1  0  0  0
 13 14  1  0  0  0
 13 31  1  0  0  0
 14 15  2  0  0  0
 14 94  1  0  0  0
 15 95  1  0  0  0
 16 17  2  0  0  0
 16 21  1  0  0  0
 16 31  1  0  0  0
 17 18  1  0  0  0
 17 96  1  0  0  0
 18 19  2  0  0  0
 18 97  1  0  0  0
 19 20  1  0  0  0
 19 24  1  0  0  0
 20 21  2  0  0  0
 20 98  1  0  0  0
 21 23  1  0  0  0
 22 28  1  0  0  0
 22 32  2  0  0  0
 26 27  1  0  0  0
 28 99  1  0  0  0
 28100  1  0  0  0
 29101  1  0  0  0
 29102  1  0  0  0
 33 34  1  0  0  0
 33 66  1  0  0  0
 33 70  2  0  0  0
 34 36  1  0  0  0
 34 59  1  0  0  0
 34103  1  0  0  0
 35 44  2  0  0  0
 35 45  1  0  0  0
 35 68  1  0  0  0
 36 56  1  0  0  0
 36104  1  0  0  0
 37 39  1  0  0  0
 37 47  1  0  0  0
 37 66  1  0  0  0
 37105  1  0  0  0
 38 43  2  0  0  0
 38 46  1  0  0  0
 38 47  1  0  0  0
 39 64  1  0  0  0
 39 67  2  0  0  0
 40 52  1  0  0  0
 40 53  2  0  0  0
 40 58  1  0  0  0
 41106  1  0  0  0
 41107  1  0  0  0
 41108  1  0  0  0
 41 48  1  0  0  0
 42 43  1  0  0  0
 42 66  1  0  0  0
 42109  1  0  0  0
 42110  1  0  0  0
 43 44  1  0  0  0
 44111  1  0  0  0
 45 46  2  0  0  0
 45112  1  0  0  0
 46113  1  0  0  0
 47114  1  0  0  0
 47115  1  0  0  0
 48 56  1  0  0  0
 48 65  1  0  0  0
 48116  1  0  0  0
 49 50  1  0  0  0
 49 53  1  0  0  0
 49 64  1  0  0  0
 49117  1  0  0  0
 50 51  1  0  0  0
 50118  1  0  0  0
 50119  1  0  0  0
 51 52  1  0  0  0
 51120  1  0  0  0
 51121  1  0  0  0
 52122  1  0  0  0
 52123  1  0  0  0
 53 54  1  0  0  0
 54 55  2  0  0  0
 54124  1  0  0  0
 55 57  1  0  0  0
 55125  1  0  0  0
 56 69  2  0  0  0
 57 58  2  0  0  0
 57126  1  0  0  0
 58127  1  0  0  0
 59 60  1  0  0  0
 59 61  1  0  0  0
 59 62  1  0  0  0
 60128  1  0  0  0
 60129  1  0  0  0
 60130  1  0  0  0
 61131  1  0  0  0
 61132  1  0  0  0
 61133  1  0  0  0
 62134  1  0  0  0
 62135  1  0  0  0
 62136  1  0  0  0
 63 65  1  0  0  0
 63137  1  0  0  0
 63138  1  0  0  0
 63139  1  0  0  0
 64140  1  0  0  0
 65141  1  0  0  0
 68 76  1  0  0  0
 71 72  2  0  0  0
 71 82  1  0  0  0
 71142  1  0  0  0
 72 74  1  0  0  0
 72 78  1  0  0  0
 73 78  2  0  0  0
 73 79  1  0  0  0
 73 82  1  0  0  0
 74 80  1  0  0  0
 74143  1  0  0  0
 74144  1  0  0  0
 75 77  1  0  0  0
 75 79  1  0  0  0
 75145  1  0  0  0
 75146  1  0  0  0
 76 77  1  0  0  0
 76147  1  0  0  0
 76148  1  0  0  0
 77 81  1  0  0  0
 77149  1  0  0  0
 79150  1  0  0  0
 80151  1  0  0  0
 81152  1  0  0  0
M  ISO  4   1 100  68 101  76 101  80 100
M  END
> <chiral flag>
0

> <version>
0

> <s_m_source_file>
/data/baiqing/PycharmProjects/Reinvent-master-3.2/result/LINK_invent/BTK/process_docking_weight1_custom_product_contain_oxygen_bond_distance_aromatic_linkinvent_7_9_3/rearranged_h_0198.sdf

> <i_m_source_file_index>
47

> <r_mmod_Potential_Energy-OPLS-2005>
-256.595001220703

> <r_mmod_Stretch_Energy-OPLS-2005>
48.977783203125

> <r_mmod_Bend_Energy-OPLS-2005>
123.672454833984

> <r_mmod_Torsional_Energy-OPLS-2005>
239.216522216797

> <r_mmod_Improper_Torsional_Energy-OPLS-2005>
7.51880645751953

> <r_mmod_Van_der_Waal_Energy-OPLS-2005>
133.392349243164

> <r_mmod_Electrostatic_Energy-OPLS-2005>
-595.460571289062

> <r_mmod_Solvation_Energy-OPLS-2005>
-239.425247192383

> <b_mmod_Minimization_Converged-OPLS-2005>
0

> <r_mmod_RMS_Derivative-OPLS-2005>
2.39066386222839

$$$$
47
                    3D
 Structure written by MMmdl.
156164  0  0  1  0            999 V2000
  -30.6833  -14.5320   20.5620 C   0  0  0  0  0  0
  -30.4268  -12.3361   19.4520 C   0  0  0  0  0  0
  -29.5038  -12.5225   18.2295 C   0  0  0  0  0  0
  -28.0216  -12.3768   18.6267 C   0  0  0  0  0  0
  -27.6615  -13.2184   19.8786 C   0  0  2  0  0  0
  -28.7018  -13.0239   21.0080 C   0  0  0  0  0  0
  -25.2596  -13.8189   20.5715 C   0  0  0  0  0  0
  -24.1851  -13.0473   20.9196 C   0  0  0  0  0  0
  -24.6399  -11.6940   20.8732 C   0  0  0  0  0  0
  -23.9063  -10.4324   21.0385 C   0  0  0  0  0  0
  -24.3605   -9.4234   21.9171 C   0  0  0  0  0  0
  -23.6284   -8.2256   22.0747 C   0  0  0  0  0  0
  -22.4272   -8.0264   21.3534 C   0  0  0  0  0  0
  -21.9920   -9.0253   20.4654 C   0  0  0  0  0  0
  -22.7229  -10.2141   20.3059 C   0  0  0  0  0  0
  -21.6864   -6.0728   22.5289 C   0  0  0  0  0  0
  -21.4007   -6.5634   23.8219 C   0  0  0  0  0  0
  -21.3663   -5.6779   24.9173 C   0  0  0  0  0  0
  -21.6053   -4.3046   24.7226 C   0  0  0  0  0  0
  -21.8802   -3.8146   23.4343 C   0  0  0  0  0  0
  -21.9200   -4.6960   22.3404 C   0  0  0  0  0  0
  -22.7858  -13.5254   21.1823 C   0  0  0  0  0  0
  -22.1657   -4.2139   21.0978 F   0  0  0  0  0  0
  -21.5634   -3.4531   25.7742 F   0  0  0  0  0  0
  -30.0366  -13.3327   20.4669 N   0  0  0  0  0  0
  -26.3032  -12.9377   20.3378 N   0  0  0  0  0  0
  -25.9333  -11.6539   20.5785 N   0  0  0  0  0  0
  -22.0480  -12.8266   22.0363 N   0  0  0  0  0  0
  -25.4351  -15.1919   20.4107 N   0  0  0  0  0  0
  -31.8173  -14.6916   20.0904 O   0  0  0  0  0  0
  -21.6621   -6.8863   21.4245 O   0  0  0  0  0  0
  -22.3561  -14.5580   20.6676 O   0  0  0  0  0  0
  -24.6222  -31.8616   23.2090 C   0  0  0  0  0  0
  -25.9111  -32.4788   23.8389 C   0  0  1  0  0  0
  -27.2198  -27.3699   20.1270 C   0  0  0  0  0  0
  -25.5944  -33.8580   24.2314 N   0  0  0  0  0  0
  -23.4128  -30.4900   21.5480 C   0  0  2  0  0  0
  -24.8606  -28.9575   20.1057 C   0  0  0  0  0  0
  -22.7439  -29.4645   22.4929 C   0  0  0  0  0  0
  -18.0276  -28.1405   22.8514 C   0  0  0  0  0  0
  -24.1472  -36.7281   23.2639 C   0  0  0  0  0  0
  -25.9505  -30.8102   21.3743 C   0  0  0  0  0  0
  -26.0235  -29.4441   20.7159 C   0  0  0  0  0  0
  -27.2092  -28.6598   20.7211 C   0  0  0  0  0  0
  -26.0462  -26.9359   19.4683 C   0  0  0  0  0  0
  -24.8699  -27.7072   19.4689 C   0  0  0  0  0  0
  -23.6261  -29.8307   20.1579 C   0  0  0  0  0  0
  -25.4095  -36.3076   24.0334 C   0  0  1  0  0  0
  -20.5882  -28.3676   23.1306 C   0  0  2  0  0  0
  -20.6764  -26.9406   22.5404 C   0  0  0  0  0  0
  -19.5726  -26.6410   21.5216 C   0  0  0  0  0  0
  -18.1919  -26.7947   22.1642 C   0  0  0  0  0  0
  -19.1543  -28.8861   23.2908 C   0  0  0  0  0  0
  -18.9454  -30.1485   23.8897 C   0  0  0  0  0  0
  -17.6452  -30.6598   24.0595 C   0  0  0  0  0  0
  -25.9050  -34.9451   23.5115 C   0  0  0  0  0  0
  -16.5348  -29.9106   23.6359 C   0  0  0  0  0  0
  -16.7262  -28.6537   23.0353 C   0  0  0  0  0  0
  -26.4512  -31.6594   25.0740 C   0  0  0  0  0  0
  -25.3791  -31.3700   26.1494 C   0  0  0  0  0  0
  -27.0333  -30.3026   24.6166 C   0  0  0  0  0  0
  -27.6059  -32.4317   25.7519 C   0  0  0  0  0  0
  -27.5563  -37.1802   24.8472 C   0  0  0  0  0  0
  -21.4159  -29.3029   22.3693 N   0  0  0  0  0  0
  -26.4259  -37.3784   23.9434 N   0  0  0  0  0  0
  -24.6800  -31.0712   22.1013 N   0  0  0  0  0  0
  -23.4190  -28.8167   23.2974 O   0  0  0  0  0  0
  -28.3214  -26.5211   20.2123 O   0  0  0  0  0  0
  -26.5579  -34.8916   22.4662 O   0  0  0  0  0  0
  -23.5406  -32.1365   23.7503 O   0  0  0  0  0  0
  -29.5629  -18.2649   18.9301 C   0  0  0  0  0  0
  -29.3934  -19.0507   20.9951 C   0  0  0  0  0  0
  -29.8254  -16.8582   20.6460 C   0  0  0  0  0  0
  -28.7876  -23.0406   23.1377 C   0  0  0  0  0  0
  -29.0959  -20.2580   21.9016 C   0  0  0  0  0  0
  -29.1240  -24.0942   20.8207 C   0  0  0  0  0  0
  -27.9988  -25.1882   20.7327 C   0  0  0  0  0  0
  -28.7050  -22.7861   21.6116 C   0  0  1  0  0  0
  -29.3821  -19.3327   19.6979 N   0  0  0  0  0  0
  -29.7820  -17.0185   19.3272 N   0  0  0  0  0  0
  -29.6007  -17.8361   21.5389 N   0  0  0  0  0  0
  -29.9856  -15.5585   21.1176 N   0  0  0  0  0  0
  -29.4643  -21.5419   21.2292 N   0  3  0  0  0  0
  -31.4717  -12.4340   19.1520 H   0  0  0  0  0  0
  -30.3269  -11.3278   19.8548 H   0  0  0  0  0  0
  -29.7600  -11.8028   17.4522 H   0  0  0  0  0  0
  -29.6691  -13.5112   17.7972 H   0  0  0  0  0  0
  -27.8284  -11.3209   18.8220 H   0  0  0  0  0  0
  -27.3804  -12.6574   17.7904 H   0  0  0  0  0  0
  -27.6986  -14.2626   19.5658 H   0  0  0  0  0  0
  -28.6874  -11.9951   21.3698 H   0  0  0  0  0  0
  -28.4594  -13.6367   21.8772 H   0  0  0  0  0  0
  -25.2732   -9.5721   22.4763 H   0  0  0  0  0  0
  -24.0003   -7.4650   22.7472 H   0  0  0  0  0  0
  -21.0851   -8.8787   19.8957 H   0  0  0  0  0  0
  -22.3683  -10.9680   19.6180 H   0  0  0  0  0  0
  -21.1975   -7.6146   23.9718 H   0  0  0  0  0  0
  -21.1513   -6.0512   25.9080 H   0  0  0  0  0  0
  -22.0592   -2.7610   23.2852 H   0  0  0  0  0  0
  -22.4037  -11.9918   22.4784 H   0  0  0  0  0  0
  -21.1102  -13.1324   22.2512 H   0  0  0  0  0  0
  -24.6707  -15.8493   20.5164 H   0  0  0  0  0  0
  -26.2743  -15.6209   20.0430 H   0  0  0  0  0  0
  -26.7169  -32.5473   23.1138 H   0  0  0  0  0  0
  -25.0163  -33.9726   25.0515 H   0  0  0  0  0  0
  -22.7055  -31.3119   21.4120 H   0  0  0  0  0  0
  -23.3721  -35.9631   23.3313 H   0  0  0  0  0  0
  -24.3556  -36.8880   22.2050 H   0  0  0  0  0  0
  -23.7247  -37.6502   23.6638 H   0  0  0  0  0  0
  -26.0754  -31.5758   20.6081 H   0  0  0  0  0  0
  -26.8346  -30.8555   21.9978 H   0  0  0  0  0  0
  -28.1000  -29.0211   21.2173 H   0  0  0  0  0  0
  -26.0184  -25.9889   18.9489 H   0  0  0  0  0  0
  -23.9845  -27.3373   18.9690 H   0  0  0  0  0  0
  -23.7451  -30.6110   19.4041 H   0  0  0  0  0  0
  -22.7458  -29.2594   19.8529 H   0  0  0  0  0  0
  -25.1290  -36.1895   25.0819 H   0  0  0  0  0  0
  -21.0012  -28.3229   24.1408 H   0  0  0  0  0  0
  -20.5674  -26.2280   23.3590 H   0  0  0  0  0  0
  -21.6641  -26.7428   22.1215 H   0  0  0  0  0  0
  -19.6869  -25.6322   21.1246 H   0  0  0  0  0  0
  -19.6686  -27.3228   20.6755 H   0  0  0  0  0  0
  -17.4199  -26.6726   21.4037 H   0  0  0  0  0  0
  -18.0302  -26.0088   22.9028 H   0  0  0  0  0  0
  -19.7926  -30.7350   24.2226 H   0  0  0  0  0  0
  -17.4989  -31.6266   24.5205 H   0  0  0  0  0  0
  -15.5351  -30.3006   23.7670 H   0  0  0  0  0  0
  -15.8671  -28.0878   22.7023 H   0  0  0  0  0  0
  -24.5969  -30.7014   25.7864 H   0  0  0  0  0  0
  -24.8981  -32.2849   26.4950 H   0  0  0  0  0  0
  -25.8179  -30.8894   27.0244 H   0  0  0  0  0  0
  -26.2862  -29.6778   24.1240 H   0  0  0  0  0  0
  -27.4076  -29.7273   25.4642 H   0  0  0  0  0  0
  -27.8737  -30.4320   23.9339 H   0  0  0  0  0  0
  -27.2657  -33.3603   26.2117 H   0  0  0  0  0  0
  -28.3894  -32.6888   25.0376 H   0  0  0  0  0  0
  -28.0715  -31.8432   26.5440 H   0  0  0  0  0  0
  -28.2604  -38.0083   24.7517 H   0  0  0  0  0  0
  -28.1031  -36.2614   24.6286 H   0  0  0  0  0  0
  -27.2291  -37.1465   25.8880 H   0  0  0  0  0  0
  -20.9282  -29.8753   21.6947 H   0  0  0  0  0  0
  -26.0117  -38.2845   24.1439 H   0  0  0  0  0  0
  -29.5133  -18.4304   17.8646 H   0  0  0  0  0  0
  -28.1955  -23.9048   23.4294 H   0  0  0  0  0  0
  -29.8091  -23.2378   23.4616 H   0  0  0  0  0  0
  -28.4094  -22.2077   23.7304 H   0  0  0  0  0  0
  -29.6197  -20.1601   22.8520 H   0  0  0  0  0  0
  -28.0242  -20.2453   22.1090 H   0  0  0  0  0  0
  -30.0104  -24.5234   21.2904 H   0  0  0  0  0  0
  -29.4248  -23.8289   19.8077 H   0  0  0  0  0  0
  -27.5703  -25.3320   21.7223 H   0  0  0  0  0  0
  -27.2121  -24.7256   20.1381 H   0  0  0  0  0  0
  -27.6633  -22.5824   21.3578 H   0  0  0  0  0  0
  -29.2794  -15.2701   21.7729 H   0  0  0  0  0  0
  -29.3035  -21.2916   20.2604 H   0  0  0  0  0  0
  -30.4574  -21.6549   21.3284 H   0  0  0  0  0  0
  1 25  1  0  0  0
  1 30  2  0  0  0
  1 82  1  0  0  0
  2  3  1  0  0  0
  2 25  1  0  0  0
  2 84  1  0  0  0
  2 85  1  0  0  0
  3  4  1  0  0  0
  3 86  1  0  0  0
  3 87  1  0  0  0
  4  5  1  0  0  0
  4 88  1  0  0  0
  4 89  1  0  0  0
  5  6  1  0  0  0
  5 26  1  0  0  0
  5 90  1  0  0  0
  6 25  1  0  0  0
  6 91  1  0  0  0
  6 92  1  0  0  0
  7  8  2  0  0  0
  7 26  1  0  0  0
  7 29  1  0  0  0
  8  9  1  0  0  0
  8 22  1  0  0  0
  9 10  1  0  0  0
  9 27  2  0  0  0
 10 11  2  0  0  0
 10 15  1  0  0  0
 11 12  1  0  0  0
 11 93  1  0  0  0
 12 13  2  0  0  0
 12 94  1  0  0  0
 13 14  1  0  0  0
 13 31  1  0  0  0
 14 15  2  0  0  0
 14 95  1  0  0  0
 15 96  1  0  0  0
 16 17  2  0  0  0
 16 21  1  0  0  0
 16 31  1  0  0  0
 17 18  1  0  0  0
 17 97  1  0  0  0
 18 19  2  0  0  0
 18 98  1  0  0  0
 19 20  1  0  0  0
 19 24  1  0  0  0
 20 21  2  0  0  0
 20 99  1  0  0  0
 21 23  1  0  0  0
 22 28  1  0  0  0
 22 32  2  0  0  0
 26 27  1  0  0  0
 28100  1  0  0  0
 28101  1  0  0  0
 29102  1  0  0  0
 29103  1  0  0  0
 33 34  1  0  0  0
 33 66  1  0  0  0
 33 70  2  0  0  0
 34 36  1  0  0  0
 34 59  1  0  0  0
 34104  1  0  0  0
 35 44  2  0  0  0
 35 45  1  0  0  0
 35 68  1  0  0  0
 36 56  1  0  0  0
 36105  1  0  0  0
 37 39  1  0  0  0
 37 47  1  0  0  0
 37 66  1  0  0  0
 37106  1  0  0  0
 38 43  2  0  0  0
 38 46  1  0  0  0
 38 47  1  0  0  0
 39 64  1  0  0  0
 39 67  2  0  0  0
 40 52  1  0  0  0
 40 53  2  0  0  0
 40 58  1  0  0  0
 41107  1  0  0  0
 41108  1  0  0  0
 41109  1  0  0  0
 41 48  1  0  0  0
 42 43  1  0  0  0
 42 66  1  0  0  0
 42110  1  0  0  0
 42111  1  0  0  0
 43 44  1  0  0  0
 44112  1  0  0  0
 45 46  2  0  0  0
 45113  1  0  0  0
 46114  1  0  0  0
 47115  1  0  0  0
 47116  1  0  0  0
 48 56  1  0  0  0
 48 65  1  0  0  0
 48117  1  0  0  0
 49 50  1  0  0  0
 49 53  1  0  0  0
 49 64  1  0  0  0
 49118  1  0  0  0
 50 51  1  0  0  0
 50119  1  0  0  0
 50120  1  0  0  0
 51 52  1  0  0  0
 51121  1  0  0  0
 51122  1  0  0  0
 52123  1  0  0  0
 52124  1  0  0  0
 53 54  1  0  0  0
 54 55  2  0  0  0
 54125  1  0  0  0
 55 57  1  0  0  0
 55126  1  0  0  0
 56 69  2  0  0  0
 57 58  2  0  0  0
 57127  1  0  0  0
 58128  1  0  0  0
 59 60  1  0  0  0
 59 61  1  0  0  0
 59 62  1  0  0  0
 60129  1  0  0  0
 60130  1  0  0  0
 60131  1  0  0  0
 61132  1  0  0  0
 61133  1  0  0  0
 61134  1  0  0  0
 62135  1  0  0  0
 62136  1  0  0  0
 62137  1  0  0  0
 63 65  1  0  0  0
 63138  1  0  0  0
 63139  1  0  0  0
 63140  1  0  0  0
 64141  1  0  0  0
 65142  1  0  0  0
 68 77  1  0  0  0
 71 79  2  0  0  0
 71 80  1  0  0  0
 71143  1  0  0  0
 72 75  1  0  0  0
 72 79  1  0  0  0
 72 81  2  0  0  0
 73 80  2  0  0  0
 73 81  1  0  0  0
 73 82  1  0  0  0
 74144  1  0  0  0
 74145  1  0  0  0
 74146  1  0  0  0
 74 78  1  0  0  0
 75 83  1  0  0  0
 75147  1  0  0  0
 75148  1  0  0  0
 76 77  1  0  0  0
 76 78  1  0  0  0
 76149  1  0  0  0
 76150  1  0  0  0
 77151  1  0  0  0
 77152  1  0  0  0
 78 83  1  0  0  0
 78153  1  0  0  0
 82154  1  0  0  0
 83155  1  0  0  0
 83156  1  0  0  0
M  CHG  1  83   1
M  ISO  4   1 100  68 101  77 101  82 100
M  END
> <chiral flag>
0

> <version>
0

> <s_m_source_file>
/data/baiqing/PycharmProjects/Reinvent-master-3.2/result/LINK_invent/BTK/process_docking_weight1_custom_product_contain_oxygen_bond_distance_aromatic_linkinvent_7_9_3/rearranged_h_0198.sdf

> <i_m_source_file_index>
48

> <r_mmod_Potential_Energy-OPLS-2005>
-967.941772460938

> <r_mmod_Stretch_Energy-OPLS-2005>
52.9377784729004

> <r_mmod_Bend_Energy-OPLS-2005>
111.509956359863

> <r_mmod_Torsional_Energy-OPLS-2005>
254.067886352539

> <r_mmod_Improper_Torsional_Energy-OPLS-2005>
4.34818935394287

> <r_mmod_Van_der_Waal_Energy-OPLS-2005>
177.659652709961

> <r_mmod_Electrostatic_Energy-OPLS-2005>
-1110.46643066406

> <r_mmod_Solvation_Energy-OPLS-2005>
-486.622802734375

> <b_mmod_Minimization_Converged-OPLS-2005>
0

> <r_mmod_RMS_Derivative-OPLS-2005>
3.93898630142212

$$$$
48
                    3D
 Structure written by MMmdl.
153161  0  0  1  0            999 V2000
  -30.7124  -14.4556   20.5699 C   0  0  0  0  0  0
  -30.4214  -12.2900   19.4262 C   0  0  0  0  0  0
  -29.4956  -12.4954   18.2091 C   0  0  0  0  0  0
  -28.0164  -12.3604   18.6216 C   0  0  0  0  0  0
  -27.6632  -13.2042   19.8753 C   0  0  2  0  0  0
  -28.7037  -12.9817   20.9974 C   0  0  0  0  0  0
  -25.2595  -13.8156   20.5672 C   0  0  0  0  0  0
  -24.1846  -13.0437   20.9174 C   0  0  0  0  0  0
  -24.6392  -11.6905   20.8732 C   0  0  0  0  0  0
  -23.9057  -10.4293   21.0403 C   0  0  0  0  0  0
  -24.3610   -9.4212   21.9183 C   0  0  0  0  0  0
  -23.6287   -8.2244   22.0755 C   0  0  0  0  0  0
  -22.4271   -8.0276   21.3547 C   0  0  0  0  0  0
  -21.9909   -9.0247   20.4640 C   0  0  0  0  0  0
  -22.7234  -10.2127   20.3050 C   0  0  0  0  0  0
  -21.6849   -6.0736   22.5282 C   0  0  0  0  0  0
  -21.4002   -6.5640   23.8214 C   0  0  0  0  0  0
  -21.3656   -5.6793   24.9176 C   0  0  0  0  0  0
  -21.6044   -4.3055   24.7228 C   0  0  0  0  0  0
  -21.8821   -3.8148   23.4346 C   0  0  0  0  0  0
  -21.9195   -4.6966   22.3405 C   0  0  0  0  0  0
  -22.7869  -13.5239   21.1845 C   0  0  0  0  0  0
  -22.1666   -4.2156   21.0979 F   0  0  0  0  0  0
  -21.5632   -3.4536   25.7737 F   0  0  0  0  0  0
  -30.0413  -13.2763   20.4499 N   0  0  0  0  0  0
  -26.3031  -12.9320   20.3363 N   0  0  0  0  0  0
  -25.9317  -11.6483   20.5771 N   0  0  0  0  0  0
  -22.0503  -12.8231   22.0393 N   0  0  0  0  0  0
  -25.4315  -15.1869   20.4063 N   0  0  0  0  0  0
  -31.8315  -14.6295   20.0771 O   0  0  0  0  0  0
  -21.6635   -6.8876   21.4240 O   0  0  0  0  0  0
  -22.3562  -14.5559   20.6708 O   0  0  0  0  0  0
  -24.6149  -31.8680   23.2105 C   0  0  0  0  0  0
  -25.9039  -32.4828   23.8401 C   0  0  1  0  0  0
  -27.2317  -27.4326   20.0952 C   0  0  0  0  0  0
  -25.5889  -33.8624   24.2332 N   0  0  0  0  0  0
  -23.4036  -30.4925   21.5506 C   0  0  2  0  0  0
  -24.8498  -28.9615   20.1141 C   0  0  0  0  0  0
  -22.7423  -29.4656   22.4980 C   0  0  0  0  0  0
  -18.0275  -28.1399   22.8502 C   0  0  0  0  0  0
  -24.1466  -36.7283   23.2650 C   0  0  0  0  0  0
  -25.9342  -30.8315   21.3662 C   0  0  0  0  0  0
  -26.0110  -29.4662   20.7138 C   0  0  0  0  0  0
  -27.2056  -28.7090   20.7032 C   0  0  0  0  0  0
  -26.0570  -26.9545   19.4711 C   0  0  0  0  0  0
  -24.8680  -27.7037   19.4899 C   0  0  0  0  0  0
  -23.6129  -29.8288   20.1639 C   0  0  0  0  0  0
  -25.4090  -36.3103   24.0352 C   0  0  1  0  0  0
  -20.5874  -28.3664   23.1311 C   0  0  2  0  0  0
  -20.6759  -26.9396   22.5415 C   0  0  0  0  0  0
  -19.5724  -26.6389   21.5225 C   0  0  0  0  0  0
  -18.1907  -26.7949   22.1635 C   0  0  0  0  0  0
  -19.1533  -28.8848   23.2909 C   0  0  0  0  0  0
  -18.9468  -30.1460   23.8912 C   0  0  0  0  0  0
  -17.6470  -30.6602   24.0577 C   0  0  0  0  0  0
  -25.9027  -34.9476   23.5134 C   0  0  0  0  0  0
  -16.5351  -29.9102   23.6356 C   0  0  0  0  0  0
  -16.7266  -28.6523   23.0369 C   0  0  0  0  0  0
  -26.4460  -31.6606   25.0728 C   0  0  0  0  0  0
  -25.3725  -31.3699   26.1474 C   0  0  0  0  0  0
  -27.0292  -30.3060   24.6078 C   0  0  0  0  0  0
  -27.6028  -32.4329   25.7499 C   0  0  0  0  0  0
  -27.5562  -37.1791   24.8482 C   0  0  0  0  0  0
  -21.4151  -29.3023   22.3708 N   0  0  0  0  0  0
  -26.4268  -37.3796   23.9433 N   0  0  0  0  0  0
  -24.6689  -31.0787   22.1005 N   0  0  0  0  0  0
  -23.4198  -28.8213   23.3029 O   0  0  0  0  0  0
  -28.3798  -26.6670   20.1073 O   0  0  0  0  0  0
  -26.5596  -34.8931   22.4704 O   0  0  0  0  0  0
  -23.5336  -32.1423   23.7491 O   0  0  0  0  0  0
  -30.1779  -16.8491   21.0681 C   0  0  0  0  0  0
  -29.9845  -19.2560   21.0768 C   0  0  0  0  0  0
  -31.4547  -22.2123   21.5231 C   0  0  0  0  0  0
  -29.3783  -24.3883   20.4259 C   0  0  0  0  0  0
  -29.0690  -22.9801   20.9973 C   0  0  0  0  0  0
  -28.1964  -25.3520   20.6622 C   0  0  0  0  0  0
  -30.1433  -21.8820   20.7931 C   0  0  2  0  0  0
  -31.1546  -17.4479   20.3610 N   0  0  0  0  0  0
  -31.0416  -18.8383   20.3678 N   0  0  0  0  0  0
  -30.0297  -15.4349   21.1904 N   0  0  0  0  0  0
  -29.6230  -20.5931   21.2446 N   0  0  0  0  0  0
  -29.0313  -17.9655   21.8075 S   0  0  0  0  0  0
  -31.4675  -12.3755   19.1270 H   0  0  0  0  0  0
  -30.3102  -11.2795   19.8231 H   0  0  0  0  0  0
  -29.7317  -11.7665   17.4323 H   0  0  0  0  0  0
  -29.6708  -13.4789   17.7702 H   0  0  0  0  0  0
  -27.8277  -11.3057   18.8238 H   0  0  0  0  0  0
  -27.3659  -12.6282   17.7889 H   0  0  0  0  0  0
  -27.7098  -14.2516   19.5767 H   0  0  0  0  0  0
  -28.6722  -11.9460   21.3402 H   0  0  0  0  0  0
  -28.4612  -13.5798   21.8767 H   0  0  0  0  0  0
  -25.2748   -9.5694   22.4765 H   0  0  0  0  0  0
  -23.9999   -7.4637   22.7473 H   0  0  0  0  0  0
  -21.0849   -8.8754   19.8937 H   0  0  0  0  0  0
  -22.3689  -10.9663   19.6158 H   0  0  0  0  0  0
  -21.1977   -7.6147   23.9722 H   0  0  0  0  0  0
  -21.1474   -6.0517   25.9081 H   0  0  0  0  0  0
  -22.0602   -2.7611   23.2841 H   0  0  0  0  0  0
  -22.4097  -11.9874   22.4768 H   0  0  0  0  0  0
  -21.1126  -13.1263   22.2603 H   0  0  0  0  0  0
  -24.6572  -15.8370   20.4933 H   0  0  0  0  0  0
  -26.2770  -15.6247   20.0626 H   0  0  0  0  0  0
  -26.7115  -32.5534   23.1169 H   0  0  0  0  0  0
  -25.0027  -33.9786   25.0467 H   0  0  0  0  0  0
  -22.6924  -31.3092   21.4122 H   0  0  0  0  0  0
  -23.3748  -35.9599   23.3325 H   0  0  0  0  0  0
  -24.3549  -36.8882   22.2062 H   0  0  0  0  0  0
  -23.7196  -37.6481   23.6648 H   0  0  0  0  0  0
  -26.0461  -31.5947   20.5954 H   0  0  0  0  0  0
  -26.8239  -30.8854   21.9817 H   0  0  0  0  0  0
  -28.1004  -29.0889   21.1775 H   0  0  0  0  0  0
  -26.0495  -26.0033   18.9590 H   0  0  0  0  0  0
  -23.9794  -27.3123   19.0140 H   0  0  0  0  0  0
  -23.7271  -30.6054   19.4070 H   0  0  0  0  0  0
  -22.7360  -29.2521   19.8631 H   0  0  0  0  0  0
  -25.1268  -36.1955   25.0845 H   0  0  0  0  0  0
  -20.9968  -28.3225   24.1431 H   0  0  0  0  0  0
  -20.5675  -26.2266   23.3603 H   0  0  0  0  0  0
  -21.6622  -26.7438   22.1184 H   0  0  0  0  0  0
  -19.6874  -25.6309   21.1228 H   0  0  0  0  0  0
  -19.6671  -27.3223   20.6779 H   0  0  0  0  0  0
  -17.4174  -26.6724   21.4036 H   0  0  0  0  0  0
  -18.0286  -26.0092   22.9028 H   0  0  0  0  0  0
  -19.7951  -30.7277   24.2264 H   0  0  0  0  0  0
  -17.5038  -31.6289   24.5177 H   0  0  0  0  0  0
  -15.5360  -30.3013   23.7703 H   0  0  0  0  0  0
  -15.8658  -28.0856   22.7084 H   0  0  0  0  0  0
  -24.5891  -30.7062   25.7800 H   0  0  0  0  0  0
  -24.8924  -32.2853   26.4946 H   0  0  0  0  0  0
  -25.8078  -30.8839   27.0216 H   0  0  0  0  0  0
  -26.2816  -29.6820   24.1163 H   0  0  0  0  0  0
  -27.4127  -29.7292   25.4505 H   0  0  0  0  0  0
  -27.8624  -30.4412   23.9180 H   0  0  0  0  0  0
  -27.2639  -33.3629   26.2079 H   0  0  0  0  0  0
  -28.3837  -32.6889   25.0328 H   0  0  0  0  0  0
  -28.0688  -31.8452   26.5418 H   0  0  0  0  0  0
  -28.2587  -38.0081   24.7526 H   0  0  0  0  0  0
  -28.1045  -36.2610   24.6303 H   0  0  0  0  0  0
  -27.2279  -37.1435   25.8887 H   0  0  0  0  0  0
  -20.9315  -29.8707   21.6894 H   0  0  0  0  0  0
  -26.0152  -38.2865   24.1475 H   0  0  0  0  0  0
  -31.8793  -23.1544   21.1764 H   0  0  0  0  0  0
  -32.2093  -21.4433   21.3517 H   0  0  0  0  0  0
  -31.3042  -22.2948   22.6003 H   0  0  0  0  0  0
  -29.5783  -24.3126   19.3565 H   0  0  0  0  0  0
  -30.2751  -24.8018   20.8855 H   0  0  0  0  0  0
  -28.1399  -22.6373   20.5381 H   0  0  0  0  0  0
  -28.8548  -23.0801   22.0630 H   0  0  0  0  0  0
  -28.0294  -25.4599   21.7353 H   0  0  0  0  0  0
  -27.3055  -24.8654   20.2680 H   0  0  0  0  0  0
  -30.3556  -21.7927   19.7256 H   0  0  0  0  0  0
  -29.1859  -15.1338   21.6501 H   0  0  0  0  0  0
  -28.7857  -20.6809   21.8098 H   0  0  0  0  0  0
  1 25  1  0  0  0
  1 30  2  0  0  0
  1 80  1  0  0  0
  2  3  1  0  0  0
  2 25  1  0  0  0
  2 83  1  0  0  0
  2 84  1  0  0  0
  3  4  1  0  0  0
  3 85  1  0  0  0
  3 86  1  0  0  0
  4  5  1  0  0  0
  4 87  1  0  0  0
  4 88  1  0  0  0
  5  6  1  0  0  0
  5 26  1  0  0  0
  5 89  1  0  0  0
  6 25  1  0  0  0
  6 90  1  0  0  0
  6 91  1  0  0  0
  7  8  2  0  0  0
  7 26  1  0  0  0
  7 29  1  0  0  0
  8  9  1  0  0  0
  8 22  1  0  0  0
  9 10  1  0  0  0
  9 27  2  0  0  0
 10 11  2  0  0  0
 10 15  1  0  0  0
 11 12  1  0  0  0
 11 92  1  0  0  0
 12 13  2  0  0  0
 12 93  1  0  0  0
 13 14  1  0  0  0
 13 31  1  0  0  0
 14 15  2  0  0  0
 14 94  1  0  0  0
 15 95  1  0  0  0
 16 17  2  0  0  0
 16 21  1  0  0  0
 16 31  1  0  0  0
 17 18  1  0  0  0
 17 96  1  0  0  0
 18 19  2  0  0  0
 18 97  1  0  0  0
 19 20  1  0  0  0
 19 24  1  0  0  0
 20 21  2  0  0  0
 20 98  1  0  0  0
 21 23  1  0  0  0
 22 28  1  0  0  0
 22 32  2  0  0  0
 26 27  1  0  0  0
 28 99  1  0  0  0
 28100  1  0  0  0
 29101  1  0  0  0
 29102  1  0  0  0
 33 34  1  0  0  0
 33 66  1  0  0  0
 33 70  2  0  0  0
 34 36  1  0  0  0
 34 59  1  0  0  0
 34103  1  0  0  0
 35 44  2  0  0  0
 35 45  1  0  0  0
 35 68  1  0  0  0
 36 56  1  0  0  0
 36104  1  0  0  0
 37 39  1  0  0  0
 37 47  1  0  0  0
 37 66  1  0  0  0
 37105  1  0  0  0
 38 43  2  0  0  0
 38 46  1  0  0  0
 38 47  1  0  0  0
 39 64  1  0  0  0
 39 67  2  0  0  0
 40 52  1  0  0  0
 40 53  2  0  0  0
 40 58  1  0  0  0
 41106  1  0  0  0
 41107  1  0  0  0
 41108  1  0  0  0
 41 48  1  0  0  0
 42 43  1  0  0  0
 42 66  1  0  0  0
 42109  1  0  0  0
 42110  1  0  0  0
 43 44  1  0  0  0
 44111  1  0  0  0
 45 46  2  0  0  0
 45112  1  0  0  0
 46113  1  0  0  0
 47114  1  0  0  0
 47115  1  0  0  0
 48 56  1  0  0  0
 48 65  1  0  0  0
 48116  1  0  0  0
 49 50  1  0  0  0
 49 53  1  0  0  0
 49 64  1  0  0  0
 49117  1  0  0  0
 50 51  1  0  0  0
 50118  1  0  0  0
 50119  1  0  0  0
 51 52  1  0  0  0
 51120  1  0  0  0
 51121  1  0  0  0
 52122  1  0  0  0
 52123  1  0  0  0
 53 54  1  0  0  0
 54 55  2  0  0  0
 54124  1  0  0  0
 55 57  1  0  0  0
 55125  1  0  0  0
 56 69  2  0  0  0
 57 58  2  0  0  0
 57126  1  0  0  0
 58127  1  0  0  0
 59 60  1  0  0  0
 59 61  1  0  0  0
 59 62  1  0  0  0
 60128  1  0  0  0
 60129  1  0  0  0
 60130  1  0  0  0
 61131  1  0  0  0
 61132  1  0  0  0
 61133  1  0  0  0
 62134  1  0  0  0
 62135  1  0  0  0
 62136  1  0  0  0
 63 65  1  0  0  0
 63137  1  0  0  0
 63138  1  0  0  0
 63139  1  0  0  0
 64140  1  0  0  0
 65141  1  0  0  0
 68 76  1  0  0  0
 71 78  2  0  0  0
 71 80  1  0  0  0
 71 82  1  0  0  0
 72 79  2  0  0  0
 72 81  1  0  0  0
 72 82  1  0  0  0
 73142  1  0  0  0
 73143  1  0  0  0
 73144  1  0  0  0
 73 77  1  0  0  0
 74 75  1  0  0  0
 74 76  1  0  0  0
 74145  1  0  0  0
 74146  1  0  0  0
 75 77  1  0  0  0
 75147  1  0  0  0
 75148  1  0  0  0
 76149  1  0  0  0
 76150  1  0  0  0
 77 81  1  0  0  0
 77151  1  0  0  0
 78 79  1  0  0  0
 80152  1  0  0  0
 81153  1  0  0  0
M  ISO  4   1 100  68 101  76 101  80 100
M  END
> <chiral flag>
0

> <version>
0

> <s_m_source_file>
/data/baiqing/PycharmProjects/Reinvent-master-3.2/result/LINK_invent/BTK/process_docking_weight1_custom_product_contain_oxygen_bond_distance_aromatic_linkinvent_7_9_3/rearranged_h_0198.sdf

> <i_m_source_file_index>
49

> <r_mmod_Potential_Energy-OPLS-2005>
-182.415222167969

> <r_mmod_Stretch_Energy-OPLS-2005>
34.6309509277344

> <r_mmod_Bend_Energy-OPLS-2005>
98.4809722900391

> <r_mmod_Torsional_Energy-OPLS-2005>
204.144088745117

> <r_mmod_Improper_Torsional_Energy-OPLS-2005>
3.05687761306763

> <r_mmod_Van_der_Waal_Energy-OPLS-2005>
132.413955688477

> <r_mmod_Electrostatic_Energy-OPLS-2005>
-420.768737792969

> <r_mmod_Solvation_Energy-OPLS-2005>
-246.891189575195

> <b_mmod_Minimization_Converged-OPLS-2005>
0

> <r_mmod_RMS_Derivative-OPLS-2005>
1.35039556026459

$$$$
49
                    3D
 Structure written by MMmdl.
151159  0  0  1  0            999 V2000
  -30.6447  -14.5409   20.5105 C   0  0  0  0  0  0
  -30.4333  -12.3298   19.4210 C   0  0  0  0  0  0
  -29.5023  -12.5054   18.2013 C   0  0  0  0  0  0
  -28.0195  -12.3603   18.6084 C   0  0  0  0  0  0
  -27.6560  -13.2054   19.8606 C   0  0  2  0  0  0
  -28.7042  -13.0114   20.9813 C   0  0  0  0  0  0
  -25.2571  -13.8149   20.5644 C   0  0  0  0  0  0
  -24.1838  -13.0422   20.9171 C   0  0  0  0  0  0
  -24.6394  -11.6895   20.8711 C   0  0  0  0  0  0
  -23.9052  -10.4293   21.0380 C   0  0  0  0  0  0
  -24.3616   -9.4216   21.9156 C   0  0  0  0  0  0
  -23.6306   -8.2246   22.0736 C   0  0  0  0  0  0
  -22.4272   -8.0285   21.3546 C   0  0  0  0  0  0
  -21.9900   -9.0238   20.4638 C   0  0  0  0  0  0
  -22.7214  -10.2121   20.3030 C   0  0  0  0  0  0
  -21.6861   -6.0730   22.5271 C   0  0  0  0  0  0
  -21.4026   -6.5636   23.8205 C   0  0  0  0  0  0
  -21.3665   -5.6795   24.9176 C   0  0  0  0  0  0
  -21.6032   -4.3045   24.7227 C   0  0  0  0  0  0
  -21.8828   -3.8148   23.4348 C   0  0  0  0  0  0
  -21.9200   -4.6958   22.3406 C   0  0  0  0  0  0
  -22.7862  -13.5218   21.1843 C   0  0  0  0  0  0
  -22.1661   -4.2150   21.0978 F   0  0  0  0  0  0
  -21.5629   -3.4525   25.7734 F   0  0  0  0  0  0
  -30.0266  -13.3300   20.4211 N   0  0  0  0  0  0
  -26.3002  -12.9304   20.3273 N   0  0  0  0  0  0
  -25.9320  -11.6483   20.5720 N   0  0  0  0  0  0
  -22.0505  -12.8224   22.0412 N   0  0  0  0  0  0
  -25.4244  -15.1873   20.4047 N   0  0  0  0  0  0
  -31.8178  -14.7132   20.1660 O   0  0  0  0  0  0
  -21.6642   -6.8870   21.4232 O   0  0  0  0  0  0
  -22.3544  -14.5526   20.6697 O   0  0  0  0  0  0
  -24.6208  -31.8664   23.2073 C   0  0  0  0  0  0
  -25.9087  -32.4797   23.8378 C   0  0  1  0  0  0
  -27.2290  -27.3997   20.0770 C   0  0  0  0  0  0
  -25.5932  -33.8607   24.2290 N   0  0  0  0  0  0
  -23.4071  -30.4898   21.5527 C   0  0  2  0  0  0
  -24.8469  -28.9500   20.1163 C   0  0  0  0  0  0
  -22.7444  -29.4645   22.5013 C   0  0  0  0  0  0
  -18.0273  -28.1363   22.8502 C   0  0  0  0  0  0
  -24.1500  -36.7312   23.2636 C   0  0  0  0  0  0
  -25.9440  -30.8116   21.3717 C   0  0  0  0  0  0
  -26.0119  -29.4488   20.7091 C   0  0  0  0  0  0
  -27.2037  -28.6834   20.6831 C   0  0  0  0  0  0
  -26.0313  -26.9150   19.5009 C   0  0  0  0  0  0
  -24.8529  -27.6830   19.5115 C   0  0  0  0  0  0
  -23.6140  -29.8247   20.1667 C   0  0  0  0  0  0
  -25.4119  -36.3096   24.0329 C   0  0  1  0  0  0
  -20.5865  -28.3648   23.1323 C   0  0  2  0  0  0
  -20.6763  -26.9384   22.5418 C   0  0  0  0  0  0
  -19.5735  -26.6371   21.5220 C   0  0  0  0  0  0
  -18.1912  -26.7909   22.1630 C   0  0  0  0  0  0
  -19.1523  -28.8829   23.2903 C   0  0  0  0  0  0
  -18.9445  -30.1433   23.8909 C   0  0  0  0  0  0
  -17.6448  -30.6573   24.0549 C   0  0  0  0  0  0
  -25.9054  -34.9461   23.5103 C   0  0  0  0  0  0
  -16.5339  -29.9068   23.6323 C   0  0  0  0  0  0
  -16.7256  -28.6484   23.0352 C   0  0  0  0  0  0
  -26.4475  -31.6603   25.0753 C   0  0  0  0  0  0
  -25.3734  -31.3727   26.1502 C   0  0  0  0  0  0
  -27.0293  -30.3025   24.6180 C   0  0  0  0  0  0
  -27.6016  -32.4364   25.7528 C   0  0  0  0  0  0
  -27.5582  -37.1823   24.8456 C   0  0  0  0  0  0
  -21.4169  -29.3022   22.3762 N   0  0  0  0  0  0
  -26.4291  -37.3791   23.9404 N   0  0  0  0  0  0
  -24.6750  -31.0735   22.0991 N   0  0  0  0  0  0
  -23.4216  -28.8180   23.3054 O   0  0  0  0  0  0
  -28.4164  -26.6794   20.0764 O   0  0  0  0  0  0
  -26.5628  -34.8929   22.4669 O   0  0  0  0  0  0
  -23.5387  -32.1427   23.7458 O   0  0  0  0  0  0
  -29.6463  -19.1481   20.5645 C   0  0  0  0  0  0
  -30.0740  -16.9795   20.7793 C   0  0  0  0  0  0
  -28.4503  -24.1628   20.3946 C   0  0  0  0  0  0
  -28.9828  -21.5951   20.7255 C   0  0  0  0  0  0
  -28.5248  -25.3858   19.4278 C   0  0  0  0  0  0
  -28.6179  -22.7489   19.7349 C   0  0  1  0  0  0
  -29.1884  -17.8932   20.3426 N   0  0  0  0  0  0
  -30.8286  -19.2927   21.1908 N   0  0  0  0  0  0
  -28.9278  -20.2632   20.0911 N   0  0  0  0  0  0
  -29.8003  -15.5743   20.7398 N   0  0  0  0  0  0
  -27.4035  -22.3789   19.0922 O   0  0  0  0  0  0
  -31.4843  -17.7449   21.4658 S   0  0  0  0  0  0
  -31.4779  -12.4393   19.1193 H   0  0  0  0  0  0
  -30.3429  -11.3212   19.8301 H   0  0  0  0  0  0
  -29.7523  -11.7819   17.4232 H   0  0  0  0  0  0
  -29.6647  -13.4912   17.7637 H   0  0  0  0  0  0
  -27.8279  -11.3041   18.8002 H   0  0  0  0  0  0
  -27.3790  -12.6383   17.7725 H   0  0  0  0  0  0
  -27.6837  -14.2475   19.5450 H   0  0  0  0  0  0
  -28.6939  -11.9796   21.3363 H   0  0  0  0  0  0
  -28.4740  -13.6288   21.8513 H   0  0  0  0  0  0
  -25.2763   -9.5706   22.4716 H   0  0  0  0  0  0
  -24.0016   -7.4647   22.7452 H   0  0  0  0  0  0
  -21.0820   -8.8760   19.8957 H   0  0  0  0  0  0
  -22.3663  -10.9661   19.6143 H   0  0  0  0  0  0
  -21.2020   -7.6145   23.9720 H   0  0  0  0  0  0
  -21.1472   -6.0508   25.9072 H   0  0  0  0  0  0
  -22.0601   -2.7605   23.2843 H   0  0  0  0  0  0
  -22.4128  -11.9888   22.4816 H   0  0  0  0  0  0
  -21.1118  -13.1235   22.2601 H   0  0  0  0  0  0
  -24.6466  -15.8296   20.5101 H   0  0  0  0  0  0
  -26.2598  -15.6398   20.0589 H   0  0  0  0  0  0
  -26.7173  -32.5453   23.1138 H   0  0  0  0  0  0
  -25.0095  -33.9747   25.0449 H   0  0  0  0  0  0
  -22.6956  -31.3076   21.4155 H   0  0  0  0  0  0
  -23.3753  -35.9653   23.3304 H   0  0  0  0  0  0
  -24.3577  -36.8930   22.2044 H   0  0  0  0  0  0
  -23.7272  -37.6528   23.6655 H   0  0  0  0  0  0
  -26.0875  -31.5795   20.6111 H   0  0  0  0  0  0
  -26.8217  -30.8438   22.0044 H   0  0  0  0  0  0
  -28.1071  -29.0719   21.1323 H   0  0  0  0  0  0
  -25.9646  -25.9399   19.0451 H   0  0  0  0  0  0
  -23.9552  -27.2856   19.0581 H   0  0  0  0  0  0
  -23.7328  -30.6025   19.4122 H   0  0  0  0  0  0
  -22.7345  -29.2548   19.8621 H   0  0  0  0  0  0
  -25.1303  -36.1945   25.0824 H   0  0  0  0  0  0
  -20.9934  -28.3202   24.1451 H   0  0  0  0  0  0
  -20.5676  -26.2254   23.3605 H   0  0  0  0  0  0
  -21.6629  -26.7443   22.1189 H   0  0  0  0  0  0
  -19.6891  -25.6291   21.1225 H   0  0  0  0  0  0
  -19.6652  -27.3203   20.6766 H   0  0  0  0  0  0
  -17.4183  -26.6665   21.4025 H   0  0  0  0  0  0
  -18.0297  -26.0034   22.9008 H   0  0  0  0  0  0
  -19.7921  -30.7238   24.2287 H   0  0  0  0  0  0
  -17.4997  -31.6245   24.5154 H   0  0  0  0  0  0
  -15.5335  -30.2968   23.7630 H   0  0  0  0  0  0
  -15.8654  -28.0785   22.7081 H   0  0  0  0  0  0
  -24.5872  -30.7111   25.7850 H   0  0  0  0  0  0
  -24.8969  -32.2888   26.5007 H   0  0  0  0  0  0
  -25.8087  -30.8853   27.0233 H   0  0  0  0  0  0
  -26.2841  -29.6834   24.1168 H   0  0  0  0  0  0
  -27.3941  -29.7230   25.4672 H   0  0  0  0  0  0
  -27.8745  -30.4303   23.9413 H   0  0  0  0  0  0
  -27.2570  -33.3629   26.2132 H   0  0  0  0  0  0
  -28.3804  -32.7005   25.0365 H   0  0  0  0  0  0
  -28.0714  -31.8503   26.5432 H   0  0  0  0  0  0
  -28.2604  -38.0117   24.7503 H   0  0  0  0  0  0
  -28.1079  -36.2653   24.6280 H   0  0  0  0  0  0
  -27.2300  -37.1470   25.8858 H   0  0  0  0  0  0
  -20.9359  -29.8764   21.6981 H   0  0  0  0  0  0
  -26.0177  -38.2874   24.1379 H   0  0  0  0  0  0
  -27.5237  -24.1954   20.9683 H   0  0  0  0  0  0
  -29.2489  -24.2928   21.1248 H   0  0  0  0  0  0
  -28.2780  -21.6041   21.5589 H   0  0  0  0  0  0
  -29.9684  -21.7794   21.1572 H   0  0  0  0  0  0
  -27.8475  -25.2643   18.5872 H   0  0  0  0  0  0
  -29.5057  -25.3753   18.9532 H   0  0  0  0  0  0
  -29.4000  -22.8063   18.9762 H   0  0  0  0  0  0
  -28.0837  -20.0905   19.5556 H   0  0  0  0  0  0
  -28.8322  -15.3153   20.8141 H   0  0  0  0  0  0
  -27.3520  -22.8417   18.2602 H   0  0  0  0  0  0
  1 25  1  0  0  0
  1 30  2  0  0  0
  1 80  1  0  0  0
  2  3  1  0  0  0
  2 25  1  0  0  0
  2 83  1  0  0  0
  2 84  1  0  0  0
  3  4  1  0  0  0
  3 85  1  0  0  0
  3 86  1  0  0  0
  4  5  1  0  0  0
  4 87  1  0  0  0
  4 88  1  0  0  0
  5  6  1  0  0  0
  5 26  1  0  0  0
  5 89  1  0  0  0
  6 25  1  0  0  0
  6 90  1  0  0  0
  6 91  1  0  0  0
  7  8  2  0  0  0
  7 26  1  0  0  0
  7 29  1  0  0  0
  8  9  1  0  0  0
  8 22  1  0  0  0
  9 10  1  0  0  0
  9 27  2  0  0  0
 10 11  2  0  0  0
 10 15  1  0  0  0
 11 12  1  0  0  0
 11 92  1  0  0  0
 12 13  2  0  0  0
 12 93  1  0  0  0
 13 14  1  0  0  0
 13 31  1  0  0  0
 14 15  2  0  0  0
 14 94  1  0  0  0
 15 95  1  0  0  0
 16 17  2  0  0  0
 16 21  1  0  0  0
 16 31  1  0  0  0
 17 18  1  0  0  0
 17 96  1  0  0  0
 18 19  2  0  0  0
 18 97  1  0  0  0
 19 20  1  0  0  0
 19 24  1  0  0  0
 20 21  2  0  0  0
 20 98  1  0  0  0
 21 23  1  0  0  0
 22 28  1  0  0  0
 22 32  2  0  0  0
 26 27  1  0  0  0
 28 99  1  0  0  0
 28100  1  0  0  0
 29101  1  0  0  0
 29102  1  0  0  0
 33 34  1  0  0  0
 33 66  1  0  0  0
 33 70  2  0  0  0
 34 36  1  0  0  0
 34 59  1  0  0  0
 34103  1  0  0  0
 35 44  2  0  0  0
 35 45  1  0  0  0
 35 68  1  0  0  0
 36 56  1  0  0  0
 36104  1  0  0  0
 37 39  1  0  0  0
 37 47  1  0  0  0
 37 66  1  0  0  0
 37105  1  0  0  0
 38 43  2  0  0  0
 38 46  1  0  0  0
 38 47  1  0  0  0
 39 64  1  0  0  0
 39 67  2  0  0  0
 40 52  1  0  0  0
 40 53  2  0  0  0
 40 58  1  0  0  0
 41106  1  0  0  0
 41107  1  0  0  0
 41108  1  0  0  0
 41 48  1  0  0  0
 42 43  1  0  0  0
 42 66  1  0  0  0
 42109  1  0  0  0
 42110  1  0  0  0
 43 44  1  0  0  0
 44111  1  0  0  0
 45 46  2  0  0  0
 45112  1  0  0  0
 46113  1  0  0  0
 47114  1  0  0  0
 47115  1  0  0  0
 48 56  1  0  0  0
 48 65  1  0  0  0
 48116  1  0  0  0
 49 50  1  0  0  0
 49 53  1  0  0  0
 49 64  1  0  0  0
 49117  1  0  0  0
 50 51  1  0  0  0
 50118  1  0  0  0
 50119  1  0  0  0
 51 52  1  0  0  0
 51120  1  0  0  0
 51121  1  0  0  0
 52122  1  0  0  0
 52123  1  0  0  0
 53 54  1  0  0  0
 54 55  2  0  0  0
 54124  1  0  0  0
 55 57  1  0  0  0
 55125  1  0  0  0
 56 69  2  0  0  0
 57 58  2  0  0  0
 57126  1  0  0  0
 58127  1  0  0  0
 59 60  1  0  0  0
 59 61  1  0  0  0
 59 62  1  0  0  0
 60128  1  0  0  0
 60129  1  0  0  0
 60130  1  0  0  0
 61131  1  0  0  0
 61132  1  0  0  0
 61133  1  0  0  0
 62134  1  0  0  0
 62135  1  0  0  0
 62136  1  0  0  0
 63 65  1  0  0  0
 63137  1  0  0  0
 63138  1  0  0  0
 63139  1  0  0  0
 64140  1  0  0  0
 65141  1  0  0  0
 68 75  1  0  0  0
 71 77  1  0  0  0
 71 78  2  0  0  0
 71 79  1  0  0  0
 72 77  2  0  0  0
 72 80  1  0  0  0
 72 82  1  0  0  0
 73 75  1  0  0  0
 73 76  1  0  0  0
 73142  1  0  0  0
 73143  1  0  0  0
 74 76  1  0  0  0
 74 79  1  0  0  0
 74144  1  0  0  0
 74145  1  0  0  0
 75146  1  0  0  0
 75147  1  0  0  0
 76 81  1  0  0  0
 76148  1  0  0  0
 78 82  1  0  0  0
 79149  1  0  0  0
 80150  1  0  0  0
 81151  1  0  0  0
M  ISO  4   1 100  68 101  75 101  80 100
M  END
> <chiral flag>
0

> <version>
0

> <s_m_source_file>
/data/baiqing/PycharmProjects/Reinvent-master-3.2/result/LINK_invent/BTK/process_docking_weight1_custom_product_contain_oxygen_bond_distance_aromatic_linkinvent_7_9_3/rearranged_h_0198.sdf

> <i_m_source_file_index>
50

> <r_mmod_Potential_Energy-OPLS-2005>
-220.819320678711

> <r_mmod_Stretch_Energy-OPLS-2005>
44.885066986084

> <r_mmod_Bend_Energy-OPLS-2005>
125.682495117188

> <r_mmod_Torsional_Energy-OPLS-2005>
231.171127319336

> <r_mmod_Improper_Torsional_Energy-OPLS-2005>
8.34464168548584

> <r_mmod_Van_der_Waal_Energy-OPLS-2005>
129.595901489258

> <r_mmod_Electrostatic_Energy-OPLS-2005>
-548.45263671875

> <r_mmod_Solvation_Energy-OPLS-2005>
-234.336227416992

> <b_mmod_Minimization_Converged-OPLS-2005>
0

> <r_mmod_RMS_Derivative-OPLS-2005>
3.48525071144104

$$$$
50
                    3D
 Structure written by MMmdl.
151159  0  0  1  0            999 V2000
  -30.6435  -14.7457   20.4324 C   0  0  0  0  0  0
  -30.4276  -12.4477   19.4890 C   0  0  0  0  0  0
  -29.5214  -12.5111   18.2416 C   0  0  0  0  0  0
  -28.0460  -12.3346   18.6492 C   0  0  0  0  0  0
  -27.6438  -13.2405   19.8460 C   0  0  2  0  0  0
  -28.6874  -13.1936   20.9860 C   0  0  0  0  0  0
  -25.2505  -13.8195   20.5688 C   0  0  0  0  0  0
  -24.1791  -13.0436   20.9189 C   0  0  0  0  0  0
  -24.6399  -11.6912   20.8713 C   0  0  0  0  0  0
  -23.9067  -10.4285   21.0390 C   0  0  0  0  0  0
  -24.3614   -9.4208   21.9166 C   0  0  0  0  0  0
  -23.6293   -8.2243   22.0751 C   0  0  0  0  0  0
  -22.4274   -8.0268   21.3547 C   0  0  0  0  0  0
  -21.9903   -9.0242   20.4650 C   0  0  0  0  0  0
  -22.7233  -10.2117   20.3056 C   0  0  0  0  0  0
  -21.6845   -6.0731   22.5268 C   0  0  0  0  0  0
  -21.4020   -6.5638   23.8204 C   0  0  0  0  0  0
  -21.3660   -5.6781   24.9166 C   0  0  0  0  0  0
  -21.6052   -4.3047   24.7214 C   0  0  0  0  0  0
  -21.8815   -3.8145   23.4334 C   0  0  0  0  0  0
  -21.9187   -4.6960   22.3394 C   0  0  0  0  0  0
  -22.7799  -13.5219   21.1834 C   0  0  0  0  0  0
  -22.1660   -4.2155   21.0970 F   0  0  0  0  0  0
  -21.5623   -3.4522   25.7723 F   0  0  0  0  0  0
  -29.9921  -13.5304   20.4038 N   0  0  0  0  0  0
  -26.2948  -12.9427   20.3250 N   0  0  0  0  0  0
  -25.9347  -11.6557   20.5724 N   0  0  0  0  0  0
  -22.0444  -12.8242   22.0412 N   0  0  0  0  0  0
  -25.4160  -15.1916   20.4110 N   0  0  0  0  0  0
  -31.8403  -14.7779   20.1368 O   0  0  0  0  0  0
  -21.6643   -6.8867   21.4233 O   0  0  0  0  0  0
  -22.3481  -14.5531   20.6661 O   0  0  0  0  0  0
  -24.6316  -31.8555   23.1974 C   0  0  0  0  0  0
  -25.9145  -32.4751   23.8318 C   0  0  1  0  0  0
  -27.2218  -27.2579   20.1362 C   0  0  0  0  0  0
  -25.5944  -33.8550   24.2248 N   0  0  0  0  0  0
  -23.4276  -30.4797   21.5404 C   0  0  2  0  0  0
  -24.8750  -28.9224   20.1135 C   0  0  0  0  0  0
  -22.7481  -29.4638   22.4905 C   0  0  0  0  0  0
  -18.0298  -28.1383   22.8478 C   0  0  0  0  0  0
  -24.1499  -36.7279   23.2634 C   0  0  0  0  0  0
  -25.9741  -30.7671   21.3796 C   0  0  0  0  0  0
  -26.0465  -29.3883   20.7237 C   0  0  0  0  0  0
  -27.2228  -28.5689   20.7225 C   0  0  0  0  0  0
  -26.0280  -26.8657   19.4898 C   0  0  0  0  0  0
  -24.8720  -27.6704   19.4829 C   0  0  0  0  0  0
  -23.6444  -29.8076   20.1592 C   0  0  0  0  0  0
  -25.4128  -36.3064   24.0317 C   0  0  1  0  0  0
  -20.5900  -28.3719   23.1258 C   0  0  2  0  0  0
  -20.6800  -26.9434   22.5403 C   0  0  0  0  0  0
  -19.5785  -26.6382   21.5207 C   0  0  0  0  0  0
  -18.1961  -26.7930   22.1607 C   0  0  0  0  0  0
  -19.1545  -28.8867   23.2866 C   0  0  0  0  0  0
  -18.9461  -30.1464   23.8894 C   0  0  0  0  0  0
  -17.6460  -30.6592   24.0563 C   0  0  0  0  0  0
  -25.9057  -34.9434   23.5081 C   0  0  0  0  0  0
  -16.5356  -29.9085   23.6331 C   0  0  0  0  0  0
  -16.7281  -28.6496   23.0362 C   0  0  0  0  0  0
  -26.4513  -31.6571   25.0706 C   0  0  0  0  0  0
  -25.3727  -31.3731   26.1420 C   0  0  0  0  0  0
  -27.0352  -30.2981   24.6203 C   0  0  0  0  0  0
  -27.6069  -32.4308   25.7480 C   0  0  0  0  0  0
  -27.5581  -37.1797   24.8454 C   0  0  0  0  0  0
  -21.4188  -29.3059   22.3625 N   0  0  0  0  0  0
  -26.4301  -37.3765   23.9387 N   0  0  0  0  0  0
  -24.6968  -31.0524   22.0947 N   0  0  0  0  0  0
  -23.4185  -28.8180   23.3000 O   0  0  0  0  0  0
  -28.3206  -26.3648   20.1606 O   0  0  0  0  0  0
  -26.5616  -34.8908   22.4638 O   0  0  0  0  0  0
  -23.5468  -32.1375   23.7276 O   0  0  0  0  0  0
  -31.3034  -17.5992   19.3671 C   0  0  0  0  0  0
  -30.2447  -17.3245   20.2035 C   0  0  0  0  0  0
  -30.0695  -19.6999   19.9634 C   0  0  0  0  0  0
  -28.7376  -22.0148   22.0718 C   0  0  0  0  0  0
  -29.1107  -23.7172   20.1344 C   0  0  0  0  0  0
  -28.0808  -24.9161   20.5155 C   0  0  0  0  0  0
  -28.7972  -22.1651   20.5476 C   0  0  1  0  0  0
  -29.5365  -18.5587   20.5263 N   0  0  0  0  0  0
  -29.9156  -15.9246   20.6034 N   0  0  0  0  0  0
  -29.7273  -21.1075   20.0014 N   0  0  0  0  0  0
  -31.4831  -19.2975   18.9933 S   0  0  0  0  0  0
  -31.4769  -12.5377   19.2016 H   0  0  0  0  0  0
  -30.3390  -11.4770   19.9801 H   0  0  0  0  0  0
  -29.8170  -11.7461   17.5217 H   0  0  0  0  0  0
  -29.6533  -13.4718   17.7397 H   0  0  0  0  0  0
  -27.9065  -11.2876   18.9203 H   0  0  0  0  0  0
  -27.3915  -12.5173   17.7960 H   0  0  0  0  0  0
  -27.6336  -14.2608   19.4599 H   0  0  0  0  0  0
  -28.7176  -12.2090   21.4540 H   0  0  0  0  0  0
  -28.4236  -13.8967   21.7788 H   0  0  0  0  0  0
  -25.2761   -9.5699   22.4730 H   0  0  0  0  0  0
  -24.0007   -7.4648   22.7487 H   0  0  0  0  0  0
  -21.0820   -8.8756   19.8970 H   0  0  0  0  0  0
  -22.3681  -10.9648   19.6161 H   0  0  0  0  0  0
  -21.2038   -7.6145   23.9714 H   0  0  0  0  0  0
  -21.1485   -6.0508   25.9064 H   0  0  0  0  0  0
  -22.0607   -2.7608   23.2814 H   0  0  0  0  0  0
  -22.4063  -11.9920   22.4845 H   0  0  0  0  0  0
  -21.1071  -13.1295   22.2621 H   0  0  0  0  0  0
  -24.6385  -15.8378   20.5018 H   0  0  0  0  0  0
  -26.2581  -15.6348   20.0643 H   0  0  0  0  0  0
  -26.7195  -32.5419   23.1046 H   0  0  0  0  0  0
  -25.0131  -33.9683   25.0425 H   0  0  0  0  0  0
  -22.7270  -31.3040   21.3926 H   0  0  0  0  0  0
  -23.3760  -35.9606   23.3290 H   0  0  0  0  0  0
  -24.3600  -36.8919   22.2049 H   0  0  0  0  0  0
  -23.7253  -37.6478   23.6667 H   0  0  0  0  0  0
  -26.1146  -31.5281   20.6112 H   0  0  0  0  0  0
  -26.8506  -30.8167   22.0137 H   0  0  0  0  0  0
  -28.1197  -28.9199   21.2135 H   0  0  0  0  0  0
  -25.9683  -25.9158   18.9809 H   0  0  0  0  0  0
  -23.9773  -27.3167   18.9885 H   0  0  0  0  0  0
  -23.7596  -30.5798   19.3969 H   0  0  0  0  0  0
  -22.7642  -29.2343   19.8618 H   0  0  0  0  0  0
  -25.1320  -36.1914   25.0812 H   0  0  0  0  0  0
  -21.0007  -28.3309   24.1371 H   0  0  0  0  0  0
  -20.5732  -26.2319   23.3604 H   0  0  0  0  0  0
  -21.6670  -26.7488   22.1186 H   0  0  0  0  0  0
  -19.6963  -25.6285   21.1262 H   0  0  0  0  0  0
  -19.6736  -27.3169   20.6720 H   0  0  0  0  0  0
  -17.4236  -26.6673   21.3997 H   0  0  0  0  0  0
  -18.0365  -26.0072   22.9002 H   0  0  0  0  0  0
  -19.7943  -30.7275   24.2261 H   0  0  0  0  0  0
  -17.5024  -31.6279   24.5150 H   0  0  0  0  0  0
  -15.5358  -30.2987   23.7665 H   0  0  0  0  0  0
  -15.8681  -28.0813   22.7091 H   0  0  0  0  0  0
  -24.5867  -30.7141   25.7712 H   0  0  0  0  0  0
  -24.8963  -32.2915   26.4860 H   0  0  0  0  0  0
  -25.8025  -30.8855   27.0182 H   0  0  0  0  0  0
  -26.2925  -29.6719   24.1246 H   0  0  0  0  0  0
  -27.4037  -29.7268   25.4733 H   0  0  0  0  0  0
  -27.8810  -30.4226   23.9438 H   0  0  0  0  0  0
  -27.2680  -33.3612   26.2048 H   0  0  0  0  0  0
  -28.3886  -32.6870   25.0312 H   0  0  0  0  0  0
  -28.0729  -31.8438   26.5407 H   0  0  0  0  0  0
  -28.2599  -38.0095   24.7519 H   0  0  0  0  0  0
  -28.1090  -36.2633   24.6280 H   0  0  0  0  0  0
  -27.2298  -37.1447   25.8858 H   0  0  0  0  0  0
  -20.9368  -29.8720   21.6783 H   0  0  0  0  0  0
  -26.0183  -38.2839   24.1390 H   0  0  0  0  0  0
  -32.0080  -16.9059   18.9327 H   0  0  0  0  0  0
  -28.0686  -22.7486   22.5193 H   0  0  0  0  0  0
  -29.7206  -22.1352   22.5315 H   0  0  0  0  0  0
  -28.3582  -21.0302   22.3463 H   0  0  0  0  0  0
  -30.0847  -23.9809   20.5469 H   0  0  0  0  0  0
  -29.2418  -23.7527   19.0525 H   0  0  0  0  0  0
  -27.9774  -24.9168   21.6004 H   0  0  0  0  0  0
  -27.1101  -24.5883   20.1548 H   0  0  0  0  0  0
  -27.8091  -21.9252   20.1513 H   0  0  0  0  0  0
  -28.9796  -15.7931   20.9518 H   0  0  0  0  0  0
  -30.3963  -21.5729   19.3939 H   0  0  0  0  0  0
  1 25  1  0  0  0
  1 30  2  0  0  0
  1 79  1  0  0  0
  2  3  1  0  0  0
  2 25  1  0  0  0
  2 82  1  0  0  0
  2 83  1  0  0  0
  3  4  1  0  0  0
  3 84  1  0  0  0
  3 85  1  0  0  0
  4  5  1  0  0  0
  4 86  1  0  0  0
  4 87  1  0  0  0
  5  6  1  0  0  0
  5 26  1  0  0  0
  5 88  1  0  0  0
  6 25  1  0  0  0
  6 89  1  0  0  0
  6 90  1  0  0  0
  7  8  2  0  0  0
  7 26  1  0  0  0
  7 29  1  0  0  0
  8  9  1  0  0  0
  8 22  1  0  0  0
  9 10  1  0  0  0
  9 27  2  0  0  0
 10 11  2  0  0  0
 10 15  1  0  0  0
 11 12  1  0  0  0
 11 91  1  0  0  0
 12 13  2  0  0  0
 12 92  1  0  0  0
 13 14  1  0  0  0
 13 31  1  0  0  0
 14 15  2  0  0  0
 14 93  1  0  0  0
 15 94  1  0  0  0
 16 17  2  0  0  0
 16 21  1  0  0  0
 16 31  1  0  0  0
 17 18  1  0  0  0
 17 95  1  0  0  0
 18 19  2  0  0  0
 18 96  1  0  0  0
 19 20  1  0  0  0
 19 24  1  0  0  0
 20 21  2  0  0  0
 20 97  1  0  0  0
 21 23  1  0  0  0
 22 28  1  0  0  0
 22 32  2  0  0  0
 26 27  1  0  0  0
 28 98  1  0  0  0
 28 99  1  0  0  0
 29100  1  0  0  0
 29101  1  0  0  0
 33 34  1  0  0  0
 33 66  1  0  0  0
 33 70  2  0  0  0
 34 36  1  0  0  0
 34 59  1  0  0  0
 34102  1  0  0  0
 35 44  2  0  0  0
 35 45  1  0  0  0
 35 68  1  0  0  0
 36 56  1  0  0  0
 36103  1  0  0  0
 37 39  1  0  0  0
 37 47  1  0  0  0
 37 66  1  0  0  0
 37104  1  0  0  0
 38 43  2  0  0  0
 38 46  1  0  0  0
 38 47  1  0  0  0
 39 64  1  0  0  0
 39 67  2  0  0  0
 40 52  1  0  0  0
 40 53  2  0  0  0
 40 58  1  0  0  0
 41105  1  0  0  0
 41106  1  0  0  0
 41107  1  0  0  0
 41 48  1  0  0  0
 42 43  1  0  0  0
 42 66  1  0  0  0
 42108  1  0  0  0
 42109  1  0  0  0
 43 44  1  0  0  0
 44110  1  0  0  0
 45 46  2  0  0  0
 45111  1  0  0  0
 46112  1  0  0  0
 47113  1  0  0  0
 47114  1  0  0  0
 48 56  1  0  0  0
 48 65  1  0  0  0
 48115  1  0  0  0
 49 50  1  0  0  0
 49 53  1  0  0  0
 49 64  1  0  0  0
 49116  1  0  0  0
 50 51  1  0  0  0
 50117  1  0  0  0
 50118  1  0  0  0
 51 52  1  0  0  0
 51119  1  0  0  0
 51120  1  0  0  0
 52121  1  0  0  0
 52122  1  0  0  0
 53 54  1  0  0  0
 54 55  2  0  0  0
 54123  1  0  0  0
 55 57  1  0  0  0
 55124  1  0  0  0
 56 69  2  0  0  0
 57 58  2  0  0  0
 57125  1  0  0  0
 58126  1  0  0  0
 59 60  1  0  0  0
 59 61  1  0  0  0
 59 62  1  0  0  0
 60127  1  0  0  0
 60128  1  0  0  0
 60129  1  0  0  0
 61130  1  0  0  0
 61131  1  0  0  0
 61132  1  0  0  0
 62133  1  0  0  0
 62134  1  0  0  0
 62135  1  0  0  0
 63 65  1  0  0  0
 63136  1  0  0  0
 63137  1  0  0  0
 63138  1  0  0  0
 64139  1  0  0  0
 65140  1  0  0  0
 68 76  1  0  0  0
 71 72  2  0  0  0
 71 81  1  0  0  0
 71141  1  0  0  0
 72 78  1  0  0  0
 72 79  1  0  0  0
 73 78  2  0  0  0
 73 80  1  0  0  0
 73 81  1  0  0  0
 74142  1  0  0  0
 74143  1  0  0  0
 74144  1  0  0  0
 74 77  1  0  0  0
 75 76  1  0  0  0
 75 77  1  0  0  0
 75145  1  0  0  0
 75146  1  0  0  0
 76147  1  0  0  0
 76148  1  0  0  0
 77 80  1  0  0  0
 77149  1  0  0  0
 79150  1  0  0  0
 80151  1  0  0  0
M  ISO  4   1 100  68 101  76 101  79 100
M  END
> <chiral flag>
0

> <version>
0

> <s_m_source_file>
/data/baiqing/PycharmProjects/Reinvent-master-3.2/result/LINK_invent/BTK/process_docking_weight1_custom_product_contain_oxygen_bond_distance_aromatic_linkinvent_7_9_3/rearranged_h_0198.sdf

> <i_m_source_file_index>
51

> <r_mmod_Potential_Energy-OPLS-2005>
119.967987060547

> <r_mmod_Stretch_Energy-OPLS-2005>
125.414352416992

> <r_mmod_Bend_Energy-OPLS-2005>
183.898529052734

> <r_mmod_Torsional_Energy-OPLS-2005>
217.871520996094

> <r_mmod_Improper_Torsional_Energy-OPLS-2005>
4.42461347579956

> <r_mmod_Van_der_Waal_Energy-OPLS-2005>
121.445693969727

> <r_mmod_Electrostatic_Energy-OPLS-2005>
-401.903045654297

> <r_mmod_Solvation_Energy-OPLS-2005>
-217.271026611328

> <b_mmod_Minimization_Converged-OPLS-2005>
0

> <r_mmod_RMS_Derivative-OPLS-2005>
3.18072271347046

$$$$
51
                    3D
 Structure written by MMmdl.
153161  0  0  1  0            999 V2000
  -30.7056  -14.5047   20.5879 C   0  0  0  0  0  0
  -30.4366  -12.3329   19.4292 C   0  0  0  0  0  0
  -29.5116  -12.5140   18.2097 C   0  0  0  0  0  0
  -28.0314  -12.3644   18.6170 C   0  0  0  0  0  0
  -27.6657  -13.2061   19.8716 C   0  0  2  0  0  0
  -28.7086  -13.0071   20.9961 C   0  0  0  0  0  0
  -25.2603  -13.8171   20.5652 C   0  0  0  0  0  0
  -24.1841  -13.0456   20.9167 C   0  0  0  0  0  0
  -24.6360  -11.6924   20.8687 C   0  0  0  0  0  0
  -23.9008  -10.4316   21.0353 C   0  0  0  0  0  0
  -24.3557   -9.4243   21.9132 C   0  0  0  0  0  0
  -23.6269   -8.2269   22.0738 C   0  0  0  0  0  0
  -22.4247   -8.0267   21.3541 C   0  0  0  0  0  0
  -21.9859   -9.0231   20.4628 C   0  0  0  0  0  0
  -22.7181  -10.2129   20.3014 C   0  0  0  0  0  0
  -21.6868   -6.0690   22.5269 C   0  0  0  0  0  0
  -21.4022   -6.5611   23.8184 C   0  0  0  0  0  0
  -21.3651   -5.6766   24.9156 C   0  0  0  0  0  0
  -21.6042   -4.3031   24.7218 C   0  0  0  0  0  0
  -21.8820   -3.8114   23.4346 C   0  0  0  0  0  0
  -21.9203   -4.6916   22.3404 C   0  0  0  0  0  0
  -22.7848  -13.5249   21.1833 C   0  0  0  0  0  0
  -22.1640   -4.2102   21.0969 F   0  0  0  0  0  0
  -21.5663   -3.4517   25.7737 F   0  0  0  0  0  0
  -30.0397  -13.3212   20.4444 N   0  0  0  0  0  0
  -26.3039  -12.9320   20.3308 N   0  0  0  0  0  0
  -25.9291  -11.6489   20.5685 N   0  0  0  0  0  0
  -22.0449  -12.8269   22.0354 N   0  0  0  0  0  0
  -25.4321  -15.1899   20.4046 N   0  0  0  0  0  0
  -31.8478  -14.6830   20.1551 O   0  0  0  0  0  0
  -21.6640   -6.8845   21.4234 O   0  0  0  0  0  0
  -22.3590  -14.5586   20.6694 O   0  0  0  0  0  0
  -24.6187  -31.8652   23.2057 C   0  0  0  0  0  0
  -25.9054  -32.4825   23.8380 C   0  0  1  0  0  0
  -27.2354  -27.3951   20.0954 C   0  0  0  0  0  0
  -25.5944  -33.8637   24.2357 N   0  0  0  0  0  0
  -23.4071  -30.4944   21.5409 C   0  0  2  0  0  0
  -24.8573  -28.9546   20.1080 C   0  0  0  0  0  0
  -22.7392  -29.4685   22.4883 C   0  0  0  0  0  0
  -18.0294  -28.1375   22.8495 C   0  0  0  0  0  0
  -24.1460  -36.7320   23.2633 C   0  0  0  0  0  0
  -25.9401  -30.8223   21.3606 C   0  0  0  0  0  0
  -26.0214  -29.4503   20.7114 C   0  0  0  0  0  0
  -27.2130  -28.6785   20.7052 C   0  0  0  0  0  0
  -26.0554  -26.9359   19.4677 C   0  0  0  0  0  0
  -24.8720  -27.6971   19.4876 C   0  0  0  0  0  0
  -23.6217  -29.8255   20.1570 C   0  0  0  0  0  0
  -25.4095  -36.3138   24.0350 C   0  0  1  0  0  0
  -20.5890  -28.3647   23.1283 C   0  0  2  0  0  0
  -20.6787  -26.9376   22.5387 C   0  0  0  0  0  0
  -19.5745  -26.6368   21.5196 C   0  0  0  0  0  0
  -18.1932  -26.7936   22.1616 C   0  0  0  0  0  0
  -19.1543  -28.8826   23.2900 C   0  0  0  0  0  0
  -18.9465  -30.1467   23.8871 C   0  0  0  0  0  0
  -17.6467  -30.6586   24.0573 C   0  0  0  0  0  0
  -25.9021  -34.9494   23.5135 C   0  0  0  0  0  0
  -16.5363  -29.9071   23.6349 C   0  0  0  0  0  0
  -16.7280  -28.6509   23.0334 C   0  0  0  0  0  0
  -26.4482  -31.6627   25.0739 C   0  0  0  0  0  0
  -25.3746  -31.3781   26.1483 C   0  0  0  0  0  0
  -27.0323  -30.3069   24.6181 C   0  0  0  0  0  0
  -27.6043  -32.4327   25.7559 C   0  0  0  0  0  0
  -27.5580  -37.1820   24.8466 C   0  0  0  0  0  0
  -21.4107  -29.3059   22.3668 N   0  0  0  0  0  0
  -26.4266  -37.3850   23.9444 N   0  0  0  0  0  0
  -24.6743  -31.0773   22.0942 N   0  0  0  0  0  0
  -23.4159  -28.8200   23.2919 O   0  0  0  0  0  0
  -28.3677  -26.5881   20.1204 O   0  0  0  0  0  0
  -26.5497  -34.8941   22.4649 O   0  0  0  0  0  0
  -23.5367  -32.1340   23.7496 O   0  0  0  0  0  0
  -31.3395  -17.5658   21.4767 C   0  0  0  0  0  0
  -30.2356  -16.8611   21.0422 C   0  0  0  0  0  0
  -30.1005  -19.3633   20.7668 C   0  0  0  0  0  0
  -29.6103  -20.7580   20.4115 C   0  0  0  0  0  0
  -27.7366  -22.5974   21.8510 C   0  0  0  0  0  0
  -29.3589  -24.2416   20.6081 C   0  0  0  0  0  0
  -28.1343  -25.2279   20.5924 C   0  0  0  0  0  0
  -29.2036  -22.9872   21.5516 C   0  0  1  0  0  0
  -31.2598  -18.9678   21.3159 N   0  0  0  0  0  0
  -29.9707  -15.5184   21.0970 N   0  0  0  0  0  0
  -30.0074  -21.7823   21.2024 N   0  0  0  0  0  0
  -28.7857  -20.9145   19.5064 O   0  0  0  0  0  0
  -29.0417  -17.9853   20.4158 S   0  0  0  0  0  0
  -31.4813  -12.4429   19.1282 H   0  0  0  0  0  0
  -30.3443  -11.3213   19.8285 H   0  0  0  0  0  0
  -29.7630  -11.7852   17.4399 H   0  0  0  0  0  0
  -29.6778  -13.4969   17.7654 H   0  0  0  0  0  0
  -27.8512  -11.3072   18.8119 H   0  0  0  0  0  0
  -27.3845  -12.6341   17.7813 H   0  0  0  0  0  0
  -27.6985  -14.2520   19.5650 H   0  0  0  0  0  0
  -28.6888  -11.9777   21.3573 H   0  0  0  0  0  0
  -28.4601  -13.6217   21.8627 H   0  0  0  0  0  0
  -25.2692   -9.5786   22.4700 H   0  0  0  0  0  0
  -23.9983   -7.4689   22.7477 H   0  0  0  0  0  0
  -21.0775   -8.8722   19.8951 H   0  0  0  0  0  0
  -22.3583  -10.9629   19.6128 H   0  0  0  0  0  0
  -21.1980   -7.6107   23.9687 H   0  0  0  0  0  0
  -21.1494   -6.0483   25.9062 H   0  0  0  0  0  0
  -22.0612   -2.7569   23.2867 H   0  0  0  0  0  0
  -22.4010  -11.9959   22.4867 H   0  0  0  0  0  0
  -21.1094  -13.1362   22.2487 H   0  0  0  0  0  0
  -24.6603  -15.8411   20.5008 H   0  0  0  0  0  0
  -26.2853  -15.6309   20.0861 H   0  0  0  0  0  0
  -26.7150  -32.5570   23.1158 H   0  0  0  0  0  0
  -25.0362  -33.9822   25.0680 H   0  0  0  0  0  0
  -22.6987  -31.3122   21.3958 H   0  0  0  0  0  0
  -23.3752  -35.9620   23.3299 H   0  0  0  0  0  0
  -24.3536  -36.8890   22.2036 H   0  0  0  0  0  0
  -23.7132  -37.6516   23.6603 H   0  0  0  0  0  0
  -26.0473  -31.5807   20.5839 H   0  0  0  0  0  0
  -26.8276  -30.8851   21.9804 H   0  0  0  0  0  0
  -28.1007  -29.0560   21.1949 H   0  0  0  0  0  0
  -26.0394  -25.9890   18.9492 H   0  0  0  0  0  0
  -23.9782  -27.3132   19.0176 H   0  0  0  0  0  0
  -23.7274  -30.5911   19.3860 H   0  0  0  0  0  0
  -22.7478  -29.2398   19.8678 H   0  0  0  0  0  0
  -25.1263  -36.2023   25.0842 H   0  0  0  0  0  0
  -21.0045  -28.3194   24.1365 H   0  0  0  0  0  0
  -20.5674  -26.2218   23.3553 H   0  0  0  0  0  0
  -21.6653  -26.7381   22.1189 H   0  0  0  0  0  0
  -19.6874  -25.6265   21.1218 H   0  0  0  0  0  0
  -19.6746  -27.3178   20.6737 H   0  0  0  0  0  0
  -17.4219  -26.6705   21.4020 H   0  0  0  0  0  0
  -18.0333  -26.0083   22.9010 H   0  0  0  0  0  0
  -19.7949  -30.7318   24.2180 H   0  0  0  0  0  0
  -17.5027  -31.6268   24.5145 H   0  0  0  0  0  0
  -15.5361  -30.2955   23.7732 H   0  0  0  0  0  0
  -15.8686  -28.0853   22.7000 H   0  0  0  0  0  0
  -24.5921  -30.7115   25.7876 H   0  0  0  0  0  0
  -24.8967  -32.2945   26.4962 H   0  0  0  0  0  0
  -25.8108  -30.8972   27.0230 H   0  0  0  0  0  0
  -26.2884  -29.6820   24.1222 H   0  0  0  0  0  0
  -27.4016  -29.7402   25.4734 H   0  0  0  0  0  0
  -27.8764  -30.4422   23.9408 H   0  0  0  0  0  0
  -27.2668  -33.3613   26.2196 H   0  0  0  0  0  0
  -28.3890  -32.6848   25.0415 H   0  0  0  0  0  0
  -28.0628  -31.8353   26.5451 H   0  0  0  0  0  0
  -28.2618  -38.0118   24.7566 H   0  0  0  0  0  0
  -28.1047  -36.2640   24.6237 H   0  0  0  0  0  0
  -27.2278  -37.1408   25.8862 H   0  0  0  0  0  0
  -20.9186  -29.8833   21.7005 H   0  0  0  0  0  0
  -26.0164  -38.2926   24.1509 H   0  0  0  0  0  0
  -32.2210  -17.1519   21.9495 H   0  0  0  0  0  0
  -27.2539  -23.3359   22.4891 H   0  0  0  0  0  0
  -27.6600  -21.6503   22.3878 H   0  0  0  0  0  0
  -27.1492  -22.5192   20.9356 H   0  0  0  0  0  0
  -30.2553  -24.7850   20.9120 H   0  0  0  0  0  0
  -29.5557  -23.9183   19.5853 H   0  0  0  0  0  0
  -27.7176  -25.3184   21.5982 H   0  0  0  0  0  0
  -27.3689  -24.7297   19.9958 H   0  0  0  0  0  0
  -29.6105  -23.2936   22.5168 H   0  0  0  0  0  0
  -29.0170  -15.2660   21.3026 H   0  0  0  0  0  0
  -30.7748  -21.5612   21.8268 H   0  0  0  0  0  0
  1 25  1  0  0  0
  1 30  2  0  0  0
  1 80  1  0  0  0
  2  3  1  0  0  0
  2 25  1  0  0  0
  2 84  1  0  0  0
  2 85  1  0  0  0
  3  4  1  0  0  0
  3 86  1  0  0  0
  3 87  1  0  0  0
  4  5  1  0  0  0
  4 88  1  0  0  0
  4 89  1  0  0  0
  5  6  1  0  0  0
  5 26  1  0  0  0
  5 90  1  0  0  0
  6 25  1  0  0  0
  6 91  1  0  0  0
  6 92  1  0  0  0
  7  8  2  0  0  0
  7 26  1  0  0  0
  7 29  1  0  0  0
  8  9  1  0  0  0
  8 22  1  0  0  0
  9 10  1  0  0  0
  9 27  2  0  0  0
 10 11  2  0  0  0
 10 15  1  0  0  0
 11 12  1  0  0  0
 11 93  1  0  0  0
 12 13  2  0  0  0
 12 94  1  0  0  0
 13 14  1  0  0  0
 13 31  1  0  0  0
 14 15  2  0  0  0
 14 95  1  0  0  0
 15 96  1  0  0  0
 16 17  2  0  0  0
 16 21  1  0  0  0
 16 31  1  0  0  0
 17 18  1  0  0  0
 17 97  1  0  0  0
 18 19  2  0  0  0
 18 98  1  0  0  0
 19 20  1  0  0  0
 19 24  1  0  0  0
 20 21  2  0  0  0
 20 99  1  0  0  0
 21 23  1  0  0  0
 22 28  1  0  0  0
 22 32  2  0  0  0
 26 27  1  0  0  0
 28100  1  0  0  0
 28101  1  0  0  0
 29102  1  0  0  0
 29103  1  0  0  0
 33 34  1  0  0  0
 33 66  1  0  0  0
 33 70  2  0  0  0
 34 36  1  0  0  0
 34 59  1  0  0  0
 34104  1  0  0  0
 35 44  2  0  0  0
 35 45  1  0  0  0
 35 68  1  0  0  0
 36 56  1  0  0  0
 36105  1  0  0  0
 37 39  1  0  0  0
 37 47  1  0  0  0
 37 66  1  0  0  0
 37106  1  0  0  0
 38 43  2  0  0  0
 38 46  1  0  0  0
 38 47  1  0  0  0
 39 64  1  0  0  0
 39 67  2  0  0  0
 40 52  1  0  0  0
 40 53  2  0  0  0
 40 58  1  0  0  0
 41107  1  0  0  0
 41108  1  0  0  0
 41109  1  0  0  0
 41 48  1  0  0  0
 42 43  1  0  0  0
 42 66  1  0  0  0
 42110  1  0  0  0
 42111  1  0  0  0
 43 44  1  0  0  0
 44112  1  0  0  0
 45 46  2  0  0  0
 45113  1  0  0  0
 46114  1  0  0  0
 47115  1  0  0  0
 47116  1  0  0  0
 48 56  1  0  0  0
 48 65  1  0  0  0
 48117  1  0  0  0
 49 50  1  0  0  0
 49 53  1  0  0  0
 49 64  1  0  0  0
 49118  1  0  0  0
 50 51  1  0  0  0
 50119  1  0  0  0
 50120  1  0  0  0
 51 52  1  0  0  0
 51121  1  0  0  0
 51122  1  0  0  0
 52123  1  0  0  0
 52124  1  0  0  0
 53 54  1  0  0  0
 54 55  2  0  0  0
 54125  1  0  0  0
 55 57  1  0  0  0
 55126  1  0  0  0
 56 69  2  0  0  0
 57 58  2  0  0  0
 57127  1  0  0  0
 58128  1  0  0  0
 59 60  1  0  0  0
 59 61  1  0  0  0
 59 62  1  0  0  0
 60129  1  0  0  0
 60130  1  0  0  0
 60131  1  0  0  0
 61132  1  0  0  0
 61133  1  0  0  0
 61134  1  0  0  0
 62135  1  0  0  0
 62136  1  0  0  0
 62137  1  0  0  0
 63 65  1  0  0  0
 63138  1  0  0  0
 63139  1  0  0  0
 63140  1  0  0  0
 64141  1  0  0  0
 65142  1  0  0  0
 68 77  1  0  0  0
 71 72  2  0  0  0
 71 79  1  0  0  0
 71143  1  0  0  0
 72 80  1  0  0  0
 72 83  1  0  0  0
 73 74  1  0  0  0
 73 79  2  0  0  0
 73 83  1  0  0  0
 74 81  1  0  0  0
 74 82  2  0  0  0
 75144  1  0  0  0
 75145  1  0  0  0
 75146  1  0  0  0
 75 78  1  0  0  0
 76 77  1  0  0  0
 76 78  1  0  0  0
 76147  1  0  0  0
 76148  1  0  0  0
 77149  1  0  0  0
 77150  1  0  0  0
 78 81  1  0  0  0
 78151  1  0  0  0
 80152  1  0  0  0
 81153  1  0  0  0
M  ISO  4   1 100  68 101  77 101  80 100
M  END
> <chiral flag>
0

> <version>
0

> <s_m_source_file>
/data/baiqing/PycharmProjects/Reinvent-master-3.2/result/LINK_invent/BTK/process_docking_weight1_custom_product_contain_oxygen_bond_distance_aromatic_linkinvent_7_9_3/rearranged_h_0198.sdf

> <i_m_source_file_index>
52

> <r_mmod_Potential_Energy-OPLS-2005>
-2.45039057731628

> <r_mmod_Stretch_Energy-OPLS-2005>
50.4120597839355

> <r_mmod_Bend_Energy-OPLS-2005>
110.931541442871

> <r_mmod_Torsional_Energy-OPLS-2005>
274.953979492188

> <r_mmod_Improper_Torsional_Energy-OPLS-2005>
6.37808847427368

> <r_mmod_Van_der_Waal_Energy-OPLS-2005>
132.120681762695

> <r_mmod_Electrostatic_Energy-OPLS-2005>
-363.701385498047

> <r_mmod_Solvation_Energy-OPLS-2005>
-233.834716796875

> <b_mmod_Minimization_Converged-OPLS-2005>
0

> <r_mmod_RMS_Derivative-OPLS-2005>
5.73771619796753

$$$$
52
                    3D
 Structure written by MMmdl.
158166  0  0  1  0            999 V2000
  -30.7390  -14.3718   20.6381 C   0  0  0  0  0  0
  -30.4236  -12.2646   19.3897 C   0  0  0  0  0  0
  -29.4854  -12.4950   18.1879 C   0  0  0  0  0  0
  -28.0043  -12.3813   18.6033 C   0  0  0  0  0  0
  -27.6700  -13.1946   19.8823 C   0  0  2  0  0  0
  -28.7109  -12.9087   20.9869 C   0  0  0  0  0  0
  -25.2617  -13.8136   20.5689 C   0  0  0  0  0  0
  -24.1851  -13.0436   20.9176 C   0  0  0  0  0  0
  -24.6379  -11.6898   20.8737 C   0  0  0  0  0  0
  -23.9045  -10.4293   21.0413 C   0  0  0  0  0  0
  -24.3597   -9.4212   21.9192 C   0  0  0  0  0  0
  -23.6281   -8.2242   22.0763 C   0  0  0  0  0  0
  -22.4260   -8.0278   21.3560 C   0  0  0  0  0  0
  -21.9905   -9.0233   20.4644 C   0  0  0  0  0  0
  -22.7227  -10.2117   20.3054 C   0  0  0  0  0  0
  -21.6840   -6.0744   22.5300 C   0  0  0  0  0  0
  -21.4000   -6.5640   23.8232 C   0  0  0  0  0  0
  -21.3655   -5.6784   24.9186 C   0  0  0  0  0  0
  -21.6055   -4.3053   24.7230 C   0  0  0  0  0  0
  -21.8811   -3.8160   23.4347 C   0  0  0  0  0  0
  -21.9176   -4.6983   22.3409 C   0  0  0  0  0  0
  -22.7859  -13.5257   21.1822 C   0  0  0  0  0  0
  -22.1645   -4.2178   21.0981 F   0  0  0  0  0  0
  -21.5642   -3.4527   25.7736 F   0  0  0  0  0  0
  -30.0541  -13.2127   20.4499 N   0  0  0  0  0  0
  -26.3066  -12.9291   20.3418 N   0  0  0  0  0  0
  -25.9310  -11.6467   20.5803 N   0  0  0  0  0  0
  -22.0449  -12.8247   22.0342 N   0  0  0  0  0  0
  -25.4375  -15.1852   20.4126 N   0  0  0  0  0  0
  -31.7817  -14.6460   20.0312 O   0  0  0  0  0  0
  -21.6628   -6.8879   21.4253 O   0  0  0  0  0  0
  -22.3571  -14.5577   20.6681 O   0  0  0  0  0  0
  -24.6157  -31.8682   23.2138 C   0  0  0  0  0  0
  -25.9049  -32.4826   23.8434 C   0  0  1  0  0  0
  -27.2360  -27.4282   20.0892 C   0  0  0  0  0  0
  -25.5926  -33.8628   24.2375 N   0  0  0  0  0  0
  -23.4053  -30.4943   21.5535 C   0  0  2  0  0  0
  -24.8509  -28.9648   20.1146 C   0  0  0  0  0  0
  -22.7426  -29.4657   22.4996 C   0  0  0  0  0  0
  -18.0268  -28.1366   22.8499 C   0  0  0  0  0  0
  -24.1475  -36.7268   23.2645 C   0  0  0  0  0  0
  -25.9356  -30.8325   21.3688 C   0  0  0  0  0  0
  -26.0131  -29.4678   20.7125 C   0  0  0  0  0  0
  -27.2069  -28.7078   20.6955 C   0  0  0  0  0  0
  -26.0489  -26.9456   19.4853 C   0  0  0  0  0  0
  -24.8656  -27.7042   19.4988 C   0  0  0  0  0  0
  -23.6146  -29.8336   20.1658 C   0  0  0  0  0  0
  -25.4103  -36.3109   24.0355 C   0  0  1  0  0  0
  -20.5867  -28.3643   23.1324 C   0  0  2  0  0  0
  -20.6750  -26.9372   22.5429 C   0  0  0  0  0  0
  -19.5727  -26.6377   21.5217 C   0  0  0  0  0  0
  -18.1908  -26.7924   22.1616 C   0  0  0  0  0  0
  -19.1521  -28.8820   23.2917 C   0  0  0  0  0  0
  -18.9440  -30.1430   23.8920 C   0  0  0  0  0  0
  -17.6438  -30.6568   24.0563 C   0  0  0  0  0  0
  -25.9034  -34.9476   23.5161 C   0  0  0  0  0  0
  -16.5332  -29.9063   23.6330 C   0  0  0  0  0  0
  -16.7258  -28.6485   23.0356 C   0  0  0  0  0  0
  -26.4491  -31.6581   25.0738 C   0  0  0  0  0  0
  -25.3775  -31.3596   26.1481 C   0  0  0  0  0  0
  -27.0344  -30.3053   24.6065 C   0  0  0  0  0  0
  -27.6077  -32.4288   25.7501 C   0  0  0  0  0  0
  -27.5574  -37.1808   24.8476 C   0  0  0  0  0  0
  -21.4150  -29.3026   22.3738 N   0  0  0  0  0  0
  -26.4284  -37.3800   23.9424 N   0  0  0  0  0  0
  -24.6707  -31.0787   22.1043 N   0  0  0  0  0  0
  -23.4194  -28.8182   23.3038 O   0  0  0  0  0  0
  -28.4088  -26.6912   20.1057 O   0  0  0  0  0  0
  -26.5587  -34.8919   22.4716 O   0  0  0  0  0  0
  -23.5342  -32.1441   23.7518 O   0  0  0  0  0  0
  -30.1050  -17.0931   23.0171 C   0  0  0  0  0  0
  -30.4432  -16.5438   21.8106 C   0  0  0  0  0  0
  -31.0650  -18.7021   21.4072 C   0  0  0  0  0  0
  -31.8140  -22.4467   19.0478 C   0  0  0  0  0  0
  -31.6651  -19.8816   20.6960 C   0  0  0  0  0  0
  -29.5848  -24.5052   20.2170 C   0  0  0  0  0  0
  -29.4798  -22.9847   19.9218 C   0  0  0  0  0  0
  -28.3066  -25.2827   19.8382 C   0  0  0  0  0  0
  -30.7860  -22.1785   20.1687 C   0  0  1  0  0  0
  -30.9610  -17.4684   20.8886 N   0  0  0  0  0  0
  -30.2089  -15.1712   21.5717 N   0  0  0  0  0  0
  -30.5059  -20.7221   20.3231 N   0  3  0  0  0  0
  -30.4798  -18.7935   23.0710 S   0  0  0  0  0  0
  -31.4661  -12.3622   19.0810 H   0  0  0  0  0  0
  -30.3304  -11.2415   19.7568 H   0  0  0  0  0  0
  -29.7022  -11.7672   17.4040 H   0  0  0  0  0  0
  -29.6733  -13.4784   17.7550 H   0  0  0  0  0  0
  -27.7843  -11.3256   18.7654 H   0  0  0  0  0  0
  -27.3588  -12.6956   17.7832 H   0  0  0  0  0  0
  -27.7358  -14.2523   19.6269 H   0  0  0  0  0  0
  -28.6717  -11.8544   21.2664 H   0  0  0  0  0  0
  -28.4644  -13.4469   21.9015 H   0  0  0  0  0  0
  -25.2730   -9.5704   22.4785 H   0  0  0  0  0  0
  -23.9999   -7.4627   22.7463 H   0  0  0  0  0  0
  -21.0854   -8.8708   19.8927 H   0  0  0  0  0  0
  -22.3671  -10.9635   19.6155 H   0  0  0  0  0  0
  -21.1991   -7.6143   23.9754 H   0  0  0  0  0  0
  -21.1490   -6.0508   25.9090 H   0  0  0  0  0  0
  -22.0608   -2.7629   23.2823 H   0  0  0  0  0  0
  -22.3957  -11.9857   22.4720 H   0  0  0  0  0  0
  -21.1074  -13.1317   22.2511 H   0  0  0  0  0  0
  -24.6770  -15.8459   20.5356 H   0  0  0  0  0  0
  -26.3055  -15.6270   20.1342 H   0  0  0  0  0  0
  -26.7119  -32.5538   23.1196 H   0  0  0  0  0  0
  -25.0156  -33.9798   25.0577 H   0  0  0  0  0  0
  -22.6953  -31.3125   21.4171 H   0  0  0  0  0  0
  -23.3769  -35.9562   23.3311 H   0  0  0  0  0  0
  -24.3576  -36.8876   22.2061 H   0  0  0  0  0  0
  -23.7160  -37.6452   23.6636 H   0  0  0  0  0  0
  -26.0517  -31.6021   20.6040 H   0  0  0  0  0  0
  -26.8211  -30.8832   21.9896 H   0  0  0  0  0  0
  -28.1037  -29.0956   21.1592 H   0  0  0  0  0  0
  -26.0101  -25.9865   18.9908 H   0  0  0  0  0  0
  -23.9740  -27.3124   19.0294 H   0  0  0  0  0  0
  -23.7254  -30.6134   19.4111 H   0  0  0  0  0  0
  -22.7377  -29.2570   19.8658 H   0  0  0  0  0  0
  -25.1277  -36.1996   25.0843 H   0  0  0  0  0  0
  -20.9968  -28.3179   24.1441 H   0  0  0  0  0  0
  -20.5623  -26.2243   23.3614 H   0  0  0  0  0  0
  -21.6613  -26.7391   22.1220 H   0  0  0  0  0  0
  -19.6875  -25.6294   21.1227 H   0  0  0  0  0  0
  -19.6685  -27.3212   20.6770 H   0  0  0  0  0  0
  -17.4193  -26.6721   21.3997 H   0  0  0  0  0  0
  -18.0265  -26.0038   22.8973 H   0  0  0  0  0  0
  -19.7910  -30.7256   24.2297 H   0  0  0  0  0  0
  -17.4975  -31.6264   24.5140 H   0  0  0  0  0  0
  -15.5325  -30.2963   23.7639 H   0  0  0  0  0  0
  -15.8659  -28.0803   22.7054 H   0  0  0  0  0  0
  -24.6023  -30.6867   25.7791 H   0  0  0  0  0  0
  -24.8870  -32.2689   26.4960 H   0  0  0  0  0  0
  -25.8166  -30.8764   27.0221 H   0  0  0  0  0  0
  -26.2879  -29.6799   24.1151 H   0  0  0  0  0  0
  -27.4211  -29.7285   25.4478 H   0  0  0  0  0  0
  -27.8666  -30.4427   23.9153 H   0  0  0  0  0  0
  -27.2735  -33.3613   26.2058 H   0  0  0  0  0  0
  -28.3900  -32.6801   25.0322 H   0  0  0  0  0  0
  -28.0724  -31.8411   26.5431 H   0  0  0  0  0  0
  -28.2592  -38.0111   24.7545 H   0  0  0  0  0  0
  -28.1081  -36.2649   24.6281 H   0  0  0  0  0  0
  -27.2301  -37.1421   25.8883 H   0  0  0  0  0  0
  -20.9288  -29.8787   21.6999 H   0  0  0  0  0  0
  -26.0179  -38.2876   24.1445 H   0  0  0  0  0  0
  -29.6841  -16.6022   23.8863 H   0  0  0  0  0  0
  -31.9806  -23.5132   18.9009 H   0  0  0  0  0  0
  -31.4767  -22.0442   18.0920 H   0  0  0  0  0  0
  -32.7874  -22.0108   19.2718 H   0  0  0  0  0  0
  -32.2311  -19.5611   19.8201 H   0  0  0  0  0  0
  -32.3432  -20.3961   21.3778 H   0  0  0  0  0  0
  -30.4314  -24.9366   19.6863 H   0  0  0  0  0  0
  -29.7845  -24.6472   21.2796 H   0  0  0  0  0  0
  -29.1680  -22.8380   18.8860 H   0  0  0  0  0  0
  -28.6709  -22.5783   20.5314 H   0  0  0  0  0  0
  -27.4735  -24.8606   20.4027 H   0  0  0  0  0  0
  -28.0971  -25.1295   18.7785 H   0  0  0  0  0  0
  -31.2127  -22.5194   21.1143 H   0  0  0  0  0  0
  -29.4772  -14.7447   22.1181 H   0  0  0  0  0  0
  -29.8285  -20.6048   21.0578 H   0  0  0  0  0  0
  -30.1044  -20.3385   19.4819 H   0  0  0  0  0  0
  1 25  1  0  0  0
  1 30  2  0  0  0
  1 81  1  0  0  0
  2  3  1  0  0  0
  2 25  1  0  0  0
  2 84  1  0  0  0
  2 85  1  0  0  0
  3  4  1  0  0  0
  3 86  1  0  0  0
  3 87  1  0  0  0
  4  5  1  0  0  0
  4 88  1  0  0  0
  4 89  1  0  0  0
  5  6  1  0  0  0
  5 26  1  0  0  0
  5 90  1  0  0  0
  6 25  1  0  0  0
  6 91  1  0  0  0
  6 92  1  0  0  0
  7  8  2  0  0  0
  7 26  1  0  0  0
  7 29  1  0  0  0
  8  9  1  0  0  0
  8 22  1  0  0  0
  9 10  1  0  0  0
  9 27  2  0  0  0
 10 11  2  0  0  0
 10 15  1  0  0  0
 11 12  1  0  0  0
 11 93  1  0  0  0
 12 13  2  0  0  0
 12 94  1  0  0  0
 13 14  1  0  0  0
 13 31  1  0  0  0
 14 15  2  0  0  0
 14 95  1  0  0  0
 15 96  1  0  0  0
 16 17  2  0  0  0
 16 21  1  0  0  0
 16 31  1  0  0  0
 17 18  1  0  0  0
 17 97  1  0  0  0
 18 19  2  0  0  0
 18 98  1  0  0  0
 19 20  1  0  0  0
 19 24  1  0  0  0
 20 21  2  0  0  0
 20 99  1  0  0  0
 21 23  1  0  0  0
 22 28  1  0  0  0
 22 32  2  0  0  0
 26 27  1  0  0  0
 28100  1  0  0  0
 28101  1  0  0  0
 29102  1  0  0  0
 29103  1  0  0  0
 33 34  1  0  0  0
 33 66  1  0  0  0
 33 70  2  0  0  0
 34 36  1  0  0  0
 34 59  1  0  0  0
 34104  1  0  0  0
 35 44  2  0  0  0
 35 45  1  0  0  0
 35 68  1  0  0  0
 36 56  1  0  0  0
 36105  1  0  0  0
 37 39  1  0  0  0
 37 47  1  0  0  0
 37 66  1  0  0  0
 37106  1  0  0  0
 38 43  2  0  0  0
 38 46  1  0  0  0
 38 47  1  0  0  0
 39 64  1  0  0  0
 39 67  2  0  0  0
 40 52  1  0  0  0
 40 53  2  0  0  0
 40 58  1  0  0  0
 41107  1  0  0  0
 41108  1  0  0  0
 41109  1  0  0  0
 41 48  1  0  0  0
 42 43  1  0  0  0
 42 66  1  0  0  0
 42110  1  0  0  0
 42111  1  0  0  0
 43 44  1  0  0  0
 44112  1  0  0  0
 45 46  2  0  0  0
 45113  1  0  0  0
 46114  1  0  0  0
 47115  1  0  0  0
 47116  1  0  0  0
 48 56  1  0  0  0
 48 65  1  0  0  0
 48117  1  0  0  0
 49 50  1  0  0  0
 49 53  1  0  0  0
 49 64  1  0  0  0
 49118  1  0  0  0
 50 51  1  0  0  0
 50119  1  0  0  0
 50120  1  0  0  0
 51 52  1  0  0  0
 51121  1  0  0  0
 51122  1  0  0  0
 52123  1  0  0  0
 52124  1  0  0  0
 53 54  1  0  0  0
 54 55  2  0  0  0
 54125  1  0  0  0
 55 57  1  0  0  0
 55126  1  0  0  0
 56 69  2  0  0  0
 57 58  2  0  0  0
 57127  1  0  0  0
 58128  1  0  0  0
 59 60  1  0  0  0
 59 61  1  0  0  0
 59 62  1  0  0  0
 60129  1  0  0  0
 60130  1  0  0  0
 60131  1  0  0  0
 61132  1  0  0  0
 61133  1  0  0  0
 61134  1  0  0  0
 62135  1  0  0  0
 62136  1  0  0  0
 62137  1  0  0  0
 63 65  1  0  0  0
 63138  1  0  0  0
 63139  1  0  0  0
 63140  1  0  0  0
 64141  1  0  0  0
 65142  1  0  0  0
 68 78  1  0  0  0
 71 72  2  0  0  0
 71 83  1  0  0  0
 71143  1  0  0  0
 72 80  1  0  0  0
 72 81  1  0  0  0
 73 75  1  0  0  0
 73 80  2  0  0  0
 73 83  1  0  0  0
 74144  1  0  0  0
 74145  1  0  0  0
 74146  1  0  0  0
 74 79  1  0  0  0
 75 82  1  0  0  0
 75147  1  0  0  0
 75148  1  0  0  0
 76 77  1  0  0  0
 76 78  1  0  0  0
 76149  1  0  0  0
 76150  1  0  0  0
 77 79  1  0  0  0
 77151  1  0  0  0
 77152  1  0  0  0
 78153  1  0  0  0
 78154  1  0  0  0
 79 82  1  0  0  0
 79155  1  0  0  0
 81156  1  0  0  0
 82157  1  0  0  0
 82158  1  0  0  0
M  CHG  1  82   1
M  ISO  4   1 100  68 101  78 101  81 100
M  END
> <chiral flag>
0

> <version>
0

> <s_m_source_file>
/data/baiqing/PycharmProjects/Reinvent-master-3.2/result/LINK_invent/BTK/process_docking_weight1_custom_product_contain_oxygen_bond_distance_aromatic_linkinvent_7_9_3/rearranged_h_0198.sdf

> <i_m_source_file_index>
53

> <r_mmod_Potential_Energy-OPLS-2005>
-343.450134277344

> <r_mmod_Stretch_Energy-OPLS-2005>
35.0476989746094

> <r_mmod_Bend_Energy-OPLS-2005>
100.288063049316

> <r_mmod_Torsional_Energy-OPLS-2005>
205.527969360352

> <r_mmod_Improper_Torsional_Energy-OPLS-2005>
2.14204072952271

> <r_mmod_Van_der_Waal_Energy-OPLS-2005>
134.570007324219

> <r_mmod_Electrostatic_Energy-OPLS-2005>
-343.97314453125

> <r_mmod_Solvation_Energy-OPLS-2005>
-486.1845703125

> <b_mmod_Minimization_Converged-OPLS-2005>
0

> <r_mmod_RMS_Derivative-OPLS-2005>
2.64648628234863

$$$$
53
                    3D
 Structure written by MMmdl.
151159  0  0  1  0            999 V2000
  -30.6247  -14.6583   20.4809 C   0  0  0  0  0  0
  -30.4383  -12.3983   19.4541 C   0  0  0  0  0  0
  -29.5086  -12.5018   18.2246 C   0  0  0  0  0  0
  -28.0318  -12.3394   18.6371 C   0  0  0  0  0  0
  -27.6512  -13.2173   19.8582 C   0  0  2  0  0  0
  -28.6981  -13.0917   20.9890 C   0  0  0  0  0  0
  -25.2559  -13.8175   20.5686 C   0  0  0  0  0  0
  -24.1826  -13.0439   20.9182 C   0  0  0  0  0  0
  -24.6396  -11.6909   20.8736 C   0  0  0  0  0  0
  -23.9063  -10.4292   21.0404 C   0  0  0  0  0  0
  -24.3614   -9.4207   21.9179 C   0  0  0  0  0  0
  -23.6287   -8.2247   22.0753 C   0  0  0  0  0  0
  -22.4269   -8.0285   21.3549 C   0  0  0  0  0  0
  -21.9902   -9.0257   20.4653 C   0  0  0  0  0  0
  -22.7235  -10.2134   20.3056 C   0  0  0  0  0  0
  -21.6854   -6.0733   22.5278 C   0  0  0  0  0  0
  -21.4017   -6.5637   23.8209 C   0  0  0  0  0  0
  -21.3660   -5.6791   24.9172 C   0  0  0  0  0  0
  -21.6044   -4.3053   24.7226 C   0  0  0  0  0  0
  -21.8819   -3.8144   23.4347 C   0  0  0  0  0  0
  -21.9193   -4.6960   22.3403 C   0  0  0  0  0  0
  -22.7850  -13.5234   21.1846 C   0  0  0  0  0  0
  -22.1661   -4.2148   21.0980 F   0  0  0  0  0  0
  -21.5626   -3.4539   25.7738 F   0  0  0  0  0  0
  -30.0115  -13.4313   20.4197 N   0  0  0  0  0  0
  -26.2984  -12.9355   20.3302 N   0  0  0  0  0  0
  -25.9323  -11.6511   20.5746 N   0  0  0  0  0  0
  -22.0487  -12.8238   22.0411 N   0  0  0  0  0  0
  -25.4267  -15.1904   20.4131 N   0  0  0  0  0  0
  -31.8062  -14.7831   20.1386 O   0  0  0  0  0  0
  -21.6640   -6.8878   21.4240 O   0  0  0  0  0  0
  -22.3539  -14.5540   20.6688 O   0  0  0  0  0  0
  -24.6272  -31.8596   23.2031 C   0  0  0  0  0  0
  -25.9118  -32.4778   23.8355 C   0  0  1  0  0  0
  -27.2221  -27.3137   20.1134 C   0  0  0  0  0  0
  -25.5928  -33.8578   24.2282 N   0  0  0  0  0  0
  -23.4206  -30.4851   21.5462 C   0  0  2  0  0  0
  -24.8663  -28.9426   20.1112 C   0  0  0  0  0  0
  -22.7476  -29.4626   22.4931 C   0  0  0  0  0  0
  -18.0289  -28.1381   22.8487 C   0  0  0  0  0  0
  -24.1489  -36.7298   23.2636 C   0  0  0  0  0  0
  -25.9636  -30.7889   21.3753 C   0  0  0  0  0  0
  -26.0375  -29.4173   20.7152 C   0  0  0  0  0  0
  -27.2190  -28.6157   20.7057 C   0  0  0  0  0  0
  -26.0242  -26.8972   19.4846 C   0  0  0  0  0  0
  -24.8618  -27.6880   19.4872 C   0  0  0  0  0  0
  -23.6350  -29.8232   20.1609 C   0  0  0  0  0  0
  -25.4111  -36.3082   24.0327 C   0  0  1  0  0  0
  -20.5888  -28.3686   23.1277 C   0  0  2  0  0  0
  -20.6780  -26.9408   22.5405 C   0  0  0  0  0  0
  -19.5752  -26.6379   21.5211 C   0  0  0  0  0  0
  -18.1934  -26.7922   22.1628 C   0  0  0  0  0  0
  -19.1540  -28.8852   23.2877 C   0  0  0  0  0  0
  -18.9463  -30.1455   23.8892 C   0  0  0  0  0  0
  -17.6462  -30.6583   24.0563 C   0  0  0  0  0  0
  -25.9051  -34.9450   23.5105 C   0  0  0  0  0  0
  -16.5354  -29.9080   23.6330 C   0  0  0  0  0  0
  -16.7275  -28.6499   23.0350 C   0  0  0  0  0  0
  -26.4496  -31.6585   25.0726 C   0  0  0  0  0  0
  -25.3733  -31.3732   26.1458 C   0  0  0  0  0  0
  -27.0334  -30.3006   24.6184 C   0  0  0  0  0  0
  -27.6059  -32.4317   25.7493 C   0  0  0  0  0  0
  -27.5580  -37.1799   24.8459 C   0  0  0  0  0  0
  -21.4188  -29.3042   22.3673 N   0  0  0  0  0  0
  -26.4290  -37.3777   23.9409 N   0  0  0  0  0  0
  -24.6896  -31.0606   22.0985 N   0  0  0  0  0  0
  -23.4199  -28.8156   23.3004 O   0  0  0  0  0  0
  -28.3319  -26.4496   20.1623 O   0  0  0  0  0  0
  -26.5619  -34.8919   22.4671 O   0  0  0  0  0  0
  -23.5435  -32.1394   23.7359 O   0  0  0  0  0  0
  -28.6768  -19.1327   20.4914 C   0  0  0  0  0  0
  -29.8415  -19.9354   20.5183 C   0  0  0  0  0  0
  -31.0197  -19.1435   20.6051 C   0  0  0  0  0  0
  -29.8719  -17.1291   20.6298 C   0  0  0  0  0  0
  -28.7941  -22.3682   20.3026 C   0  0  0  0  0  0
  -28.0557  -24.9894   20.1178 C   0  0  0  0  0  0
  -29.1996  -23.9192   20.4179 C   0  0  1  0  0  0
  -28.6997  -17.7689   20.5579 N   0  0  0  0  0  0
  -31.0327  -17.7822   20.6565 N   0  0  0  0  0  0
  -29.9063  -21.3805   20.4865 N   0  0  0  0  0  0
  -29.7925  -15.7227   20.7355 N   0  0  0  0  0  0
  -29.6023  -24.1045   21.7634 O   0  0  0  0  0  0
  -32.2176  -19.7774   20.6446 F   0  0  0  0  0  0
  -31.4799  -12.5182   19.1508 H   0  0  0  0  0  0
  -30.3712  -11.4075   19.9059 H   0  0  0  0  0  0
  -29.7744  -11.7436   17.4868 H   0  0  0  0  0  0
  -29.6498  -13.4664   17.7348 H   0  0  0  0  0  0
  -27.8714  -11.2869   18.8747 H   0  0  0  0  0  0
  -27.3781  -12.5629   17.7932 H   0  0  0  0  0  0
  -27.6610  -14.2477   19.5030 H   0  0  0  0  0  0
  -28.7127  -12.0759   21.3871 H   0  0  0  0  0  0
  -28.4443  -13.7379   21.8310 H   0  0  0  0  0  0
  -25.2757   -9.5679   22.4754 H   0  0  0  0  0  0
  -23.9998   -7.4636   22.7470 H   0  0  0  0  0  0
  -21.0833   -8.8774   19.8961 H   0  0  0  0  0  0
  -22.3690  -10.9669   19.6168 H   0  0  0  0  0  0
  -21.2012   -7.6145   23.9712 H   0  0  0  0  0  0
  -21.1481   -6.0521   25.9072 H   0  0  0  0  0  0
  -22.0599   -2.7606   23.2850 H   0  0  0  0  0  0
  -22.4099  -11.9904   22.4811 H   0  0  0  0  0  0
  -21.1108  -13.1272   22.2611 H   0  0  0  0  0  0
  -24.6569  -15.8404   20.5307 H   0  0  0  0  0  0
  -26.2749  -15.6426   20.0952 H   0  0  0  0  0  0
  -26.7181  -32.5444   23.1098 H   0  0  0  0  0  0
  -25.0066  -33.9720   25.0420 H   0  0  0  0  0  0
  -22.7148  -31.3064   21.4046 H   0  0  0  0  0  0
  -23.3749  -35.9631   23.3294 H   0  0  0  0  0  0
  -24.3585  -36.8931   22.2052 H   0  0  0  0  0  0
  -23.7248  -37.6499   23.6667 H   0  0  0  0  0  0
  -26.0968  -31.5532   20.6086 H   0  0  0  0  0  0
  -26.8438  -30.8358   22.0049 H   0  0  0  0  0  0
  -28.1158  -28.9754   21.1903 H   0  0  0  0  0  0
  -25.9492  -25.9421   18.9887 H   0  0  0  0  0  0
  -23.9648  -27.3189   19.0091 H   0  0  0  0  0  0
  -23.7549  -30.6009   19.4057 H   0  0  0  0  0  0
  -22.7544  -29.2538   19.8579 H   0  0  0  0  0  0
  -25.1286  -36.1936   25.0819 H   0  0  0  0  0  0
  -20.9984  -28.3265   24.1396 H   0  0  0  0  0  0
  -20.5685  -26.2291   23.3602 H   0  0  0  0  0  0
  -21.6649  -26.7438   22.1198 H   0  0  0  0  0  0
  -19.6914  -25.6291   21.1241 H   0  0  0  0  0  0
  -19.6687  -27.3187   20.6739 H   0  0  0  0  0  0
  -17.4198  -26.6662   21.4039 H   0  0  0  0  0  0
  -18.0339  -26.0065   22.9027 H   0  0  0  0  0  0
  -19.7939  -30.7276   24.2253 H   0  0  0  0  0  0
  -17.5016  -31.6264   24.5161 H   0  0  0  0  0  0
  -15.5355  -30.2981   23.7655 H   0  0  0  0  0  0
  -15.8675  -28.0819   22.7062 H   0  0  0  0  0  0
  -24.5861  -30.7140   25.7781 H   0  0  0  0  0  0
  -24.8984  -32.2909   26.4938 H   0  0  0  0  0  0
  -25.8047  -30.8846   27.0202 H   0  0  0  0  0  0
  -26.2905  -29.6757   24.1213 H   0  0  0  0  0  0
  -27.4032  -29.7264   25.4690 H   0  0  0  0  0  0
  -27.8777  -30.4287   23.9408 H   0  0  0  0  0  0
  -27.2668  -33.3606   26.2087 H   0  0  0  0  0  0
  -28.3859  -32.6893   25.0316 H   0  0  0  0  0  0
  -28.0737  -31.8434   26.5397 H   0  0  0  0  0  0
  -28.2586  -38.0108   24.7522 H   0  0  0  0  0  0
  -28.1090  -36.2643   24.6259 H   0  0  0  0  0  0
  -27.2302  -37.1419   25.8863 H   0  0  0  0  0  0
  -20.9358  -29.8776   21.6897 H   0  0  0  0  0  0
  -26.0171  -38.2849   24.1420 H   0  0  0  0  0  0
  -27.6991  -19.5877   20.4318 H   0  0  0  0  0  0
  -28.3589  -22.2008   19.3156 H   0  0  0  0  0  0
  -27.9992  -22.1491   21.0179 H   0  0  0  0  0  0
  -27.2133  -24.7742   20.7783 H   0  0  0  0  0  0
  -27.7166  -24.7602   19.1073 H   0  0  0  0  0  0
  -30.0435  -24.1236   19.7569 H   0  0  0  0  0  0
  -30.8225  -21.7953   20.6532 H   0  0  0  0  0  0
  -28.8583  -15.4144   20.9374 H   0  0  0  0  0  0
  -29.8385  -25.0233   21.8559 H   0  0  0  0  0  0
  1 25  1  0  0  0
  1 30  2  0  0  0
  1 81  1  0  0  0
  2  3  1  0  0  0
  2 25  1  0  0  0
  2 84  1  0  0  0
  2 85  1  0  0  0
  3  4  1  0  0  0
  3 86  1  0  0  0
  3 87  1  0  0  0
  4  5  1  0  0  0
  4 88  1  0  0  0
  4 89  1  0  0  0
  5  6  1  0  0  0
  5 26  1  0  0  0
  5 90  1  0  0  0
  6 25  1  0  0  0
  6 91  1  0  0  0
  6 92  1  0  0  0
  7  8  2  0  0  0
  7 26  1  0  0  0
  7 29  1  0  0  0
  8  9  1  0  0  0
  8 22  1  0  0  0
  9 10  1  0  0  0
  9 27  2  0  0  0
 10 11  2  0  0  0
 10 15  1  0  0  0
 11 12  1  0  0  0
 11 93  1  0  0  0
 12 13  2  0  0  0
 12 94  1  0  0  0
 13 14  1  0  0  0
 13 31  1  0  0  0
 14 15  2  0  0  0
 14 95  1  0  0  0
 15 96  1  0  0  0
 16 17  2  0  0  0
 16 21  1  0  0  0
 16 31  1  0  0  0
 17 18  1  0  0  0
 17 97  1  0  0  0
 18 19  2  0  0  0
 18 98  1  0  0  0
 19 20  1  0  0  0
 19 24  1  0  0  0
 20 21  2  0  0  0
 20 99  1  0  0  0
 21 23  1  0  0  0
 22 28  1  0  0  0
 22 32  2  0  0  0
 26 27  1  0  0  0
 28100  1  0  0  0
 28101  1  0  0  0
 29102  1  0  0  0
 29103  1  0  0  0
 33 34  1  0  0  0
 33 66  1  0  0  0
 33 70  2  0  0  0
 34 36  1  0  0  0
 34 59  1  0  0  0
 34104  1  0  0  0
 35 44  2  0  0  0
 35 45  1  0  0  0
 35 68  1  0  0  0
 36 56  1  0  0  0
 36105  1  0  0  0
 37 39  1  0  0  0
 37 47  1  0  0  0
 37 66  1  0  0  0
 37106  1  0  0  0
 38 43  2  0  0  0
 38 46  1  0  0  0
 38 47  1  0  0  0
 39 64  1  0  0  0
 39 67  2  0  0  0
 40 52  1  0  0  0
 40 53  2  0  0  0
 40 58  1  0  0  0
 41107  1  0  0  0
 41108  1  0  0  0
 41109  1  0  0  0
 41 48  1  0  0  0
 42 43  1  0  0  0
 42 66  1  0  0  0
 42110  1  0  0  0
 42111  1  0  0  0
 43 44  1  0  0  0
 44112  1  0  0  0
 45 46  2  0  0  0
 45113  1  0  0  0
 46114  1  0  0  0
 47115  1  0  0  0
 47116  1  0  0  0
 48 56  1  0  0  0
 48 65  1  0  0  0
 48117  1  0  0  0
 49 50  1  0  0  0
 49 53  1  0  0  0
 49 64  1  0  0  0
 49118  1  0  0  0
 50 51  1  0  0  0
 50119  1  0  0  0
 50120  1  0  0  0
 51 52  1  0  0  0
 51121  1  0  0  0
 51122  1  0  0  0
 52123  1  0  0  0
 52124  1  0  0  0
 53 54  1  0  0  0
 54 55  2  0  0  0
 54125  1  0  0  0
 55 57  1  0  0  0
 55126  1  0  0  0
 56 69  2  0  0  0
 57 58  2  0  0  0
 57127  1  0  0  0
 58128  1  0  0  0
 59 60  1  0  0  0
 59 61  1  0  0  0
 59 62  1  0  0  0
 60129  1  0  0  0
 60130  1  0  0  0
 60131  1  0  0  0
 61132  1  0  0  0
 61133  1  0  0  0
 61134  1  0  0  0
 62135  1  0  0  0
 62136  1  0  0  0
 62137  1  0  0  0
 63 65  1  0  0  0
 63138  1  0  0  0
 63139  1  0  0  0
 63140  1  0  0  0
 64141  1  0  0  0
 65142  1  0  0  0
 68 76  1  0  0  0
 71 72  2  0  0  0
 71 78  1  0  0  0
 71143  1  0  0  0
 72 73  1  0  0  0
 72 80  1  0  0  0
 73 79  2  0  0  0
 73 83  1  0  0  0
 74 78  2  0  0  0
 74 79  1  0  0  0
 74 81  1  0  0  0
 75 77  1  0  0  0
 75 80  1  0  0  0
 75144  1  0  0  0
 75145  1  0  0  0
 76 77  1  0  0  0
 76146  1  0  0  0
 76147  1  0  0  0
 77 82  1  0  0  0
 77148  1  0  0  0
 80149  1  0  0  0
 81150  1  0  0  0
 82151  1  0  0  0
M  ISO  4   1 100  68 101  76 101  81 100
M  END
> <chiral flag>
0

> <version>
0

> <s_m_source_file>
/data/baiqing/PycharmProjects/Reinvent-master-3.2/result/LINK_invent/BTK/process_docking_weight1_custom_product_contain_oxygen_bond_distance_aromatic_linkinvent_7_9_3/rearranged_h_0198.sdf

> <i_m_source_file_index>
54

> <r_mmod_Potential_Energy-OPLS-2005>
-252.330749511719

> <r_mmod_Stretch_Energy-OPLS-2005>
80.7185211181641

> <r_mmod_Bend_Energy-OPLS-2005>
162.457626342773

> <r_mmod_Torsional_Energy-OPLS-2005>
226.42658996582

> <r_mmod_Improper_Torsional_Energy-OPLS-2005>
4.94282627105713

> <r_mmod_Van_der_Waal_Energy-OPLS-2005>
150.388885498047

> <r_mmod_Electrostatic_Energy-OPLS-2005>
-680.117065429688

> <r_mmod_Solvation_Energy-OPLS-2005>
-250.830581665039

> <b_mmod_Minimization_Converged-OPLS-2005>
0

> <r_mmod_RMS_Derivative-OPLS-2005>
0.696022748947144

$$$$
54
                    3D
 Structure written by MMmdl.
150158  0  0  1  0            999 V2000
  -30.6271  -14.7830   20.4103 C   0  0  0  0  0  0
  -30.4352  -12.4604   19.4731 C   0  0  0  0  0  0
  -29.5054  -12.4925   18.2396 C   0  0  0  0  0  0
  -28.0364  -12.3232   18.6723 C   0  0  0  0  0  0
  -27.6490  -13.2434   19.8578 C   0  0  2  0  0  0
  -28.7073  -13.2226   20.9894 C   0  0  0  0  0  0
  -25.2514  -13.8234   20.5787 C   0  0  0  0  0  0
  -24.1845  -13.0460   20.9225 C   0  0  0  0  0  0
  -24.6450  -11.6908   20.8739 C   0  0  0  0  0  0
  -23.9127  -10.4294   21.0356 C   0  0  0  0  0  0
  -24.3676   -9.4176   21.9130 C   0  0  0  0  0  0
  -23.6331   -8.2199   22.0696 C   0  0  0  0  0  0
  -22.4305   -8.0290   21.3507 C   0  0  0  0  0  0
  -21.9961   -9.0226   20.4592 C   0  0  0  0  0  0
  -22.7271  -10.2105   20.2990 C   0  0  0  0  0  0
  -21.6867   -6.0732   22.5224 C   0  0  0  0  0  0
  -21.4008   -6.5619   23.8182 C   0  0  0  0  0  0
  -21.3682   -5.6775   24.9135 C   0  0  0  0  0  0
  -21.6052   -4.3042   24.7184 C   0  0  0  0  0  0
  -21.8839   -3.8129   23.4309 C   0  0  0  0  0  0
  -21.9195   -4.6936   22.3367 C   0  0  0  0  0  0
  -22.7830  -13.5136   21.1910 C   0  0  0  0  0  0
  -22.1669   -4.2142   21.0931 F   0  0  0  0  0  0
  -21.5655   -3.4515   25.7692 F   0  0  0  0  0  0
  -30.0109  -13.5474   20.3928 N   0  0  0  0  0  0
  -26.3032  -12.9490   20.3417 N   0  0  0  0  0  0
  -25.9413  -11.6638   20.5841 N   0  0  0  0  0  0
  -22.0624  -12.8013   22.0478 N   0  0  0  0  0  0
  -25.4201  -15.1969   20.4154 N   0  0  0  0  0  0
  -31.7897  -14.8789   19.9988 O   0  0  0  0  0  0
  -21.6666   -6.8848   21.4217 O   0  0  0  0  0  0
  -22.3420  -14.5435   20.6768 O   0  0  0  0  0  0
  -24.6319  -31.8527   23.1919 C   0  0  0  0  0  0
  -25.9094  -32.4754   23.8265 C   0  0  1  0  0  0
  -27.2100  -27.2210   20.1659 C   0  0  0  0  0  0
  -25.5918  -33.8529   24.2252 N   0  0  0  0  0  0
  -23.4357  -30.4751   21.5354 C   0  0  2  0  0  0
  -24.8839  -28.9212   20.1030 C   0  0  0  0  0  0
  -22.7528  -29.4596   22.4855 C   0  0  0  0  0  0
  -18.0337  -28.1421   22.8478 C   0  0  0  0  0  0
  -24.1505  -36.7242   23.2649 C   0  0  0  0  0  0
  -25.9848  -30.7554   21.3806 C   0  0  0  0  0  0
  -26.0518  -29.3755   20.7270 C   0  0  0  0  0  0
  -27.2152  -28.5380   20.7433 C   0  0  0  0  0  0
  -26.0267  -26.8542   19.4795 C   0  0  0  0  0  0
  -24.8810  -27.6726   19.4624 C   0  0  0  0  0  0
  -23.6541  -29.8075   20.1497 C   0  0  0  0  0  0
  -25.4142  -36.3051   24.0344 C   0  0  1  0  0  0
  -20.5940  -28.3698   23.1272 C   0  0  2  0  0  0
  -20.6831  -26.9415   22.5422 C   0  0  0  0  0  0
  -19.5795  -26.6399   21.5232 C   0  0  0  0  0  0
  -18.1971  -26.7968   22.1628 C   0  0  0  0  0  0
  -19.1583  -28.8867   23.2896 C   0  0  0  0  0  0
  -18.9503  -30.1470   23.8916 C   0  0  0  0  0  0
  -17.6486  -30.6602   24.0555 C   0  0  0  0  0  0
  -25.9070  -34.9419   23.5115 C   0  0  0  0  0  0
  -16.5380  -29.9096   23.6318 C   0  0  0  0  0  0
  -16.7322  -28.6513   23.0344 C   0  0  0  0  0  0
  -26.4466  -31.6588   25.0631 C   0  0  0  0  0  0
  -25.3657  -31.3750   26.1325 C   0  0  0  0  0  0
  -27.0356  -30.3033   24.6107 C   0  0  0  0  0  0
  -27.6064  -32.4297   25.7388 C   0  0  0  0  0  0
  -27.5613  -37.1765   24.8469 C   0  0  0  0  0  0
  -21.4239  -29.3039   22.3615 N   0  0  0  0  0  0
  -26.4321  -37.3769   23.9418 N   0  0  0  0  0  0
  -24.7050  -31.0467   22.0919 N   0  0  0  0  0  0
  -23.4193  -28.8115   23.2975 O   0  0  0  0  0  0
  -28.2810  -26.2935   20.2985 O   0  0  0  0  0  0
  -26.5631  -34.8903   22.4682 O   0  0  0  0  0  0
  -23.5449  -32.1330   23.7189 O   0  0  0  0  0  0
  -29.9371  -17.3159   20.3507 C   0  0  0  0  0  0
  -29.5435  -19.5840   20.4591 C   0  0  0  0  0  0
  -27.2342  -21.7231   19.8500 C   0  0  0  0  0  0
  -28.8246  -23.5867   20.8395 C   0  0  0  0  0  0
  -28.0468  -24.8069   20.0866 C   0  0  0  0  0  0
  -28.7093  -22.0635   20.2430 C   0  0  1  0  0  0
  -29.6743  -18.4134   21.1543 N   0  0  0  0  0  0
  -30.0675  -17.5932   19.0368 N   0  0  0  0  0  0
  -29.9096  -15.9043   20.8086 N   0  0  0  0  0  0
  -29.3145  -20.9013   21.0208 N   0  0  0  0  0  0
  -29.7639  -19.2531   18.7504 S   0  0  0  0  0  0
  -31.4765  -12.5532   19.1602 H   0  0  0  0  0  0
  -30.3620  -11.4922   19.9706 H   0  0  0  0  0  0
  -29.7727  -11.7060   17.5289 H   0  0  0  0  0  0
  -29.6275  -13.4356   17.7059 H   0  0  0  0  0  0
  -27.9000  -11.2797   18.9657 H   0  0  0  0  0  0
  -27.3631  -12.4879   17.8283 H   0  0  0  0  0  0
  -27.6262  -14.2518   19.4454 H   0  0  0  0  0  0
  -28.7549  -12.2570   21.4903 H   0  0  0  0  0  0
  -28.4625  -13.9550   21.7572 H   0  0  0  0  0  0
  -25.2848   -9.5644   22.4679 H   0  0  0  0  0  0
  -24.0066   -7.4581   22.7386 H   0  0  0  0  0  0
  -21.0918   -8.8709   19.8877 H   0  0  0  0  0  0
  -22.3742  -10.9626   19.6086 H   0  0  0  0  0  0
  -21.1995   -7.6119   23.9670 H   0  0  0  0  0  0
  -21.1517   -6.0491   25.9035 H   0  0  0  0  0  0
  -22.0624   -2.7593   23.2780 H   0  0  0  0  0  0
  -22.4413  -11.9658   22.4717 H   0  0  0  0  0  0
  -21.1228  -13.0816   22.2833 H   0  0  0  0  0  0
  -24.6518  -15.8555   20.5002 H   0  0  0  0  0  0
  -26.2738  -15.6355   20.0945 H   0  0  0  0  0  0
  -26.7116  -32.5373   23.0962 H   0  0  0  0  0  0
  -25.0022  -33.9692   25.0356 H   0  0  0  0  0  0
  -22.7361  -31.3032   21.3829 H   0  0  0  0  0  0
  -23.3792  -35.9544   23.3294 H   0  0  0  0  0  0
  -24.3604  -36.8862   22.2066 H   0  0  0  0  0  0
  -23.7211  -37.6439   23.6650 H   0  0  0  0  0  0
  -26.1321  -31.5106   20.6079 H   0  0  0  0  0  0
  -26.8601  -30.8034   22.0156 H   0  0  0  0  0  0
  -28.1025  -28.8649   21.2641 H   0  0  0  0  0  0
  -25.9450  -25.9025   18.9764 H   0  0  0  0  0  0
  -23.9919  -27.3293   18.9528 H   0  0  0  0  0  0
  -23.7745  -30.5819   19.3901 H   0  0  0  0  0  0
  -22.7726  -29.2421   19.8431 H   0  0  0  0  0  0
  -25.1337  -36.1914   25.0845 H   0  0  0  0  0  0
  -21.0085  -28.3263   24.1371 H   0  0  0  0  0  0
  -20.5780  -26.2302   23.3626 H   0  0  0  0  0  0
  -21.6689  -26.7476   22.1174 H   0  0  0  0  0  0
  -19.6947  -25.6317   21.1253 H   0  0  0  0  0  0
  -19.6732  -27.3204   20.6753 H   0  0  0  0  0  0
  -17.4279  -26.6727   21.4015 H   0  0  0  0  0  0
  -18.0320  -26.0160   22.9048 H   0  0  0  0  0  0
  -19.7972  -30.7288   24.2302 H   0  0  0  0  0  0
  -17.5039  -31.6265   24.5153 H   0  0  0  0  0  0
  -15.5395  -30.2975   23.7662 H   0  0  0  0  0  0
  -15.8732  -28.0819   22.7065 H   0  0  0  0  0  0
  -24.5832  -30.7152   25.7562 H   0  0  0  0  0  0
  -24.8843  -32.2968   26.4649 H   0  0  0  0  0  0
  -25.7888  -30.8924   27.0154 H   0  0  0  0  0  0
  -26.2957  -29.6742   24.1157 H   0  0  0  0  0  0
  -27.4182  -29.7305   25.4571 H   0  0  0  0  0  0
  -27.8753  -30.4396   23.9266 H   0  0  0  0  0  0
  -27.2751  -33.3661   26.1894 H   0  0  0  0  0  0
  -28.3895  -32.6756   25.0188 H   0  0  0  0  0  0
  -28.0697  -31.8433   26.5357 H   0  0  0  0  0  0
  -28.2601  -38.0092   24.7600 H   0  0  0  0  0  0
  -28.1167  -36.2639   24.6231 H   0  0  0  0  0  0
  -27.2326  -37.1315   25.8868 H   0  0  0  0  0  0
  -20.9398  -29.8721   21.6779 H   0  0  0  0  0  0
  -26.0200  -38.2854   24.1426 H   0  0  0  0  0  0
  -26.8704  -22.3089   19.0044 H   0  0  0  0  0  0
  -26.5274  -21.8921   20.6599 H   0  0  0  0  0  0
  -27.1030  -20.6848   19.5455 H   0  0  0  0  0  0
  -28.4891  -23.5564   21.8786 H   0  0  0  0  0  0
  -29.8821  -23.8413   20.9131 H   0  0  0  0  0  0
  -27.0027  -24.5870   20.3033 H   0  0  0  0  0  0
  -28.1751  -24.6386   19.0199 H   0  0  0  0  0  0
  -29.2875  -22.0869   19.3157 H   0  0  0  0  0  0
  -29.0921  -15.6799   21.3564 H   0  0  0  0  0  0
  -29.7299  -21.0839   21.9386 H   0  0  0  0  0  0
  1 25  1  0  0  0
  1 30  2  0  0  0
  1 79  1  0  0  0
  2  3  1  0  0  0
  2 25  1  0  0  0
  2 82  1  0  0  0
  2 83  1  0  0  0
  3  4  1  0  0  0
  3 84  1  0  0  0
  3 85  1  0  0  0
  4  5  1  0  0  0
  4 86  1  0  0  0
  4 87  1  0  0  0
  5  6  1  0  0  0
  5 26  1  0  0  0
  5 88  1  0  0  0
  6 25  1  0  0  0
  6 89  1  0  0  0
  6 90  1  0  0  0
  7  8  2  0  0  0
  7 26  1  0  0  0
  7 29  1  0  0  0
  8  9  1  0  0  0
  8 22  1  0  0  0
  9 10  1  0  0  0
  9 27  2  0  0  0
 10 11  2  0  0  0
 10 15  1  0  0  0
 11 12  1  0  0  0
 11 91  1  0  0  0
 12 13  2  0  0  0
 12 92  1  0  0  0
 13 14  1  0  0  0
 13 31  1  0  0  0
 14 15  2  0  0  0
 14 93  1  0  0  0
 15 94  1  0  0  0
 16 17  2  0  0  0
 16 21  1  0  0  0
 16 31  1  0  0  0
 17 18  1  0  0  0
 17 95  1  0  0  0
 18 19  2  0  0  0
 18 96  1  0  0  0
 19 20  1  0  0  0
 19 24  1  0  0  0
 20 21  2  0  0  0
 20 97  1  0  0  0
 21 23  1  0  0  0
 22 28  1  0  0  0
 22 32  2  0  0  0
 26 27  1  0  0  0
 28 98  1  0  0  0
 28 99  1  0  0  0
 29100  1  0  0  0
 29101  1  0  0  0
 33 34  1  0  0  0
 33 66  1  0  0  0
 33 70  2  0  0  0
 34 36  1  0  0  0
 34 59  1  0  0  0
 34102  1  0  0  0
 35 44  2  0  0  0
 35 45  1  0  0  0
 35 68  1  0  0  0
 36 56  1  0  0  0
 36103  1  0  0  0
 37 39  1  0  0  0
 37 47  1  0  0  0
 37 66  1  0  0  0
 37104  1  0  0  0
 38 43  2  0  0  0
 38 46  1  0  0  0
 38 47  1  0  0  0
 39 64  1  0  0  0
 39 67  2  0  0  0
 40 52  1  0  0  0
 40 53  2  0  0  0
 40 58  1  0  0  0
 41105  1  0  0  0
 41106  1  0  0  0
 41107  1  0  0  0
 41 48  1  0  0  0
 42 43  1  0  0  0
 42 66  1  0  0  0
 42108  1  0  0  0
 42109  1  0  0  0
 43 44  1  0  0  0
 44110  1  0  0  0
 45 46  2  0  0  0
 45111  1  0  0  0
 46112  1  0  0  0
 47113  1  0  0  0
 47114  1  0  0  0
 48 56  1  0  0  0
 48 65  1  0  0  0
 48115  1  0  0  0
 49 50  1  0  0  0
 49 53  1  0  0  0
 49 64  1  0  0  0
 49116  1  0  0  0
 50 51  1  0  0  0
 50117  1  0  0  0
 50118  1  0  0  0
 51 52  1  0  0  0
 51119  1  0  0  0
 51120  1  0  0  0
 52121  1  0  0  0
 52122  1  0  0  0
 53 54  1  0  0  0
 54 55  2  0  0  0
 54123  1  0  0  0
 55 57  1  0  0  0
 55124  1  0  0  0
 56 69  2  0  0  0
 57 58  2  0  0  0
 57125  1  0  0  0
 58126  1  0  0  0
 59 60  1  0  0  0
 59 61  1  0  0  0
 59 62  1  0  0  0
 60127  1  0  0  0
 60128  1  0  0  0
 60129  1  0  0  0
 61130  1  0  0  0
 61131  1  0  0  0
 61132  1  0  0  0
 62133  1  0  0  0
 62134  1  0  0  0
 62135  1  0  0  0
 63 65  1  0  0  0
 63136  1  0  0  0
 63137  1  0  0  0
 63138  1  0  0  0
 64139  1  0  0  0
 65140  1  0  0  0
 68 75  1  0  0  0
 71 77  1  0  0  0
 71 78  2  0  0  0
 71 79  1  0  0  0
 72 77  2  0  0  0
 72 80  1  0  0  0
 72 81  1  0  0  0
 73141  1  0  0  0
 73142  1  0  0  0
 73143  1  0  0  0
 73 76  1  0  0  0
 74 75  1  0  0  0
 74 76  1  0  0  0
 74144  1  0  0  0
 74145  1  0  0  0
 75146  1  0  0  0
 75147  1  0  0  0
 76 80  1  0  0  0
 76148  1  0  0  0
 78 81  1  0  0  0
 79149  1  0  0  0
 80150  1  0  0  0
M  ISO  4   1 100  68 101  75 101  79 100
M  END
> <chiral flag>
0

> <version>
0

> <s_m_source_file>
/data/baiqing/PycharmProjects/Reinvent-master-3.2/result/LINK_invent/BTK/process_docking_weight1_custom_product_contain_oxygen_bond_distance_aromatic_linkinvent_7_9_3/rearranged_h_0198.sdf

> <i_m_source_file_index>
55

> <r_mmod_Potential_Energy-OPLS-2005>
151.515747070312

> <r_mmod_Stretch_Energy-OPLS-2005>
131.855026245117

> <r_mmod_Bend_Energy-OPLS-2005>
184.541778564453

> <r_mmod_Torsional_Energy-OPLS-2005>
231.0771484375

> <r_mmod_Improper_Torsional_Energy-OPLS-2005>
4.08847808837891

> <r_mmod_Van_der_Waal_Energy-OPLS-2005>
118.481231689453

> <r_mmod_Electrostatic_Energy-OPLS-2005>
-403.954986572266

> <r_mmod_Solvation_Energy-OPLS-2005>
-229.068099975586

> <b_mmod_Minimization_Converged-OPLS-2005>
0

> <r_mmod_RMS_Derivative-OPLS-2005>
10.8927021026611

$$$$
55
                    3D
 Structure written by MMmdl.
154162  0  0  1  0            999 V2000
  -30.5683  -14.6570   20.4986 C   0  0  0  0  0  0
  -30.4437  -12.3983   19.4527 C   0  0  0  0  0  0
  -29.5145  -12.5164   18.2221 C   0  0  0  0  0  0
  -28.0353  -12.3430   18.6288 C   0  0  0  0  0  0
  -27.6510  -13.2077   19.8585 C   0  0  2  0  0  0
  -28.6912  -13.0439   20.9905 C   0  0  0  0  0  0
  -25.2550  -13.8145   20.5655 C   0  0  0  0  0  0
  -24.1815  -13.0428   20.9188 C   0  0  0  0  0  0
  -24.6370  -11.6896   20.8724 C   0  0  0  0  0  0
  -23.9047  -10.4286   21.0403 C   0  0  0  0  0  0
  -24.3604   -9.4215   21.9184 C   0  0  0  0  0  0
  -23.6300   -8.2237   22.0758 C   0  0  0  0  0  0
  -22.4284   -8.0271   21.3551 C   0  0  0  0  0  0
  -21.9911   -9.0233   20.4655 C   0  0  0  0  0  0
  -22.7217  -10.2125   20.3059 C   0  0  0  0  0  0
  -21.6847   -6.0739   22.5288 C   0  0  0  0  0  0
  -21.4005   -6.5649   23.8215 C   0  0  0  0  0  0
  -21.3653   -5.6797   24.9178 C   0  0  0  0  0  0
  -21.6050   -4.3062   24.7213 C   0  0  0  0  0  0
  -21.8811   -3.8155   23.4333 C   0  0  0  0  0  0
  -21.9184   -4.6974   22.3402 C   0  0  0  0  0  0
  -22.7845  -13.5244   21.1850 C   0  0  0  0  0  0
  -22.1656   -4.2167   21.0980 F   0  0  0  0  0  0
  -21.5632   -3.4543   25.7725 F   0  0  0  0  0  0
  -30.0061  -13.4069   20.4382 N   0  0  0  0  0  0
  -26.2961  -12.9304   20.3245 N   0  0  0  0  0  0
  -25.9293  -11.6478   20.5708 N   0  0  0  0  0  0
  -22.0456  -12.8250   22.0395 N   0  0  0  0  0  0
  -25.4282  -15.1864   20.4077 N   0  0  0  0  0  0
  -31.7323  -14.8505   20.1221 O   0  0  0  0  0  0
  -21.6647   -6.8874   21.4254 O   0  0  0  0  0  0
  -22.3549  -14.5551   20.6666 O   0  0  0  0  0  0
  -24.6249  -31.8626   23.2015 C   0  0  0  0  0  0
  -25.9096  -32.4807   23.8359 C   0  0  1  0  0  0
  -27.2297  -27.3368   20.1397 C   0  0  0  0  0  0
  -25.5924  -33.8602   24.2304 N   0  0  0  0  0  0
  -23.4197  -30.4829   21.5418 C   0  0  2  0  0  0
  -24.8686  -28.9286   20.1190 C   0  0  0  0  0  0
  -22.7470  -29.4649   22.4930 C   0  0  0  0  0  0
  -18.0288  -28.1376   22.8488 C   0  0  0  0  0  0
  -24.1491  -36.7317   23.2640 C   0  0  0  0  0  0
  -25.9552  -30.8006   21.3639 C   0  0  0  0  0  0
  -26.0339  -29.4237   20.7191 C   0  0  0  0  0  0
  -27.2219  -28.6406   20.7151 C   0  0  0  0  0  0
  -26.0477  -26.8754   19.5279 C   0  0  0  0  0  0
  -24.8761  -27.6593   19.5124 C   0  0  0  0  0  0
  -23.6367  -29.8093   20.1596 C   0  0  0  0  0  0
  -25.4108  -36.3108   24.0344 C   0  0  1  0  0  0
  -20.5893  -28.3691   23.1289 C   0  0  2  0  0  0
  -20.6784  -26.9416   22.5410 C   0  0  0  0  0  0
  -19.5757  -26.6378   21.5212 C   0  0  0  0  0  0
  -18.1938  -26.7926   22.1617 C   0  0  0  0  0  0
  -19.1546  -28.8850   23.2891 C   0  0  0  0  0  0
  -18.9454  -30.1444   23.8916 C   0  0  0  0  0  0
  -17.6457  -30.6586   24.0557 C   0  0  0  0  0  0
  -25.9031  -34.9473   23.5115 C   0  0  0  0  0  0
  -16.5349  -29.9083   23.6311 C   0  0  0  0  0  0
  -16.7278  -28.6493   23.0352 C   0  0  0  0  0  0
  -26.4467  -31.6615   25.0727 C   0  0  0  0  0  0
  -25.3717  -31.3748   26.1472 C   0  0  0  0  0  0
  -27.0282  -30.3054   24.6130 C   0  0  0  0  0  0
  -27.6033  -32.4341   25.7505 C   0  0  0  0  0  0
  -27.5589  -37.1819   24.8458 C   0  0  0  0  0  0
  -21.4189  -29.3060   22.3697 N   0  0  0  0  0  0
  -26.4291  -37.3798   23.9417 N   0  0  0  0  0  0
  -24.6863  -31.0653   22.0946 N   0  0  0  0  0  0
  -23.4198  -28.8211   23.3034 O   0  0  0  0  0  0
  -28.3581  -26.5187   20.1267 O   0  0  0  0  0  0
  -26.5577  -34.8934   22.4664 O   0  0  0  0  0  0
  -23.5420  -32.1403   23.7363 O   0  0  0  0  0  0
  -28.7685  -18.9605   19.2626 C   0  0  0  0  0  0
  -29.0112  -17.5731   19.4539 C   0  0  0  0  0  0
  -29.7900  -19.3624   21.3687 C   0  0  0  0  0  0
  -29.1542  -19.9289   20.2258 C   0  0  0  0  0  0
  -29.6810  -17.0990   20.6060 C   0  0  0  0  0  0
  -30.4271  -22.7650   21.2600 C   0  0  0  0  0  0
  -28.4910  -23.8723   20.0236 C   0  0  0  0  0  0
  -28.2973  -25.2297   20.8356 C   0  0  0  0  0  0
  -28.9783  -22.5477   20.7883 C   0  0  1  0  0  0
  -30.0412  -18.0216   21.5441 N   0  0  0  0  0  0
  -28.8663  -21.3162   19.9458 N   0  0  0  0  0  0
  -29.7047  -15.6620   20.8568 N   0  0  0  0  0  0
  -31.4854  -12.5343   19.1569 H   0  0  0  0  0  0
  -30.3844  -11.3956   19.8783 H   0  0  0  0  0  0
  -29.7894  -11.7763   17.4698 H   0  0  0  0  0  0
  -29.6532  -13.4909   17.7511 H   0  0  0  0  0  0
  -27.8785  -11.2897   18.8606 H   0  0  0  0  0  0
  -27.3803  -12.5671   17.7870 H   0  0  0  0  0  0
  -27.6729  -14.2442   19.5234 H   0  0  0  0  0  0
  -28.7014  -12.0132   21.3498 H   0  0  0  0  0  0
  -28.4311  -13.6549   21.8560 H   0  0  0  0  0  0
  -25.2744   -9.5710   22.4762 H   0  0  0  0  0  0
  -24.0022   -7.4637   22.7476 H   0  0  0  0  0  0
  -21.0841   -8.8727   19.8977 H   0  0  0  0  0  0
  -22.3653  -10.9648   19.6172 H   0  0  0  0  0  0
  -21.1999   -7.6152   23.9729 H   0  0  0  0  0  0
  -21.1489   -6.0523   25.9082 H   0  0  0  0  0  0
  -22.0598   -2.7618   23.2820 H   0  0  0  0  0  0
  -22.4051  -11.9928   22.4841 H   0  0  0  0  0  0
  -21.1074  -13.1306   22.2553 H   0  0  0  0  0  0
  -24.6553  -15.8352   20.5078 H   0  0  0  0  0  0
  -26.2637  -15.6241   20.0430 H   0  0  0  0  0  0
  -26.7183  -32.5485   23.1129 H   0  0  0  0  0  0
  -25.0125  -33.9742   25.0494 H   0  0  0  0  0  0
  -22.7128  -31.3017   21.3931 H   0  0  0  0  0  0
  -23.3762  -35.9639   23.3276 H   0  0  0  0  0  0
  -24.3597  -36.8956   22.2061 H   0  0  0  0  0  0
  -23.7226  -37.6514   23.6653 H   0  0  0  0  0  0
  -26.0689  -31.5541   20.5832 H   0  0  0  0  0  0
  -26.8442  -30.8667   21.9805 H   0  0  0  0  0  0
  -28.1219  -29.0190   21.1809 H   0  0  0  0  0  0
  -26.0323  -25.8972   19.0687 H   0  0  0  0  0  0
  -23.9836  -27.2709   19.0426 H   0  0  0  0  0  0
  -23.7615  -30.5795   19.3977 H   0  0  0  0  0  0
  -22.7586  -29.2383   19.8560 H   0  0  0  0  0  0
  -25.1284  -36.1976   25.0838 H   0  0  0  0  0  0
  -20.9980  -28.3251   24.1411 H   0  0  0  0  0  0
  -20.5701  -26.2290   23.3602 H   0  0  0  0  0  0
  -21.6648  -26.7467   22.1191 H   0  0  0  0  0  0
  -19.6915  -25.6286   21.1249 H   0  0  0  0  0  0
  -19.6698  -27.3174   20.6731 H   0  0  0  0  0  0
  -17.4216  -26.6690   21.4008 H   0  0  0  0  0  0
  -18.0329  -26.0066   22.9010 H   0  0  0  0  0  0
  -19.7928  -30.7256   24.2310 H   0  0  0  0  0  0
  -17.5006  -31.6268   24.5153 H   0  0  0  0  0  0
  -15.5350  -30.2990   23.7627 H   0  0  0  0  0  0
  -15.8671  -28.0811   22.7064 H   0  0  0  0  0  0
  -24.5868  -30.7114   25.7817 H   0  0  0  0  0  0
  -24.8920  -32.2909   26.4933 H   0  0  0  0  0  0
  -25.8058  -30.8909   27.0230 H   0  0  0  0  0  0
  -26.2814  -29.6854   24.1150 H   0  0  0  0  0  0
  -27.4003  -29.7272   25.4599 H   0  0  0  0  0  0
  -27.8678  -30.4379   23.9301 H   0  0  0  0  0  0
  -27.2636  -33.3633   26.2093 H   0  0  0  0  0  0
  -28.3831  -32.6928   25.0331 H   0  0  0  0  0  0
  -28.0698  -31.8460   26.5420 H   0  0  0  0  0  0
  -28.2595  -38.0133   24.7530 H   0  0  0  0  0  0
  -28.1099  -36.2666   24.6240 H   0  0  0  0  0  0
  -27.2309  -37.1418   25.8862 H   0  0  0  0  0  0
  -20.9360  -29.8796   21.6923 H   0  0  0  0  0  0
  -26.0187  -38.2884   24.1407 H   0  0  0  0  0  0
  -28.2525  -19.2806   18.3685 H   0  0  0  0  0  0
  -28.6446  -16.8814   18.7078 H   0  0  0  0  0  0
  -30.0984  -19.9830   22.1945 H   0  0  0  0  0  0
  -30.4801  -23.5735   21.9892 H   0  0  0  0  0  0
  -31.0752  -23.0326   20.4248 H   0  0  0  0  0  0
  -30.8635  -21.8970   21.7442 H   0  0  0  0  0  0
  -29.2003  -24.0664   19.2187 H   0  0  0  0  0  0
  -27.5437  -23.6691   19.5207 H   0  0  0  0  0  0
  -29.0952  -25.2986   21.5746 H   0  0  0  0  0  0
  -27.3804  -25.1611   21.4246 H   0  0  0  0  0  0
  -28.3465  -22.3951   21.6670 H   0  0  0  0  0  0
  -28.3365  -21.4722   19.0900 H   0  0  0  0  0  0
  -28.8114  -15.2927   21.1406 H   0  0  0  0  0  0
  1 25  1  0  0  0
  1 30  2  0  0  0
  1 82  1  0  0  0
  2  3  1  0  0  0
  2 25  1  0  0  0
  2 83  1  0  0  0
  2 84  1  0  0  0
  3  4  1  0  0  0
  3 85  1  0  0  0
  3 86  1  0  0  0
  4  5  1  0  0  0
  4 87  1  0  0  0
  4 88  1  0  0  0
  5  6  1  0  0  0
  5 26  1  0  0  0
  5 89  1  0  0  0
  6 25  1  0  0  0
  6 90  1  0  0  0
  6 91  1  0  0  0
  7  8  2  0  0  0
  7 26  1  0  0  0
  7 29  1  0  0  0
  8  9  1  0  0  0
  8 22  1  0  0  0
  9 10  1  0  0  0
  9 27  2  0  0  0
 10 11  2  0  0  0
 10 15  1  0  0  0
 11 12  1  0  0  0
 11 92  1  0  0  0
 12 13  2  0  0  0
 12 93  1  0  0  0
 13 14  1  0  0  0
 13 31  1  0  0  0
 14 15  2  0  0  0
 14 94  1  0  0  0
 15 95  1  0  0  0
 16 17  2  0  0  0
 16 21  1  0  0  0
 16 31  1  0  0  0
 17 18  1  0  0  0
 17 96  1  0  0  0
 18 19  2  0  0  0
 18 97  1  0  0  0
 19 20  1  0  0  0
 19 24  1  0  0  0
 20 21  2  0  0  0
 20 98  1  0  0  0
 21 23  1  0  0  0
 22 28  1  0  0  0
 22 32  2  0  0  0
 26 27  1  0  0  0
 28 99  1  0  0  0
 28100  1  0  0  0
 29101  1  0  0  0
 29102  1  0  0  0
 33 34  1  0  0  0
 33 66  1  0  0  0
 33 70  2  0  0  0
 34 36  1  0  0  0
 34 59  1  0  0  0
 34103  1  0  0  0
 35 44  2  0  0  0
 35 45  1  0  0  0
 35 68  1  0  0  0
 36 56  1  0  0  0
 36104  1  0  0  0
 37 39  1  0  0  0
 37 47  1  0  0  0
 37 66  1  0  0  0
 37105  1  0  0  0
 38 43  2  0  0  0
 38 46  1  0  0  0
 38 47  1  0  0  0
 39 64  1  0  0  0
 39 67  2  0  0  0
 40 52  1  0  0  0
 40 53  2  0  0  0
 40 58  1  0  0  0
 41106  1  0  0  0
 41107  1  0  0  0
 41108  1  0  0  0
 41 48  1  0  0  0
 42 43  1  0  0  0
 42 66  1  0  0  0
 42109  1  0  0  0
 42110  1  0  0  0
 43 44  1  0  0  0
 44111  1  0  0  0
 45 46  2  0  0  0
 45112  1  0  0  0
 46113  1  0  0  0
 47114  1  0  0  0
 47115  1  0  0  0
 48 56  1  0  0  0
 48 65  1  0  0  0
 48116  1  0  0  0
 49 50  1  0  0  0
 49 53  1  0  0  0
 49 64  1  0  0  0
 49117  1  0  0  0
 50 51  1  0  0  0
 50118  1  0  0  0
 50119  1  0  0  0
 51 52  1  0  0  0
 51120  1  0  0  0
 51121  1  0  0  0
 52122  1  0  0  0
 52123  1  0  0  0
 53 54  1  0  0  0
 54 55  2  0  0  0
 54124  1  0  0  0
 55 57  1  0  0  0
 55125  1  0  0  0
 56 69  2  0  0  0
 57 58  2  0  0  0
 57126  1  0  0  0
 58127  1  0  0  0
 59 60  1  0  0  0
 59 61  1  0  0  0
 59 62  1  0  0  0
 60128  1  0  0  0
 60129  1  0  0  0
 60130  1  0  0  0
 61131  1  0  0  0
 61132  1  0  0  0
 61133  1  0  0  0
 62134  1  0  0  0
 62135  1  0  0  0
 62136  1  0  0  0
 63 65  1  0  0  0
 63137  1  0  0  0
 63138  1  0  0  0
 63139  1  0  0  0
 64140  1  0  0  0
 65141  1  0  0  0
 68 78  1  0  0  0
 71 72  2  0  0  0
 71 74  1  0  0  0
 71142  1  0  0  0
 72 75  1  0  0  0
 72143  1  0  0  0
 73 74  2  0  0  0
 73 80  1  0  0  0
 73144  1  0  0  0
 74 81  1  0  0  0
 75 80  2  0  0  0
 75 82  1  0  0  0
 76145  1  0  0  0
 76146  1  0  0  0
 76147  1  0  0  0
 76 79  1  0  0  0
 77 78  1  0  0  0
 77 79  1  0  0  0
 77148  1  0  0  0
 77149  1  0  0  0
 78150  1  0  0  0
 78151  1  0  0  0
 79 81  1  0  0  0
 79152  1  0  0  0
 81153  1  0  0  0
 82154  1  0  0  0
M  ISO  4   1 100  68 101  78 101  82 100
M  END
> <chiral flag>
0

> <version>
0

> <s_m_source_file>
/data/baiqing/PycharmProjects/Reinvent-master-3.2/result/LINK_invent/BTK/process_docking_weight1_custom_product_contain_oxygen_bond_distance_aromatic_linkinvent_7_9_3/rearranged_h_0198.sdf

> <i_m_source_file_index>
56

> <r_mmod_Potential_Energy-OPLS-2005>
-17.1153774261475

> <r_mmod_Stretch_Energy-OPLS-2005>
75.8283920288086

> <r_mmod_Bend_Energy-OPLS-2005>
164.296951293945

> <r_mmod_Torsional_Energy-OPLS-2005>
254.876205444336

> <r_mmod_Improper_Torsional_Energy-OPLS-2005>
6.63029003143311

> <r_mmod_Van_der_Waal_Energy-OPLS-2005>
137.645477294922

> <r_mmod_Electrostatic_Energy-OPLS-2005>
-468.466979980469

> <r_mmod_Solvation_Energy-OPLS-2005>
-235.635055541992

> <b_mmod_Minimization_Converged-OPLS-2005>
0

> <r_mmod_RMS_Derivative-OPLS-2005>
3.01719927787781

$$$$
56
                    3D
 Structure written by MMmdl.
151159  0  0  1  0            999 V2000
  -30.5292  -14.8017   20.4801 C   0  0  0  0  0  0
  -30.4615  -12.4927   19.4725 C   0  0  0  0  0  0
  -29.5244  -12.5258   18.2405 C   0  0  0  0  0  0
  -28.0500  -12.3318   18.6519 C   0  0  0  0  0  0
  -27.6503  -13.2200   19.8583 C   0  0  2  0  0  0
  -28.6960  -13.1166   20.9918 C   0  0  0  0  0  0
  -25.2552  -13.8149   20.5672 C   0  0  0  0  0  0
  -24.1830  -13.0424   20.9217 C   0  0  0  0  0  0
  -24.6400  -11.6896   20.8746 C   0  0  0  0  0  0
  -23.9062  -10.4286   21.0407 C   0  0  0  0  0  0
  -24.3610   -9.4201   21.9183 C   0  0  0  0  0  0
  -23.6287   -8.2235   22.0752 C   0  0  0  0  0  0
  -22.4268   -8.0275   21.3545 C   0  0  0  0  0  0
  -21.9905   -9.0250   20.4649 C   0  0  0  0  0  0
  -22.7235  -10.2128   20.3058 C   0  0  0  0  0  0
  -21.6851   -6.0729   22.5279 C   0  0  0  0  0  0
  -21.4014   -6.5631   23.8211 C   0  0  0  0  0  0
  -21.3659   -5.6784   24.9173 C   0  0  0  0  0  0
  -21.6043   -4.3048   24.7223 C   0  0  0  0  0  0
  -21.8820   -3.8140   23.4345 C   0  0  0  0  0  0
  -21.9192   -4.6958   22.3403 C   0  0  0  0  0  0
  -22.7854  -13.5233   21.1872 C   0  0  0  0  0  0
  -22.1665   -4.2143   21.0978 F   0  0  0  0  0  0
  -21.5629   -3.4532   25.7738 F   0  0  0  0  0  0
  -29.9962  -13.5250   20.4300 N   0  0  0  0  0  0
  -26.2970  -12.9333   20.3268 N   0  0  0  0  0  0
  -25.9324  -11.6493   20.5728 N   0  0  0  0  0  0
  -22.0485  -12.8234   22.0422 N   0  0  0  0  0  0
  -25.4239  -15.1864   20.4026 N   0  0  0  0  0  0
  -31.6883  -14.9990   20.0955 O   0  0  0  0  0  0
  -21.6634   -6.8872   21.4240 O   0  0  0  0  0  0
  -22.3552  -14.5536   20.6705 O   0  0  0  0  0  0
  -24.6356  -31.8517   23.1949 C   0  0  0  0  0  0
  -25.9163  -32.4739   23.8310 C   0  0  1  0  0  0
  -27.2264  -27.2255   20.1294 C   0  0  0  0  0  0
  -25.5946  -33.8543   24.2233 N   0  0  0  0  0  0
  -23.4347  -30.4734   21.5394 C   0  0  2  0  0  0
  -24.8831  -28.9133   20.1116 C   0  0  0  0  0  0
  -22.7521  -29.4587   22.4895 C   0  0  0  0  0  0
  -18.0296  -28.1390   22.8479 C   0  0  0  0  0  0
  -24.1493  -36.7272   23.2638 C   0  0  0  0  0  0
  -25.9845  -30.7534   21.3799 C   0  0  0  0  0  0
  -26.0578  -29.3730   20.7198 C   0  0  0  0  0  0
  -27.2319  -28.5447   20.7116 C   0  0  0  0  0  0
  -26.0225  -26.8419   19.4953 C   0  0  0  0  0  0
  -24.8732  -27.6574   19.4871 C   0  0  0  0  0  0
  -23.6557  -29.8052   20.1572 C   0  0  0  0  0  0
  -25.4121  -36.3060   24.0320 C   0  0  1  0  0  0
  -20.5902  -28.3708   23.1253 C   0  0  2  0  0  0
  -20.6783  -26.9425   22.5397 C   0  0  0  0  0  0
  -19.5757  -26.6384   21.5205 C   0  0  0  0  0  0
  -18.1941  -26.7925   22.1626 C   0  0  0  0  0  0
  -19.1550  -28.8866   23.2862 C   0  0  0  0  0  0
  -18.9471  -30.1462   23.8887 C   0  0  0  0  0  0
  -17.6470  -30.6591   24.0558 C   0  0  0  0  0  0
  -25.9065  -34.9433   23.5080 C   0  0  0  0  0  0
  -16.5360  -29.9086   23.6333 C   0  0  0  0  0  0
  -16.7282  -28.6502   23.0356 C   0  0  0  0  0  0
  -26.4509  -31.6581   25.0721 C   0  0  0  0  0  0
  -25.3713  -31.3754   26.1432 C   0  0  0  0  0  0
  -27.0349  -30.2986   24.6242 C   0  0  0  0  0  0
  -27.6067  -32.4317   25.7493 C   0  0  0  0  0  0
  -27.5578  -37.1792   24.8465 C   0  0  0  0  0  0
  -21.4224  -29.3050   22.3638 N   0  0  0  0  0  0
  -26.4292  -37.3764   23.9407 N   0  0  0  0  0  0
  -24.7044  -31.0444   22.0943 N   0  0  0  0  0  0
  -23.4196  -28.8129   23.3015 O   0  0  0  0  0  0
  -28.3185  -26.3109   20.1776 O   0  0  0  0  0  0
  -26.5640  -34.8914   22.4652 O   0  0  0  0  0  0
  -23.5495  -32.1360   23.7218 O   0  0  0  0  0  0
  -28.0438  -17.5701   21.1692 C   0  0  0  0  0  0
  -29.3265  -17.2564   20.7841 C   0  0  0  0  0  0
  -29.2744  -19.6644   20.5234 C   0  0  0  0  0  0
  -29.6756  -21.1627   20.2847 C   0  0  0  0  0  0
  -29.9990  -24.0444   21.6320 C   0  0  0  0  0  0
  -28.0689  -24.8087   20.1176 C   0  0  0  0  0  0
  -29.2388  -23.6789   20.3457 C   0  0  2  0  0  0
  -30.0197  -18.4837   20.4162 N   0  0  0  0  0  0
  -28.8279  -22.1882   20.4336 N   0  0  0  0  0  0
  -31.0053  -21.2754   19.9475 N   0  0  0  0  0  0
  -29.6381  -15.7922   20.8854 N   0  0  0  0  0  0
  -27.6457  -19.2755   21.0692 S   0  0  0  0  0  0
  -31.4942  -12.6652   19.1647 H   0  0  0  0  0  0
  -30.4509  -11.5069   19.9406 H   0  0  0  0  0  0
  -29.8172  -11.7568   17.5247 H   0  0  0  0  0  0
  -29.6342  -13.4799   17.7227 H   0  0  0  0  0  0
  -27.9158  -11.2808   18.9116 H   0  0  0  0  0  0
  -27.3905  -12.5218   17.8041 H   0  0  0  0  0  0
  -27.6525  -14.2467   19.4917 H   0  0  0  0  0  0
  -28.7482  -12.0954   21.3722 H   0  0  0  0  0  0
  -28.4087  -13.7305   21.8470 H   0  0  0  0  0  0
  -25.2754   -9.5674   22.4758 H   0  0  0  0  0  0
  -23.9995   -7.4624   22.7466 H   0  0  0  0  0  0
  -21.0837   -8.8771   19.8956 H   0  0  0  0  0  0
  -22.3694  -10.9666   19.6165 H   0  0  0  0  0  0
  -21.2007   -7.6142   23.9715 H   0  0  0  0  0  0
  -21.1484   -6.0514   25.9077 H   0  0  0  0  0  0
  -22.0600   -2.7603   23.2842 H   0  0  0  0  0  0
  -22.4087  -11.9896   22.4819 H   0  0  0  0  0  0
  -21.1099  -13.1266   22.2611 H   0  0  0  0  0  0
  -24.6352  -15.8205   20.4744 H   0  0  0  0  0  0
  -26.2199  -15.5995   19.9343 H   0  0  0  0  0  0
  -26.7228  -32.5372   23.1045 H   0  0  0  0  0  0
  -25.0078  -33.9673   25.0369 H   0  0  0  0  0  0
  -22.7334  -31.2974   21.3908 H   0  0  0  0  0  0
  -23.3759  -35.9600   23.3298 H   0  0  0  0  0  0
  -24.3583  -36.8900   22.2054 H   0  0  0  0  0  0
  -23.7241  -37.6469   23.6666 H   0  0  0  0  0  0
  -26.1293  -31.5142   20.6115 H   0  0  0  0  0  0
  -26.8587  -30.8010   22.0176 H   0  0  0  0  0  0
  -28.1314  -28.8955   21.1974 H   0  0  0  0  0  0
  -25.9374  -25.8836   19.0066 H   0  0  0  0  0  0
  -23.9739  -27.2994   19.0048 H   0  0  0  0  0  0
  -23.7853  -30.5815   19.4020 H   0  0  0  0  0  0
  -22.7724  -29.2426   19.8499 H   0  0  0  0  0  0
  -25.1307  -36.1900   25.0811 H   0  0  0  0  0  0
  -20.9997  -28.3290   24.1373 H   0  0  0  0  0  0
  -20.5688  -26.2320   23.3603 H   0  0  0  0  0  0
  -21.6649  -26.7449   22.1191 H   0  0  0  0  0  0
  -19.6922  -25.6292   21.1245 H   0  0  0  0  0  0
  -19.6690  -27.3181   20.6724 H   0  0  0  0  0  0
  -17.4203  -26.6656   21.4038 H   0  0  0  0  0  0
  -18.0365  -26.0078   22.9039 H   0  0  0  0  0  0
  -19.7947  -30.7278   24.2256 H   0  0  0  0  0  0
  -17.5026  -31.6272   24.5157 H   0  0  0  0  0  0
  -15.5361  -30.2988   23.7662 H   0  0  0  0  0  0
  -15.8680  -28.0816   22.7084 H   0  0  0  0  0  0
  -24.5875  -30.7125   25.7746 H   0  0  0  0  0  0
  -24.8920  -32.2934   26.4847 H   0  0  0  0  0  0
  -25.8006  -30.8921   27.0218 H   0  0  0  0  0  0
  -26.2938  -29.6734   24.1248 H   0  0  0  0  0  0
  -27.3985  -29.7262   25.4785 H   0  0  0  0  0  0
  -27.8841  -30.4239   23.9520 H   0  0  0  0  0  0
  -27.2691  -33.3633   26.2047 H   0  0  0  0  0  0
  -28.3891  -32.6846   25.0325 H   0  0  0  0  0  0
  -28.0717  -31.8449   26.5426 H   0  0  0  0  0  0
  -28.2595  -38.0091   24.7518 H   0  0  0  0  0  0
  -28.1075  -36.2622   24.6288 H   0  0  0  0  0  0
  -27.2294  -37.1439   25.8868 H   0  0  0  0  0  0
  -20.9417  -29.8767   21.6832 H   0  0  0  0  0  0
  -26.0167  -38.2834   24.1412 H   0  0  0  0  0  0
  -27.2729  -16.8968   21.5206 H   0  0  0  0  0  0
  -30.3704  -25.0687   21.5833 H   0  0  0  0  0  0
  -30.8612  -23.3996   21.8002 H   0  0  0  0  0  0
  -29.3525  -23.9724   22.5070 H   0  0  0  0  0  0
  -27.2747  -24.5996   20.8360 H   0  0  0  0  0  0
  -27.6449  -24.5908   19.1378 H   0  0  0  0  0  0
  -29.9363  -23.7957   19.5144 H   0  0  0  0  0  0
  -31.6053  -20.4632   19.8577 H   0  0  0  0  0  0
  -31.5080  -22.1330   19.7700 H   0  0  0  0  0  0
  -28.8417  -15.3005   21.2556 H   0  0  0  0  0  0
  1 25  1  0  0  0
  1 30  2  0  0  0
  1 81  1  0  0  0
  2  3  1  0  0  0
  2 25  1  0  0  0
  2 83  1  0  0  0
  2 84  1  0  0  0
  3  4  1  0  0  0
  3 85  1  0  0  0
  3 86  1  0  0  0
  4  5  1  0  0  0
  4 87  1  0  0  0
  4 88  1  0  0  0
  5  6  1  0  0  0
  5 26  1  0  0  0
  5 89  1  0  0  0
  6 25  1  0  0  0
  6 90  1  0  0  0
  6 91  1  0  0  0
  7  8  2  0  0  0
  7 26  1  0  0  0
  7 29  1  0  0  0
  8  9  1  0  0  0
  8 22  1  0  0  0
  9 10  1  0  0  0
  9 27  2  0  0  0
 10 11  2  0  0  0
 10 15  1  0  0  0
 11 12  1  0  0  0
 11 92  1  0  0  0
 12 13  2  0  0  0
 12 93  1  0  0  0
 13 14  1  0  0  0
 13 31  1  0  0  0
 14 15  2  0  0  0
 14 94  1  0  0  0
 15 95  1  0  0  0
 16 17  2  0  0  0
 16 21  1  0  0  0
 16 31  1  0  0  0
 17 18  1  0  0  0
 17 96  1  0  0  0
 18 19  2  0  0  0
 18 97  1  0  0  0
 19 20  1  0  0  0
 19 24  1  0  0  0
 20 21  2  0  0  0
 20 98  1  0  0  0
 21 23  1  0  0  0
 22 28  1  0  0  0
 22 32  2  0  0  0
 26 27  1  0  0  0
 28 99  1  0  0  0
 28100  1  0  0  0
 29101  1  0  0  0
 29102  1  0  0  0
 33 34  1  0  0  0
 33 66  1  0  0  0
 33 70  2  0  0  0
 34 36  1  0  0  0
 34 59  1  0  0  0
 34103  1  0  0  0
 35 44  2  0  0  0
 35 45  1  0  0  0
 35 68  1  0  0  0
 36 56  1  0  0  0
 36104  1  0  0  0
 37 39  1  0  0  0
 37 47  1  0  0  0
 37 66  1  0  0  0
 37105  1  0  0  0
 38 43  2  0  0  0
 38 46  1  0  0  0
 38 47  1  0  0  0
 39 64  1  0  0  0
 39 67  2  0  0  0
 40 52  1  0  0  0
 40 53  2  0  0  0
 40 58  1  0  0  0
 41106  1  0  0  0
 41107  1  0  0  0
 41108  1  0  0  0
 41 48  1  0  0  0
 42 43  1  0  0  0
 42 66  1  0  0  0
 42109  1  0  0  0
 42110  1  0  0  0
 43 44  1  0  0  0
 44111  1  0  0  0
 45 46  2  0  0  0
 45112  1  0  0  0
 46113  1  0  0  0
 47114  1  0  0  0
 47115  1  0  0  0
 48 56  1  0  0  0
 48 65  1  0  0  0
 48116  1  0  0  0
 49 50  1  0  0  0
 49 53  1  0  0  0
 49 64  1  0  0  0
 49117  1  0  0  0
 50 51  1  0  0  0
 50118  1  0  0  0
 50119  1  0  0  0
 51 52  1  0  0  0
 51120  1  0  0  0
 51121  1  0  0  0
 52122  1  0  0  0
 52123  1  0  0  0
 53 54  1  0  0  0
 54 55  2  0  0  0
 54124  1  0  0  0
 55 57  1  0  0  0
 55125  1  0  0  0
 56 69  2  0  0  0
 57 58  2  0  0  0
 57126  1  0  0  0
 58127  1  0  0  0
 59 60  1  0  0  0
 59 61  1  0  0  0
 59 62  1  0  0  0
 60128  1  0  0  0
 60129  1  0  0  0
 60130  1  0  0  0
 61131  1  0  0  0
 61132  1  0  0  0
 61133  1  0  0  0
 62134  1  0  0  0
 62135  1  0  0  0
 62136  1  0  0  0
 63 65  1  0  0  0
 63137  1  0  0  0
 63138  1  0  0  0
 63139  1  0  0  0
 64140  1  0  0  0
 65141  1  0  0  0
 68 76  1  0  0  0
 71 72  2  0  0  0
 71 82  1  0  0  0
 71142  1  0  0  0
 72 78  1  0  0  0
 72 81  1  0  0  0
 73 74  1  0  0  0
 73 78  2  0  0  0
 73 82  1  0  0  0
 74 79  2  0  0  0
 74 80  1  0  0  0
 75143  1  0  0  0
 75144  1  0  0  0
 75145  1  0  0  0
 75 77  1  0  0  0
 76 77  1  0  0  0
 76146  1  0  0  0
 76147  1  0  0  0
 77 79  1  0  0  0
 77148  1  0  0  0
 80149  1  0  0  0
 80150  1  0  0  0
 81151  1  0  0  0
M  ISO  4   1 100  68 101  76 101  81 100
M  END
> <chiral flag>
0

> <version>
0

> <s_m_source_file>
/data/baiqing/PycharmProjects/Reinvent-master-3.2/result/LINK_invent/BTK/process_docking_weight1_custom_product_contain_oxygen_bond_distance_aromatic_linkinvent_7_9_3/rearranged_h_0198.sdf

> <i_m_source_file_index>
57

> <r_mmod_Potential_Energy-OPLS-2005>
180.354721069336

> <r_mmod_Stretch_Energy-OPLS-2005>
157.966934204102

> <r_mmod_Bend_Energy-OPLS-2005>
244.573989868164

> <r_mmod_Torsional_Energy-OPLS-2005>
220.369110107422

> <r_mmod_Improper_Torsional_Energy-OPLS-2005>
4.24459505081177

> <r_mmod_Van_der_Waal_Energy-OPLS-2005>
118.411697387695

> <r_mmod_Electrostatic_Energy-OPLS-2005>
-432.175720214844

> <r_mmod_Solvation_Energy-OPLS-2005>
-243.443878173828

> <b_mmod_Minimization_Converged-OPLS-2005>
0

> <r_mmod_RMS_Derivative-OPLS-2005>
0.851918935775757

$$$$
57
                    3D
 Structure written by MMmdl.
155163  0  0  1  0            999 V2000
  -30.5898  -14.6432   20.5056 C   0  0  0  0  0  0
  -30.4411  -12.3952   19.4494 C   0  0  0  0  0  0
  -29.5122  -12.5206   18.2206 C   0  0  0  0  0  0
  -28.0331  -12.3563   18.6265 C   0  0  0  0  0  0
  -27.6546  -13.2136   19.8636 C   0  0  2  0  0  0
  -28.6969  -13.0448   20.9933 C   0  0  0  0  0  0
  -25.2573  -13.8167   20.5667 C   0  0  0  0  0  0
  -24.1840  -13.0432   20.9172 C   0  0  0  0  0  0
  -24.6398  -11.6899   20.8721 C   0  0  0  0  0  0
  -23.9068  -10.4285   21.0381 C   0  0  0  0  0  0
  -24.3621   -9.4210   21.9163 C   0  0  0  0  0  0
  -23.6304   -8.2244   22.0748 C   0  0  0  0  0  0
  -22.4286   -8.0275   21.3539 C   0  0  0  0  0  0
  -21.9915   -9.0248   20.4650 C   0  0  0  0  0  0
  -22.7232  -10.2129   20.3045 C   0  0  0  0  0  0
  -21.6858   -6.0747   22.5281 C   0  0  0  0  0  0
  -21.4014   -6.5649   23.8217 C   0  0  0  0  0  0
  -21.3646   -5.6800   24.9176 C   0  0  0  0  0  0
  -21.6053   -4.3064   24.7216 C   0  0  0  0  0  0
  -21.8818   -3.8155   23.4333 C   0  0  0  0  0  0
  -21.9188   -4.6976   22.3402 C   0  0  0  0  0  0
  -22.7871  -13.5244   21.1835 C   0  0  0  0  0  0
  -22.1661   -4.2168   21.0979 F   0  0  0  0  0  0
  -21.5622   -3.4540   25.7720 F   0  0  0  0  0  0
  -30.0120  -13.4004   20.4411 N   0  0  0  0  0  0
  -26.2995  -12.9337   20.3296 N   0  0  0  0  0  0
  -25.9323  -11.6493   20.5722 N   0  0  0  0  0  0
  -22.0500  -12.8241   22.0392 N   0  0  0  0  0  0
  -25.4272  -15.1890   20.4069 N   0  0  0  0  0  0
  -31.7414  -14.8313   20.0923 O   0  0  0  0  0  0
  -21.6650   -6.8873   21.4241 O   0  0  0  0  0  0
  -22.3555  -14.5539   20.6652 O   0  0  0  0  0  0
  -24.6226  -31.8618   23.2032 C   0  0  0  0  0  0
  -25.9073  -32.4806   23.8363 C   0  0  1  0  0  0
  -27.2273  -27.3368   20.1392 C   0  0  0  0  0  0
  -25.5905  -33.8605   24.2297 N   0  0  0  0  0  0
  -23.4169  -30.4824   21.5436 C   0  0  2  0  0  0
  -24.8675  -28.9336   20.1167 C   0  0  0  0  0  0
  -22.7458  -29.4636   22.4947 C   0  0  0  0  0  0
  -18.0287  -28.1385   22.8492 C   0  0  0  0  0  0
  -24.1491  -36.7294   23.2641 C   0  0  0  0  0  0
  -25.9532  -30.8013   21.3691 C   0  0  0  0  0  0
  -26.0319  -29.4257   20.7194 C   0  0  0  0  0  0
  -27.2186  -28.6383   20.7201 C   0  0  0  0  0  0
  -26.0452  -26.8834   19.5203 C   0  0  0  0  0  0
  -24.8732  -27.6667   19.5075 C   0  0  0  0  0  0
  -23.6329  -29.8101   20.1612 C   0  0  0  0  0  0
  -25.4117  -36.3103   24.0338 C   0  0  1  0  0  0
  -20.5887  -28.3688   23.1302 C   0  0  2  0  0  0
  -20.6784  -26.9417   22.5423 C   0  0  0  0  0  0
  -19.5761  -26.6385   21.5225 C   0  0  0  0  0  0
  -18.1935  -26.7929   22.1627 C   0  0  0  0  0  0
  -19.1535  -28.8849   23.2894 C   0  0  0  0  0  0
  -18.9453  -30.1455   23.8910 C   0  0  0  0  0  0
  -17.6450  -30.6590   24.0562 C   0  0  0  0  0  0
  -25.9039  -34.9473   23.5114 C   0  0  0  0  0  0
  -16.5345  -29.9086   23.6327 C   0  0  0  0  0  0
  -16.7274  -28.6502   23.0352 C   0  0  0  0  0  0
  -26.4472  -31.6608   25.0724 C   0  0  0  0  0  0
  -25.3712  -31.3726   26.1455 C   0  0  0  0  0  0
  -27.0315  -30.3048   24.6140 C   0  0  0  0  0  0
  -27.6049  -32.4338   25.7483 C   0  0  0  0  0  0
  -27.5585  -37.1811   24.8465 C   0  0  0  0  0  0
  -21.4173  -29.3045   22.3696 N   0  0  0  0  0  0
  -26.4299  -37.3789   23.9409 N   0  0  0  0  0  0
  -24.6831  -31.0637   22.0978 N   0  0  0  0  0  0
  -23.4188  -28.8182   23.3035 O   0  0  0  0  0  0
  -28.3506  -26.5079   20.1488 O   0  0  0  0  0  0
  -26.5593  -34.8934   22.4673 O   0  0  0  0  0  0
  -23.5395  -32.1414   23.7371 O   0  0  0  0  0  0
  -28.9330  -18.9149   19.2162 C   0  0  0  0  0  0
  -29.1523  -17.5289   19.4508 C   0  0  0  0  0  0
  -29.8305  -19.3588   21.3684 C   0  0  0  0  0  0
  -29.2739  -19.9037   20.1765 C   0  0  0  0  0  0
  -29.7456  -17.0810   20.6537 C   0  0  0  0  0  0
  -30.4090  -22.7611   21.3473 C   0  0  0  0  0  0
  -28.2140  -25.1772   20.7745 C   0  0  0  0  0  0
  -29.0256  -22.5251   20.7129 C   0  0  1  0  0  0
  -28.5757  -23.8640   19.9325 C   0  0  1  0  0  0
  -30.0511  -18.0223   21.5920 N   0  0  0  0  0  0
  -29.0423  -21.2922   19.8532 N   0  0  0  0  0  0
  -29.7749  -15.6536   20.9425 N   0  0  0  0  0  0
  -27.4163  -23.5305   19.1859 O   0  0  0  0  0  0
  -31.4825  -12.5301   19.1511 H   0  0  0  0  0  0
  -30.3822  -11.3926   19.8755 H   0  0  0  0  0  0
  -29.7825  -11.7811   17.4652 H   0  0  0  0  0  0
  -29.6562  -13.4967   17.7538 H   0  0  0  0  0  0
  -27.8624  -11.3010   18.8406 H   0  0  0  0  0  0
  -27.3841  -12.6009   17.7851 H   0  0  0  0  0  0
  -27.6771  -14.2528   19.5361 H   0  0  0  0  0  0
  -28.7105  -12.0152   21.3535 H   0  0  0  0  0  0
  -28.4393  -13.6576   21.8567 H   0  0  0  0  0  0
  -25.2767   -9.5712   22.4728 H   0  0  0  0  0  0
  -24.0031   -7.4648   22.7474 H   0  0  0  0  0  0
  -21.0842   -8.8755   19.8970 H   0  0  0  0  0  0
  -22.3673  -10.9658   19.6160 H   0  0  0  0  0  0
  -21.2010   -7.6151   23.9730 H   0  0  0  0  0  0
  -21.1474   -6.0520   25.9085 H   0  0  0  0  0  0
  -22.0602   -2.7612   23.2829 H   0  0  0  0  0  0
  -22.4108  -11.9926   22.4840 H   0  0  0  0  0  0
  -21.1112  -13.1280   22.2559 H   0  0  0  0  0  0
  -24.6530  -15.8363   20.5072 H   0  0  0  0  0  0
  -26.2674  -15.6306   20.0569 H   0  0  0  0  0  0
  -26.7146  -32.5498   23.1120 H   0  0  0  0  0  0
  -25.0086  -33.9747   25.0470 H   0  0  0  0  0  0
  -22.7115  -31.3031   21.3990 H   0  0  0  0  0  0
  -23.3765  -35.9613   23.3305 H   0  0  0  0  0  0
  -24.3579  -36.8904   22.2055 H   0  0  0  0  0  0
  -23.7232  -37.6497   23.6648 H   0  0  0  0  0  0
  -26.0735  -31.5632   20.5975 H   0  0  0  0  0  0
  -26.8375  -30.8589   21.9923 H   0  0  0  0  0  0
  -28.1159  -29.0113   21.1949 H   0  0  0  0  0  0
  -26.0249  -25.9090   19.0521 H   0  0  0  0  0  0
  -23.9783  -27.2830   19.0382 H   0  0  0  0  0  0
  -23.7507  -30.5847   19.4015 H   0  0  0  0  0  0
  -22.7555  -29.2341   19.8615 H   0  0  0  0  0  0
  -25.1301  -36.1961   25.0828 H   0  0  0  0  0  0
  -20.9983  -28.3261   24.1423 H   0  0  0  0  0  0
  -20.5714  -26.2287   23.3610 H   0  0  0  0  0  0
  -21.6646  -26.7475   22.1199 H   0  0  0  0  0  0
  -19.6919  -25.6291   21.1257 H   0  0  0  0  0  0
  -19.6710  -27.3196   20.6759 H   0  0  0  0  0  0
  -17.4220  -26.6703   21.4014 H   0  0  0  0  0  0
  -18.0323  -26.0067   22.9021 H   0  0  0  0  0  0
  -19.7923  -30.7273   24.2295 H   0  0  0  0  0  0
  -17.5003  -31.6279   24.5154 H   0  0  0  0  0  0
  -15.5348  -30.2989   23.7645 H   0  0  0  0  0  0
  -15.8677  -28.0828   22.7056 H   0  0  0  0  0  0
  -24.5866  -30.7106   25.7769 H   0  0  0  0  0  0
  -24.8920  -32.2888   26.4920 H   0  0  0  0  0  0
  -25.8031  -30.8864   27.0209 H   0  0  0  0  0  0
  -26.2877  -29.6812   24.1160 H   0  0  0  0  0  0
  -27.4041  -29.7289   25.4620 H   0  0  0  0  0  0
  -27.8733  -30.4371   23.9336 H   0  0  0  0  0  0
  -27.2663  -33.3625   26.2085 H   0  0  0  0  0  0
  -28.3826  -32.6917   25.0286 H   0  0  0  0  0  0
  -28.0744  -31.8447   26.5369 H   0  0  0  0  0  0
  -28.2613  -38.0104   24.7512 H   0  0  0  0  0  0
  -28.1072  -36.2631   24.6289 H   0  0  0  0  0  0
  -27.2292  -37.1464   25.8866 H   0  0  0  0  0  0
  -20.9339  -29.8746   21.6897 H   0  0  0  0  0  0
  -26.0185  -38.2869   24.1403 H   0  0  0  0  0  0
  -28.4759  -19.2093   18.2834 H   0  0  0  0  0  0
  -28.8303  -16.8164   18.7038 H   0  0  0  0  0  0
  -30.1108  -19.9976   22.1901 H   0  0  0  0  0  0
  -30.4425  -23.7059   21.8889 H   0  0  0  0  0  0
  -31.1892  -22.8010   20.5870 H   0  0  0  0  0  0
  -30.6873  -22.0029   22.0720 H   0  0  0  0  0  0
  -28.8914  -25.2276   21.6259 H   0  0  0  0  0  0
  -27.2332  -25.0575   21.2398 H   0  0  0  0  0  0
  -28.3000  -22.3467   21.5085 H   0  0  0  0  0  0
  -29.3664  -24.1262   19.2278 H   0  0  0  0  0  0
  -28.6489  -21.4514   18.9315 H   0  0  0  0  0  0
  -28.9208  -15.3059   21.3479 H   0  0  0  0  0  0
  -27.7038  -23.1806   18.3499 H   0  0  0  0  0  0
  1 25  1  0  0  0
  1 30  2  0  0  0
  1 82  1  0  0  0
  2  3  1  0  0  0
  2 25  1  0  0  0
  2 84  1  0  0  0
  2 85  1  0  0  0
  3  4  1  0  0  0
  3 86  1  0  0  0
  3 87  1  0  0  0
  4  5  1  0  0  0
  4 88  1  0  0  0
  4 89  1  0  0  0
  5  6  1  0  0  0
  5 26  1  0  0  0
  5 90  1  0  0  0
  6 25  1  0  0  0
  6 91  1  0  0  0
  6 92  1  0  0  0
  7  8  2  0  0  0
  7 26  1  0  0  0
  7 29  1  0  0  0
  8  9  1  0  0  0
  8 22  1  0  0  0
  9 10  1  0  0  0
  9 27  2  0  0  0
 10 11  2  0  0  0
 10 15  1  0  0  0
 11 12  1  0  0  0
 11 93  1  0  0  0
 12 13  2  0  0  0
 12 94  1  0  0  0
 13 14  1  0  0  0
 13 31  1  0  0  0
 14 15  2  0  0  0
 14 95  1  0  0  0
 15 96  1  0  0  0
 16 17  2  0  0  0
 16 21  1  0  0  0
 16 31  1  0  0  0
 17 18  1  0  0  0
 17 97  1  0  0  0
 18 19  2  0  0  0
 18 98  1  0  0  0
 19 20  1  0  0  0
 19 24  1  0  0  0
 20 21  2  0  0  0
 20 99  1  0  0  0
 21 23  1  0  0  0
 22 28  1  0  0  0
 22 32  2  0  0  0
 26 27  1  0  0  0
 28100  1  0  0  0
 28101  1  0  0  0
 29102  1  0  0  0
 29103  1  0  0  0
 33 34  1  0  0  0
 33 66  1  0  0  0
 33 70  2  0  0  0
 34 36  1  0  0  0
 34 59  1  0  0  0
 34104  1  0  0  0
 35 44  2  0  0  0
 35 45  1  0  0  0
 35 68  1  0  0  0
 36 56  1  0  0  0
 36105  1  0  0  0
 37 39  1  0  0  0
 37 47  1  0  0  0
 37 66  1  0  0  0
 37106  1  0  0  0
 38 43  2  0  0  0
 38 46  1  0  0  0
 38 47  1  0  0  0
 39 64  1  0  0  0
 39 67  2  0  0  0
 40 52  1  0  0  0
 40 53  2  0  0  0
 40 58  1  0  0  0
 41107  1  0  0  0
 41108  1  0  0  0
 41109  1  0  0  0
 41 48  1  0  0  0
 42 43  1  0  0  0
 42 66  1  0  0  0
 42110  1  0  0  0
 42111  1  0  0  0
 43 44  1  0  0  0
 44112  1  0  0  0
 45 46  2  0  0  0
 45113  1  0  0  0
 46114  1  0  0  0
 47115  1  0  0  0
 47116  1  0  0  0
 48 56  1  0  0  0
 48 65  1  0  0  0
 48117  1  0  0  0
 49 50  1  0  0  0
 49 53  1  0  0  0
 49 64  1  0  0  0
 49118  1  0  0  0
 50 51  1  0  0  0
 50119  1  0  0  0
 50120  1  0  0  0
 51 52  1  0  0  0
 51121  1  0  0  0
 51122  1  0  0  0
 52123  1  0  0  0
 52124  1  0  0  0
 53 54  1  0  0  0
 54 55  2  0  0  0
 54125  1  0  0  0
 55 57  1  0  0  0
 55126  1  0  0  0
 56 69  2  0  0  0
 57 58  2  0  0  0
 57127  1  0  0  0
 58128  1  0  0  0
 59 60  1  0  0  0
 59 61  1  0  0  0
 59 62  1  0  0  0
 60129  1  0  0  0
 60130  1  0  0  0
 60131  1  0  0  0
 61132  1  0  0  0
 61133  1  0  0  0
 61134  1  0  0  0
 62135  1  0  0  0
 62136  1  0  0  0
 62137  1  0  0  0
 63 65  1  0  0  0
 63138  1  0  0  0
 63139  1  0  0  0
 63140  1  0  0  0
 64141  1  0  0  0
 65142  1  0  0  0
 68 77  1  0  0  0
 71 72  2  0  0  0
 71 74  1  0  0  0
 71143  1  0  0  0
 72 75  1  0  0  0
 72144  1  0  0  0
 73 74  2  0  0  0
 73 80  1  0  0  0
 73145  1  0  0  0
 74 81  1  0  0  0
 75 80  2  0  0  0
 75 82  1  0  0  0
 76146  1  0  0  0
 76147  1  0  0  0
 76148  1  0  0  0
 76 78  1  0  0  0
 77 79  1  0  0  0
 77149  1  0  0  0
 77150  1  0  0  0
 78 79  1  0  0  0
 78 81  1  0  0  0
 78151  1  0  0  0
 79 83  1  0  0  0
 79152  1  0  0  0
 81153  1  0  0  0
 82154  1  0  0  0
 83155  1  0  0  0
M  ISO  4   1 100  68 101  77 101  82 100
M  END
> <chiral flag>
0

> <version>
0

> <s_m_source_file>
/data/baiqing/PycharmProjects/Reinvent-master-3.2/result/LINK_invent/BTK/process_docking_weight1_custom_product_contain_oxygen_bond_distance_aromatic_linkinvent_7_9_3/rearranged_h_0198.sdf

> <i_m_source_file_index>
58

> <r_mmod_Potential_Energy-OPLS-2005>
-24.9181690216064

> <r_mmod_Stretch_Energy-OPLS-2005>
79.4814834594727

> <r_mmod_Bend_Energy-OPLS-2005>
158.382278442383

> <r_mmod_Torsional_Energy-OPLS-2005>
285.471954345703

> <r_mmod_Improper_Torsional_Energy-OPLS-2005>
5.68039464950562

> <r_mmod_Van_der_Waal_Energy-OPLS-2005>
141.049072265625

> <r_mmod_Electrostatic_Energy-OPLS-2005>
-488.308776855469

> <r_mmod_Solvation_Energy-OPLS-2005>
-251.50178527832

> <b_mmod_Minimization_Converged-OPLS-2005>
0

> <r_mmod_RMS_Derivative-OPLS-2005>
2.83792161941528

$$$$
58
                    3D
 Structure written by MMmdl.
153161  0  0  1  0            999 V2000
  -30.5659  -14.7328   20.4672 C   0  0  0  0  0  0
  -30.4480  -12.4459   19.4657 C   0  0  0  0  0  0
  -29.5126  -12.4992   18.2353 C   0  0  0  0  0  0
  -28.0432  -12.2976   18.6559 C   0  0  0  0  0  0
  -27.6452  -13.2046   19.8485 C   0  0  2  0  0  0
  -28.6882  -13.1103   20.9848 C   0  0  0  0  0  0
  -25.2550  -13.8128   20.5656 C   0  0  0  0  0  0
  -24.1824  -13.0420   20.9217 C   0  0  0  0  0  0
  -24.6372  -11.6885   20.8741 C   0  0  0  0  0  0
  -23.9053  -10.4271   21.0401 C   0  0  0  0  0  0
  -24.3604   -9.4186   21.9191 C   0  0  0  0  0  0
  -23.6272   -8.2231   22.0756 C   0  0  0  0  0  0
  -22.4255   -8.0279   21.3537 C   0  0  0  0  0  0
  -21.9904   -9.0255   20.4641 C   0  0  0  0  0  0
  -22.7239  -10.2123   20.3040 C   0  0  0  0  0  0
  -21.6846   -6.0738   22.5274 C   0  0  0  0  0  0
  -21.4028   -6.5634   23.8210 C   0  0  0  0  0  0
  -21.3653   -5.6780   24.9173 C   0  0  0  0  0  0
  -21.6026   -4.3054   24.7218 C   0  0  0  0  0  0
  -21.8826   -3.8148   23.4333 C   0  0  0  0  0  0
  -21.9201   -4.6961   22.3395 C   0  0  0  0  0  0
  -22.7852  -13.5221   21.1881 C   0  0  0  0  0  0
  -22.1662   -4.2154   21.0977 F   0  0  0  0  0  0
  -21.5619   -3.4542   25.7732 F   0  0  0  0  0  0
  -29.9951  -13.4820   20.4183 N   0  0  0  0  0  0
  -26.2939  -12.9270   20.3216 N   0  0  0  0  0  0
  -25.9287  -11.6448   20.5724 N   0  0  0  0  0  0
  -22.0484  -12.8206   22.0405 N   0  0  0  0  0  0
  -25.4300  -15.1839   20.4025 N   0  0  0  0  0  0
  -31.7463  -14.8971   20.1387 O   0  0  0  0  0  0
  -21.6620   -6.8880   21.4230 O   0  0  0  0  0  0
  -22.3545  -14.5528   20.6731 O   0  0  0  0  0  0
  -24.6269  -31.8564   23.1985 C   0  0  0  0  0  0
  -25.9121  -32.4741   23.8297 C   0  0  1  0  0  0
  -27.2305  -27.2976   20.1172 C   0  0  0  0  0  0
  -25.5952  -33.8540   24.2265 N   0  0  0  0  0  0
  -23.4194  -30.4720   21.5430 C   0  0  2  0  0  0
  -24.8679  -28.9129   20.1185 C   0  0  0  0  0  0
  -22.7473  -29.4555   22.4966 C   0  0  0  0  0  0
  -18.0286  -28.1334   22.8443 C   0  0  0  0  0  0
  -24.1490  -36.7263   23.2653 C   0  0  0  0  0  0
  -25.9591  -30.7810   21.3648 C   0  0  0  0  0  0
  -26.0349  -29.3993   20.7184 C   0  0  0  0  0  0
  -27.2217  -28.6053   20.6992 C   0  0  0  0  0  0
  -26.0412  -26.8529   19.5093 C   0  0  0  0  0  0
  -24.8741  -27.6474   19.5029 C   0  0  0  0  0  0
  -23.6337  -29.7947   20.1618 C   0  0  0  0  0  0
  -25.4107  -36.3068   24.0360 C   0  0  1  0  0  0
  -20.5883  -28.3618   23.1307 C   0  0  2  0  0  0
  -20.6764  -26.9334   22.5415 C   0  0  0  0  0  0
  -19.5741  -26.6336   21.5198 C   0  0  0  0  0  0
  -18.1913  -26.7870   22.1604 C   0  0  0  0  0  0
  -19.1539  -28.8797   23.2850 C   0  0  0  0  0  0
  -18.9477  -30.1402   23.8868 C   0  0  0  0  0  0
  -17.6480  -30.6549   24.0523 C   0  0  0  0  0  0
  -25.9042  -34.9428   23.5108 C   0  0  0  0  0  0
  -16.5367  -29.9022   23.6332 C   0  0  0  0  0  0
  -16.7278  -28.6452   23.0325 C   0  0  0  0  0  0
  -26.4528  -31.6541   25.0650 C   0  0  0  0  0  0
  -25.3764  -31.3667   26.1378 C   0  0  0  0  0  0
  -27.0397  -30.3007   24.6011 C   0  0  0  0  0  0
  -27.6091  -32.4269   25.7435 C   0  0  0  0  0  0
  -27.5576  -37.1778   24.8478 C   0  0  0  0  0  0
  -21.4187  -29.2989   22.3734 N   0  0  0  0  0  0
  -26.4290  -37.3746   23.9424 N   0  0  0  0  0  0
  -24.6883  -31.0527   22.0945 N   0  0  0  0  0  0
  -23.4211  -28.8077   23.3012 O   0  0  0  0  0  0
  -28.3868  -26.5067   20.0400 O   0  0  0  0  0  0
  -26.5571  -34.8923   22.4646 O   0  0  0  0  0  0
  -23.5437  -32.1404   23.7304 O   0  0  0  0  0  0
  -28.4156  -17.8767   20.4937 C   0  0  0  0  0  0
  -30.5677  -19.4559   20.4901 C   0  0  0  0  0  0
  -29.6973  -17.2434   20.5609 C   0  0  0  0  0  0
  -29.2710  -20.0671   20.4425 C   0  0  0  0  0  0
  -28.3866  -21.7578   18.1704 C   0  0  0  0  0  0
  -28.0083  -23.8329   19.6506 C   0  0  0  0  0  0
  -28.4592  -25.0981   20.5229 C   0  0  0  0  0  0
  -28.8836  -22.4746   19.4453 C   0  0  1  0  0  0
  -30.7773  -18.0874   20.5358 N   0  0  0  0  0  0
  -28.1988  -19.2313   20.4220 N   0  0  0  0  0  0
  -29.6885  -15.7721   20.7040 N   0  0  0  0  0  0
  -29.0137  -21.4875   20.5787 N   0  0  0  0  0  0
  -31.4842  -12.5998   19.1626 H   0  0  0  0  0  0
  -30.4160  -11.4611   19.9357 H   0  0  0  0  0  0
  -29.8043  -11.7404   17.5077 H   0  0  0  0  0  0
  -29.6165  -13.4632   17.7349 H   0  0  0  0  0  0
  -27.9314  -11.2500   18.9397 H   0  0  0  0  0  0
  -27.3748  -12.4553   17.8077 H   0  0  0  0  0  0
  -27.6470  -14.2220   19.4594 H   0  0  0  0  0  0
  -28.7226  -12.0969   21.3873 H   0  0  0  0  0  0
  -28.4096  -13.7527   21.8231 H   0  0  0  0  0  0
  -25.2750   -9.5668   22.4750 H   0  0  0  0  0  0
  -23.9995   -7.4616   22.7468 H   0  0  0  0  0  0
  -21.0851   -8.8751   19.8932 H   0  0  0  0  0  0
  -22.3709  -10.9651   19.6122 H   0  0  0  0  0  0
  -21.2023   -7.6135   23.9721 H   0  0  0  0  0  0
  -21.1458   -6.0511   25.9077 H   0  0  0  0  0  0
  -22.0607   -2.7610   23.2833 H   0  0  0  0  0  0
  -22.4102  -11.9852   22.4775 H   0  0  0  0  0  0
  -21.1066  -13.1195   22.2559 H   0  0  0  0  0  0
  -24.6585  -15.8342   20.5029 H   0  0  0  0  0  0
  -26.2367  -15.6018   19.9607 H   0  0  0  0  0  0
  -26.7156  -32.5446   23.1016 H   0  0  0  0  0  0
  -25.0227  -33.9647   25.0508 H   0  0  0  0  0  0
  -22.7130  -31.2911   21.3907 H   0  0  0  0  0  0
  -23.3769  -35.9574   23.3309 H   0  0  0  0  0  0
  -24.3632  -36.8911   22.2074 H   0  0  0  0  0  0
  -23.7206  -37.6455   23.6672 H   0  0  0  0  0  0
  -26.0743  -31.5350   20.5848 H   0  0  0  0  0  0
  -26.8502  -30.8473   21.9773 H   0  0  0  0  0  0
  -28.1304  -28.9799   21.1478 H   0  0  0  0  0  0
  -26.0207  -25.8932   19.0150 H   0  0  0  0  0  0
  -23.9817  -27.2741   19.0202 H   0  0  0  0  0  0
  -23.7417  -30.5661   19.4005 H   0  0  0  0  0  0
  -22.7562  -29.2175   19.8645 H   0  0  0  0  0  0
  -25.1267  -36.1943   25.0861 H   0  0  0  0  0  0
  -20.9953  -28.3160   24.1437 H   0  0  0  0  0  0
  -20.5678  -26.2181   23.3593 H   0  0  0  0  0  0
  -21.6612  -26.7334   22.1196 H   0  0  0  0  0  0
  -19.6902  -25.6251   21.1207 H   0  0  0  0  0  0
  -19.6721  -27.3149   20.6737 H   0  0  0  0  0  0
  -17.4182  -26.6662   21.3995 H   0  0  0  0  0  0
  -18.0269  -25.9986   22.8986 H   0  0  0  0  0  0
  -19.7964  -30.7190   24.2237 H   0  0  0  0  0  0
  -17.5041  -31.6243   24.5077 H   0  0  0  0  0  0
  -15.5353  -30.2895   23.7692 H   0  0  0  0  0  0
  -15.8683  -28.0773   22.7025 H   0  0  0  0  0  0
  -24.5986  -30.6944   25.7740 H   0  0  0  0  0  0
  -24.8868  -32.2801   26.4756 H   0  0  0  0  0  0
  -25.8095  -30.8922   27.0185 H   0  0  0  0  0  0
  -26.2934  -29.6711   24.1135 H   0  0  0  0  0  0
  -27.4322  -29.7275   25.4428 H   0  0  0  0  0  0
  -27.8691  -30.4414   23.9067 H   0  0  0  0  0  0
  -27.2742  -33.3635   26.1902 H   0  0  0  0  0  0
  -28.3946  -32.6723   25.0269 H   0  0  0  0  0  0
  -28.0662  -31.8425   26.5438 H   0  0  0  0  0  0
  -28.2543  -38.0106   24.7517 H   0  0  0  0  0  0
  -28.1114  -36.2632   24.6301 H   0  0  0  0  0  0
  -27.2304  -37.1426   25.8883 H   0  0  0  0  0  0
  -20.9365  -29.8806   21.7031 H   0  0  0  0  0  0
  -26.0196  -38.2844   24.1405 H   0  0  0  0  0  0
  -27.5206  -17.2738   20.5266 H   0  0  0  0  0  0
  -31.4570  -20.0681   20.5306 H   0  0  0  0  0  0
  -28.2514  -22.4501   17.3393 H   0  0  0  0  0  0
  -27.4299  -21.2585   18.3345 H   0  0  0  0  0  0
  -29.1011  -21.0078   17.8285 H   0  0  0  0  0  0
  -27.8737  -24.2556   18.6522 H   0  0  0  0  0  0
  -26.9992  -23.5554   19.9538 H   0  0  0  0  0  0
  -29.5151  -24.9502   20.7456 H   0  0  0  0  0  0
  -27.9695  -25.0466   21.4969 H   0  0  0  0  0  0
  -29.8994  -22.8069   19.2205 H   0  0  0  0  0  0
  -28.7718  -15.4136   20.9222 H   0  0  0  0  0  0
  -29.7046  -21.8622   21.2245 H   0  0  0  0  0  0
  1 25  1  0  0  0
  1 30  2  0  0  0
  1 81  1  0  0  0
  2  3  1  0  0  0
  2 25  1  0  0  0
  2 83  1  0  0  0
  2 84  1  0  0  0
  3  4  1  0  0  0
  3 85  1  0  0  0
  3 86  1  0  0  0
  4  5  1  0  0  0
  4 87  1  0  0  0
  4 88  1  0  0  0
  5  6  1  0  0  0
  5 26  1  0  0  0
  5 89  1  0  0  0
  6 25  1  0  0  0
  6 90  1  0  0  0
  6 91  1  0  0  0
  7  8  2  0  0  0
  7 26  1  0  0  0
  7 29  1  0  0  0
  8  9  1  0  0  0
  8 22  1  0  0  0
  9 10  1  0  0  0
  9 27  2  0  0  0
 10 11  2  0  0  0
 10 15  1  0  0  0
 11 12  1  0  0  0
 11 92  1  0  0  0
 12 13  2  0  0  0
 12 93  1  0  0  0
 13 14  1  0  0  0
 13 31  1  0  0  0
 14 15  2  0  0  0
 14 94  1  0  0  0
 15 95  1  0  0  0
 16 17  2  0  0  0
 16 21  1  0  0  0
 16 31  1  0  0  0
 17 18  1  0  0  0
 17 96  1  0  0  0
 18 19  2  0  0  0
 18 97  1  0  0  0
 19 20  1  0  0  0
 19 24  1  0  0  0
 20 21  2  0  0  0
 20 98  1  0  0  0
 21 23  1  0  0  0
 22 28  1  0  0  0
 22 32  2  0  0  0
 26 27  1  0  0  0
 28 99  1  0  0  0
 28100  1  0  0  0
 29101  1  0  0  0
 29102  1  0  0  0
 33 34  1  0  0  0
 33 66  1  0  0  0
 33 70  2  0  0  0
 34 36  1  0  0  0
 34 59  1  0  0  0
 34103  1  0  0  0
 35 44  2  0  0  0
 35 45  1  0  0  0
 35 68  1  0  0  0
 36 56  1  0  0  0
 36104  1  0  0  0
 37 39  1  0  0  0
 37 47  1  0  0  0
 37 66  1  0  0  0
 37105  1  0  0  0
 38 43  2  0  0  0
 38 46  1  0  0  0
 38 47  1  0  0  0
 39 64  1  0  0  0
 39 67  2  0  0  0
 40 52  1  0  0  0
 40 53  2  0  0  0
 40 58  1  0  0  0
 41106  1  0  0  0
 41107  1  0  0  0
 41108  1  0  0  0
 41 48  1  0  0  0
 42 43  1  0  0  0
 42 66  1  0  0  0
 42109  1  0  0  0
 42110  1  0  0  0
 43 44  1  0  0  0
 44111  1  0  0  0
 45 46  2  0  0  0
 45112  1  0  0  0
 46113  1  0  0  0
 47114  1  0  0  0
 47115  1  0  0  0
 48 56  1  0  0  0
 48 65  1  0  0  0
 48116  1  0  0  0
 49 50  1  0  0  0
 49 53  1  0  0  0
 49 64  1  0  0  0
 49117  1  0  0  0
 50 51  1  0  0  0
 50118  1  0  0  0
 50119  1  0  0  0
 51 52  1  0  0  0
 51120  1  0  0  0
 51121  1  0  0  0
 52122  1  0  0  0
 52123  1  0  0  0
 53 54  1  0  0  0
 54 55  2  0  0  0
 54124  1  0  0  0
 55 57  1  0  0  0
 55125  1  0  0  0
 56 69  2  0  0  0
 57 58  2  0  0  0
 57126  1  0  0  0
 58127  1  0  0  0
 59 60  1  0  0  0
 59 61  1  0  0  0
 59 62  1  0  0  0
 60128  1  0  0  0
 60129  1  0  0  0
 60130  1  0  0  0
 61131  1  0  0  0
 61132  1  0  0  0
 61133  1  0  0  0
 62134  1  0  0  0
 62135  1  0  0  0
 62136  1  0  0  0
 63 65  1  0  0  0
 63137  1  0  0  0
 63138  1  0  0  0
 63139  1  0  0  0
 64140  1  0  0  0
 65141  1  0  0  0
 68 77  1  0  0  0
 71 73  2  0  0  0
 71 80  1  0  0  0
 71142  1  0  0  0
 72 74  1  0  0  0
 72 79  2  0  0  0
 72143  1  0  0  0
 73 79  1  0  0  0
 73 81  1  0  0  0
 74 80  2  0  0  0
 74 82  1  0  0  0
 75144  1  0  0  0
 75145  1  0  0  0
 75146  1  0  0  0
 75 78  1  0  0  0
 76 77  1  0  0  0
 76 78  1  0  0  0
 76147  1  0  0  0
 76148  1  0  0  0
 77149  1  0  0  0
 77150  1  0  0  0
 78 82  1  0  0  0
 78151  1  0  0  0
 81152  1  0  0  0
 82153  1  0  0  0
M  ISO  4   1 100  68 101  77 101  81 100
M  END
> <chiral flag>
0

> <version>
0

> <s_m_source_file>
/data/baiqing/PycharmProjects/Reinvent-master-3.2/result/LINK_invent/BTK/process_docking_weight1_custom_product_contain_oxygen_bond_distance_aromatic_linkinvent_7_9_3/rearranged_h_0198.sdf

> <i_m_source_file_index>
59

> <r_mmod_Potential_Energy-OPLS-2005>
180.517074584961

> <r_mmod_Stretch_Energy-OPLS-2005>
104.536865234375

> <r_mmod_Bend_Energy-OPLS-2005>
199.353866577148

> <r_mmod_Torsional_Energy-OPLS-2005>
259.644714355469

> <r_mmod_Improper_Torsional_Energy-OPLS-2005>
11.4671144485474

> <r_mmod_Van_der_Waal_Energy-OPLS-2005>
134.266510009766

> <r_mmod_Electrostatic_Energy-OPLS-2005>
-349.09521484375

> <r_mmod_Solvation_Energy-OPLS-2005>
-247.646713256836

> <b_mmod_Minimization_Converged-OPLS-2005>
0

> <r_mmod_RMS_Derivative-OPLS-2005>
3.93250918388367

$$$$
59
                    3D
 Structure written by MMmdl.
156164  0  0  1  0            999 V2000
  -30.7200  -14.4493   20.5206 C   0  0  0  0  0  0
  -30.4198  -12.2709   19.4436 C   0  0  0  0  0  0
  -29.4998  -12.4651   18.2198 C   0  0  0  0  0  0
  -28.0161  -12.3566   18.6245 C   0  0  0  0  0  0
  -27.6643  -13.2077   19.8750 C   0  0  2  0  0  0
  -28.7043  -13.0101   21.0026 C   0  0  0  0  0  0
  -25.2607  -13.8181   20.5667 C   0  0  0  0  0  0
  -24.1866  -13.0465   20.9188 C   0  0  0  0  0  0
  -24.6427  -11.6929   20.8759 C   0  0  0  0  0  0
  -23.9084  -10.4313   21.0421 C   0  0  0  0  0  0
  -24.3621   -9.4224   21.9202 C   0  0  0  0  0  0
  -23.6296   -8.2255   22.0751 C   0  0  0  0  0  0
  -22.4277   -8.0294   21.3545 C   0  0  0  0  0  0
  -21.9910   -9.0271   20.4653 C   0  0  0  0  0  0
  -22.7256  -10.2148   20.3064 C   0  0  0  0  0  0
  -21.6849   -6.0757   22.5294 C   0  0  0  0  0  0
  -21.4005   -6.5655   23.8231 C   0  0  0  0  0  0
  -21.3655   -5.6799   24.9184 C   0  0  0  0  0  0
  -21.6040   -4.3062   24.7237 C   0  0  0  0  0  0
  -21.8819   -3.8160   23.4364 C   0  0  0  0  0  0
  -21.9178   -4.6977   22.3422 C   0  0  0  0  0  0
  -22.7885  -13.5254   21.1818 C   0  0  0  0  0  0
  -22.1628   -4.2169   21.0999 F   0  0  0  0  0  0
  -21.5641   -3.4544   25.7747 F   0  0  0  0  0  0
  -30.0416  -13.2749   20.4480 N   0  0  0  0  0  0
  -26.3052  -12.9358   20.3389 N   0  0  0  0  0  0
  -25.9357  -11.6525   20.5806 N   0  0  0  0  0  0
  -22.0494  -12.8234   22.0333 N   0  0  0  0  0  0
  -25.4316  -15.1894   20.4038 N   0  0  0  0  0  0
  -31.8735  -14.5898   20.1068 O   0  0  0  0  0  0
  -21.6639   -6.8886   21.4253 O   0  0  0  0  0  0
  -22.3595  -14.5583   20.6689 O   0  0  0  0  0  0
  -24.6122  -31.8707   23.2112 C   0  0  0  0  0  0
  -25.9031  -32.4841   23.8406 C   0  0  1  0  0  0
  -27.2403  -27.4632   20.1005 C   0  0  0  0  0  0
  -25.5898  -33.8638   24.2341 N   0  0  0  0  0  0
  -23.3999  -30.4934   21.5501 C   0  0  2  0  0  0
  -24.8491  -28.9599   20.1159 C   0  0  0  0  0  0
  -22.7405  -29.4678   22.4995 C   0  0  0  0  0  0
  -18.0277  -28.1380   22.8498 C   0  0  0  0  0  0
  -24.1488  -36.7324   23.2639 C   0  0  0  0  0  0
  -25.9251  -30.8449   21.3593 C   0  0  0  0  0  0
  -26.0057  -29.4804   20.7105 C   0  0  0  0  0  0
  -27.2068  -28.7398   20.6988 C   0  0  0  0  0  0
  -26.0722  -26.9506   19.4972 C   0  0  0  0  0  0
  -24.8757  -27.6929   19.5066 C   0  0  0  0  0  0
  -23.6084  -29.8226   20.1650 C   0  0  0  0  0  0
  -25.4110  -36.3126   24.0340 C   0  0  1  0  0  0
  -20.5866  -28.3661   23.1323 C   0  0  2  0  0  0
  -20.6766  -26.9400   22.5416 C   0  0  0  0  0  0
  -19.5739  -26.6389   21.5218 C   0  0  0  0  0  0
  -18.1919  -26.7935   22.1623 C   0  0  0  0  0  0
  -19.1528  -28.8835   23.2912 C   0  0  0  0  0  0
  -18.9452  -30.1444   23.8920 C   0  0  0  0  0  0
  -17.6452  -30.6583   24.0571 C   0  0  0  0  0  0
  -25.9032  -34.9489   23.5137 C   0  0  0  0  0  0
  -16.5347  -29.9087   23.6326 C   0  0  0  0  0  0
  -16.7264  -28.6507   23.0346 C   0  0  0  0  0  0
  -26.4467  -31.6611   25.0723 C   0  0  0  0  0  0
  -25.3746  -31.3690   26.1477 C   0  0  0  0  0  0
  -27.0290  -30.3061   24.6071 C   0  0  0  0  0  0
  -27.6054  -32.4317   25.7484 C   0  0  0  0  0  0
  -27.5586  -37.1817   24.8464 C   0  0  0  0  0  0
  -21.4134  -29.3036   22.3734 N   0  0  0  0  0  0
  -26.4298  -37.3806   23.9411 N   0  0  0  0  0  0
  -24.6641  -31.0834   22.0995 N   0  0  0  0  0  0
  -23.4183  -28.8225   23.3039 O   0  0  0  0  0  0
  -28.4036  -26.7334   20.0980 O   0  0  0  0  0  0
  -26.5587  -34.8938   22.4693 O   0  0  0  0  0  0
  -23.5324  -32.1449   23.7527 O   0  0  0  0  0  0
  -30.2090  -16.7570   18.7648 C   0  0  0  0  0  0
  -30.0190  -16.7595   20.1749 C   0  0  0  0  0  0
  -29.7478  -19.0244   20.0011 C   0  0  0  0  0  0
  -30.6862  -22.3582   21.0657 C   0  0  0  0  0  0
  -29.6007  -24.6837   20.6970 C   0  0  0  0  0  0
  -30.4395  -20.8729   21.4399 C   0  0  0  0  0  0
  -28.3256  -25.5314   20.8667 C   0  0  0  0  0  0
  -29.5400  -23.3291   21.4464 C   0  0  2  0  0  0
  -30.1585  -17.9006   18.0420 N   0  0  0  0  0  0
  -29.7832  -17.9482   20.7967 N   0  0  0  0  0  0
  -29.9136  -19.0531   18.6758 N   0  0  0  0  0  0
  -29.9919  -15.5196   20.8802 N   0  0  0  0  0  0
  -29.4620  -20.2420   20.5557 N   0  0  0  0  0  0
  -29.5902  -23.5633   22.8448 O   0  0  0  0  0  0
  -31.4680  -12.3433   19.1467 H   0  0  0  0  0  0
  -30.3020  -11.2708   19.8638 H   0  0  0  0  0  0
  -29.7297  -11.7144   17.4630 H   0  0  0  0  0  0
  -29.6911  -13.4346   17.7600 H   0  0  0  0  0  0
  -27.8090  -11.3039   18.8236 H   0  0  0  0  0  0
  -27.3735  -12.6346   17.7875 H   0  0  0  0  0  0
  -27.7029  -14.2512   19.5645 H   0  0  0  0  0  0
  -28.6637  -11.9915   21.3913 H   0  0  0  0  0  0
  -28.4818  -13.6558   21.8529 H   0  0  0  0  0  0
  -25.2763   -9.5697   22.4782 H   0  0  0  0  0  0
  -24.0016   -7.4633   22.7451 H   0  0  0  0  0  0
  -21.0838   -8.8793   19.8963 H   0  0  0  0  0  0
  -22.3720  -10.9676   19.6154 H   0  0  0  0  0  0
  -21.1993   -7.6158   23.9748 H   0  0  0  0  0  0
  -21.1464   -6.0520   25.9085 H   0  0  0  0  0  0
  -22.0601   -2.7626   23.2864 H   0  0  0  0  0  0
  -22.4070  -11.9893   22.4755 H   0  0  0  0  0  0
  -21.1130  -13.1314   22.2527 H   0  0  0  0  0  0
  -24.6596  -15.8410   20.4958 H   0  0  0  0  0  0
  -26.2840  -15.6296   20.0804 H   0  0  0  0  0  0
  -26.7106  -32.5568   23.1180 H   0  0  0  0  0  0
  -25.0076  -33.9803   25.0506 H   0  0  0  0  0  0
  -22.6875  -31.3092   21.4098 H   0  0  0  0  0  0
  -23.3750  -35.9658   23.3311 H   0  0  0  0  0  0
  -24.3582  -36.8928   22.2052 H   0  0  0  0  0  0
  -23.7239  -37.6533   23.6641 H   0  0  0  0  0  0
  -26.0324  -31.6109   20.5895 H   0  0  0  0  0  0
  -26.8143  -30.9026   21.9750 H   0  0  0  0  0  0
  -28.1014  -29.1380   21.1570 H   0  0  0  0  0  0
  -26.0882  -25.9835   19.0145 H   0  0  0  0  0  0
  -23.9877  -27.2873   19.0422 H   0  0  0  0  0  0
  -23.7145  -30.5963   19.4036 H   0  0  0  0  0  0
  -22.7335  -29.2394   19.8705 H   0  0  0  0  0  0
  -25.1289  -36.1999   25.0834 H   0  0  0  0  0  0
  -20.9967  -28.3227   24.1439 H   0  0  0  0  0  0
  -20.5684  -26.2271   23.3604 H   0  0  0  0  0  0
  -21.6634  -26.7455   22.1197 H   0  0  0  0  0  0
  -19.6898  -25.6306   21.1234 H   0  0  0  0  0  0
  -19.6681  -27.3214   20.6763 H   0  0  0  0  0  0
  -17.4199  -26.6708   21.4012 H   0  0  0  0  0  0
  -18.0297  -26.0063   22.8999 H   0  0  0  0  0  0
  -19.7927  -30.7259   24.2294 H   0  0  0  0  0  0
  -17.5006  -31.6267   24.5172 H   0  0  0  0  0  0
  -15.5347  -30.2990   23.7640 H   0  0  0  0  0  0
  -15.8670  -28.0834   22.7037 H   0  0  0  0  0  0
  -24.5915  -30.7045   25.7805 H   0  0  0  0  0  0
  -24.8942  -32.2835   26.4970 H   0  0  0  0  0  0
  -25.8113  -30.8824   27.0208 H   0  0  0  0  0  0
  -26.2811  -29.6819   24.1165 H   0  0  0  0  0  0
  -27.4116  -29.7299   25.4506 H   0  0  0  0  0  0
  -27.8624  -30.4388   23.9168 H   0  0  0  0  0  0
  -27.2686  -33.3605   26.2101 H   0  0  0  0  0  0
  -28.3849  -32.6897   25.0301 H   0  0  0  0  0  0
  -28.0741  -31.8417   26.5370 H   0  0  0  0  0  0
  -28.2610  -38.0111   24.7522 H   0  0  0  0  0  0
  -28.1080  -36.2647   24.6276 H   0  0  0  0  0  0
  -27.2305  -37.1454   25.8867 H   0  0  0  0  0  0
  -20.9296  -29.8744   21.6943 H   0  0  0  0  0  0
  -26.0195  -38.2891   24.1402 H   0  0  0  0  0  0
  -30.3716  -15.8505   18.1986 H   0  0  0  0  0  0
  -30.8810  -22.4195   19.9939 H   0  0  0  0  0  0
  -31.6133  -22.6964   21.5327 H   0  0  0  0  0  0
  -30.4760  -25.2578   21.0028 H   0  0  0  0  0  0
  -29.7284  -24.4922   19.6304 H   0  0  0  0  0  0
  -30.1114  -20.7883   22.4766 H   0  0  0  0  0  0
  -31.3851  -20.3304   21.3774 H   0  0  0  0  0  0
  -28.1919  -25.7946   21.9179 H   0  0  0  0  0  0
  -27.4604  -24.9331   20.5794 H   0  0  0  0  0  0
  -28.5878  -22.8505   21.2092 H   0  0  0  0  0  0
  -29.1527  -15.3329   21.4035 H   0  0  0  0  0  0
  -29.1969  -20.8759   19.8139 H   0  0  0  0  0  0
  -30.4283  -23.9698   23.0485 H   0  0  0  0  0  0
  1 25  1  0  0  0
  1 30  2  0  0  0
  1 82  1  0  0  0
  2  3  1  0  0  0
  2 25  1  0  0  0
  2 85  1  0  0  0
  2 86  1  0  0  0
  3  4  1  0  0  0
  3 87  1  0  0  0
  3 88  1  0  0  0
  4  5  1  0  0  0
  4 89  1  0  0  0
  4 90  1  0  0  0
  5  6  1  0  0  0
  5 26  1  0  0  0
  5 91  1  0  0  0
  6 25  1  0  0  0
  6 92  1  0  0  0
  6 93  1  0  0  0
  7  8  2  0  0  0
  7 26  1  0  0  0
  7 29  1  0  0  0
  8  9  1  0  0  0
  8 22  1  0  0  0
  9 10  1  0  0  0
  9 27  2  0  0  0
 10 11  2  0  0  0
 10 15  1  0  0  0
 11 12  1  0  0  0
 11 94  1  0  0  0
 12 13  2  0  0  0
 12 95  1  0  0  0
 13 14  1  0  0  0
 13 31  1  0  0  0
 14 15  2  0  0  0
 14 96  1  0  0  0
 15 97  1  0  0  0
 16 17  2  0  0  0
 16 21  1  0  0  0
 16 31  1  0  0  0
 17 18  1  0  0  0
 17 98  1  0  0  0
 18 19  2  0  0  0
 18 99  1  0  0  0
 19 20  1  0  0  0
 19 24  1  0  0  0
 20 21  2  0  0  0
 20100  1  0  0  0
 21 23  1  0  0  0
 22 28  1  0  0  0
 22 32  2  0  0  0
 26 27  1  0  0  0
 28101  1  0  0  0
 28102  1  0  0  0
 29103  1  0  0  0
 29104  1  0  0  0
 33 34  1  0  0  0
 33 66  1  0  0  0
 33 70  2  0  0  0
 34 36  1  0  0  0
 34 59  1  0  0  0
 34105  1  0  0  0
 35 44  2  0  0  0
 35 45  1  0  0  0
 35 68  1  0  0  0
 36 56  1  0  0  0
 36106  1  0  0  0
 37 39  1  0  0  0
 37 47  1  0  0  0
 37 66  1  0  0  0
 37107  1  0  0  0
 38 43  2  0  0  0
 38 46  1  0  0  0
 38 47  1  0  0  0
 39 64  1  0  0  0
 39 67  2  0  0  0
 40 52  1  0  0  0
 40 53  2  0  0  0
 40 58  1  0  0  0
 41108  1  0  0  0
 41109  1  0  0  0
 41110  1  0  0  0
 41 48  1  0  0  0
 42 43  1  0  0  0
 42 66  1  0  0  0
 42111  1  0  0  0
 42112  1  0  0  0
 43 44  1  0  0  0
 44113  1  0  0  0
 45 46  2  0  0  0
 45114  1  0  0  0
 46115  1  0  0  0
 47116  1  0  0  0
 47117  1  0  0  0
 48 56  1  0  0  0
 48 65  1  0  0  0
 48118  1  0  0  0
 49 50  1  0  0  0
 49 53  1  0  0  0
 49 64  1  0  0  0
 49119  1  0  0  0
 50 51  1  0  0  0
 50120  1  0  0  0
 50121  1  0  0  0
 51 52  1  0  0  0
 51122  1  0  0  0
 51123  1  0  0  0
 52124  1  0  0  0
 52125  1  0  0  0
 53 54  1  0  0  0
 54 55  2  0  0  0
 54126  1  0  0  0
 55 57  1  0  0  0
 55127  1  0  0  0
 56 69  2  0  0  0
 57 58  2  0  0  0
 57128  1  0  0  0
 58129  1  0  0  0
 59 60  1  0  0  0
 59 61  1  0  0  0
 59 62  1  0  0  0
 60130  1  0  0  0
 60131  1  0  0  0
 60132  1  0  0  0
 61133  1  0  0  0
 61134  1  0  0  0
 61135  1  0  0  0
 62136  1  0  0  0
 62137  1  0  0  0
 62138  1  0  0  0
 63 65  1  0  0  0
 63139  1  0  0  0
 63140  1  0  0  0
 63141  1  0  0  0
 64142  1  0  0  0
 65143  1  0  0  0
 68 77  1  0  0  0
 71 72  2  0  0  0
 71 79  1  0  0  0
 71144  1  0  0  0
 72 80  1  0  0  0
 72 82  1  0  0  0
 73 80  2  0  0  0
 73 81  1  0  0  0
 73 83  1  0  0  0
 74 76  1  0  0  0
 74 78  1  0  0  0
 74145  1  0  0  0
 74146  1  0  0  0
 75 77  1  0  0  0
 75 78  1  0  0  0
 75147  1  0  0  0
 75148  1  0  0  0
 76 83  1  0  0  0
 76149  1  0  0  0
 76150  1  0  0  0
 77151  1  0  0  0
 77152  1  0  0  0
 78 84  1  0  0  0
 78153  1  0  0  0
 79 81  2  0  0  0
 82154  1  0  0  0
 83155  1  0  0  0
 84156  1  0  0  0
M  ISO  4   1 100  68 101  77 101  82 100
M  END
> <chiral flag>
0

> <version>
0

> <s_m_source_file>
/data/baiqing/PycharmProjects/Reinvent-master-3.2/result/LINK_invent/BTK/process_docking_weight1_custom_product_contain_oxygen_bond_distance_aromatic_linkinvent_7_9_3/rearranged_h_0198.sdf

> <i_m_source_file_index>
60

> <r_mmod_Potential_Energy-OPLS-2005>
-118.894874572754

> <r_mmod_Stretch_Energy-OPLS-2005>
36.2942581176758

> <r_mmod_Bend_Energy-OPLS-2005>
91.3750686645508

> <r_mmod_Torsional_Energy-OPLS-2005>
281.549041748047

> <r_mmod_Improper_Torsional_Energy-OPLS-2005>
11.7482147216797

> <r_mmod_Van_der_Waal_Energy-OPLS-2005>
163.832168579102

> <r_mmod_Electrostatic_Energy-OPLS-2005>
-464.448974609375

> <r_mmod_Solvation_Energy-OPLS-2005>
-252.455200195312

> <b_mmod_Minimization_Converged-OPLS-2005>
0

> <r_mmod_RMS_Derivative-OPLS-2005>
2.05420327186584

$$$$
60
                    3D
 Structure written by MMmdl.
151159  0  0  1  0            999 V2000
  -30.6020  -14.7475   20.4589 C   0  0  0  0  0  0
  -30.4368  -12.4514   19.4840 C   0  0  0  0  0  0
  -29.5180  -12.5130   18.2425 C   0  0  0  0  0  0
  -28.0412  -12.3393   18.6493 C   0  0  0  0  0  0
  -27.6468  -13.2315   19.8570 C   0  0  2  0  0  0
  -28.6892  -13.1506   20.9945 C   0  0  0  0  0  0
  -25.2523  -13.8191   20.5693 C   0  0  0  0  0  0
  -24.1809  -13.0438   20.9192 C   0  0  0  0  0  0
  -24.6397  -11.6913   20.8730 C   0  0  0  0  0  0
  -23.9069  -10.4291   21.0396 C   0  0  0  0  0  0
  -24.3621   -9.4209   21.9175 C   0  0  0  0  0  0
  -23.6301   -8.2243   22.0749 C   0  0  0  0  0  0
  -22.4283   -8.0282   21.3542 C   0  0  0  0  0  0
  -21.9913   -9.0253   20.4645 C   0  0  0  0  0  0
  -22.7239  -10.2133   20.3051 C   0  0  0  0  0  0
  -21.6856   -6.0740   22.5278 C   0  0  0  0  0  0
  -21.4017   -6.5640   23.8212 C   0  0  0  0  0  0
  -21.3660   -5.6791   24.9171 C   0  0  0  0  0  0
  -21.6043   -4.3053   24.7222 C   0  0  0  0  0  0
  -21.8819   -3.8149   23.4340 C   0  0  0  0  0  0
  -21.9190   -4.6968   22.3398 C   0  0  0  0  0  0
  -22.7828  -13.5224   21.1855 C   0  0  0  0  0  0
  -22.1660   -4.2151   21.0978 F   0  0  0  0  0  0
  -21.5629   -3.4537   25.7733 F   0  0  0  0  0  0
  -29.9954  -13.5085   20.4247 N   0  0  0  0  0  0
  -26.2957  -12.9399   20.3290 N   0  0  0  0  0  0
  -25.9328  -11.6539   20.5739 N   0  0  0  0  0  0
  -22.0473  -12.8221   22.0418 N   0  0  0  0  0  0
  -25.4215  -15.1918   20.4132 N   0  0  0  0  0  0
  -31.7746  -14.8566   20.0852 O   0  0  0  0  0  0
  -21.6643   -6.8884   21.4241 O   0  0  0  0  0  0
  -22.3511  -14.5528   20.6702 O   0  0  0  0  0  0
  -24.6323  -31.8546   23.1983 C   0  0  0  0  0  0
  -25.9142  -32.4751   23.8334 C   0  0  1  0  0  0
  -27.2199  -27.2507   20.1264 C   0  0  0  0  0  0
  -25.5935  -33.8555   24.2254 N   0  0  0  0  0  0
  -23.4298  -30.4774   21.5417 C   0  0  2  0  0  0
  -24.8774  -28.9250   20.1071 C   0  0  0  0  0  0
  -22.7508  -29.4595   22.4904 C   0  0  0  0  0  0
  -18.0294  -28.1381   22.8480 C   0  0  0  0  0  0
  -24.1489  -36.7282   23.2641 C   0  0  0  0  0  0
  -25.9775  -30.7613   21.3834 C   0  0  0  0  0  0
  -26.0483  -29.3842   20.7231 C   0  0  0  0  0  0
  -27.2197  -28.5584   20.7248 C   0  0  0  0  0  0
  -26.0295  -26.8731   19.4630 C   0  0  0  0  0  0
  -24.8742  -27.6779   19.4656 C   0  0  0  0  0  0
  -23.6488  -29.8129   20.1570 C   0  0  0  0  0  0
  -25.4117  -36.3071   24.0327 C   0  0  1  0  0  0
  -20.5898  -28.3699   23.1257 C   0  0  2  0  0  0
  -20.6779  -26.9414   22.5403 C   0  0  0  0  0  0
  -19.5753  -26.6376   21.5207 C   0  0  0  0  0  0
  -18.1936  -26.7922   22.1622 C   0  0  0  0  0  0
  -19.1547  -28.8856   23.2864 C   0  0  0  0  0  0
  -18.9469  -30.1457   23.8883 C   0  0  0  0  0  0
  -17.6468  -30.6585   24.0558 C   0  0  0  0  0  0
  -25.9058  -34.9439   23.5094 C   0  0  0  0  0  0
  -16.5359  -29.9081   23.6330 C   0  0  0  0  0  0
  -16.7281  -28.6497   23.0354 C   0  0  0  0  0  0
  -26.4503  -31.6583   25.0733 C   0  0  0  0  0  0
  -25.3717  -31.3745   26.1452 C   0  0  0  0  0  0
  -27.0353  -30.2994   24.6243 C   0  0  0  0  0  0
  -27.6053  -32.4332   25.7504 C   0  0  0  0  0  0
  -27.5581  -37.1795   24.8464 C   0  0  0  0  0  0
  -21.4215  -29.3046   22.3645 N   0  0  0  0  0  0
  -26.4289  -37.3771   23.9410 N   0  0  0  0  0  0
  -24.6988  -31.0498   22.0970 N   0  0  0  0  0  0
  -23.4203  -28.8136   23.3010 O   0  0  0  0  0  0
  -28.3083  -26.3438   20.2139 O   0  0  0  0  0  0
  -26.5633  -34.8914   22.4666 O   0  0  0  0  0  0
  -23.5467  -32.1380   23.7262 O   0  0  0  0  0  0
  -30.6520  -17.7847   19.2908 C   0  0  0  0  0  0
  -30.4820  -19.1552   19.3068 C   0  0  0  0  0  0
  -29.9653  -17.2933   20.4389 C   0  0  0  0  0  0
  -28.8410  -22.1446   20.0660 C   0  0  0  0  0  0
  -29.4782  -20.9407   20.9515 C   0  0  0  0  0  0
  -28.1228  -24.8836   19.8728 C   0  0  0  0  0  0
  -29.0516  -23.7069   20.4999 C   0  0  2  0  0  0
  -29.3982  -18.3543   21.0885 N   0  0  0  0  0  0
  -29.7166  -19.5297   20.4012 N   0  0  0  0  0  0
  -29.8332  -15.8570   20.7888 N   0  0  0  0  0  0
  -30.3804  -24.0244   20.1281 O   0  0  0  0  0  0
  -31.4798  -12.5711   19.1872 H   0  0  0  0  0  0
  -30.3761  -11.4709   19.9598 H   0  0  0  0  0  0
  -29.8024  -11.7425   17.5245 H   0  0  0  0  0  0
  -29.6494  -13.4687   17.7324 H   0  0  0  0  0  0
  -27.8927  -11.2892   18.9028 H   0  0  0  0  0  0
  -27.3874  -12.5414   17.8000 H   0  0  0  0  0  0
  -27.6458  -14.2568   19.4863 H   0  0  0  0  0  0
  -28.7201  -12.1455   21.4183 H   0  0  0  0  0  0
  -28.4216  -13.8154   21.8168 H   0  0  0  0  0  0
  -25.2770   -9.5690   22.4744 H   0  0  0  0  0  0
  -24.0012   -7.4637   22.7468 H   0  0  0  0  0  0
  -21.0841   -8.8774   19.8957 H   0  0  0  0  0  0
  -22.3692  -10.9672   19.6163 H   0  0  0  0  0  0
  -21.2015   -7.6149   23.9717 H   0  0  0  0  0  0
  -21.1485   -6.0520   25.9073 H   0  0  0  0  0  0
  -22.0599   -2.7613   23.2834 H   0  0  0  0  0  0
  -22.4099  -11.9902   22.4833 H   0  0  0  0  0  0
  -21.1090  -13.1246   22.2609 H   0  0  0  0  0  0
  -24.6541  -15.8454   20.5291 H   0  0  0  0  0  0
  -26.2705  -15.6357   20.0872 H   0  0  0  0  0  0
  -26.7209  -32.5391   23.1074 H   0  0  0  0  0  0
  -25.0075  -33.9689   25.0395 H   0  0  0  0  0  0
  -22.7269  -31.3007   21.3962 H   0  0  0  0  0  0
  -23.3754  -35.9610   23.3296 H   0  0  0  0  0  0
  -24.3582  -36.8912   22.2057 H   0  0  0  0  0  0
  -23.7236  -37.6477   23.6671 H   0  0  0  0  0  0
  -26.1234  -31.5219   20.6152 H   0  0  0  0  0  0
  -26.8523  -30.8059   22.0207 H   0  0  0  0  0  0
  -28.1119  -28.9012   21.2294 H   0  0  0  0  0  0
  -25.9554  -25.9297   18.9437 H   0  0  0  0  0  0
  -23.9813  -27.3252   18.9683 H   0  0  0  0  0  0
  -23.7748  -30.5907   19.4031 H   0  0  0  0  0  0
  -22.7665  -29.2485   19.8502 H   0  0  0  0  0  0
  -25.1295  -36.1922   25.0818 H   0  0  0  0  0  0
  -20.9991  -28.3283   24.1377 H   0  0  0  0  0  0
  -20.5670  -26.2314   23.3614 H   0  0  0  0  0  0
  -21.6649  -26.7430   22.1204 H   0  0  0  0  0  0
  -19.6916  -25.6283   21.1247 H   0  0  0  0  0  0
  -19.6686  -27.3177   20.6729 H   0  0  0  0  0  0
  -17.4203  -26.6662   21.4030 H   0  0  0  0  0  0
  -18.0346  -26.0069   22.9025 H   0  0  0  0  0  0
  -19.7947  -30.7274   24.2249 H   0  0  0  0  0  0
  -17.5025  -31.6264   24.5164 H   0  0  0  0  0  0
  -15.5359  -30.2980   23.7656 H   0  0  0  0  0  0
  -15.8683  -28.0811   22.7076 H   0  0  0  0  0  0
  -24.5877  -30.7118   25.7776 H   0  0  0  0  0  0
  -24.8928  -32.2920   26.4881 H   0  0  0  0  0  0
  -25.8021  -30.8909   27.0230 H   0  0  0  0  0  0
  -26.2947  -29.6737   24.1248 H   0  0  0  0  0  0
  -27.4000  -29.7268   25.4781 H   0  0  0  0  0  0
  -27.8844  -30.4258   23.9521 H   0  0  0  0  0  0
  -27.2657  -33.3635   26.2071 H   0  0  0  0  0  0
  -28.3864  -32.6890   25.0331 H   0  0  0  0  0  0
  -28.0726  -31.8468   26.5427 H   0  0  0  0  0  0
  -28.2591  -38.0099   24.7519 H   0  0  0  0  0  0
  -28.1080  -36.2628   24.6277 H   0  0  0  0  0  0
  -27.2299  -37.1434   25.8867 H   0  0  0  0  0  0
  -20.9404  -29.8780   21.6856 H   0  0  0  0  0  0
  -26.0168  -38.2844   24.1409 H   0  0  0  0  0  0
  -31.2049  -17.2190   18.5541 H   0  0  0  0  0  0
  -30.8799  -19.9046   18.6368 H   0  0  0  0  0  0
  -27.7673  -21.9602   20.0183 H   0  0  0  0  0  0
  -29.1820  -22.0296   19.0369 H   0  0  0  0  0  0
  -28.8926  -20.8443   21.8660 H   0  0  0  0  0  0
  -30.4574  -21.2869   21.2843 H   0  0  0  0  0  0
  -27.1147  -24.5987   20.1732 H   0  0  0  0  0  0
  -28.1424  -24.8000   18.7849 H   0  0  0  0  0  0
  -28.9698  -23.7739   21.5863 H   0  0  0  0  0  0
  -28.9703  -15.6246   21.2545 H   0  0  0  0  0  0
  -30.5079  -24.9507   20.3192 H   0  0  0  0  0  0
  1 25  1  0  0  0
  1 30  2  0  0  0
  1 80  1  0  0  0
  2  3  1  0  0  0
  2 25  1  0  0  0
  2 82  1  0  0  0
  2 83  1  0  0  0
  3  4  1  0  0  0
  3 84  1  0  0  0
  3 85  1  0  0  0
  4  5  1  0  0  0
  4 86  1  0  0  0
  4 87  1  0  0  0
  5  6  1  0  0  0
  5 26  1  0  0  0
  5 88  1  0  0  0
  6 25  1  0  0  0
  6 89  1  0  0  0
  6 90  1  0  0  0
  7  8  2  0  0  0
  7 26  1  0  0  0
  7 29  1  0  0  0
  8  9  1  0  0  0
  8 22  1  0  0  0
  9 10  1  0  0  0
  9 27  2  0  0  0
 10 11  2  0  0  0
 10 15  1  0  0  0
 11 12  1  0  0  0
 11 91  1  0  0  0
 12 13  2  0  0  0
 12 92  1  0  0  0
 13 14  1  0  0  0
 13 31  1  0  0  0
 14 15  2  0  0  0
 14 93  1  0  0  0
 15 94  1  0  0  0
 16 17  2  0  0  0
 16 21  1  0  0  0
 16 31  1  0  0  0
 17 18  1  0  0  0
 17 95  1  0  0  0
 18 19  2  0  0  0
 18 96  1  0  0  0
 19 20  1  0  0  0
 19 24  1  0  0  0
 20 21  2  0  0  0
 20 97  1  0  0  0
 21 23  1  0  0  0
 22 28  1  0  0  0
 22 32  2  0  0  0
 26 27  1  0  0  0
 28 98  1  0  0  0
 28 99  1  0  0  0
 29100  1  0  0  0
 29101  1  0  0  0
 33 34  1  0  0  0
 33 66  1  0  0  0
 33 70  2  0  0  0
 34 36  1  0  0  0
 34 59  1  0  0  0
 34102  1  0  0  0
 35 44  2  0  0  0
 35 45  1  0  0  0
 35 68  1  0  0  0
 36 56  1  0  0  0
 36103  1  0  0  0
 37 39  1  0  0  0
 37 47  1  0  0  0
 37 66  1  0  0  0
 37104  1  0  0  0
 38 43  2  0  0  0
 38 46  1  0  0  0
 38 47  1  0  0  0
 39 64  1  0  0  0
 39 67  2  0  0  0
 40 52  1  0  0  0
 40 53  2  0  0  0
 40 58  1  0  0  0
 41105  1  0  0  0
 41106  1  0  0  0
 41107  1  0  0  0
 41 48  1  0  0  0
 42 43  1  0  0  0
 42 66  1  0  0  0
 42108  1  0  0  0
 42109  1  0  0  0
 43 44  1  0  0  0
 44110  1  0  0  0
 45 46  2  0  0  0
 45111  1  0  0  0
 46112  1  0  0  0
 47113  1  0  0  0
 47114  1  0  0  0
 48 56  1  0  0  0
 48 65  1  0  0  0
 48115  1  0  0  0
 49 50  1  0  0  0
 49 53  1  0  0  0
 49 64  1  0  0  0
 49116  1  0  0  0
 50 51  1  0  0  0
 50117  1  0  0  0
 50118  1  0  0  0
 51 52  1  0  0  0
 51119  1  0  0  0
 51120  1  0  0  0
 52121  1  0  0  0
 52122  1  0  0  0
 53 54  1  0  0  0
 54 55  2  0  0  0
 54123  1  0  0  0
 55 57  1  0  0  0
 55124  1  0  0  0
 56 69  2  0  0  0
 57 58  2  0  0  0
 57125  1  0  0  0
 58126  1  0  0  0
 59 60  1  0  0  0
 59 61  1  0  0  0
 59 62  1  0  0  0
 60127  1  0  0  0
 60128  1  0  0  0
 60129  1  0  0  0
 61130  1  0  0  0
 61131  1  0  0  0
 61132  1  0  0  0
 62133  1  0  0  0
 62134  1  0  0  0
 62135  1  0  0  0
 63 65  1  0  0  0
 63136  1  0  0  0
 63137  1  0  0  0
 63138  1  0  0  0
 64139  1  0  0  0
 65140  1  0  0  0
 68 76  1  0  0  0
 71 72  2  0  0  0
 71 73  1  0  0  0
 71141  1  0  0  0
 72 79  1  0  0  0
 72142  1  0  0  0
 73 78  2  0  0  0
 73 80  1  0  0  0
 74 75  1  0  0  0
 74 77  1  0  0  0
 74143  1  0  0  0
 74144  1  0  0  0
 75 79  1  0  0  0
 75145  1  0  0  0
 75146  1  0  0  0
 76 77  1  0  0  0
 76147  1  0  0  0
 76148  1  0  0  0
 77 81  1  0  0  0
 77149  1  0  0  0
 78 79  1  0  0  0
 80150  1  0  0  0
 81151  1  0  0  0
M  ISO  4   1 100  68 101  76 101  80 100
M  END
> <chiral flag>
0

> <version>
0

> <s_m_source_file>
/data/baiqing/PycharmProjects/Reinvent-master-3.2/result/LINK_invent/BTK/process_docking_weight1_custom_product_contain_oxygen_bond_distance_aromatic_linkinvent_7_9_3/rearranged_h_0198.sdf

> <i_m_source_file_index>
61

> <r_mmod_Potential_Energy-OPLS-2005>
101.784225463867

> <r_mmod_Stretch_Energy-OPLS-2005>
127.175727844238

> <r_mmod_Bend_Energy-OPLS-2005>
170.233001708984

> <r_mmod_Torsional_Energy-OPLS-2005>
247.815093994141

> <r_mmod_Improper_Torsional_Energy-OPLS-2005>
4.63010597229004

> <r_mmod_Van_der_Waal_Energy-OPLS-2005>
117.687347412109

> <r_mmod_Electrostatic_Energy-OPLS-2005>
-419.943908691406

> <r_mmod_Solvation_Energy-OPLS-2005>
-234.831039428711

> <b_mmod_Minimization_Converged-OPLS-2005>
0

> <r_mmod_RMS_Derivative-OPLS-2005>
0.90656703710556

$$$$
61
                    3D
 Structure written by MMmdl.
155163  0  0  1  0            999 V2000
  -30.6340  -14.5438   20.5915 C   0  0  0  0  0  0
  -30.4470  -12.3612   19.4125 C   0  0  0  0  0  0
  -29.4996  -12.5330   18.2033 C   0  0  0  0  0  0
  -28.0213  -12.3732   18.6151 C   0  0  0  0  0  0
  -27.6640  -13.2033   19.8756 C   0  0  2  0  0  0
  -28.7082  -12.9585   20.9889 C   0  0  0  0  0  0
  -25.2592  -13.8135   20.5653 C   0  0  0  0  0  0
  -24.1846  -13.0432   20.9193 C   0  0  0  0  0  0
  -24.6390  -11.6897   20.8735 C   0  0  0  0  0  0
  -23.9042  -10.4296   21.0412 C   0  0  0  0  0  0
  -24.3600   -9.4213   21.9191 C   0  0  0  0  0  0
  -23.6288   -8.2239   22.0754 C   0  0  0  0  0  0
  -22.4268   -8.0279   21.3544 C   0  0  0  0  0  0
  -21.9893   -9.0255   20.4651 C   0  0  0  0  0  0
  -22.7212  -10.2141   20.3067 C   0  0  0  0  0  0
  -21.6849   -6.0732   22.5283 C   0  0  0  0  0  0
  -21.4011   -6.5636   23.8219 C   0  0  0  0  0  0
  -21.3658   -5.6786   24.9180 C   0  0  0  0  0  0
  -21.6048   -4.3051   24.7225 C   0  0  0  0  0  0
  -21.8821   -3.8141   23.4346 C   0  0  0  0  0  0
  -21.9191   -4.6958   22.3406 C   0  0  0  0  0  0
  -22.7872  -13.5249   21.1848 C   0  0  0  0  0  0
  -22.1659   -4.2145   21.0980 F   0  0  0  0  0  0
  -21.5636   -3.4534   25.7739 F   0  0  0  0  0  0
  -30.0372  -13.3207   20.4541 N   0  0  0  0  0  0
  -26.3030  -12.9302   20.3336 N   0  0  0  0  0  0
  -25.9311  -11.6465   20.5733 N   0  0  0  0  0  0
  -22.0483  -12.8273   22.0407 N   0  0  0  0  0  0
  -25.4298  -15.1843   20.3999 N   0  0  0  0  0  0
  -31.7264  -14.8108   20.0758 O   0  0  0  0  0  0
  -21.6637   -6.8872   21.4243 O   0  0  0  0  0  0
  -22.3576  -14.5553   20.6679 O   0  0  0  0  0  0
  -24.6190  -31.8635   23.2061 C   0  0  0  0  0  0
  -25.9061  -32.4800   23.8377 C   0  0  1  0  0  0
  -27.2372  -27.3809   20.1222 C   0  0  0  0  0  0
  -25.5903  -33.8599   24.2318 N   0  0  0  0  0  0
  -23.4110  -30.4834   21.5471 C   0  0  2  0  0  0
  -24.8610  -28.9360   20.1206 C   0  0  0  0  0  0
  -22.7433  -29.4637   22.4982 C   0  0  0  0  0  0
  -18.0273  -28.1376   22.8489 C   0  0  0  0  0  0
  -24.1480  -36.7305   23.2640 C   0  0  0  0  0  0
  -25.9437  -30.8129   21.3668 C   0  0  0  0  0  0
  -26.0228  -29.4406   20.7194 C   0  0  0  0  0  0
  -27.2164  -28.6731   20.7105 C   0  0  0  0  0  0
  -26.0590  -26.8983   19.5186 C   0  0  0  0  0  0
  -24.8770  -27.6670   19.5132 C   0  0  0  0  0  0
  -23.6248  -29.8098   20.1647 C   0  0  0  0  0  0
  -25.4100  -36.3103   24.0345 C   0  0  1  0  0  0
  -20.5865  -28.3672   23.1317 C   0  0  2  0  0  0
  -20.6765  -26.9406   22.5428 C   0  0  0  0  0  0
  -19.5754  -26.6385   21.5216 C   0  0  0  0  0  0
  -18.1924  -26.7925   22.1613 C   0  0  0  0  0  0
  -19.1521  -28.8840   23.2898 C   0  0  0  0  0  0
  -18.9445  -30.1441   23.8913 C   0  0  0  0  0  0
  -17.6449  -30.6583   24.0564 C   0  0  0  0  0  0
  -25.9033  -34.9468   23.5132 C   0  0  0  0  0  0
  -16.5341  -29.9085   23.6326 C   0  0  0  0  0  0
  -16.7260  -28.6500   23.0349 C   0  0  0  0  0  0
  -26.4488  -31.6584   25.0714 C   0  0  0  0  0  0
  -25.3754  -31.3696   26.1465 C   0  0  0  0  0  0
  -27.0325  -30.3023   24.6109 C   0  0  0  0  0  0
  -27.6073  -32.4302   25.7460 C   0  0  0  0  0  0
  -27.5585  -37.1796   24.8459 C   0  0  0  0  0  0
  -21.4153  -29.3033   22.3721 N   0  0  0  0  0  0
  -26.4284  -37.3792   23.9422 N   0  0  0  0  0  0
  -24.6762  -31.0691   22.0982 N   0  0  0  0  0  0
  -23.4179  -28.8186   23.3050 O   0  0  0  0  0  0
  -28.3894  -26.6112   20.0788 O   0  0  0  0  0  0
  -26.5596  -34.8928   22.4694 O   0  0  0  0  0  0
  -23.5370  -32.1408   23.7427 O   0  0  0  0  0  0
  -28.2415  -17.1426   21.4178 C   0  0  0  0  0  0
  -29.5366  -16.7935   21.1310 C   0  0  0  0  0  0
  -29.6560  -19.0993   20.8531 C   0  0  0  0  0  0
  -30.9539  -23.3703   20.3074 C   0  0  0  0  0  0
  -30.2866  -20.4914   20.7309 C   0  0  0  0  0  0
  -28.4895  -24.0095   20.1422 C   0  0  0  0  0  0
  -28.4261  -25.4005   20.8852 C   0  0  0  0  0  0
  -29.5226  -22.9548   20.7177 C   0  0  1  0  0  0
  -30.3344  -17.9180   20.7995 N   0  0  0  0  0  0
  -29.9118  -15.4199   21.3315 N   0  0  0  0  0  0
  -29.2362  -21.5085   20.3675 N   0  3  0  0  0  0
  -27.9569  -18.8556   21.2638 S   0  0  0  0  0  0
  -31.4829  -12.5101   19.1015 H   0  0  0  0  0  0
  -30.3963  -11.3421   19.7983 H   0  0  0  0  0  0
  -29.7488  -11.8125   17.4228 H   0  0  0  0  0  0
  -29.6464  -13.5207   17.7634 H   0  0  0  0  0  0
  -27.8392  -11.3149   18.8045 H   0  0  0  0  0  0
  -27.3673  -12.6491   17.7866 H   0  0  0  0  0  0
  -27.7118  -14.2547   19.5907 H   0  0  0  0  0  0
  -28.7075  -11.9058   21.2758 H   0  0  0  0  0  0
  -28.4424  -13.4952   21.8999 H   0  0  0  0  0  0
  -25.2743   -9.5696   22.4763 H   0  0  0  0  0  0
  -24.0006   -7.4627   22.7464 H   0  0  0  0  0  0
  -21.0823   -8.8770   19.8961 H   0  0  0  0  0  0
  -22.3664  -10.9682   19.6181 H   0  0  0  0  0  0
  -21.2001   -7.6146   23.9723 H   0  0  0  0  0  0
  -21.1478   -6.0514   25.9084 H   0  0  0  0  0  0
  -22.0599   -2.7601   23.2844 H   0  0  0  0  0  0
  -22.4064  -11.9940   22.4827 H   0  0  0  0  0  0
  -21.1102  -13.1336   22.2581 H   0  0  0  0  0  0
  -24.6471  -15.8247   20.4773 H   0  0  0  0  0  0
  -26.2390  -15.6003   19.9571 H   0  0  0  0  0  0
  -26.7125  -32.5508   23.1134 H   0  0  0  0  0  0
  -25.0072  -33.9752   25.0478 H   0  0  0  0  0  0
  -22.7020  -31.3012   21.4025 H   0  0  0  0  0  0
  -23.3751  -35.9627   23.3289 H   0  0  0  0  0  0
  -24.3584  -36.8930   22.2058 H   0  0  0  0  0  0
  -23.7215  -37.6501   23.6657 H   0  0  0  0  0  0
  -26.0598  -31.5738   20.5941 H   0  0  0  0  0  0
  -26.8298  -30.8710   21.9872 H   0  0  0  0  0  0
  -28.1161  -29.0616   21.1669 H   0  0  0  0  0  0
  -26.0595  -25.9257   19.0465 H   0  0  0  0  0  0
  -23.9865  -27.2743   19.0416 H   0  0  0  0  0  0
  -23.7387  -30.5823   19.4033 H   0  0  0  0  0  0
  -22.7478  -29.2317   19.8677 H   0  0  0  0  0  0
  -25.1272  -36.1970   25.0837 H   0  0  0  0  0  0
  -20.9946  -28.3241   24.1443 H   0  0  0  0  0  0
  -20.5665  -26.2282   23.3616 H   0  0  0  0  0  0
  -21.6639  -26.7451   22.1229 H   0  0  0  0  0  0
  -19.6925  -25.6298   21.1242 H   0  0  0  0  0  0
  -19.6704  -27.3200   20.6751 H   0  0  0  0  0  0
  -17.4207  -26.6686   21.3998 H   0  0  0  0  0  0
  -18.0311  -26.0055   22.8994 H   0  0  0  0  0  0
  -19.7920  -30.7246   24.2300 H   0  0  0  0  0  0
  -17.5005  -31.6265   24.5160 H   0  0  0  0  0  0
  -15.5343  -30.2993   23.7639 H   0  0  0  0  0  0
  -15.8658  -28.0823   22.7062 H   0  0  0  0  0  0
  -24.5924  -30.7043   25.7806 H   0  0  0  0  0  0
  -24.8945  -32.2849   26.4922 H   0  0  0  0  0  0
  -25.8111  -30.8861   27.0218 H   0  0  0  0  0  0
  -26.2871  -29.6761   24.1188 H   0  0  0  0  0  0
  -27.4119  -29.7282   25.4574 H   0  0  0  0  0  0
  -27.8698  -30.4337   23.9250 H   0  0  0  0  0  0
  -27.2703  -33.3582   26.2089 H   0  0  0  0  0  0
  -28.3843  -32.6891   25.0255 H   0  0  0  0  0  0
  -28.0789  -31.8394   26.5324 H   0  0  0  0  0  0
  -28.2594  -38.0104   24.7533 H   0  0  0  0  0  0
  -28.1088  -36.2641   24.6235 H   0  0  0  0  0  0
  -27.2320  -37.1393   25.8864 H   0  0  0  0  0  0
  -20.9322  -29.8752   21.6936 H   0  0  0  0  0  0
  -26.0178  -38.2871   24.1431 H   0  0  0  0  0  0
  -27.4254  -16.5061   21.7362 H   0  0  0  0  0  0
  -31.1431  -24.4195   20.5345 H   0  0  0  0  0  0
  -31.1165  -23.2377   19.2372 H   0  0  0  0  0  0
  -31.7180  -22.8021   20.8373 H   0  0  0  0  0  0
  -31.0814  -20.4756   19.9845 H   0  0  0  0  0  0
  -30.7356  -20.7381   21.6929 H   0  0  0  0  0  0
  -28.7042  -24.1768   19.0865 H   0  0  0  0  0  0
  -27.4862  -23.5827   20.1650 H   0  0  0  0  0  0
  -29.3131  -25.5028   21.5100 H   0  0  0  0  0  0
  -27.5972  -25.3878   21.5955 H   0  0  0  0  0  0
  -29.4653  -23.0085   21.8065 H   0  0  0  0  0  0
  -29.1996  -14.9064   21.8256 H   0  0  0  0  0  0
  -28.3932  -21.2287   20.8428 H   0  0  0  0  0  0
  -29.0623  -21.4209   19.3795 H   0  0  0  0  0  0
  1 25  1  0  0  0
  1 30  2  0  0  0
  1 80  1  0  0  0
  2  3  1  0  0  0
  2 25  1  0  0  0
  2 83  1  0  0  0
  2 84  1  0  0  0
  3  4  1  0  0  0
  3 85  1  0  0  0
  3 86  1  0  0  0
  4  5  1  0  0  0
  4 87  1  0  0  0
  4 88  1  0  0  0
  5  6  1  0  0  0
  5 26  1  0  0  0
  5 89  1  0  0  0
  6 25  1  0  0  0
  6 90  1  0  0  0
  6 91  1  0  0  0
  7  8  2  0  0  0
  7 26  1  0  0  0
  7 29  1  0  0  0
  8  9  1  0  0  0
  8 22  1  0  0  0
  9 10  1  0  0  0
  9 27  2  0  0  0
 10 11  2  0  0  0
 10 15  1  0  0  0
 11 12  1  0  0  0
 11 92  1  0  0  0
 12 13  2  0  0  0
 12 93  1  0  0  0
 13 14  1  0  0  0
 13 31  1  0  0  0
 14 15  2  0  0  0
 14 94  1  0  0  0
 15 95  1  0  0  0
 16 17  2  0  0  0
 16 21  1  0  0  0
 16 31  1  0  0  0
 17 18  1  0  0  0
 17 96  1  0  0  0
 18 19  2  0  0  0
 18 97  1  0  0  0
 19 20  1  0  0  0
 19 24  1  0  0  0
 20 21  2  0  0  0
 20 98  1  0  0  0
 21 23  1  0  0  0
 22 28  1  0  0  0
 22 32  2  0  0  0
 26 27  1  0  0  0
 28 99  1  0  0  0
 28100  1  0  0  0
 29101  1  0  0  0
 29102  1  0  0  0
 33 34  1  0  0  0
 33 66  1  0  0  0
 33 70  2  0  0  0
 34 36  1  0  0  0
 34 59  1  0  0  0
 34103  1  0  0  0
 35 44  2  0  0  0
 35 45  1  0  0  0
 35 68  1  0  0  0
 36 56  1  0  0  0
 36104  1  0  0  0
 37 39  1  0  0  0
 37 47  1  0  0  0
 37 66  1  0  0  0
 37105  1  0  0  0
 38 43  2  0  0  0
 38 46  1  0  0  0
 38 47  1  0  0  0
 39 64  1  0  0  0
 39 67  2  0  0  0
 40 52  1  0  0  0
 40 53  2  0  0  0
 40 58  1  0  0  0
 41106  1  0  0  0
 41107  1  0  0  0
 41108  1  0  0  0
 41 48  1  0  0  0
 42 43  1  0  0  0
 42 66  1  0  0  0
 42109  1  0  0  0
 42110  1  0  0  0
 43 44  1  0  0  0
 44111  1  0  0  0
 45 46  2  0  0  0
 45112  1  0  0  0
 46113  1  0  0  0
 47114  1  0  0  0
 47115  1  0  0  0
 48 56  1  0  0  0
 48 65  1  0  0  0
 48116  1  0  0  0
 49 50  1  0  0  0
 49 53  1  0  0  0
 49 64  1  0  0  0
 49117  1  0  0  0
 50 51  1  0  0  0
 50118  1  0  0  0
 50119  1  0  0  0
 51 52  1  0  0  0
 51120  1  0  0  0
 51121  1  0  0  0
 52122  1  0  0  0
 52123  1  0  0  0
 53 54  1  0  0  0
 54 55  2  0  0  0
 54124  1  0  0  0
 55 57  1  0  0  0
 55125  1  0  0  0
 56 69  2  0  0  0
 57 58  2  0  0  0
 57126  1  0  0  0
 58127  1  0  0  0
 59 60  1  0  0  0
 59 61  1  0  0  0
 59 62  1  0  0  0
 60128  1  0  0  0
 60129  1  0  0  0
 60130  1  0  0  0
 61131  1  0  0  0
 61132  1  0  0  0
 61133  1  0  0  0
 62134  1  0  0  0
 62135  1  0  0  0
 62136  1  0  0  0
 63 65  1  0  0  0
 63137  1  0  0  0
 63138  1  0  0  0
 63139  1  0  0  0
 64140  1  0  0  0
 65141  1  0  0  0
 68 77  1  0  0  0
 71 72  2  0  0  0
 71 82  1  0  0  0
 71142  1  0  0  0
 72 79  1  0  0  0
 72 80  1  0  0  0
 73 75  1  0  0  0
 73 79  2  0  0  0
 73 82  1  0  0  0
 74143  1  0  0  0
 74144  1  0  0  0
 74145  1  0  0  0
 74 78  1  0  0  0
 75 81  1  0  0  0
 75146  1  0  0  0
 75147  1  0  0  0
 76 77  1  0  0  0
 76 78  1  0  0  0
 76148  1  0  0  0
 76149  1  0  0  0
 77150  1  0  0  0
 77151  1  0  0  0
 78 81  1  0  0  0
 78152  1  0  0  0
 80153  1  0  0  0
 81154  1  0  0  0
 81155  1  0  0  0
M  CHG  1  81   1
M  ISO  4   1 100  68 101  77 101  80 100
M  END
> <chiral flag>
0

> <version>
0

> <s_m_source_file>
/data/baiqing/PycharmProjects/Reinvent-master-3.2/result/LINK_invent/BTK/process_docking_weight1_custom_product_contain_oxygen_bond_distance_aromatic_linkinvent_7_9_3/rearranged_h_0198.sdf

> <i_m_source_file_index>
62

> <r_mmod_Potential_Energy-OPLS-2005>
-230.238632202148

> <r_mmod_Stretch_Energy-OPLS-2005>
55.120059967041

> <r_mmod_Bend_Energy-OPLS-2005>
133.930892944336

> <r_mmod_Torsional_Energy-OPLS-2005>
261.697143554688

> <r_mmod_Improper_Torsional_Energy-OPLS-2005>
6.24018716812134

> <r_mmod_Van_der_Waal_Energy-OPLS-2005>
118.623321533203

> <r_mmod_Electrostatic_Energy-OPLS-2005>
-330.277496337891

> <r_mmod_Solvation_Energy-OPLS-2005>
-498.301147460938

> <b_mmod_Minimization_Converged-OPLS-2005>
0

> <r_mmod_RMS_Derivative-OPLS-2005>
1.02816140651703

$$$$
62
                    3D
 Structure written by MMmdl.
153161  0  0  1  0            999 V2000
  -30.6940  -14.5172   20.5212 C   0  0  0  0  0  0
  -30.4122  -12.3151   19.4611 C   0  0  0  0  0  0
  -29.5002  -12.4849   18.2292 C   0  0  0  0  0  0
  -28.0243  -12.3377   18.6415 C   0  0  0  0  0  0
  -27.6513  -13.2142   19.8669 C   0  0  2  0  0  0
  -28.6870  -13.0643   21.0057 C   0  0  0  0  0  0
  -25.2510  -13.8173   20.5680 C   0  0  0  0  0  0
  -24.1797  -13.0463   20.9208 C   0  0  0  0  0  0
  -24.6373  -11.6926   20.8764 C   0  0  0  0  0  0
  -23.9042  -10.4330   21.0439 C   0  0  0  0  0  0
  -24.3592   -9.4221   21.9174 C   0  0  0  0  0  0
  -23.6291   -8.2243   22.0736 C   0  0  0  0  0  0
  -22.4265   -8.0289   21.3528 C   0  0  0  0  0  0
  -21.9902   -9.0274   20.4631 C   0  0  0  0  0  0
  -22.7232  -10.2161   20.3062 C   0  0  0  0  0  0
  -21.6874   -6.0732   22.5284 C   0  0  0  0  0  0
  -21.4045   -6.5636   23.8214 C   0  0  0  0  0  0
  -21.3663   -5.6785   24.9166 C   0  0  0  0  0  0
  -21.6045   -4.3050   24.7223 C   0  0  0  0  0  0
  -21.8817   -3.8149   23.4340 C   0  0  0  0  0  0
  -21.9195   -4.6966   22.3402 C   0  0  0  0  0  0
  -22.7808  -13.5242   21.1844 C   0  0  0  0  0  0
  -22.1640   -4.2154   21.0977 F   0  0  0  0  0  0
  -21.5614   -3.4527   25.7727 F   0  0  0  0  0  0
  -30.0180  -13.3383   20.4459 N   0  0  0  0  0  0
  -26.2950  -12.9361   20.3320 N   0  0  0  0  0  0
  -25.9284  -11.6514   20.5786 N   0  0  0  0  0  0
  -22.0442  -12.8296   22.0431 N   0  0  0  0  0  0
  -25.4201  -15.1894   20.4037 N   0  0  0  0  0  0
  -31.8527  -14.6354   20.1136 O   0  0  0  0  0  0
  -21.6648   -6.8872   21.4231 O   0  0  0  0  0  0
  -22.3512  -14.5526   20.6635 O   0  0  0  0  0  0
  -24.6127  -31.8681   23.2115 C   0  0  0  0  0  0
  -25.9013  -32.4842   23.8408 C   0  0  1  0  0  0
  -27.2367  -27.4463   20.0994 C   0  0  0  0  0  0
  -25.5851  -33.8641   24.2333 N   0  0  0  0  0  0
  -23.4014  -30.4899   21.5545 C   0  0  2  0  0  0
  -24.8497  -28.9575   20.1186 C   0  0  0  0  0  0
  -22.7408  -29.4655   22.5050 C   0  0  0  0  0  0
  -18.0269  -28.1377   22.8521 C   0  0  0  0  0  0
  -24.1474  -36.7336   23.2645 C   0  0  0  0  0  0
  -25.9304  -30.8363   21.3667 C   0  0  0  0  0  0
  -26.0104  -29.4748   20.7094 C   0  0  0  0  0  0
  -27.2102  -28.7253   20.6953 C   0  0  0  0  0  0
  -26.0645  -26.9424   19.4964 C   0  0  0  0  0  0
  -24.8726  -27.6895   19.5119 C   0  0  0  0  0  0
  -23.6087  -29.8175   20.1729 C   0  0  0  0  0  0
  -25.4099  -36.3116   24.0344 C   0  0  1  0  0  0
  -20.5873  -28.3646   23.1339 C   0  0  2  0  0  0
  -20.6749  -26.9379   22.5435 C   0  0  0  0  0  0
  -19.5728  -26.6382   21.5221 C   0  0  0  0  0  0
  -18.1904  -26.7931   22.1631 C   0  0  0  0  0  0
  -19.1511  -28.8825   23.2934 C   0  0  0  0  0  0
  -18.9455  -30.1443   23.8925 C   0  0  0  0  0  0
  -17.6460  -30.6585   24.0565 C   0  0  0  0  0  0
  -25.9029  -34.9478   23.5140 C   0  0  0  0  0  0
  -16.5349  -29.9099   23.6331 C   0  0  0  0  0  0
  -16.7257  -28.6507   23.0366 C   0  0  0  0  0  0
  -26.4466  -31.6663   25.0744 C   0  0  0  0  0  0
  -25.3745  -31.3782   26.1515 C   0  0  0  0  0  0
  -27.0358  -30.3119   24.6143 C   0  0  0  0  0  0
  -27.6039  -32.4439   25.7468 C   0  0  0  0  0  0
  -27.5577  -37.1798   24.8459 C   0  0  0  0  0  0
  -21.4133  -29.3008   22.3764 N   0  0  0  0  0  0
  -26.4278  -37.3792   23.9396 N   0  0  0  0  0  0
  -24.6659  -31.0799   22.1016 N   0  0  0  0  0  0
  -23.4178  -28.8205   23.3077 O   0  0  0  0  0  0
  -28.3825  -26.6804   20.1024 O   0  0  0  0  0  0
  -26.5603  -34.8917   22.4711 O   0  0  0  0  0  0
  -23.5305  -32.1434   23.7500 O   0  0  0  0  0  0
  -30.1449  -19.4774   20.4883 C   0  0  0  0  0  0
  -28.3444  -20.0258   21.8485 C   0  0  0  0  0  0
  -29.3658  -20.5222   21.0807 C   0  0  0  0  0  0
  -29.7147  -18.2026   20.7897 C   0  0  0  0  0  0
  -30.3447  -16.9382   20.2471 C   0  0  0  0  0  0
  -28.7948  -23.0059   21.2081 C   0  0  0  0  0  0
  -28.2946  -25.5241   20.9552 C   0  0  0  0  0  0
  -29.1558  -24.3261   20.4693 C   0  0  1  0  0  0
  -29.6721  -21.8845   20.8432 N   0  0  0  0  0  0
  -29.9615  -15.6223   20.8041 N   0  0  0  0  0  0
  -30.5179  -24.6131   20.7321 O   0  0  0  0  0  0
  -28.3109  -18.2715   21.8330 S   0  0  0  0  0  0
  -31.4609  -12.3931   19.1710 H   0  0  0  0  0  0
  -30.2941  -11.3216   19.8949 H   0  0  0  0  0  0
  -29.7467  -11.7410   17.4692 H   0  0  0  0  0  0
  -29.6717  -13.4610   17.7750 H   0  0  0  0  0  0
  -27.8547  -11.2849   18.8730 H   0  0  0  0  0  0
  -27.3703  -12.5678   17.8014 H   0  0  0  0  0  0
  -27.6749  -14.2496   19.5274 H   0  0  0  0  0  0
  -28.6559  -12.0585   21.4251 H   0  0  0  0  0  0
  -28.4518  -13.7420   21.8278 H   0  0  0  0  0  0
  -25.2737   -9.5712   22.4737 H   0  0  0  0  0  0
  -24.0011   -7.4651   22.7457 H   0  0  0  0  0  0
  -21.0816   -8.8802   19.8973 H   0  0  0  0  0  0
  -22.3665  -10.9680   19.6175 H   0  0  0  0  0  0
  -21.2051   -7.6151   23.9723 H   0  0  0  0  0  0
  -21.1467   -6.0500   25.9064 H   0  0  0  0  0  0
  -22.0592   -2.7613   23.2835 H   0  0  0  0  0  0
  -22.4056  -12.0013   22.4915 H   0  0  0  0  0  0
  -21.1030  -13.1318   22.2537 H   0  0  0  0  0  0
  -24.6474  -15.8396   20.5003 H   0  0  0  0  0  0
  -26.2591  -15.6337   20.0556 H   0  0  0  0  0  0
  -26.7087  -32.5539   23.1178 H   0  0  0  0  0  0
  -24.9899  -33.9845   25.0392 H   0  0  0  0  0  0
  -22.6862  -31.3047   21.4134 H   0  0  0  0  0  0
  -23.3729  -35.9691   23.3343 H   0  0  0  0  0  0
  -24.3525  -36.8917   22.2048 H   0  0  0  0  0  0
  -23.7277  -37.6563   23.6654 H   0  0  0  0  0  0
  -26.0466  -31.6043   20.6021 H   0  0  0  0  0  0
  -26.8180  -30.8834   21.9881 H   0  0  0  0  0  0
  -28.1062  -29.1187   21.1527 H   0  0  0  0  0  0
  -26.0769  -25.9674   19.0279 H   0  0  0  0  0  0
  -23.9799  -27.2810   19.0576 H   0  0  0  0  0  0
  -23.7103  -30.5881   19.4080 H   0  0  0  0  0  0
  -22.7365  -29.2275   19.8836 H   0  0  0  0  0  0
  -25.1288  -36.1973   25.0848 H   0  0  0  0  0  0
  -20.9957  -28.3191   24.1467 H   0  0  0  0  0  0
  -20.5635  -26.2237   23.3618 H   0  0  0  0  0  0
  -21.6616  -26.7425   22.1212 H   0  0  0  0  0  0
  -19.6866  -25.6295   21.1221 H   0  0  0  0  0  0
  -19.6654  -27.3212   20.6761 H   0  0  0  0  0  0
  -17.4171  -26.6707   21.4031 H   0  0  0  0  0  0
  -18.0291  -26.0076   22.9021 H   0  0  0  0  0  0
  -19.7936  -30.7249   24.2293 H   0  0  0  0  0  0
  -17.5017  -31.6262   24.5165 H   0  0  0  0  0  0
  -15.5345  -30.2988   23.7651 H   0  0  0  0  0  0
  -15.8670  -28.0818   22.7080 H   0  0  0  0  0  0
  -24.5944  -30.7084   25.7858 H   0  0  0  0  0  0
  -24.8901  -32.2928   26.4940 H   0  0  0  0  0  0
  -25.8108  -30.8997   27.0303 H   0  0  0  0  0  0
  -26.2915  -29.6833   24.1220 H   0  0  0  0  0  0
  -27.4184  -29.7405   25.4604 H   0  0  0  0  0  0
  -27.8712  -30.4504   23.9286 H   0  0  0  0  0  0
  -27.2629  -33.3666   26.2169 H   0  0  0  0  0  0
  -28.3735  -32.7155   25.0236 H   0  0  0  0  0  0
  -28.0856  -31.8541   26.5269 H   0  0  0  0  0  0
  -28.2617  -38.0065   24.7481 H   0  0  0  0  0  0
  -28.1050  -36.2603   24.6323 H   0  0  0  0  0  0
  -27.2287  -37.1496   25.8857 H   0  0  0  0  0  0
  -20.9290  -29.8729   21.6991 H   0  0  0  0  0  0
  -26.0191  -38.2886   24.1373 H   0  0  0  0  0  0
  -30.9874  -19.6895   19.8405 H   0  0  0  0  0  0
  -27.5989  -20.5673   22.4196 H   0  0  0  0  0  0
  -31.4270  -17.0647   20.3196 H   0  0  0  0  0  0
  -30.1324  -16.8941   19.1765 H   0  0  0  0  0  0
  -27.7668  -22.7347   20.9525 H   0  0  0  0  0  0
  -28.8260  -23.1658   22.2905 H   0  0  0  0  0  0
  -28.5694  -25.8129   21.9709 H   0  0  0  0  0  0
  -27.2614  -25.1766   21.0255 H   0  0  0  0  0  0
  -29.0212  -24.1921   19.3966 H   0  0  0  0  0  0
  -30.5165  -22.1237   20.3224 H   0  0  0  0  0  0
  -29.0164  -15.4966   21.1351 H   0  0  0  0  0  0
  -30.7304  -25.4055   20.2464 H   0  0  0  0  0  0
  1 25  1  0  0  0
  1 30  2  0  0  0
  1 80  1  0  0  0
  2  3  1  0  0  0
  2 25  1  0  0  0
  2 83  1  0  0  0
  2 84  1  0  0  0
  3  4  1  0  0  0
  3 85  1  0  0  0
  3 86  1  0  0  0
  4  5  1  0  0  0
  4 87  1  0  0  0
  4 88  1  0  0  0
  5  6  1  0  0  0
  5 26  1  0  0  0
  5 89  1  0  0  0
  6 25  1  0  0  0
  6 90  1  0  0  0
  6 91  1  0  0  0
  7  8  2  0  0  0
  7 26  1  0  0  0
  7 29  1  0  0  0
  8  9  1  0  0  0
  8 22  1  0  0  0
  9 10  1  0  0  0
  9 27  2  0  0  0
 10 11  2  0  0  0
 10 15  1  0  0  0
 11 12  1  0  0  0
 11 92  1  0  0  0
 12 13  2  0  0  0
 12 93  1  0  0  0
 13 14  1  0  0  0
 13 31  1  0  0  0
 14 15  2  0  0  0
 14 94  1  0  0  0
 15 95  1  0  0  0
 16 17  2  0  0  0
 16 21  1  0  0  0
 16 31  1  0  0  0
 17 18  1  0  0  0
 17 96  1  0  0  0
 18 19  2  0  0  0
 18 97  1  0  0  0
 19 20  1  0  0  0
 19 24  1  0  0  0
 20 21  2  0  0  0
 20 98  1  0  0  0
 21 23  1  0  0  0
 22 28  1  0  0  0
 22 32  2  0  0  0
 26 27  1  0  0  0
 28 99  1  0  0  0
 28100  1  0  0  0
 29101  1  0  0  0
 29102  1  0  0  0
 33 34  1  0  0  0
 33 66  1  0  0  0
 33 70  2  0  0  0
 34 36  1  0  0  0
 34 59  1  0  0  0
 34103  1  0  0  0
 35 44  2  0  0  0
 35 45  1  0  0  0
 35 68  1  0  0  0
 36 56  1  0  0  0
 36104  1  0  0  0
 37 39  1  0  0  0
 37 47  1  0  0  0
 37 66  1  0  0  0
 37105  1  0  0  0
 38 43  2  0  0  0
 38 46  1  0  0  0
 38 47  1  0  0  0
 39 64  1  0  0  0
 39 67  2  0  0  0
 40 52  1  0  0  0
 40 53  2  0  0  0
 40 58  1  0  0  0
 41106  1  0  0  0
 41107  1  0  0  0
 41108  1  0  0  0
 41 48  1  0  0  0
 42 43  1  0  0  0
 42 66  1  0  0  0
 42109  1  0  0  0
 42110  1  0  0  0
 43 44  1  0  0  0
 44111  1  0  0  0
 45 46  2  0  0  0
 45112  1  0  0  0
 46113  1  0  0  0
 47114  1  0  0  0
 47115  1  0  0  0
 48 56  1  0  0  0
 48 65  1  0  0  0
 48116  1  0  0  0
 49 50  1  0  0  0
 49 53  1  0  0  0
 49 64  1  0  0  0
 49117  1  0  0  0
 50 51  1  0  0  0
 50118  1  0  0  0
 50119  1  0  0  0
 51 52  1  0  0  0
 51120  1  0  0  0
 51121  1  0  0  0
 52122  1  0  0  0
 52123  1  0  0  0
 53 54  1  0  0  0
 54 55  2  0  0  0
 54124  1  0  0  0
 55 57  1  0  0  0
 55125  1  0  0  0
 56 69  2  0  0  0
 57 58  2  0  0  0
 57126  1  0  0  0
 58127  1  0  0  0
 59 60  1  0  0  0
 59 61  1  0  0  0
 59 62  1  0  0  0
 60128  1  0  0  0
 60129  1  0  0  0
 60130  1  0  0  0
 61131  1  0  0  0
 61132  1  0  0  0
 61133  1  0  0  0
 62134  1  0  0  0
 62135  1  0  0  0
 62136  1  0  0  0
 63 65  1  0  0  0
 63137  1  0  0  0
 63138  1  0  0  0
 63139  1  0  0  0
 64140  1  0  0  0
 65141  1  0  0  0
 68 77  1  0  0  0
 71 73  1  0  0  0
 71 74  2  0  0  0
 71142  1  0  0  0
 72 73  2  0  0  0
 72 82  1  0  0  0
 72143  1  0  0  0
 73 79  1  0  0  0
 74 75  1  0  0  0
 74 82  1  0  0  0
 75 80  1  0  0  0
 75144  1  0  0  0
 75145  1  0  0  0
 76 78  1  0  0  0
 76 79  1  0  0  0
 76146  1  0  0  0
 76147  1  0  0  0
 77 78  1  0  0  0
 77148  1  0  0  0
 77149  1  0  0  0
 78 81  1  0  0  0
 78150  1  0  0  0
 79151  1  0  0  0
 80152  1  0  0  0
 81153  1  0  0  0
M  ISO  4   1 100  68 101  77 101  80 100
M  END
> <chiral flag>
0

> <version>
0

> <s_m_source_file>
/data/baiqing/PycharmProjects/Reinvent-master-3.2/result/LINK_invent/BTK/process_docking_weight1_custom_product_contain_oxygen_bond_distance_aromatic_linkinvent_7_9_3/rearranged_h_0198.sdf

> <i_m_source_file_index>
63

> <r_mmod_Potential_Energy-OPLS-2005>
-142.982940673828

> <r_mmod_Stretch_Energy-OPLS-2005>
36.6299934387207

> <r_mmod_Bend_Energy-OPLS-2005>
103.614250183105

> <r_mmod_Torsional_Energy-OPLS-2005>
258.151214599609

> <r_mmod_Improper_Torsional_Energy-OPLS-2005>
7.62240648269653

> <r_mmod_Van_der_Waal_Energy-OPLS-2005>
130.057647705078

> <r_mmod_Electrostatic_Energy-OPLS-2005>
-462.038970947266

> <r_mmod_Solvation_Energy-OPLS-2005>
-235.840789794922

> <b_mmod_Minimization_Converged-OPLS-2005>
0

> <r_mmod_RMS_Derivative-OPLS-2005>
5.91024971008301

$$$$
63
                    3D
 Structure written by MMmdl.
150158  0  0  1  0            999 V2000
  -30.6861  -14.6405   20.4977 C   0  0  0  0  0  0
  -30.4171  -12.3998   19.4631 C   0  0  0  0  0  0
  -29.4973  -12.4962   18.2288 C   0  0  0  0  0  0
  -28.0241  -12.3346   18.6454 C   0  0  0  0  0  0
  -27.6442  -13.2280   19.8567 C   0  0  2  0  0  0
  -28.6903  -13.1409   20.9902 C   0  0  0  0  0  0
  -25.2502  -13.8197   20.5699 C   0  0  0  0  0  0
  -24.1788  -13.0446   20.9208 C   0  0  0  0  0  0
  -24.6374  -11.6921   20.8752 C   0  0  0  0  0  0
  -23.9059  -10.4295   21.0408 C   0  0  0  0  0  0
  -24.3606   -9.4207   21.9187 C   0  0  0  0  0  0
  -23.6282   -8.2241   22.0755 C   0  0  0  0  0  0
  -22.4271   -8.0275   21.3538 C   0  0  0  0  0  0
  -21.9905   -9.0251   20.4646 C   0  0  0  0  0  0
  -22.7229  -10.2131   20.3059 C   0  0  0  0  0  0
  -21.6853   -6.0729   22.5272 C   0  0  0  0  0  0
  -21.4014   -6.5638   23.8205 C   0  0  0  0  0  0
  -21.3659   -5.6791   24.9172 C   0  0  0  0  0  0
  -21.6048   -4.3055   24.7227 C   0  0  0  0  0  0
  -21.8817   -3.8144   23.4350 C   0  0  0  0  0  0
  -21.9191   -4.6955   22.3401 C   0  0  0  0  0  0
  -22.7813  -13.5228   21.1867 C   0  0  0  0  0  0
  -22.1659   -4.2139   21.0978 F   0  0  0  0  0  0
  -21.5631   -3.4541   25.7743 F   0  0  0  0  0  0
  -30.0008  -13.4565   20.4086 N   0  0  0  0  0  0
  -26.2938  -12.9404   20.3324 N   0  0  0  0  0  0
  -25.9305  -11.6552   20.5779 N   0  0  0  0  0  0
  -22.0468  -12.8209   22.0429 N   0  0  0  0  0  0
  -25.4204  -15.1917   20.4097 N   0  0  0  0  0  0
  -31.8659  -14.7018   20.1474 O   0  0  0  0  0  0
  -21.6636   -6.8867   21.4235 O   0  0  0  0  0  0
  -22.3493  -14.5533   20.6715 O   0  0  0  0  0  0
  -24.6278  -31.8598   23.2047 C   0  0  0  0  0  0
  -25.9129  -32.4775   23.8367 C   0  0  1  0  0  0
  -27.2166  -27.3106   20.1142 C   0  0  0  0  0  0
  -25.5934  -33.8574   24.2289 N   0  0  0  0  0  0
  -23.4208  -30.4870   21.5478 C   0  0  2  0  0  0
  -24.8660  -28.9479   20.1107 C   0  0  0  0  0  0
  -22.7482  -29.4625   22.4929 C   0  0  0  0  0  0
  -18.0284  -28.1380   22.8476 C   0  0  0  0  0  0
  -24.1474  -36.7289   23.2635 C   0  0  0  0  0  0
  -25.9642  -30.7880   21.3791 C   0  0  0  0  0  0
  -26.0374  -29.4168   20.7188 C   0  0  0  0  0  0
  -27.2163  -28.6098   20.7133 C   0  0  0  0  0  0
  -26.0198  -26.9088   19.4713 C   0  0  0  0  0  0
  -24.8597  -27.6988   19.4789 C   0  0  0  0  0  0
  -23.6357  -29.8288   20.1605 C   0  0  0  0  0  0
  -25.4098  -36.3080   24.0327 C   0  0  1  0  0  0
  -20.5889  -28.3688   23.1261 C   0  0  2  0  0  0
  -20.6767  -26.9404   22.5403 C   0  0  0  0  0  0
  -19.5741  -26.6384   21.5203 C   0  0  0  0  0  0
  -18.1923  -26.7921   22.1618 C   0  0  0  0  0  0
  -19.1540  -28.8852   23.2857 C   0  0  0  0  0  0
  -18.9467  -30.1451   23.8871 C   0  0  0  0  0  0
  -17.6472  -30.6582   24.0564 C   0  0  0  0  0  0
  -25.9047  -34.9451   23.5112 C   0  0  0  0  0  0
  -16.5357  -29.9083   23.6336 C   0  0  0  0  0  0
  -16.7277  -28.6505   23.0347 C   0  0  0  0  0  0
  -26.4497  -31.6590   25.0746 C   0  0  0  0  0  0
  -25.3720  -31.3735   26.1467 C   0  0  0  0  0  0
  -27.0354  -30.3007   24.6232 C   0  0  0  0  0  0
  -27.6056  -32.4332   25.7517 C   0  0  0  0  0  0
  -27.5567  -37.1792   24.8459 C   0  0  0  0  0  0
  -21.4198  -29.3040   22.3660 N   0  0  0  0  0  0
  -26.4269  -37.3784   23.9418 N   0  0  0  0  0  0
  -24.6898  -31.0609   22.1008 N   0  0  0  0  0  0
  -23.4198  -28.8153   23.3005 O   0  0  0  0  0  0
  -28.3152  -26.4303   20.1776 O   0  0  0  0  0  0
  -26.5617  -34.8924   22.4675 O   0  0  0  0  0  0
  -23.5445  -32.1405   23.7378 O   0  0  0  0  0  0
  -28.7010  -18.8104   20.2890 C   0  0  0  0  0  0
  -30.3386  -20.8893   20.8756 C   0  0  0  0  0  0
  -30.0159  -18.5467   20.7580 C   0  0  0  0  0  0
  -29.0212  -21.1524   20.4096 C   0  0  0  0  0  0
  -30.6912  -17.1359   20.9511 C   0  0  0  0  0  0
  -29.0297  -23.8092   20.3884 C   0  0  0  0  0  0
  -28.0238  -24.9846   19.9979 C   0  0  0  0  0  0
  -30.8195  -19.6161   21.0458 N   0  0  0  0  0  0
  -28.2170  -20.0876   20.1245 N   0  0  0  0  0  0
  -28.4371  -22.4430   20.2056 N   0  0  0  0  0  0
  -30.0117  -15.7954   20.8071 N   0  0  0  0  0  0
  -31.4602  -12.4947   19.1588 H   0  0  0  0  0  0
  -30.3347  -11.4190   19.9339 H   0  0  0  0  0  0
  -29.7653  -11.7324   17.4979 H   0  0  0  0  0  0
  -29.6372  -13.4587   17.7344 H   0  0  0  0  0  0
  -27.8699  -11.2851   18.8990 H   0  0  0  0  0  0
  -27.3660  -12.5422   17.8012 H   0  0  0  0  0  0
  -27.6474  -14.2538   19.4885 H   0  0  0  0  0  0
  -28.7019  -12.1425   21.4296 H   0  0  0  0  0  0
  -28.4404  -13.8264   21.8004 H   0  0  0  0  0  0
  -25.2750   -9.5691   22.4766 H   0  0  0  0  0  0
  -23.9998   -7.4637   22.7475 H   0  0  0  0  0  0
  -21.0838   -8.8762   19.8948 H   0  0  0  0  0  0
  -22.3680  -10.9669   19.6167 H   0  0  0  0  0  0
  -21.2003   -7.6148   23.9704 H   0  0  0  0  0  0
  -21.1488   -6.0528   25.9073 H   0  0  0  0  0  0
  -22.0596   -2.7607   23.2855 H   0  0  0  0  0  0
  -22.4095  -11.9874   22.4808 H   0  0  0  0  0  0
  -21.1085  -13.1227   22.2650 H   0  0  0  0  0  0
  -24.6510  -15.8458   20.5070 H   0  0  0  0  0  0
  -26.2682  -15.6278   20.0709 H   0  0  0  0  0  0
  -26.7202  -32.5440   23.1124 H   0  0  0  0  0  0
  -25.0052  -33.9697   25.0413 H   0  0  0  0  0  0
  -22.7150  -31.3078   21.4077 H   0  0  0  0  0  0
  -23.3733  -35.9622   23.3310 H   0  0  0  0  0  0
  -24.3557  -36.8916   22.2047 H   0  0  0  0  0  0
  -23.7245  -37.6495   23.6663 H   0  0  0  0  0  0
  -26.0983  -31.5520   20.6122 H   0  0  0  0  0  0
  -26.8433  -30.8342   22.0106 H   0  0  0  0  0  0
  -28.1110  -28.9633   21.2065 H   0  0  0  0  0  0
  -25.9388  -25.9603   18.9642 H   0  0  0  0  0  0
  -23.9640  -27.3355   18.9942 H   0  0  0  0  0  0
  -23.7581  -30.6087   19.4081 H   0  0  0  0  0  0
  -22.7541  -29.2625   19.8537 H   0  0  0  0  0  0
  -25.1280  -36.1925   25.0821 H   0  0  0  0  0  0
  -20.9960  -28.3280   24.1392 H   0  0  0  0  0  0
  -20.5669  -26.2301   23.3612 H   0  0  0  0  0  0
  -21.6635  -26.7435   22.1198 H   0  0  0  0  0  0
  -19.6894  -25.6296   21.1239 H   0  0  0  0  0  0
  -19.6674  -27.3186   20.6721 H   0  0  0  0  0  0
  -17.4188  -26.6668   21.4027 H   0  0  0  0  0  0
  -18.0322  -26.0056   22.9007 H   0  0  0  0  0  0
  -19.7950  -30.7264   24.2233 H   0  0  0  0  0  0
  -17.5039  -31.6257   24.5168 H   0  0  0  0  0  0
  -15.5368  -30.2982   23.7674 H   0  0  0  0  0  0
  -15.8677  -28.0840   22.7052 H   0  0  0  0  0  0
  -24.5907  -30.7066   25.7808 H   0  0  0  0  0  0
  -24.8876  -32.2891   26.4858 H   0  0  0  0  0  0
  -25.8028  -30.8951   27.0271 H   0  0  0  0  0  0
  -26.2948  -29.6744   24.1244 H   0  0  0  0  0  0
  -27.4022  -29.7280   25.4763 H   0  0  0  0  0  0
  -27.8832  -30.4285   23.9500 H   0  0  0  0  0  0
  -27.2674  -33.3647   26.2067 H   0  0  0  0  0  0
  -28.3873  -32.6871   25.0348 H   0  0  0  0  0  0
  -28.0713  -31.8474   26.5453 H   0  0  0  0  0  0
  -28.2580  -38.0094   24.7524 H   0  0  0  0  0  0
  -28.1078  -36.2628   24.6272 H   0  0  0  0  0  0
  -27.2286  -37.1436   25.8863 H   0  0  0  0  0  0
  -20.9384  -29.8805   21.6907 H   0  0  0  0  0  0
  -26.0149  -38.2855   24.1443 H   0  0  0  0  0  0
  -28.0338  -17.9997   20.0348 H   0  0  0  0  0  0
  -31.0136  -21.6976   21.1166 H   0  0  0  0  0  0
  -31.1237  -17.1411   21.9521 H   0  0  0  0  0  0
  -31.5480  -17.1562   20.2755 H   0  0  0  0  0  0
  -29.3422  -23.9253   21.4273 H   0  0  0  0  0  0
  -29.9333  -23.8905   19.7825 H   0  0  0  0  0  0
  -27.1095  -24.7726   20.5559 H   0  0  0  0  0  0
  -27.7897  -24.8398   18.9419 H   0  0  0  0  0  0
  -27.4694  -22.4278   19.8974 H   0  0  0  0  0  0
  -29.0342  -15.7273   21.0461 H   0  0  0  0  0  0
  1 25  1  0  0  0
  1 30  2  0  0  0
  1 81  1  0  0  0
  2  3  1  0  0  0
  2 25  1  0  0  0
  2 82  1  0  0  0
  2 83  1  0  0  0
  3  4  1  0  0  0
  3 84  1  0  0  0
  3 85  1  0  0  0
  4  5  1  0  0  0
  4 86  1  0  0  0
  4 87  1  0  0  0
  5  6  1  0  0  0
  5 26  1  0  0  0
  5 88  1  0  0  0
  6 25  1  0  0  0
  6 89  1  0  0  0
  6 90  1  0  0  0
  7  8  2  0  0  0
  7 26  1  0  0  0
  7 29  1  0  0  0
  8  9  1  0  0  0
  8 22  1  0  0  0
  9 10  1  0  0  0
  9 27  2  0  0  0
 10 11  2  0  0  0
 10 15  1  0  0  0
 11 12  1  0  0  0
 11 91  1  0  0  0
 12 13  2  0  0  0
 12 92  1  0  0  0
 13 14  1  0  0  0
 13 31  1  0  0  0
 14 15  2  0  0  0
 14 93  1  0  0  0
 15 94  1  0  0  0
 16 17  2  0  0  0
 16 21  1  0  0  0
 16 31  1  0  0  0
 17 18  1  0  0  0
 17 95  1  0  0  0
 18 19  2  0  0  0
 18 96  1  0  0  0
 19 20  1  0  0  0
 19 24  1  0  0  0
 20 21  2  0  0  0
 20 97  1  0  0  0
 21 23  1  0  0  0
 22 28  1  0  0  0
 22 32  2  0  0  0
 26 27  1  0  0  0
 28 98  1  0  0  0
 28 99  1  0  0  0
 29100  1  0  0  0
 29101  1  0  0  0
 33 34  1  0  0  0
 33 66  1  0  0  0
 33 70  2  0  0  0
 34 36  1  0  0  0
 34 59  1  0  0  0
 34102  1  0  0  0
 35 44  2  0  0  0
 35 45  1  0  0  0
 35 68  1  0  0  0
 36 56  1  0  0  0
 36103  1  0  0  0
 37 39  1  0  0  0
 37 47  1  0  0  0
 37 66  1  0  0  0
 37104  1  0  0  0
 38 43  2  0  0  0
 38 46  1  0  0  0
 38 47  1  0  0  0
 39 64  1  0  0  0
 39 67  2  0  0  0
 40 52  1  0  0  0
 40 53  2  0  0  0
 40 58  1  0  0  0
 41105  1  0  0  0
 41106  1  0  0  0
 41107  1  0  0  0
 41 48  1  0  0  0
 42 43  1  0  0  0
 42 66  1  0  0  0
 42108  1  0  0  0
 42109  1  0  0  0
 43 44  1  0  0  0
 44110  1  0  0  0
 45 46  2  0  0  0
 45111  1  0  0  0
 46112  1  0  0  0
 47113  1  0  0  0
 47114  1  0  0  0
 48 56  1  0  0  0
 48 65  1  0  0  0
 48115  1  0  0  0
 49 50  1  0  0  0
 49 53  1  0  0  0
 49 64  1  0  0  0
 49116  1  0  0  0
 50 51  1  0  0  0
 50117  1  0  0  0
 50118  1  0  0  0
 51 52  1  0  0  0
 51119  1  0  0  0
 51120  1  0  0  0
 52121  1  0  0  0
 52122  1  0  0  0
 53 54  1  0  0  0
 54 55  2  0  0  0
 54123  1  0  0  0
 55 57  1  0  0  0
 55124  1  0  0  0
 56 69  2  0  0  0
 57 58  2  0  0  0
 57125  1  0  0  0
 58126  1  0  0  0
 59 60  1  0  0  0
 59 61  1  0  0  0
 59 62  1  0  0  0
 60127  1  0  0  0
 60128  1  0  0  0
 60129  1  0  0  0
 61130  1  0  0  0
 61131  1  0  0  0
 61132  1  0  0  0
 62133  1  0  0  0
 62134  1  0  0  0
 62135  1  0  0  0
 63 65  1  0  0  0
 63136  1  0  0  0
 63137  1  0  0  0
 63138  1  0  0  0
 64139  1  0  0  0
 65140  1  0  0  0
 68 77  1  0  0  0
 71 73  2  0  0  0
 71 79  1  0  0  0
 71141  1  0  0  0
 72 74  1  0  0  0
 72 78  2  0  0  0
 72142  1  0  0  0
 73 75  1  0  0  0
 73 78  1  0  0  0
 74 79  2  0  0  0
 74 80  1  0  0  0
 75 81  1  0  0  0
 75143  1  0  0  0
 75144  1  0  0  0
 76 77  1  0  0  0
 76 80  1  0  0  0
 76145  1  0  0  0
 76146  1  0  0  0
 77147  1  0  0  0
 77148  1  0  0  0
 80149  1  0  0  0
 81150  1  0  0  0
M  ISO  4   1 100  68 101  77 101  81 100
M  END
> <chiral flag>
0

> <version>
0

> <s_m_source_file>
/data/baiqing/PycharmProjects/Reinvent-master-3.2/result/LINK_invent/BTK/process_docking_weight1_custom_product_contain_oxygen_bond_distance_aromatic_linkinvent_7_9_3/rearranged_h_0198.sdf

> <i_m_source_file_index>
64

> <r_mmod_Potential_Energy-OPLS-2005>
52.9301948547363

> <r_mmod_Stretch_Energy-OPLS-2005>
81.8198471069336

> <r_mmod_Bend_Energy-OPLS-2005>
173.540618896484

> <r_mmod_Torsional_Energy-OPLS-2005>
185.223846435547

> <r_mmod_Improper_Torsional_Energy-OPLS-2005>
3.82537221908569

> <r_mmod_Van_der_Waal_Energy-OPLS-2005>
154.522506713867

> <r_mmod_Electrostatic_Energy-OPLS-2005>
-363.532348632812

> <r_mmod_Solvation_Energy-OPLS-2005>
-238.481262207031

> <b_mmod_Minimization_Converged-OPLS-2005>
0

> <r_mmod_RMS_Derivative-OPLS-2005>
1.55392324924469

$$$$
64
                    3D
 Structure written by MMmdl.
157165  0  0  1  0            999 V2000
  -30.7179  -14.4755   20.4846 C   0  0  0  0  0  0
  -30.4019  -12.2843   19.4388 C   0  0  0  0  0  0
  -29.4950  -12.4828   18.2100 C   0  0  0  0  0  0
  -28.0115  -12.3656   18.6099 C   0  0  0  0  0  0
  -27.6521  -13.2171   19.8589 C   0  0  2  0  0  0
  -28.6947  -13.0486   20.9874 C   0  0  0  0  0  0
  -25.2536  -13.8188   20.5654 C   0  0  0  0  0  0
  -24.1809  -13.0430   20.9176 C   0  0  0  0  0  0
  -24.6367  -11.6909   20.8688 C   0  0  0  0  0  0
  -23.9037  -10.4288   21.0359 C   0  0  0  0  0  0
  -24.3602   -9.4229   21.9159 C   0  0  0  0  0  0
  -23.6288   -8.2256   22.0738 C   0  0  0  0  0  0
  -22.4275   -8.0272   21.3530 C   0  0  0  0  0  0
  -21.9890   -9.0236   20.4635 C   0  0  0  0  0  0
  -22.7193  -10.2126   20.3028 C   0  0  0  0  0  0
  -21.6871   -6.0719   22.5266 C   0  0  0  0  0  0
  -21.4024   -6.5629   23.8197 C   0  0  0  0  0  0
  -21.3664   -5.6784   24.9164 C   0  0  0  0  0  0
  -21.6046   -4.3047   24.7213 C   0  0  0  0  0  0
  -21.8822   -3.8122   23.4340 C   0  0  0  0  0  0
  -21.9207   -4.6942   22.3393 C   0  0  0  0  0  0
  -22.7841  -13.5219   21.1852 C   0  0  0  0  0  0
  -22.1666   -4.2127   21.0974 F   0  0  0  0  0  0
  -21.5642   -3.4532   25.7728 F   0  0  0  0  0  0
  -30.0245  -13.3095   20.4211 N   0  0  0  0  0  0
  -26.2970  -12.9366   20.3287 N   0  0  0  0  0  0
  -25.9293  -11.6516   20.5704 N   0  0  0  0  0  0
  -22.0496  -12.8210   22.0417 N   0  0  0  0  0  0
  -25.4216  -15.1912   20.4049 N   0  0  0  0  0  0
  -31.9000  -14.5604   20.1462 O   0  0  0  0  0  0
  -21.6662   -6.8857   21.4221 O   0  0  0  0  0  0
  -22.3510  -14.5513   20.6707 O   0  0  0  0  0  0
  -24.6129  -31.8702   23.2110 C   0  0  0  0  0  0
  -25.9027  -32.4838   23.8408 C   0  0  1  0  0  0
  -27.2256  -27.4420   20.1049 C   0  0  0  0  0  0
  -25.5897  -33.8641   24.2352 N   0  0  0  0  0  0
  -23.3992  -30.4934   21.5526 C   0  0  2  0  0  0
  -24.8452  -28.9630   20.1138 C   0  0  0  0  0  0
  -22.7388  -29.4660   22.5007 C   0  0  0  0  0  0
  -18.0266  -28.1339   22.8505 C   0  0  0  0  0  0
  -24.1485  -36.7304   23.2640 C   0  0  0  0  0  0
  -25.9276  -30.8389   21.3637 C   0  0  0  0  0  0
  -26.0053  -29.4753   20.7097 C   0  0  0  0  0  0
  -27.2028  -28.7239   20.6974 C   0  0  0  0  0  0
  -26.0549  -26.9496   19.4900 C   0  0  0  0  0  0
  -24.8650  -27.7000   19.4982 C   0  0  0  0  0  0
  -23.6058  -29.8267   20.1665 C   0  0  0  0  0  0
  -25.4113  -36.3121   24.0345 C   0  0  1  0  0  0
  -20.5858  -28.3624   23.1331 C   0  0  2  0  0  0
  -20.6759  -26.9370   22.5412 C   0  0  0  0  0  0
  -19.5734  -26.6361   21.5202 C   0  0  0  0  0  0
  -18.1915  -26.7895   22.1611 C   0  0  0  0  0  0
  -19.1523  -28.8796   23.2916 C   0  0  0  0  0  0
  -18.9447  -30.1404   23.8919 C   0  0  0  0  0  0
  -17.6453  -30.6563   24.0551 C   0  0  0  0  0  0
  -25.9028  -34.9489   23.5146 C   0  0  0  0  0  0
  -16.5339  -29.9063   23.6317 C   0  0  0  0  0  0
  -16.7258  -28.6465   23.0375 C   0  0  0  0  0  0
  -26.4463  -31.6596   25.0711 C   0  0  0  0  0  0
  -25.3734  -31.3686   26.1457 C   0  0  0  0  0  0
  -27.0313  -30.3053   24.6065 C   0  0  0  0  0  0
  -27.6058  -32.4291   25.7476 C   0  0  0  0  0  0
  -27.5595  -37.1819   24.8472 C   0  0  0  0  0  0
  -21.4124  -29.3001   22.3738 N   0  0  0  0  0  0
  -26.4310  -37.3794   23.9414 N   0  0  0  0  0  0
  -24.6643  -31.0817   22.1009 N   0  0  0  0  0  0
  -23.4170  -28.8225   23.3062 O   0  0  0  0  0  0
  -28.3695  -26.6778   20.1312 O   0  0  0  0  0  0
  -26.5594  -34.8940   22.4714 O   0  0  0  0  0  0
  -23.5322  -32.1440   23.7526 O   0  0  0  0  0  0
  -29.9601  -19.3747   19.8388 C   0  0  0  0  0  0
  -29.7578  -18.1463   20.4108 C   0  0  0  0  0  0
  -29.1577  -20.3924   20.4361 C   0  0  0  0  0  0
  -30.3693  -24.4923   19.8405 C   0  0  0  0  0  0
  -28.2027  -24.1569   18.5638 C   0  0  0  0  0  0
  -30.4899  -16.8743   20.0697 C   0  0  0  0  0  0
  -28.6237  -22.8735   20.7065 C   0  0  0  0  0  0
  -28.2198  -25.3932   20.7686 C   0  0  0  0  0  0
  -28.8558  -24.2255   19.9610 C   0  0  0  0  0  0
  -28.3569  -20.0105   21.4081 N   0  0  0  0  0  0
  -29.2266  -21.7338   20.0152 N   0  0  0  0  0  0
  -29.9872  -15.6001   20.6162 N   0  0  0  0  0  0
  -28.5576  -18.3476   21.6514 S   0  0  0  0  0  0
  -31.4510  -12.3431   19.1469 H   0  0  0  0  0  0
  -30.2612  -11.2896   19.8633 H   0  0  0  0  0  0
  -29.7334  -11.7455   17.4413 H   0  0  0  0  0  0
  -29.6859  -13.4601   17.7656 H   0  0  0  0  0  0
  -27.8042  -11.3132   18.8027 H   0  0  0  0  0  0
  -27.3766  -12.6496   17.7684 H   0  0  0  0  0  0
  -27.6781  -14.2577   19.5376 H   0  0  0  0  0  0
  -28.6615  -12.0357   21.3878 H   0  0  0  0  0  0
  -28.4754  -13.7168   21.8211 H   0  0  0  0  0  0
  -25.2741   -9.5756   22.4732 H   0  0  0  0  0  0
  -24.0019   -7.4668   22.7448 H   0  0  0  0  0  0
  -21.0829   -8.8710   19.8946 H   0  0  0  0  0  0
  -22.3595  -10.9658   19.6143 H   0  0  0  0  0  0
  -21.1995   -7.6132   23.9684 H   0  0  0  0  0  0
  -21.1504   -6.0520   25.9068 H   0  0  0  0  0  0
  -22.0596   -2.7577   23.2846 H   0  0  0  0  0  0
  -22.4127  -11.9897   22.4834 H   0  0  0  0  0  0
  -21.1096  -13.1219   22.2580 H   0  0  0  0  0  0
  -24.6449  -15.8364   20.5018 H   0  0  0  0  0  0
  -26.2606  -15.6384   20.0581 H   0  0  0  0  0  0
  -26.7110  -32.5553   23.1194 H   0  0  0  0  0  0
  -25.0111  -33.9795   25.0541 H   0  0  0  0  0  0
  -22.6863  -31.3099   21.4176 H   0  0  0  0  0  0
  -23.3752  -35.9623   23.3305 H   0  0  0  0  0  0
  -24.3574  -36.8905   22.2048 H   0  0  0  0  0  0
  -23.7231  -37.6516   23.6639 H   0  0  0  0  0  0
  -26.0435  -31.6065   20.5970 H   0  0  0  0  0  0
  -26.8150  -30.8903   21.9824 H   0  0  0  0  0  0
  -28.1005  -29.1123   21.1588 H   0  0  0  0  0  0
  -26.0577  -25.9808   19.0123 H   0  0  0  0  0  0
  -23.9790  -27.3009   19.0266 H   0  0  0  0  0  0
  -23.7133  -30.6024   19.4080 H   0  0  0  0  0  0
  -22.7273  -29.2475   19.8726 H   0  0  0  0  0  0
  -25.1294  -36.2002   25.0836 H   0  0  0  0  0  0
  -20.9962  -28.3187   24.1444 H   0  0  0  0  0  0
  -20.5642  -26.2241   23.3602 H   0  0  0  0  0  0
  -21.6643  -26.7415   22.1213 H   0  0  0  0  0  0
  -19.6895  -25.6272   21.1228 H   0  0  0  0  0  0
  -19.6673  -27.3177   20.6744 H   0  0  0  0  0  0
  -17.4195  -26.6666   21.3997 H   0  0  0  0  0  0
  -18.0298  -26.0007   22.8976 H   0  0  0  0  0  0
  -19.7929  -30.7212   24.2305 H   0  0  0  0  0  0
  -17.5007  -31.6248   24.5137 H   0  0  0  0  0  0
  -15.5338  -30.2977   23.7602 H   0  0  0  0  0  0
  -15.8658  -28.0755   22.7135 H   0  0  0  0  0  0
  -24.5887  -30.7063   25.7777 H   0  0  0  0  0  0
  -24.8935  -32.2829   26.4957 H   0  0  0  0  0  0
  -25.8064  -30.8805   27.0195 H   0  0  0  0  0  0
  -26.2858  -29.6791   24.1142 H   0  0  0  0  0  0
  -27.4151  -29.7306   25.4509 H   0  0  0  0  0  0
  -27.8656  -30.4407   23.9174 H   0  0  0  0  0  0
  -27.2704  -33.3587   26.2101 H   0  0  0  0  0  0
  -28.3849  -32.6861   25.0278 H   0  0  0  0  0  0
  -28.0743  -31.8370   26.5353 H   0  0  0  0  0  0
  -28.2634  -38.0096   24.7529 H   0  0  0  0  0  0
  -28.1080  -36.2651   24.6299 H   0  0  0  0  0  0
  -27.2310  -37.1455   25.8867 H   0  0  0  0  0  0
  -20.9275  -29.8738   21.6983 H   0  0  0  0  0  0
  -26.0204  -38.2884   24.1376 H   0  0  0  0  0  0
  -30.6609  -19.5750   19.0401 H   0  0  0  0  0  0
  -30.8704  -23.7533   19.2151 H   0  0  0  0  0  0
  -30.8457  -24.4712   20.8224 H   0  0  0  0  0  0
  -30.5657  -25.4715   19.4035 H   0  0  0  0  0  0
  -28.6728  -23.4028   17.9337 H   0  0  0  0  0  0
  -28.2827  -25.1068   18.0342 H   0  0  0  0  0  0
  -27.1446  -23.8999   18.6364 H   0  0  0  0  0  0
  -31.5360  -17.0145   20.3522 H   0  0  0  0  0  0
  -30.4969  -16.7706   18.9827 H   0  0  0  0  0  0
  -27.5550  -22.6888   20.8276 H   0  0  0  0  0  0
  -29.0398  -22.9231   21.7150 H   0  0  0  0  0  0
  -28.7031  -25.4664   21.7433 H   0  0  0  0  0  0
  -27.1786  -25.1533   20.9928 H   0  0  0  0  0  0
  -29.8856  -21.9543   19.2771 H   0  0  0  0  0  0
  -29.0019  -15.5120   20.8091 H   0  0  0  0  0  0
  1 25  1  0  0  0
  1 30  2  0  0  0
  1 82  1  0  0  0
  2  3  1  0  0  0
  2 25  1  0  0  0
  2 84  1  0  0  0
  2 85  1  0  0  0
  3  4  1  0  0  0
  3 86  1  0  0  0
  3 87  1  0  0  0
  4  5  1  0  0  0
  4 88  1  0  0  0
  4 89  1  0  0  0
  5  6  1  0  0  0
  5 26  1  0  0  0
  5 90  1  0  0  0
  6 25  1  0  0  0
  6 91  1  0  0  0
  6 92  1  0  0  0
  7  8  2  0  0  0
  7 26  1  0  0  0
  7 29  1  0  0  0
  8  9  1  0  0  0
  8 22  1  0  0  0
  9 10  1  0  0  0
  9 27  2  0  0  0
 10 11  2  0  0  0
 10 15  1  0  0  0
 11 12  1  0  0  0
 11 93  1  0  0  0
 12 13  2  0  0  0
 12 94  1  0  0  0
 13 14  1  0  0  0
 13 31  1  0  0  0
 14 15  2  0  0  0
 14 95  1  0  0  0
 15 96  1  0  0  0
 16 17  2  0  0  0
 16 21  1  0  0  0
 16 31  1  0  0  0
 17 18  1  0  0  0
 17 97  1  0  0  0
 18 19  2  0  0  0
 18 98  1  0  0  0
 19 20  1  0  0  0
 19 24  1  0  0  0
 20 21  2  0  0  0
 20 99  1  0  0  0
 21 23  1  0  0  0
 22 28  1  0  0  0
 22 32  2  0  0  0
 26 27  1  0  0  0
 28100  1  0  0  0
 28101  1  0  0  0
 29102  1  0  0  0
 29103  1  0  0  0
 33 34  1  0  0  0
 33 66  1  0  0  0
 33 70  2  0  0  0
 34 36  1  0  0  0
 34 59  1  0  0  0
 34104  1  0  0  0
 35 44  2  0  0  0
 35 45  1  0  0  0
 35 68  1  0  0  0
 36 56  1  0  0  0
 36105  1  0  0  0
 37 39  1  0  0  0
 37 47  1  0  0  0
 37 66  1  0  0  0
 37106  1  0  0  0
 38 43  2  0  0  0
 38 46  1  0  0  0
 38 47  1  0  0  0
 39 64  1  0  0  0
 39 67  2  0  0  0
 40 52  1  0  0  0
 40 53  2  0  0  0
 40 58  1  0  0  0
 41107  1  0  0  0
 41108  1  0  0  0
 41109  1  0  0  0
 41 48  1  0  0  0
 42 43  1  0  0  0
 42 66  1  0  0  0
 42110  1  0  0  0
 42111  1  0  0  0
 43 44  1  0  0  0
 44112  1  0  0  0
 45 46  2  0  0  0
 45113  1  0  0  0
 46114  1  0  0  0
 47115  1  0  0  0
 47116  1  0  0  0
 48 56  1  0  0  0
 48 65  1  0  0  0
 48117  1  0  0  0
 49 50  1  0  0  0
 49 53  1  0  0  0
 49 64  1  0  0  0
 49118  1  0  0  0
 50 51  1  0  0  0
 50119  1  0  0  0
 50120  1  0  0  0
 51 52  1  0  0  0
 51121  1  0  0  0
 51122  1  0  0  0
 52123  1  0  0  0
 52124  1  0  0  0
 53 54  1  0  0  0
 54 55  2  0  0  0
 54125  1  0  0  0
 55 57  1  0  0  0
 55126  1  0  0  0
 56 69  2  0  0  0
 57 58  2  0  0  0
 57127  1  0  0  0
 58128  1  0  0  0
 59 60  1  0  0  0
 59 61  1  0  0  0
 59 62  1  0  0  0
 60129  1  0  0  0
 60130  1  0  0  0
 60131  1  0  0  0
 61132  1  0  0  0
 61133  1  0  0  0
 61134  1  0  0  0
 62135  1  0  0  0
 62136  1  0  0  0
 62137  1  0  0  0
 63 65  1  0  0  0
 63138  1  0  0  0
 63139  1  0  0  0
 63140  1  0  0  0
 64141  1  0  0  0
 65142  1  0  0  0
 68 78  1  0  0  0
 71 72  2  0  0  0
 71 73  1  0  0  0
 71143  1  0  0  0
 72 76  1  0  0  0
 72 83  1  0  0  0
 73 80  2  0  0  0
 73 81  1  0  0  0
 74144  1  0  0  0
 74145  1  0  0  0
 74146  1  0  0  0
 74 79  1  0  0  0
 75 79  1  0  0  0
 75147  1  0  0  0
 75148  1  0  0  0
 75149  1  0  0  0
 76 82  1  0  0  0
 76150  1  0  0  0
 76151  1  0  0  0
 77 79  1  0  0  0
 77 81  1  0  0  0
 77152  1  0  0  0
 77153  1  0  0  0
 78 79  1  0  0  0
 78154  1  0  0  0
 78155  1  0  0  0
 80 83  1  0  0  0
 81156  1  0  0  0
 82157  1  0  0  0
M  ISO  4   1 100  68 101  78 101  82 100
M  END
> <chiral flag>
0

> <version>
0

> <s_m_source_file>
/data/baiqing/PycharmProjects/Reinvent-master-3.2/result/LINK_invent/BTK/process_docking_weight1_custom_product_contain_oxygen_bond_distance_aromatic_linkinvent_7_9_3/rearranged_h_0198.sdf

> <i_m_source_file_index>
65

> <r_mmod_Potential_Energy-OPLS-2005>
-190.605163574219

> <r_mmod_Stretch_Energy-OPLS-2005>
34.7155838012695

> <r_mmod_Bend_Energy-OPLS-2005>
108.115798950195

> <r_mmod_Torsional_Energy-OPLS-2005>
234.500701904297

> <r_mmod_Improper_Torsional_Energy-OPLS-2005>
9.59179019927979

> <r_mmod_Van_der_Waal_Energy-OPLS-2005>
132.962600708008

> <r_mmod_Electrostatic_Energy-OPLS-2005>
-514.313903808594

> <r_mmod_Solvation_Energy-OPLS-2005>
-215.933929443359

> <b_mmod_Minimization_Converged-OPLS-2005>
0

> <r_mmod_RMS_Derivative-OPLS-2005>
2.91935968399048

$$$$
65
                    3D
 Structure written by MMmdl.
149157  0  0  1  0            999 V2000
  -30.6148  -14.6498   20.4774 C   0  0  0  0  0  0
  -30.4408  -12.3910   19.4526 C   0  0  0  0  0  0
  -29.5148  -12.5082   18.2217 C   0  0  0  0  0  0
  -28.0353  -12.3447   18.6298 C   0  0  0  0  0  0
  -27.6533  -13.2151   19.8576 C   0  0  2  0  0  0
  -28.6990  -13.0753   20.9883 C   0  0  0  0  0  0
  -25.2569  -13.8158   20.5670 C   0  0  0  0  0  0
  -24.1840  -13.0433   20.9187 C   0  0  0  0  0  0
  -24.6405  -11.6906   20.8723 C   0  0  0  0  0  0
  -23.9065  -10.4295   21.0388 C   0  0  0  0  0  0
  -24.3616   -9.4220   21.9172 C   0  0  0  0  0  0
  -23.6302   -8.2249   22.0751 C   0  0  0  0  0  0
  -22.4280   -8.0278   21.3541 C   0  0  0  0  0  0
  -21.9906   -9.0251   20.4649 C   0  0  0  0  0  0
  -22.7228  -10.2137   20.3053 C   0  0  0  0  0  0
  -21.6859   -6.0742   22.5281 C   0  0  0  0  0  0
  -21.4019   -6.5643   23.8213 C   0  0  0  0  0  0
  -21.3655   -5.6790   24.9169 C   0  0  0  0  0  0
  -21.6051   -4.3056   24.7215 C   0  0  0  0  0  0
  -21.8818   -3.8149   23.4333 C   0  0  0  0  0  0
  -21.9192   -4.6969   22.3395 C   0  0  0  0  0  0
  -22.7864  -13.5243   21.1839 C   0  0  0  0  0  0
  -22.1667   -4.2158   21.0976 F   0  0  0  0  0  0
  -21.5621   -3.4531   25.7722 F   0  0  0  0  0  0
  -30.0141  -13.4179   20.4234 N   0  0  0  0  0  0
  -26.2994  -12.9340   20.3277 N   0  0  0  0  0  0
  -25.9329  -11.6502   20.5719 N   0  0  0  0  0  0
  -22.0493  -12.8254   22.0403 N   0  0  0  0  0  0
  -25.4249  -15.1883   20.4090 N   0  0  0  0  0  0
  -31.7869  -14.8025   20.1165 O   0  0  0  0  0  0
  -21.6647   -6.8878   21.4243 O   0  0  0  0  0  0
  -22.3562  -14.5547   20.6664 O   0  0  0  0  0  0
  -24.6264  -31.8616   23.2040 C   0  0  0  0  0  0
  -25.9119  -32.4784   23.8365 C   0  0  1  0  0  0
  -27.2171  -27.3168   20.1131 C   0  0  0  0  0  0
  -25.5940  -33.8583   24.2284 N   0  0  0  0  0  0
  -23.4187  -30.4871   21.5482 C   0  0  2  0  0  0
  -24.8618  -28.9451   20.1113 C   0  0  0  0  0  0
  -22.7468  -29.4644   22.4953 C   0  0  0  0  0  0
  -18.0288  -28.1386   22.8487 C   0  0  0  0  0  0
  -24.1495  -36.7295   23.2635 C   0  0  0  0  0  0
  -25.9611  -30.7895   21.3777 C   0  0  0  0  0  0
  -26.0334  -29.4190   20.7154 C   0  0  0  0  0  0
  -27.2136  -28.6168   20.7073 C   0  0  0  0  0  0
  -26.0202  -26.8988   19.4845 C   0  0  0  0  0  0
  -24.8570  -27.6886   19.4896 C   0  0  0  0  0  0
  -23.6311  -29.8263   20.1630 C   0  0  0  0  0  0
  -25.4120  -36.3081   24.0320 C   0  0  1  0  0  0
  -20.5886  -28.3691   23.1283 C   0  0  2  0  0  0
  -20.6781  -26.9419   22.5404 C   0  0  0  0  0  0
  -19.5756  -26.6375   21.5217 C   0  0  0  0  0  0
  -18.1936  -26.7922   22.1627 C   0  0  0  0  0  0
  -19.1538  -28.8858   23.2873 C   0  0  0  0  0  0
  -18.9461  -30.1460   23.8884 C   0  0  0  0  0  0
  -17.6460  -30.6592   24.0562 C   0  0  0  0  0  0
  -25.9058  -34.9453   23.5100 C   0  0  0  0  0  0
  -16.5351  -29.9083   23.6334 C   0  0  0  0  0  0
  -16.7273  -28.6498   23.0352 C   0  0  0  0  0  0
  -26.4490  -31.6597   25.0742 C   0  0  0  0  0  0
  -25.3718  -31.3758   26.1471 C   0  0  0  0  0  0
  -27.0329  -30.3012   24.6216 C   0  0  0  0  0  0
  -27.6052  -32.4340   25.7501 C   0  0  0  0  0  0
  -27.5584  -37.1804   24.8460 C   0  0  0  0  0  0
  -21.4186  -29.3049   22.3681 N   0  0  0  0  0  0
  -26.4298  -37.3774   23.9400 N   0  0  0  0  0  0
  -24.6877  -31.0621   22.1001 N   0  0  0  0  0  0
  -23.4193  -28.8187   23.3033 O   0  0  0  0  0  0
  -28.3288  -26.4573   20.1704 O   0  0  0  0  0  0
  -26.5620  -34.8913   22.4662 O   0  0  0  0  0  0
  -23.5432  -32.1427   23.7369 O   0  0  0  0  0  0
  -30.9134  -19.2293   20.2441 C   0  0  0  0  0  0
  -28.6655  -17.8881   20.7634 C   0  0  0  0  0  0
  -29.7047  -19.9731   20.4154 C   0  0  0  0  0  0
  -29.8735  -17.1441   20.6069 C   0  0  0  0  0  0
  -28.8006  -22.3996   20.3109 C   0  0  0  0  0  0
  -29.1903  -23.9322   20.4116 C   0  0  0  0  0  0
  -28.0789  -25.0018   20.0177 C   0  0  0  0  0  0
  -28.5761  -19.2519   20.6686 N   0  0  0  0  0  0
  -31.0016  -17.8598   20.3322 N   0  0  0  0  0  0
  -29.7755  -21.4356   20.3578 N   0  0  0  0  0  0
  -29.7793  -15.6945   20.7700 N   0  0  0  0  0  0
  -27.6085  -22.1077   20.1819 O   0  0  0  0  0  0
  -31.4850  -12.5101   19.1554 H   0  0  0  0  0  0
  -30.3671  -11.3953   19.8952 H   0  0  0  0  0  0
  -29.7869  -11.7603   17.4755 H   0  0  0  0  0  0
  -29.6600  -13.4791   17.7448 H   0  0  0  0  0  0
  -27.8712  -11.2910   18.8593 H   0  0  0  0  0  0
  -27.3844  -12.5741   17.7855 H   0  0  0  0  0  0
  -27.6670  -14.2491   19.5134 H   0  0  0  0  0  0
  -28.7102  -12.0551   21.3755 H   0  0  0  0  0  0
  -28.4454  -13.7100   21.8389 H   0  0  0  0  0  0
  -25.2760   -9.5715   22.4740 H   0  0  0  0  0  0
  -24.0019   -7.4654   22.7476 H   0  0  0  0  0  0
  -21.0830   -8.8760   19.8969 H   0  0  0  0  0  0
  -22.3667  -10.9667   19.6162 H   0  0  0  0  0  0
  -21.2025   -7.6151   23.9722 H   0  0  0  0  0  0
  -21.1473   -6.0516   25.9076 H   0  0  0  0  0  0
  -22.0602   -2.7613   23.2823 H   0  0  0  0  0  0
  -22.4107  -11.9927   22.4818 H   0  0  0  0  0  0
  -21.1109  -13.1295   22.2583 H   0  0  0  0  0  0
  -24.6404  -15.8253   20.4987 H   0  0  0  0  0  0
  -26.2394  -15.6230   19.9974 H   0  0  0  0  0  0
  -26.7185  -32.5441   23.1111 H   0  0  0  0  0  0
  -25.0097  -33.9727   25.0435 H   0  0  0  0  0  0
  -22.7126  -31.3088   21.4102 H   0  0  0  0  0  0
  -23.3759  -35.9630   23.3299 H   0  0  0  0  0  0
  -24.3589  -36.8916   22.2052 H   0  0  0  0  0  0
  -23.7251  -37.6493   23.6661 H   0  0  0  0  0  0
  -26.0991  -31.5568   20.6152 H   0  0  0  0  0  0
  -26.8388  -30.8296   22.0114 H   0  0  0  0  0  0
  -28.1093  -28.9751   21.1952 H   0  0  0  0  0  0
  -25.9454  -25.9415   18.9914 H   0  0  0  0  0  0
  -23.9573  -27.3160   19.0188 H   0  0  0  0  0  0
  -23.7507  -30.6056   19.4099 H   0  0  0  0  0  0
  -22.7486  -29.2596   19.8591 H   0  0  0  0  0  0
  -25.1306  -36.1934   25.0813 H   0  0  0  0  0  0
  -20.9975  -28.3265   24.1406 H   0  0  0  0  0  0
  -20.5714  -26.2300   23.3597 H   0  0  0  0  0  0
  -21.6645  -26.7468   22.1185 H   0  0  0  0  0  0
  -19.6921  -25.6284   21.1251 H   0  0  0  0  0  0
  -19.6689  -27.3181   20.6745 H   0  0  0  0  0  0
  -17.4205  -26.6667   21.4029 H   0  0  0  0  0  0
  -18.0343  -26.0067   22.9030 H   0  0  0  0  0  0
  -19.7934  -30.7286   24.2234 H   0  0  0  0  0  0
  -17.5012  -31.6267   24.5170 H   0  0  0  0  0  0
  -15.5352  -30.2983   23.7661 H   0  0  0  0  0  0
  -15.8667  -28.0815   22.7074 H   0  0  0  0  0  0
  -24.5836  -30.7181   25.7789 H   0  0  0  0  0  0
  -24.8981  -32.2943   26.4944 H   0  0  0  0  0  0
  -25.8018  -30.8866   27.0221 H   0  0  0  0  0  0
  -26.2909  -29.6766   24.1226 H   0  0  0  0  0  0
  -27.3993  -29.7265   25.4734 H   0  0  0  0  0  0
  -27.8798  -30.4279   23.9469 H   0  0  0  0  0  0
  -27.2654  -33.3631   26.2087 H   0  0  0  0  0  0
  -28.3841  -32.6924   25.0317 H   0  0  0  0  0  0
  -28.0747  -31.8474   26.5403 H   0  0  0  0  0  0
  -28.2600  -38.0102   24.7512 H   0  0  0  0  0  0
  -28.1079  -36.2633   24.6290 H   0  0  0  0  0  0
  -27.2297  -37.1457   25.8860 H   0  0  0  0  0  0
  -20.9374  -29.8752   21.6868 H   0  0  0  0  0  0
  -26.0181  -38.2849   24.1401 H   0  0  0  0  0  0
  -31.8398  -19.7441   20.0336 H   0  0  0  0  0  0
  -27.7354  -17.3808   20.9751 H   0  0  0  0  0  0
  -30.0845  -24.1073   19.8135 H   0  0  0  0  0  0
  -29.4790  -24.1102   21.4478 H   0  0  0  0  0  0
  -27.1914  -24.7565   20.6034 H   0  0  0  0  0  0
  -27.8194  -24.8150   18.9751 H   0  0  0  0  0  0
  -30.7180  -21.8023   20.3735 H   0  0  0  0  0  0
  -28.8644  -15.3790   21.0485 H   0  0  0  0  0  0
  1 25  1  0  0  0
  1 30  2  0  0  0
  1 81  1  0  0  0
  2  3  1  0  0  0
  2 25  1  0  0  0
  2 83  1  0  0  0
  2 84  1  0  0  0
  3  4  1  0  0  0
  3 85  1  0  0  0
  3 86  1  0  0  0
  4  5  1  0  0  0
  4 87  1  0  0  0
  4 88  1  0  0  0
  5  6  1  0  0  0
  5 26  1  0  0  0
  5 89  1  0  0  0
  6 25  1  0  0  0
  6 90  1  0  0  0
  6 91  1  0  0  0
  7  8  2  0  0  0
  7 26  1  0  0  0
  7 29  1  0  0  0
  8  9  1  0  0  0
  8 22  1  0  0  0
  9 10  1  0  0  0
  9 27  2  0  0  0
 10 11  2  0  0  0
 10 15  1  0  0  0
 11 12  1  0  0  0
 11 92  1  0  0  0
 12 13  2  0  0  0
 12 93  1  0  0  0
 13 14  1  0  0  0
 13 31  1  0  0  0
 14 15  2  0  0  0
 14 94  1  0  0  0
 15 95  1  0  0  0
 16 17  2  0  0  0
 16 21  1  0  0  0
 16 31  1  0  0  0
 17 18  1  0  0  0
 17 96  1  0  0  0
 18 19  2  0  0  0
 18 97  1  0  0  0
 19 20  1  0  0  0
 19 24  1  0  0  0
 20 21  2  0  0  0
 20 98  1  0  0  0
 21 23  1  0  0  0
 22 28  1  0  0  0
 22 32  2  0  0  0
 26 27  1  0  0  0
 28 99  1  0  0  0
 28100  1  0  0  0
 29101  1  0  0  0
 29102  1  0  0  0
 33 34  1  0  0  0
 33 66  1  0  0  0
 33 70  2  0  0  0
 34 36  1  0  0  0
 34 59  1  0  0  0
 34103  1  0  0  0
 35 44  2  0  0  0
 35 45  1  0  0  0
 35 68  1  0  0  0
 36 56  1  0  0  0
 36104  1  0  0  0
 37 39  1  0  0  0
 37 47  1  0  0  0
 37 66  1  0  0  0
 37105  1  0  0  0
 38 43  2  0  0  0
 38 46  1  0  0  0
 38 47  1  0  0  0
 39 64  1  0  0  0
 39 67  2  0  0  0
 40 52  1  0  0  0
 40 53  2  0  0  0
 40 58  1  0  0  0
 41106  1  0  0  0
 41107  1  0  0  0
 41108  1  0  0  0
 41 48  1  0  0  0
 42 43  1  0  0  0
 42 66  1  0  0  0
 42109  1  0  0  0
 42110  1  0  0  0
 43 44  1  0  0  0
 44111  1  0  0  0
 45 46  2  0  0  0
 45112  1  0  0  0
 46113  1  0  0  0
 47114  1  0  0  0
 47115  1  0  0  0
 48 56  1  0  0  0
 48 65  1  0  0  0
 48116  1  0  0  0
 49 50  1  0  0  0
 49 53  1  0  0  0
 49 64  1  0  0  0
 49117  1  0  0  0
 50 51  1  0  0  0
 50118  1  0  0  0
 50119  1  0  0  0
 51 52  1  0  0  0
 51120  1  0  0  0
 51121  1  0  0  0
 52122  1  0  0  0
 52123  1  0  0  0
 53 54  1  0  0  0
 54 55  2  0  0  0
 54124  1  0  0  0
 55 57  1  0  0  0
 55125  1  0  0  0
 56 69  2  0  0  0
 57 58  2  0  0  0
 57126  1  0  0  0
 58127  1  0  0  0
 59 60  1  0  0  0
 59 61  1  0  0  0
 59 62  1  0  0  0
 60128  1  0  0  0
 60129  1  0  0  0
 60130  1  0  0  0
 61131  1  0  0  0
 61132  1  0  0  0
 61133  1  0  0  0
 62134  1  0  0  0
 62135  1  0  0  0
 62136  1  0  0  0
 63 65  1  0  0  0
 63137  1  0  0  0
 63138  1  0  0  0
 63139  1  0  0  0
 64140  1  0  0  0
 65141  1  0  0  0
 68 77  1  0  0  0
 71 73  2  0  0  0
 71 79  1  0  0  0
 71142  1  0  0  0
 72 74  1  0  0  0
 72 78  2  0  0  0
 72143  1  0  0  0
 73 78  1  0  0  0
 73 80  1  0  0  0
 74 79  2  0  0  0
 74 81  1  0  0  0
 75 76  1  0  0  0
 75 80  1  0  0  0
 75 82  2  0  0  0
 76 77  1  0  0  0
 76144  1  0  0  0
 76145  1  0  0  0
 77146  1  0  0  0
 77147  1  0  0  0
 80148  1  0  0  0
 81149  1  0  0  0
M  ISO  4   1 100  68 101  77 101  81 100
M  END
> <chiral flag>
0

> <version>
0

> <s_m_source_file>
/data/baiqing/PycharmProjects/Reinvent-master-3.2/result/LINK_invent/BTK/process_docking_weight1_custom_product_contain_oxygen_bond_distance_aromatic_linkinvent_7_9_3/rearranged_h_0198.sdf

> <i_m_source_file_index>
66

> <r_mmod_Potential_Energy-OPLS-2005>
-17.8421669006348

> <r_mmod_Stretch_Energy-OPLS-2005>
81.0032196044922

> <r_mmod_Bend_Energy-OPLS-2005>
138.830978393555

> <r_mmod_Torsional_Energy-OPLS-2005>
201.542144775391

> <r_mmod_Improper_Torsional_Energy-OPLS-2005>
4.96881055831909

> <r_mmod_Van_der_Waal_Energy-OPLS-2005>
150.962646484375

> <r_mmod_Electrostatic_Energy-OPLS-2005>
-376.182403564453

> <r_mmod_Solvation_Energy-OPLS-2005>
-270.939453125

> <b_mmod_Minimization_Converged-OPLS-2005>
0

> <r_mmod_RMS_Derivative-OPLS-2005>
1.74139416217804

$$$$
66
                    3D
 Structure written by MMmdl.
152160  0  0  1  0            999 V2000
  -30.7276  -14.5127   20.4880 C   0  0  0  0  0  0
  -30.4024  -12.3181   19.4429 C   0  0  0  0  0  0
  -29.4894  -12.5019   18.2147 C   0  0  0  0  0  0
  -28.0129  -12.3635   18.6236 C   0  0  0  0  0  0
  -27.6513  -13.2258   19.8639 C   0  0  2  0  0  0
  -28.6971  -13.0889   20.9949 C   0  0  0  0  0  0
  -25.2538  -13.8197   20.5709 C   0  0  0  0  0  0
  -24.1824  -13.0440   20.9205 C   0  0  0  0  0  0
  -24.6418  -11.6924   20.8747 C   0  0  0  0  0  0
  -23.9078  -10.4303   21.0389 C   0  0  0  0  0  0
  -24.3623   -9.4225   21.9171 C   0  0  0  0  0  0
  -23.6312   -8.2254   22.0748 C   0  0  0  0  0  0
  -22.4290   -8.0278   21.3539 C   0  0  0  0  0  0
  -21.9931   -9.0246   20.4634 C   0  0  0  0  0  0
  -22.7251  -10.2132   20.3036 C   0  0  0  0  0  0
  -21.6864   -6.0737   22.5273 C   0  0  0  0  0  0
  -21.4037   -6.5635   23.8209 C   0  0  0  0  0  0
  -21.3683   -5.6788   24.9169 C   0  0  0  0  0  0
  -21.6053   -4.3051   24.7217 C   0  0  0  0  0  0
  -21.8810   -3.8140   23.4337 C   0  0  0  0  0  0
  -21.9200   -4.6964   22.3395 C   0  0  0  0  0  0
  -22.7843  -13.5221   21.1845 C   0  0  0  0  0  0
  -22.1652   -4.2142   21.0974 F   0  0  0  0  0  0
  -21.5635   -3.4537   25.7733 F   0  0  0  0  0  0
  -30.0223  -13.3504   20.4219 N   0  0  0  0  0  0
  -26.2988  -12.9407   20.3354 N   0  0  0  0  0  0
  -25.9346  -11.6550   20.5784 N   0  0  0  0  0  0
  -22.0483  -12.8229   22.0408 N   0  0  0  0  0  0
  -25.4184  -15.1927   20.4143 N   0  0  0  0  0  0
  -31.9054  -14.5745   20.1273 O   0  0  0  0  0  0
  -21.6646   -6.8874   21.4234 O   0  0  0  0  0  0
  -22.3526  -14.5510   20.6664 O   0  0  0  0  0  0
  -24.6174  -31.8677   23.2116 C   0  0  0  0  0  0
  -25.9075  -32.4806   23.8407 C   0  0  1  0  0  0
  -27.2168  -27.4206   20.1077 C   0  0  0  0  0  0
  -25.5941  -33.8604   24.2337 N   0  0  0  0  0  0
  -23.4049  -30.4994   21.5485 C   0  0  2  0  0  0
  -24.8491  -28.9719   20.1112 C   0  0  0  0  0  0
  -22.7423  -29.4679   22.4920 C   0  0  0  0  0  0
  -18.0288  -28.1404   22.8469 C   0  0  0  0  0  0
  -24.1501  -36.7312   23.2637 C   0  0  0  0  0  0
  -25.9376  -30.8407   21.3609 C   0  0  0  0  0  0
  -26.0161  -29.4765   20.7020 C   0  0  0  0  0  0
  -27.2081  -28.7137   20.6867 C   0  0  0  0  0  0
  -26.0333  -26.9439   19.4993 C   0  0  0  0  0  0
  -24.8531  -27.7063   19.5078 C   0  0  0  0  0  0
  -23.6161  -29.8438   20.1605 C   0  0  0  0  0  0
  -25.4117  -36.3089   24.0330 C   0  0  1  0  0  0
  -20.5880  -28.3691   23.1292 C   0  0  2  0  0  0
  -20.6791  -26.9420   22.5403 C   0  0  0  0  0  0
  -19.5770  -26.6389   21.5208 C   0  0  0  0  0  0
  -18.1947  -26.7946   22.1605 C   0  0  0  0  0  0
  -19.1532  -28.8851   23.2893 C   0  0  0  0  0  0
  -18.9465  -30.1457   23.8916 C   0  0  0  0  0  0
  -17.6464  -30.6603   24.0570 C   0  0  0  0  0  0
  -25.9044  -34.9452   23.5117 C   0  0  0  0  0  0
  -16.5353  -29.9116   23.6310 C   0  0  0  0  0  0
  -16.7276  -28.6535   23.0318 C   0  0  0  0  0  0
  -26.4498  -31.6581   25.0728 C   0  0  0  0  0  0
  -25.3759  -31.3687   26.1466 C   0  0  0  0  0  0
  -27.0332  -30.3024   24.6106 C   0  0  0  0  0  0
  -27.6085  -32.4265   25.7511 C   0  0  0  0  0  0
  -27.5578  -37.1818   24.8456 C   0  0  0  0  0  0
  -21.4145  -29.3049   22.3666 N   0  0  0  0  0  0
  -26.4294  -37.3778   23.9400 N   0  0  0  0  0  0
  -24.6723  -31.0813   22.0995 N   0  0  0  0  0  0
  -23.4185  -28.8187   23.2932 O   0  0  0  0  0  0
  -28.3417  -26.6204   20.1632 O   0  0  0  0  0  0
  -26.5580  -34.8892   22.4658 O   0  0  0  0  0  0
  -23.5365  -32.1405   23.7532 O   0  0  0  0  0  0
  -28.9200  -19.8504   21.7617 C   0  0  0  0  0  0
  -29.2269  -20.6105   20.6504 C   0  0  0  0  0  0
  -29.8909  -18.2059   20.4977 C   0  0  0  0  0  0
  -30.5955  -16.9234   20.1306 C   0  0  0  0  0  0
  -29.0843  -22.9939   21.4184 C   0  0  0  0  0  0
  -28.0861  -25.3089   20.7227 C   0  0  0  0  0  0
  -29.3611  -24.4448   20.8949 C   0  0  1  0  0  0
  -29.2931  -18.4928   21.6628 N   0  0  0  0  0  0
  -29.0288  -21.9748   20.3659 N   0  0  0  0  0  0
  -30.0372  -15.6598   20.6688 N   0  0  0  0  0  0
  -30.1612  -25.0832   21.8702 O   0  0  0  0  0  0
  -29.9875  -19.6159   19.4331 S   0  0  0  0  0  0
  -31.4505  -12.3784   19.1436 H   0  0  0  0  0  0
  -30.2729  -11.3232   19.8743 H   0  0  0  0  0  0
  -29.7372  -11.7691   17.4455 H   0  0  0  0  0  0
  -29.6601  -13.4849   17.7701 H   0  0  0  0  0  0
  -27.8298  -11.3090   18.8387 H   0  0  0  0  0  0
  -27.3636  -12.6193   17.7845 H   0  0  0  0  0  0
  -27.6709  -14.2638   19.5297 H   0  0  0  0  0  0
  -28.6744  -12.0878   21.4264 H   0  0  0  0  0  0
  -28.4756  -13.7793   21.8098 H   0  0  0  0  0  0
  -25.2765   -9.5715   22.4760 H   0  0  0  0  0  0
  -24.0017   -7.4658   22.7485 H   0  0  0  0  0  0
  -21.0865   -8.8773   19.8952 H   0  0  0  0  0  0
  -22.3708  -10.9668   19.6146 H   0  0  0  0  0  0
  -21.2016   -7.6141   23.9718 H   0  0  0  0  0  0
  -21.1527   -6.0511   25.9078 H   0  0  0  0  0  0
  -22.0565   -2.7602   23.2832 H   0  0  0  0  0  0
  -22.4110  -11.9913   22.4842 H   0  0  0  0  0  0
  -21.1082  -13.1231   22.2564 H   0  0  0  0  0  0
  -24.6435  -15.8358   20.5308 H   0  0  0  0  0  0
  -26.2635  -15.6477   20.0948 H   0  0  0  0  0  0
  -26.7147  -32.5518   23.1172 H   0  0  0  0  0  0
  -25.0124  -33.9769   25.0510 H   0  0  0  0  0  0
  -22.6943  -31.3182   21.4137 H   0  0  0  0  0  0
  -23.3742  -35.9663   23.3289 H   0  0  0  0  0  0
  -24.3607  -36.8925   22.2053 H   0  0  0  0  0  0
  -23.7271  -37.6525   23.6651 H   0  0  0  0  0  0
  -26.0501  -31.6153   20.6005 H   0  0  0  0  0  0
  -26.8270  -30.8912   21.9785 H   0  0  0  0  0  0
  -28.1077  -29.1013   21.1454 H   0  0  0  0  0  0
  -26.0050  -25.9778   19.0180 H   0  0  0  0  0  0
  -23.9522  -27.3134   19.0574 H   0  0  0  0  0  0
  -23.7395  -30.6263   19.4107 H   0  0  0  0  0  0
  -22.7375  -29.2763   19.8479 H   0  0  0  0  0  0
  -25.1297  -36.1946   25.0821 H   0  0  0  0  0  0
  -21.0010  -28.3281   24.1399 H   0  0  0  0  0  0
  -20.5736  -26.2287   23.3592 H   0  0  0  0  0  0
  -21.6659  -26.7484   22.1170 H   0  0  0  0  0  0
  -19.6933  -25.6297   21.1250 H   0  0  0  0  0  0
  -19.6740  -27.3187   20.6730 H   0  0  0  0  0  0
  -17.4222  -26.6683   21.4006 H   0  0  0  0  0  0
  -18.0356  -26.0112   22.9020 H   0  0  0  0  0  0
  -19.7939  -30.7260   24.2312 H   0  0  0  0  0  0
  -17.5025  -31.6285   24.5172 H   0  0  0  0  0  0
  -15.5362  -30.3034   23.7627 H   0  0  0  0  0  0
  -15.8675  -28.0887   22.6996 H   0  0  0  0  0  0
  -24.5936  -30.7040   25.7779 H   0  0  0  0  0  0
  -24.8964  -32.2852   26.4911 H   0  0  0  0  0  0
  -25.8111  -30.8839   27.0215 H   0  0  0  0  0  0
  -26.2882  -29.6771   24.1171 H   0  0  0  0  0  0
  -27.4118  -29.7267   25.4565 H   0  0  0  0  0  0
  -27.8700  -30.4334   23.9241 H   0  0  0  0  0  0
  -27.2726  -33.3533   26.2164 H   0  0  0  0  0  0
  -28.3896  -32.6854   25.0353 H   0  0  0  0  0  0
  -28.0757  -31.8327   26.5377 H   0  0  0  0  0  0
  -28.2580  -38.0132   24.7489 H   0  0  0  0  0  0
  -28.1088  -36.2651   24.6293 H   0  0  0  0  0  0
  -27.2284  -37.1464   25.8858 H   0  0  0  0  0  0
  -20.9298  -29.8756   21.6887 H   0  0  0  0  0  0
  -26.0165  -38.2833   24.1440 H   0  0  0  0  0  0
  -28.4374  -20.1916   22.6675 H   0  0  0  0  0  0
  -31.6336  -17.0428   20.4435 H   0  0  0  0  0  0
  -30.6076  -16.8503   19.0393 H   0  0  0  0  0  0
  -28.1592  -22.9740   21.9981 H   0  0  0  0  0  0
  -29.8786  -22.7020   22.1099 H   0  0  0  0  0  0
  -27.5803  -25.4133   21.6857 H   0  0  0  0  0  0
  -27.4072  -24.7472   20.0788 H   0  0  0  0  0  0
  -29.9227  -24.4180   19.9604 H   0  0  0  0  0  0
  -29.3290  -22.2890   19.4467 H   0  0  0  0  0  0
  -29.0649  -15.6340   20.9353 H   0  0  0  0  0  0
  -30.3478  -25.9574   21.5378 H   0  0  0  0  0  0
  1 25  1  0  0  0
  1 30  2  0  0  0
  1 80  1  0  0  0
  2  3  1  0  0  0
  2 25  1  0  0  0
  2 83  1  0  0  0
  2 84  1  0  0  0
  3  4  1  0  0  0
  3 85  1  0  0  0
  3 86  1  0  0  0
  4  5  1  0  0  0
  4 87  1  0  0  0
  4 88  1  0  0  0
  5  6  1  0  0  0
  5 26  1  0  0  0
  5 89  1  0  0  0
  6 25  1  0  0  0
  6 90  1  0  0  0
  6 91  1  0  0  0
  7  8  2  0  0  0
  7 26  1  0  0  0
  7 29  1  0  0  0
  8  9  1  0  0  0
  8 22  1  0  0  0
  9 10  1  0  0  0
  9 27  2  0  0  0
 10 11  2  0  0  0
 10 15  1  0  0  0
 11 12  1  0  0  0
 11 92  1  0  0  0
 12 13  2  0  0  0
 12 93  1  0  0  0
 13 14  1  0  0  0
 13 31  1  0  0  0
 14 15  2  0  0  0
 14 94  1  0  0  0
 15 95  1  0  0  0
 16 17  2  0  0  0
 16 21  1  0  0  0
 16 31  1  0  0  0
 17 18  1  0  0  0
 17 96  1  0  0  0
 18 19  2  0  0  0
 18 97  1  0  0  0
 19 20  1  0  0  0
 19 24  1  0  0  0
 20 21  2  0  0  0
 20 98  1  0  0  0
 21 23  1  0  0  0
 22 28  1  0  0  0
 22 32  2  0  0  0
 26 27  1  0  0  0
 28 99  1  0  0  0
 28100  1  0  0  0
 29101  1  0  0  0
 29102  1  0  0  0
 33 34  1  0  0  0
 33 66  1  0  0  0
 33 70  2  0  0  0
 34 36  1  0  0  0
 34 59  1  0  0  0
 34103  1  0  0  0
 35 44  2  0  0  0
 35 45  1  0  0  0
 35 68  1  0  0  0
 36 56  1  0  0  0
 36104  1  0  0  0
 37 39  1  0  0  0
 37 47  1  0  0  0
 37 66  1  0  0  0
 37105  1  0  0  0
 38 43  2  0  0  0
 38 46  1  0  0  0
 38 47  1  0  0  0
 39 64  1  0  0  0
 39 67  2  0  0  0
 40 52  1  0  0  0
 40 53  2  0  0  0
 40 58  1  0  0  0
 41106  1  0  0  0
 41107  1  0  0  0
 41108  1  0  0  0
 41 48  1  0  0  0
 42 43  1  0  0  0
 42 66  1  0  0  0
 42109  1  0  0  0
 42110  1  0  0  0
 43 44  1  0  0  0
 44111  1  0  0  0
 45 46  2  0  0  0
 45112  1  0  0  0
 46113  1  0  0  0
 47114  1  0  0  0
 47115  1  0  0  0
 48 56  1  0  0  0
 48 65  1  0  0  0
 48116  1  0  0  0
 49 50  1  0  0  0
 49 53  1  0  0  0
 49 64  1  0  0  0
 49117  1  0  0  0
 50 51  1  0  0  0
 50118  1  0  0  0
 50119  1  0  0  0
 51 52  1  0  0  0
 51120  1  0  0  0
 51121  1  0  0  0
 52122  1  0  0  0
 52123  1  0  0  0
 53 54  1  0  0  0
 54 55  2  0  0  0
 54124  1  0  0  0
 55 57  1  0  0  0
 55125  1  0  0  0
 56 69  2  0  0  0
 57 58  2  0  0  0
 57126  1  0  0  0
 58127  1  0  0  0
 59 60  1  0  0  0
 59 61  1  0  0  0
 59 62  1  0  0  0
 60128  1  0  0  0
 60129  1  0  0  0
 60130  1  0  0  0
 61131  1  0  0  0
 61132  1  0  0  0
 61133  1  0  0  0
 62134  1  0  0  0
 62135  1  0  0  0
 62136  1  0  0  0
 63 65  1  0  0  0
 63137  1  0  0  0
 63138  1  0  0  0
 63139  1  0  0  0
 64140  1  0  0  0
 65141  1  0  0  0
 68 76  1  0  0  0
 71 72  2  0  0  0
 71 78  1  0  0  0
 71142  1  0  0  0
 72 79  1  0  0  0
 72 82  1  0  0  0
 73 74  1  0  0  0
 73 78  2  0  0  0
 73 82  1  0  0  0
 74 80  1  0  0  0
 74143  1  0  0  0
 74144  1  0  0  0
 75 77  1  0  0  0
 75 79  1  0  0  0
 75145  1  0  0  0
 75146  1  0  0  0
 76 77  1  0  0  0
 76147  1  0  0  0
 76148  1  0  0  0
 77 81  1  0  0  0
 77149  1  0  0  0
 79150  1  0  0  0
 80151  1  0  0  0
 81152  1  0  0  0
M  ISO  4   1 100  68 101  76 101  80 100
M  END
> <chiral flag>
0

> <version>
0

> <s_m_source_file>
/data/baiqing/PycharmProjects/Reinvent-master-3.2/result/LINK_invent/BTK/process_docking_weight1_custom_product_contain_oxygen_bond_distance_aromatic_linkinvent_7_9_3/rearranged_h_0198.sdf

> <i_m_source_file_index>
67

> <r_mmod_Potential_Energy-OPLS-2005>
-87.7786331176758

> <r_mmod_Stretch_Energy-OPLS-2005>
39.0656547546387

> <r_mmod_Bend_Energy-OPLS-2005>
107.605087280273

> <r_mmod_Torsional_Energy-OPLS-2005>
246.882354736328

> <r_mmod_Improper_Torsional_Energy-OPLS-2005>
10.7523927688599

> <r_mmod_Van_der_Waal_Energy-OPLS-2005>
131.837463378906

> <r_mmod_Electrostatic_Energy-OPLS-2005>
-407.053558349609

> <r_mmod_Solvation_Energy-OPLS-2005>
-242.458694458008

> <b_mmod_Minimization_Converged-OPLS-2005>
0

> <r_mmod_RMS_Derivative-OPLS-2005>
3.13276743888855

$$$$
67
                    3D
 Structure written by MMmdl.
167175  0  0  1  0            999 V2000
  -30.6858  -14.4744   20.5489 C   0  0  0  0  0  0
  -30.4200  -12.3045   19.4132 C   0  0  0  0  0  0
  -29.4928  -12.5201   18.1990 C   0  0  0  0  0  0
  -28.0128  -12.3788   18.6087 C   0  0  0  0  0  0
  -27.6616  -13.1993   19.8790 C   0  0  2  0  0  0
  -28.7044  -12.9751   20.9981 C   0  0  0  0  0  0
  -25.2605  -13.8140   20.5629 C   0  0  0  0  0  0
  -24.1865  -13.0414   20.9120 C   0  0  0  0  0  0
  -24.6417  -11.6884   20.8742 C   0  0  0  0  0  0
  -23.9100  -10.4277   21.0411 C   0  0  0  0  0  0
  -24.3644   -9.4194   21.9185 C   0  0  0  0  0  0
  -23.6298   -8.2249   22.0774 C   0  0  0  0  0  0
  -22.4283   -8.0296   21.3564 C   0  0  0  0  0  0
  -21.9922   -9.0268   20.4665 C   0  0  0  0  0  0
  -22.7274  -10.2129   20.3064 C   0  0  0  0  0  0
  -21.6857   -6.0750   22.5277 C   0  0  0  0  0  0
  -21.4026   -6.5650   23.8209 C   0  0  0  0  0  0
  -21.3659   -5.6800   24.9168 C   0  0  0  0  0  0
  -21.6045   -4.3059   24.7224 C   0  0  0  0  0  0
  -21.8832   -3.8163   23.4340 C   0  0  0  0  0  0
  -21.9203   -4.6980   22.3392 C   0  0  0  0  0  0
  -22.7897  -13.5238   21.1805 C   0  0  0  0  0  0
  -22.1658   -4.2165   21.0969 F   0  0  0  0  0  0
  -21.5619   -3.4527   25.7732 F   0  0  0  0  0  0
  -30.0392  -13.2811   20.4463 N   0  0  0  0  0  0
  -26.3033  -12.9281   20.3367 N   0  0  0  0  0  0
  -25.9348  -11.6448   20.5795 N   0  0  0  0  0  0
  -22.0571  -12.8214   22.0375 N   0  0  0  0  0  0
  -25.4338  -15.1868   20.4030 N   0  0  0  0  0  0
  -31.8099  -14.6734   20.0695 O   0  0  0  0  0  0
  -21.6662   -6.8893   21.4251 O   0  0  0  0  0  0
  -22.3576  -14.5531   20.6641 O   0  0  0  0  0  0
  -24.6122  -31.8675   23.2114 C   0  0  0  0  0  0
  -25.9014  -32.4827   23.8401 C   0  0  1  0  0  0
  -27.2550  -27.4524   20.0763 C   0  0  0  0  0  0
  -25.5867  -33.8639   24.2323 N   0  0  0  0  0  0
  -23.4017  -30.4901   21.5489 C   0  0  2  0  0  0
  -24.8506  -28.9540   20.1183 C   0  0  0  0  0  0
  -22.7381  -29.4662   22.4974 C   0  0  0  0  0  0
  -18.0276  -28.1364   22.8514 C   0  0  0  0  0  0
  -24.1480  -36.7310   23.2651 C   0  0  0  0  0  0
  -25.9331  -30.8291   21.3732 C   0  0  0  0  0  0
  -26.0075  -29.4664   20.7168 C   0  0  0  0  0  0
  -27.2055  -28.7189   20.7004 C   0  0  0  0  0  0
  -26.0682  -26.9367   19.5045 C   0  0  0  0  0  0
  -24.8750  -27.6862   19.5136 C   0  0  0  0  0  0
  -23.6109  -29.8185   20.1655 C   0  0  0  0  0  0
  -25.4106  -36.3121   24.0352 C   0  0  1  0  0  0
  -20.5860  -28.3663   23.1324 C   0  0  2  0  0  0
  -20.6764  -26.9402   22.5409 C   0  0  0  0  0  0
  -19.5739  -26.6395   21.5213 C   0  0  0  0  0  0
  -18.1924  -26.7918   22.1627 C   0  0  0  0  0  0
  -19.1521  -28.8826   23.2931 C   0  0  0  0  0  0
  -18.9446  -30.1434   23.8947 C   0  0  0  0  0  0
  -17.6445  -30.6581   24.0577 C   0  0  0  0  0  0
  -25.9028  -34.9485   23.5139 C   0  0  0  0  0  0
  -16.5340  -29.9077   23.6331 C   0  0  0  0  0  0
  -16.7266  -28.6486   23.0373 C   0  0  0  0  0  0
  -26.4459  -31.6630   25.0737 C   0  0  0  0  0  0
  -25.3724  -31.3746   26.1484 C   0  0  0  0  0  0
  -27.0322  -30.3065   24.6165 C   0  0  0  0  0  0
  -27.6011  -32.4390   25.7492 C   0  0  0  0  0  0
  -27.5587  -37.1815   24.8462 C   0  0  0  0  0  0
  -21.4107  -29.3030   22.3706 N   0  0  0  0  0  0
  -26.4292  -37.3795   23.9408 N   0  0  0  0  0  0
  -24.6661  -31.0767   22.1020 N   0  0  0  0  0  0
  -23.4153  -28.8192   23.3010 O   0  0  0  0  0  0
  -28.4682  -26.7894   20.0659 O   0  0  0  0  0  0
  -26.5591  -34.8930   22.4704 O   0  0  0  0  0  0
  -23.5313  -32.1418   23.7506 O   0  0  0  0  0  0
  -28.7874  -18.1925   18.8822 C   0  0  0  0  0  0
  -29.0820  -16.9109   19.3814 C   0  0  0  0  0  0
  -29.9230  -19.1012   20.7941 C   0  0  0  0  0  0
  -29.1860  -19.3330   19.6050 C   0  0  0  0  0  0
  -29.8092  -16.7685   20.5829 C   0  0  0  0  0  0
  -32.5006  -22.8355   20.2532 C   0  0  0  0  0  0
  -32.9023  -23.0422   17.7565 C   0  0  0  0  0  0
  -28.7965  -24.3479   19.9686 C   0  0  0  0  0  0
  -30.8325  -21.8531   18.5960 C   0  0  0  0  0  0
  -28.6867  -25.6773   19.1874 C   0  0  0  0  0  0
  -31.8428  -22.9875   18.8709 C   0  0  0  0  0  0
  -29.5209  -21.8465   19.4239 C   0  0  1  0  0  0
  -28.6187  -23.0842   19.0831 C   0  0  1  0  0  0
  -30.2188  -17.8630   21.2683 N   0  0  0  0  0  0
  -28.7943  -20.6000   19.1123 N   0  0  0  0  0  0
  -29.9688  -15.4612   21.1172 N   0  0  0  0  0  0
  -27.2884  -22.6373   19.2467 O   0  0  0  0  0  0
  -31.4642  -12.4005   19.1108 H   0  0  0  0  0  0
  -30.3111  -11.2889   19.7967 H   0  0  0  0  0  0
  -29.7304  -11.8095   17.4061 H   0  0  0  0  0  0
  -29.6625  -13.5138   17.7826 H   0  0  0  0  0  0
  -27.8211  -11.3199   18.7842 H   0  0  0  0  0  0
  -27.3669  -12.6725   17.7812 H   0  0  0  0  0  0
  -27.7026  -14.2483   19.5955 H   0  0  0  0  0  0
  -28.6810  -11.9397   21.3396 H   0  0  0  0  0  0
  -28.4615  -13.5666   21.8816 H   0  0  0  0  0  0
  -25.2811   -9.5646   22.4725 H   0  0  0  0  0  0
  -24.0011   -7.4652   22.7494 H   0  0  0  0  0  0
  -21.0855   -8.8812   19.8943 H   0  0  0  0  0  0
  -22.3787  -10.9668   19.6158 H   0  0  0  0  0  0
  -21.2023   -7.6162   23.9707 H   0  0  0  0  0  0
  -21.1456   -6.0533   25.9064 H   0  0  0  0  0  0
  -22.0612   -2.7633   23.2841 H   0  0  0  0  0  0
  -22.4197  -11.9835   22.4680 H   0  0  0  0  0  0
  -21.1183  -13.1232   22.2598 H   0  0  0  0  0  0
  -24.6663  -15.8414   20.5049 H   0  0  0  0  0  0
  -26.2840  -15.6276   20.0741 H   0  0  0  0  0  0
  -26.7090  -32.5505   23.1162 H   0  0  0  0  0  0
  -25.0021  -33.9832   25.0467 H   0  0  0  0  0  0
  -22.6919  -31.3070   21.4039 H   0  0  0  0  0  0
  -23.3756  -35.9625   23.3305 H   0  0  0  0  0  0
  -24.3581  -36.8915   22.2062 H   0  0  0  0  0  0
  -23.7197  -37.6506   23.6664 H   0  0  0  0  0  0
  -26.0623  -31.5998   20.6141 H   0  0  0  0  0  0
  -26.8163  -30.8690   21.9999 H   0  0  0  0  0  0
  -28.0999  -29.1187   21.1587 H   0  0  0  0  0  0
  -26.0366  -25.9578   19.0530 H   0  0  0  0  0  0
  -23.9821  -27.2807   19.0583 H   0  0  0  0  0  0
  -23.7128  -30.5902   19.4017 H   0  0  0  0  0  0
  -22.7366  -29.2338   19.8747 H   0  0  0  0  0  0
  -25.1286  -36.2008   25.0845 H   0  0  0  0  0  0
  -21.0011  -28.3233   24.1419 H   0  0  0  0  0  0
  -20.5688  -26.2265   23.3592 H   0  0  0  0  0  0
  -21.6630  -26.7453   22.1173 H   0  0  0  0  0  0
  -19.6907  -25.6318   21.1218 H   0  0  0  0  0  0
  -19.6677  -27.3230   20.6767 H   0  0  0  0  0  0
  -17.4189  -26.6706   21.4024 H   0  0  0  0  0  0
  -18.0318  -26.0040   22.9003 H   0  0  0  0  0  0
  -19.7916  -30.7252   24.2335 H   0  0  0  0  0  0
  -17.4992  -31.6276   24.5145 H   0  0  0  0  0  0
  -15.5336  -30.2995   23.7640 H   0  0  0  0  0  0
  -15.8662  -28.0826   22.7078 H   0  0  0  0  0  0
  -24.5822  -30.7200   25.7789 H   0  0  0  0  0  0
  -24.9026  -32.2928   26.5029 H   0  0  0  0  0  0
  -25.8065  -30.8792   27.0174 H   0  0  0  0  0  0
  -26.2904  -29.6792   24.1212 H   0  0  0  0  0  0
  -27.4048  -29.7346   25.4670 H   0  0  0  0  0  0
  -27.8756  -30.4355   23.9376 H   0  0  0  0  0  0
  -27.2590  -33.3652   26.2124 H   0  0  0  0  0  0
  -28.3795  -32.7025   25.0323 H   0  0  0  0  0  0
  -28.0724  -31.8498   26.5364 H   0  0  0  0  0  0
  -28.2601  -38.0119   24.7527 H   0  0  0  0  0  0
  -28.1092  -36.2650   24.6279 H   0  0  0  0  0  0
  -27.2305  -37.1448   25.8864 H   0  0  0  0  0  0
  -20.9243  -29.8751   21.6947 H   0  0  0  0  0  0
  -26.0194  -38.2879   24.1393 H   0  0  0  0  0  0
  -28.2293  -18.2915   17.9604 H   0  0  0  0  0  0
  -28.7309  -16.0523   18.8298 H   0  0  0  0  0  0
  -30.2683  -19.9181   21.4094 H   0  0  0  0  0  0
  -32.9230  -21.8386   20.3852 H   0  0  0  0  0  0
  -31.7796  -23.0000   21.0544 H   0  0  0  0  0  0
  -33.3088  -23.5547   20.3962 H   0  0  0  0  0  0
  -33.6374  -23.8267   17.9393 H   0  0  0  0  0  0
  -32.4351  -23.2600   16.7945 H   0  0  0  0  0  0
  -33.4472  -22.1004   17.6630 H   0  0  0  0  0  0
  -28.0644  -24.3436   20.7762 H   0  0  0  0  0  0
  -29.7636  -24.3296   20.4705 H   0  0  0  0  0  0
  -31.3543  -20.9028   18.7258 H   0  0  0  0  0  0
  -30.5586  -21.8806   17.5398 H   0  0  0  0  0  0
  -27.9665  -25.6132   18.3743 H   0  0  0  0  0  0
  -29.6400  -25.8559   18.6888 H   0  0  0  0  0  0
  -31.3300  -23.9480   18.8370 H   0  0  0  0  0  0
  -29.7429  -21.8667   20.4916 H   0  0  0  0  0  0
  -28.7450  -23.3430   18.0298 H   0  0  0  0  0  0
  -28.3974  -20.5757   18.1742 H   0  0  0  0  0  0
  -29.1597  -15.1210   21.6133 H   0  0  0  0  0  0
  -27.4166  -21.6888   19.3533 H   0  0  0  0  0  0
  1 25  1  0  0  0
  1 30  2  0  0  0
  1 86  1  0  0  0
  2  3  1  0  0  0
  2 25  1  0  0  0
  2 88  1  0  0  0
  2 89  1  0  0  0
  3  4  1  0  0  0
  3 90  1  0  0  0
  3 91  1  0  0  0
  4  5  1  0  0  0
  4 92  1  0  0  0
  4 93  1  0  0  0
  5  6  1  0  0  0
  5 26  1  0  0  0
  5 94  1  0  0  0
  6 25  1  0  0  0
  6 95  1  0  0  0
  6 96  1  0  0  0
  7  8  2  0  0  0
  7 26  1  0  0  0
  7 29  1  0  0  0
  8  9  1  0  0  0
  8 22  1  0  0  0
  9 10  1  0  0  0
  9 27  2  0  0  0
 10 11  2  0  0  0
 10 15  1  0  0  0
 11 12  1  0  0  0
 11 97  1  0  0  0
 12 13  2  0  0  0
 12 98  1  0  0  0
 13 14  1  0  0  0
 13 31  1  0  0  0
 14 15  2  0  0  0
 14 99  1  0  0  0
 15100  1  0  0  0
 16 17  2  0  0  0
 16 21  1  0  0  0
 16 31  1  0  0  0
 17 18  1  0  0  0
 17101  1  0  0  0
 18 19  2  0  0  0
 18102  1  0  0  0
 19 20  1  0  0  0
 19 24  1  0  0  0
 20 21  2  0  0  0
 20103  1  0  0  0
 21 23  1  0  0  0
 22 28  1  0  0  0
 22 32  2  0  0  0
 26 27  1  0  0  0
 28104  1  0  0  0
 28105  1  0  0  0
 29106  1  0  0  0
 29107  1  0  0  0
 33 34  1  0  0  0
 33 66  1  0  0  0
 33 70  2  0  0  0
 34 36  1  0  0  0
 34 59  1  0  0  0
 34108  1  0  0  0
 35 44  2  0  0  0
 35 45  1  0  0  0
 35 68  1  0  0  0
 36 56  1  0  0  0
 36109  1  0  0  0
 37 39  1  0  0  0
 37 47  1  0  0  0
 37 66  1  0  0  0
 37110  1  0  0  0
 38 43  2  0  0  0
 38 46  1  0  0  0
 38 47  1  0  0  0
 39 64  1  0  0  0
 39 67  2  0  0  0
 40 52  1  0  0  0
 40 53  2  0  0  0
 40 58  1  0  0  0
 41111  1  0  0  0
 41112  1  0  0  0
 41113  1  0  0  0
 41 48  1  0  0  0
 42 43  1  0  0  0
 42 66  1  0  0  0
 42114  1  0  0  0
 42115  1  0  0  0
 43 44  1  0  0  0
 44116  1  0  0  0
 45 46  2  0  0  0
 45117  1  0  0  0
 46118  1  0  0  0
 47119  1  0  0  0
 47120  1  0  0  0
 48 56  1  0  0  0
 48 65  1  0  0  0
 48121  1  0  0  0
 49 50  1  0  0  0
 49 53  1  0  0  0
 49 64  1  0  0  0
 49122  1  0  0  0
 50 51  1  0  0  0
 50123  1  0  0  0
 50124  1  0  0  0
 51 52  1  0  0  0
 51125  1  0  0  0
 51126  1  0  0  0
 52127  1  0  0  0
 52128  1  0  0  0
 53 54  1  0  0  0
 54 55  2  0  0  0
 54129  1  0  0  0
 55 57  1  0  0  0
 55130  1  0  0  0
 56 69  2  0  0  0
 57 58  2  0  0  0
 57131  1  0  0  0
 58132  1  0  0  0
 59 60  1  0  0  0
 59 61  1  0  0  0
 59 62  1  0  0  0
 60133  1  0  0  0
 60134  1  0  0  0
 60135  1  0  0  0
 61136  1  0  0  0
 61137  1  0  0  0
 61138  1  0  0  0
 62139  1  0  0  0
 62140  1  0  0  0
 62141  1  0  0  0
 63 65  1  0  0  0
 63142  1  0  0  0
 63143  1  0  0  0
 63144  1  0  0  0
 64145  1  0  0  0
 65146  1  0  0  0
 68 80  1  0  0  0
 71 72  2  0  0  0
 71 74  1  0  0  0
 71147  1  0  0  0
 72 75  1  0  0  0
 72148  1  0  0  0
 73 74  2  0  0  0
 73 84  1  0  0  0
 73149  1  0  0  0
 74 85  1  0  0  0
 75 84  2  0  0  0
 75 86  1  0  0  0
 76150  1  0  0  0
 76151  1  0  0  0
 76152  1  0  0  0
 76 81  1  0  0  0
 77 81  1  0  0  0
 77153  1  0  0  0
 77154  1  0  0  0
 77155  1  0  0  0
 78 80  1  0  0  0
 78 83  1  0  0  0
 78156  1  0  0  0
 78157  1  0  0  0
 79 81  1  0  0  0
 79158  1  0  0  0
 79159  1  0  0  0
 79 82  1  0  0  0
 80160  1  0  0  0
 80161  1  0  0  0
 81162  1  0  0  0
 82 83  1  0  0  0
 82 85  1  0  0  0
 82163  1  0  0  0
 83 87  1  0  0  0
 83164  1  0  0  0
 85165  1  0  0  0
 86166  1  0  0  0
 87167  1  0  0  0
M  ISO  4   1 100  68 101  80 101  86 100
M  END
> <chiral flag>
0

> <version>
0

> <s_m_source_file>
/data/baiqing/PycharmProjects/Reinvent-master-3.2/result/LINK_invent/BTK/process_docking_weight1_custom_product_contain_oxygen_bond_distance_aromatic_linkinvent_7_9_3/rearranged_h_0198.sdf

> <i_m_source_file_index>
68

> <r_mmod_Potential_Energy-OPLS-2005>
-138.86003112793

> <r_mmod_Stretch_Energy-OPLS-2005>
40.7864265441895

> <r_mmod_Bend_Energy-OPLS-2005>
126.029510498047

> <r_mmod_Torsional_Energy-OPLS-2005>
296.830688476562

> <r_mmod_Improper_Torsional_Energy-OPLS-2005>
8.55649662017822

> <r_mmod_Van_der_Waal_Energy-OPLS-2005>
164.539764404297

> <r_mmod_Electrostatic_Energy-OPLS-2005>
-547.253051757812

> <r_mmod_Solvation_Energy-OPLS-2005>
-240.513885498047

> <b_mmod_Minimization_Converged-OPLS-2005>
0

> <r_mmod_RMS_Derivative-OPLS-2005>
3.54181909561157

$$$$
68
                    3D
 Structure written by MMmdl.
157165  0  0  1  0            999 V2000
  -30.6326  -14.6549   20.4701 C   0  0  0  0  0  0
  -30.4135  -12.3946   19.4591 C   0  0  0  0  0  0
  -29.4940  -12.4899   18.2229 C   0  0  0  0  0  0
  -28.0216  -12.3237   18.6467 C   0  0  0  0  0  0
  -27.6399  -13.2189   19.8567 C   0  0  2  0  0  0
  -28.6848  -13.1207   20.9877 C   0  0  0  0  0  0
  -25.2505  -13.8169   20.5730 C   0  0  0  0  0  0
  -24.1780  -13.0430   20.9198 C   0  0  0  0  0  0
  -24.6371  -11.6905   20.8760 C   0  0  0  0  0  0
  -23.9062  -10.4286   21.0417 C   0  0  0  0  0  0
  -24.3622   -9.4199   21.9183 C   0  0  0  0  0  0
  -23.6296   -8.2233   22.0768 C   0  0  0  0  0  0
  -22.4282   -8.0279   21.3559 C   0  0  0  0  0  0
  -21.9919   -9.0246   20.4647 C   0  0  0  0  0  0
  -22.7242  -10.2122   20.3054 C   0  0  0  0  0  0
  -21.6846   -6.0727   22.5279 C   0  0  0  0  0  0
  -21.4011   -6.5640   23.8212 C   0  0  0  0  0  0
  -21.3666   -5.6798   24.9172 C   0  0  0  0  0  0
  -21.6052   -4.3055   24.7225 C   0  0  0  0  0  0
  -21.8819   -3.8141   23.4340 C   0  0  0  0  0  0
  -21.9191   -4.6954   22.3393 C   0  0  0  0  0  0
  -22.7812  -13.5196   21.1884 C   0  0  0  0  0  0
  -22.1659   -4.2149   21.0965 F   0  0  0  0  0  0
  -21.5645   -3.4541   25.7729 F   0  0  0  0  0  0
  -29.9874  -13.4499   20.3999 N   0  0  0  0  0  0
  -26.2915  -12.9352   20.3334 N   0  0  0  0  0  0
  -25.9283  -11.6503   20.5785 N   0  0  0  0  0  0
  -22.0476  -12.8168   22.0429 N   0  0  0  0  0  0
  -25.4210  -15.1913   20.4211 N   0  0  0  0  0  0
  -31.8256  -14.7420   20.1726 O   0  0  0  0  0  0
  -21.6646   -6.8871   21.4248 O   0  0  0  0  0  0
  -22.3505  -14.5523   20.6770 O   0  0  0  0  0  0
  -24.6245  -31.8630   23.2041 C   0  0  0  0  0  0
  -25.9095  -32.4808   23.8378 C   0  0  1  0  0  0
  -27.2153  -27.3229   20.1187 C   0  0  0  0  0  0
  -25.5918  -33.8620   24.2294 N   0  0  0  0  0  0
  -23.4158  -30.4888   21.5503 C   0  0  2  0  0  0
  -24.8590  -28.9439   20.1152 C   0  0  0  0  0  0
  -22.7438  -29.4650   22.4956 C   0  0  0  0  0  0
  -18.0275  -28.1385   22.8476 C   0  0  0  0  0  0
  -24.1467  -36.7323   23.2622 C   0  0  0  0  0  0
  -25.9523  -30.7979   21.3689 C   0  0  0  0  0  0
  -26.0268  -29.4228   20.7178 C   0  0  0  0  0  0
  -27.2066  -28.6227   20.7120 C   0  0  0  0  0  0
  -26.0162  -26.8848   19.5126 C   0  0  0  0  0  0
  -24.8531  -27.6785   19.5081 C   0  0  0  0  0  0
  -23.6240  -29.8197   20.1679 C   0  0  0  0  0  0
  -25.4101  -36.3129   24.0301 C   0  0  1  0  0  0
  -20.5866  -28.3695   23.1261 C   0  0  2  0  0  0
  -20.6750  -26.9417   22.5403 C   0  0  0  0  0  0
  -19.5731  -26.6377   21.5199 C   0  0  0  0  0  0
  -18.1908  -26.7929   22.1600 C   0  0  0  0  0  0
  -19.1526  -28.8857   23.2862 C   0  0  0  0  0  0
  -18.9453  -30.1470   23.8858 C   0  0  0  0  0  0
  -17.6454  -30.6580   24.0580 C   0  0  0  0  0  0
  -25.9040  -34.9488   23.5095 C   0  0  0  0  0  0
  -16.5340  -29.9074   23.6364 C   0  0  0  0  0  0
  -16.7268  -28.6516   23.0332 C   0  0  0  0  0  0
  -26.4498  -31.6639   25.0763 C   0  0  0  0  0  0
  -25.3706  -31.3773   26.1465 C   0  0  0  0  0  0
  -27.0368  -30.3062   24.6257 C   0  0  0  0  0  0
  -27.6072  -32.4399   25.7520 C   0  0  0  0  0  0
  -27.5582  -37.1775   24.8437 C   0  0  0  0  0  0
  -21.4160  -29.3061   22.3663 N   0  0  0  0  0  0
  -26.4269  -37.3837   23.9428 N   0  0  0  0  0  0
  -24.6850  -31.0636   22.1008 N   0  0  0  0  0  0
  -23.4168  -28.8156   23.3008 O   0  0  0  0  0  0
  -28.3573  -26.5109   20.1772 O   0  0  0  0  0  0
  -26.5610  -34.8937   22.4661 O   0  0  0  0  0  0
  -23.5415  -32.1431   23.7381 O   0  0  0  0  0  0
  -28.4426  -20.5401   21.1669 C   0  0  0  0  0  0
  -29.7505  -20.4573   19.1830 C   0  0  0  0  0  0
  -28.8061  -19.1728   21.3989 C   0  0  0  0  0  0
  -28.9358  -21.2488   20.0372 C   0  0  0  0  0  0
  -29.6995  -18.5061   20.5114 C   0  0  0  0  0  0
  -28.2596  -18.4735   22.6320 C   0  0  0  0  0  0
  -26.9024  -23.7445   21.0585 C   0  0  0  0  0  0
  -30.4715  -17.1678   20.8351 C   0  0  0  0  0  0
  -28.4262  -25.1644   19.5738 C   0  0  0  0  0  0
  -28.3133  -23.8337   20.4550 C   0  0  2  0  0  0
  -30.1255  -19.1662   19.4083 N   0  0  0  0  0  0
  -28.6596  -22.6107   19.6582 N   0  0  0  0  0  0
  -29.8893  -15.7894   20.6860 N   0  0  0  0  0  0
  -31.4614  -12.4844   19.1700 H   0  0  0  0  0  0
  -30.3131  -11.4156   19.9288 H   0  0  0  0  0  0
  -29.7591  -11.7254   17.4920 H   0  0  0  0  0  0
  -29.6313  -13.4514   17.7245 H   0  0  0  0  0  0
  -27.8755  -11.2739   18.9090 H   0  0  0  0  0  0
  -27.3550  -12.5141   17.8049 H   0  0  0  0  0  0
  -27.6448  -14.2467   19.4910 H   0  0  0  0  0  0
  -28.7034  -12.1156   21.4121 H   0  0  0  0  0  0
  -28.4389  -13.7926   21.8109 H   0  0  0  0  0  0
  -25.2769   -9.5669   22.4757 H   0  0  0  0  0  0
  -24.0006   -7.4622   22.7491 H   0  0  0  0  0  0
  -21.0855   -8.8749   19.8938 H   0  0  0  0  0  0
  -22.3702  -10.9665   19.6165 H   0  0  0  0  0  0
  -21.1997   -7.6152   23.9712 H   0  0  0  0  0  0
  -21.1506   -6.0527   25.9081 H   0  0  0  0  0  0
  -22.0592   -2.7604   23.2845 H   0  0  0  0  0  0
  -22.4137  -11.9799   22.4737 H   0  0  0  0  0  0
  -21.1109  -13.1187   22.2710 H   0  0  0  0  0  0
  -24.6584  -15.8457   20.5527 H   0  0  0  0  0  0
  -26.2693  -15.6363   20.0998 H   0  0  0  0  0  0
  -26.7136  -32.5503   23.1118 H   0  0  0  0  0  0
  -25.0108  -33.9794   25.0459 H   0  0  0  0  0  0
  -22.7107  -31.3108   21.4119 H   0  0  0  0  0  0
  -23.3773  -35.9602   23.3254 H   0  0  0  0  0  0
  -24.3564  -36.9028   22.2050 H   0  0  0  0  0  0
  -23.7142  -37.6465   23.6696 H   0  0  0  0  0  0
  -26.0524  -31.5510   20.5874 H   0  0  0  0  0  0
  -26.8416  -30.8698   21.9837 H   0  0  0  0  0  0
  -28.1069  -28.9860   21.1898 H   0  0  0  0  0  0
  -25.9306  -25.9089   19.0652 H   0  0  0  0  0  0
  -23.9511  -27.2973   19.0533 H   0  0  0  0  0  0
  -23.7151  -30.5910   19.4025 H   0  0  0  0  0  0
  -22.7470  -29.2364   19.8880 H   0  0  0  0  0  0
  -25.1251  -36.1996   25.0777 H   0  0  0  0  0  0
  -20.9950  -28.3291   24.1381 H   0  0  0  0  0  0
  -20.5627  -26.2324   23.3620 H   0  0  0  0  0  0
  -21.6619  -26.7422   22.1212 H   0  0  0  0  0  0
  -19.6891  -25.6283   21.1241 H   0  0  0  0  0  0
  -19.6656  -27.3172   20.6718 H   0  0  0  0  0  0
  -17.4179  -26.6677   21.4001 H   0  0  0  0  0  0
  -18.0315  -26.0068   22.8994 H   0  0  0  0  0  0
  -19.7929  -30.7320   24.2154 H   0  0  0  0  0  0
  -17.5010  -31.6240   24.5206 H   0  0  0  0  0  0
  -15.5339  -30.2949   23.7741 H   0  0  0  0  0  0
  -15.8672  -28.0860   22.6995 H   0  0  0  0  0  0
  -24.5858  -30.7192   25.7731 H   0  0  0  0  0  0
  -24.8906  -32.2939   26.4912 H   0  0  0  0  0  0
  -25.7951  -30.8882   27.0246 H   0  0  0  0  0  0
  -26.2971  -29.6779   24.1287 H   0  0  0  0  0  0
  -27.4072  -29.7370   25.4806 H   0  0  0  0  0  0
  -27.8833  -30.4376   23.9507 H   0  0  0  0  0  0
  -27.2715  -33.3727   26.2083 H   0  0  0  0  0  0
  -28.3862  -32.6939   25.0313 H   0  0  0  0  0  0
  -28.0783  -31.8560   26.5448 H   0  0  0  0  0  0
  -28.2519  -38.0159   24.7653 H   0  0  0  0  0  0
  -28.1155  -36.2694   24.6065 H   0  0  0  0  0  0
  -27.2322  -37.1214   25.8840 H   0  0  0  0  0  0
  -20.9315  -29.8867   21.6952 H   0  0  0  0  0  0
  -26.0164  -38.2880   24.1582 H   0  0  0  0  0  0
  -27.7829  -21.0291   21.8655 H   0  0  0  0  0  0
  -30.1464  -20.8879   18.2746 H   0  0  0  0  0  0
  -27.4810  -19.0703   23.1106 H   0  0  0  0  0  0
  -29.0465  -18.3007   23.3665 H   0  0  0  0  0  0
  -27.8090  -17.5168   22.3671 H   0  0  0  0  0  0
  -26.6551  -24.6661   21.5846 H   0  0  0  0  0  0
  -26.8003  -22.9457   21.7889 H   0  0  0  0  0  0
  -26.1459  -23.6039   20.2868 H   0  0  0  0  0  0
  -30.8365  -17.2394   21.8592 H   0  0  0  0  0  0
  -31.3766  -17.2073   20.2251 H   0  0  0  0  0  0
  -27.7731  -25.0814   18.7066 H   0  0  0  0  0  0
  -29.4222  -25.1402   19.1298 H   0  0  0  0  0  0
  -29.0328  -23.9080   21.2752 H   0  0  0  0  0  0
  -29.0150  -22.8433   18.7330 H   0  0  0  0  0  0
  -28.8920  -15.7012   20.7971 H   0  0  0  0  0  0
  1 25  1  0  0  0
  1 30  2  0  0  0
  1 83  1  0  0  0
  2  3  1  0  0  0
  2 25  1  0  0  0
  2 84  1  0  0  0
  2 85  1  0  0  0
  3  4  1  0  0  0
  3 86  1  0  0  0
  3 87  1  0  0  0
  4  5  1  0  0  0
  4 88  1  0  0  0
  4 89  1  0  0  0
  5  6  1  0  0  0
  5 26  1  0  0  0
  5 90  1  0  0  0
  6 25  1  0  0  0
  6 91  1  0  0  0
  6 92  1  0  0  0
  7  8  2  0  0  0
  7 26  1  0  0  0
  7 29  1  0  0  0
  8  9  1  0  0  0
  8 22  1  0  0  0
  9 10  1  0  0  0
  9 27  2  0  0  0
 10 11  2  0  0  0
 10 15  1  0  0  0
 11 12  1  0  0  0
 11 93  1  0  0  0
 12 13  2  0  0  0
 12 94  1  0  0  0
 13 14  1  0  0  0
 13 31  1  0  0  0
 14 15  2  0  0  0
 14 95  1  0  0  0
 15 96  1  0  0  0
 16 17  2  0  0  0
 16 21  1  0  0  0
 16 31  1  0  0  0
 17 18  1  0  0  0
 17 97  1  0  0  0
 18 19  2  0  0  0
 18 98  1  0  0  0
 19 20  1  0  0  0
 19 24  1  0  0  0
 20 21  2  0  0  0
 20 99  1  0  0  0
 21 23  1  0  0  0
 22 28  1  0  0  0
 22 32  2  0  0  0
 26 27  1  0  0  0
 28100  1  0  0  0
 28101  1  0  0  0
 29102  1  0  0  0
 29103  1  0  0  0
 33 34  1  0  0  0
 33 66  1  0  0  0
 33 70  2  0  0  0
 34 36  1  0  0  0
 34 59  1  0  0  0
 34104  1  0  0  0
 35 44  2  0  0  0
 35 45  1  0  0  0
 35 68  1  0  0  0
 36 56  1  0  0  0
 36105  1  0  0  0
 37 39  1  0  0  0
 37 47  1  0  0  0
 37 66  1  0  0  0
 37106  1  0  0  0
 38 43  2  0  0  0
 38 46  1  0  0  0
 38 47  1  0  0  0
 39 64  1  0  0  0
 39 67  2  0  0  0
 40 52  1  0  0  0
 40 53  2  0  0  0
 40 58  1  0  0  0
 41107  1  0  0  0
 41108  1  0  0  0
 41109  1  0  0  0
 41 48  1  0  0  0
 42 43  1  0  0  0
 42 66  1  0  0  0
 42110  1  0  0  0
 42111  1  0  0  0
 43 44  1  0  0  0
 44112  1  0  0  0
 45 46  2  0  0  0
 45113  1  0  0  0
 46114  1  0  0  0
 47115  1  0  0  0
 47116  1  0  0  0
 48 56  1  0  0  0
 48 65  1  0  0  0
 48117  1  0  0  0
 49 50  1  0  0  0
 49 53  1  0  0  0
 49 64  1  0  0  0
 49118  1  0  0  0
 50 51  1  0  0  0
 50119  1  0  0  0
 50120  1  0  0  0
 51 52  1  0  0  0
 51121  1  0  0  0
 51122  1  0  0  0
 52123  1  0  0  0
 52124  1  0  0  0
 53 54  1  0  0  0
 54 55  2  0  0  0
 54125  1  0  0  0
 55 57  1  0  0  0
 55126  1  0  0  0
 56 69  2  0  0  0
 57 58  2  0  0  0
 57127  1  0  0  0
 58128  1  0  0  0
 59 60  1  0  0  0
 59 61  1  0  0  0
 59 62  1  0  0  0
 60129  1  0  0  0
 60130  1  0  0  0
 60131  1  0  0  0
 61132  1  0  0  0
 61133  1  0  0  0
 61134  1  0  0  0
 62135  1  0  0  0
 62136  1  0  0  0
 62137  1  0  0  0
 63 65  1  0  0  0
 63138  1  0  0  0
 63139  1  0  0  0
 63140  1  0  0  0
 64141  1  0  0  0
 65142  1  0  0  0
 68 79  1  0  0  0
 71 73  2  0  0  0
 71 74  1  0  0  0
 71143  1  0  0  0
 72 74  2  0  0  0
 72 81  1  0  0  0
 72144  1  0  0  0
 73 75  1  0  0  0
 73 76  1  0  0  0
 74 82  1  0  0  0
 75 78  1  0  0  0
 75 81  2  0  0  0
 76145  1  0  0  0
 76146  1  0  0  0
 76147  1  0  0  0
 77148  1  0  0  0
 77149  1  0  0  0
 77150  1  0  0  0
 77 80  1  0  0  0
 78 83  1  0  0  0
 78151  1  0  0  0
 78152  1  0  0  0
 79 80  1  0  0  0
 79153  1  0  0  0
 79154  1  0  0  0
 80 82  1  0  0  0
 80155  1  0  0  0
 82156  1  0  0  0
 83157  1  0  0  0
M  ISO  4   1 100  68 101  79 101  83 100
M  END
> <chiral flag>
0

> <version>
0

> <s_m_source_file>
/data/baiqing/PycharmProjects/Reinvent-master-3.2/result/LINK_invent/BTK/process_docking_weight1_custom_product_contain_oxygen_bond_distance_aromatic_linkinvent_7_9_3/rearranged_h_0198.sdf

> <i_m_source_file_index>
69

> <r_mmod_Potential_Energy-OPLS-2005>
-119.507026672363

> <r_mmod_Stretch_Energy-OPLS-2005>
76.9960174560547

> <r_mmod_Bend_Energy-OPLS-2005>
182.664276123047

> <r_mmod_Torsional_Energy-OPLS-2005>
198.205810546875

> <r_mmod_Improper_Torsional_Energy-OPLS-2005>
6.48639822006226

> <r_mmod_Van_der_Waal_Energy-OPLS-2005>
143.338729858398

> <r_mmod_Electrostatic_Energy-OPLS-2005>
-546.823669433594

> <r_mmod_Solvation_Energy-OPLS-2005>
-232.674209594727

> <b_mmod_Minimization_Converged-OPLS-2005>
0

> <r_mmod_RMS_Derivative-OPLS-2005>
3.45582675933838

$$$$
69
                    3D
 Structure written by MMmdl.
161169  0  0  1  0            999 V2000
  -30.7173  -14.4292   20.5934 C   0  0  0  0  0  0
  -30.4199  -12.2807   19.4207 C   0  0  0  0  0  0
  -29.4965  -12.5087   18.2043 C   0  0  0  0  0  0
  -28.0134  -12.3852   18.6094 C   0  0  0  0  0  0
  -27.6639  -13.2064   19.8795 C   0  0  2  0  0  0
  -28.7025  -12.9558   20.9995 C   0  0  0  0  0  0
  -25.2572  -13.8159   20.5657 C   0  0  0  0  0  0
  -24.1826  -13.0438   20.9174 C   0  0  0  0  0  0
  -24.6375  -11.6904   20.8716 C   0  0  0  0  0  0
  -23.9053  -10.4297   21.0391 C   0  0  0  0  0  0
  -24.3608   -9.4220   21.9176 C   0  0  0  0  0  0
  -23.6285   -8.2251   22.0750 C   0  0  0  0  0  0
  -22.4259   -8.0293   21.3550 C   0  0  0  0  0  0
  -21.9897   -9.0265   20.4654 C   0  0  0  0  0  0
  -22.7228  -10.2141   20.3049 C   0  0  0  0  0  0
  -21.6852   -6.0736   22.5280 C   0  0  0  0  0  0
  -21.4023   -6.5638   23.8218 C   0  0  0  0  0  0
  -21.3649   -5.6785   24.9179 C   0  0  0  0  0  0
  -21.6032   -4.3050   24.7228 C   0  0  0  0  0  0
  -21.8817   -3.8146   23.4350 C   0  0  0  0  0  0
  -21.9197   -4.6965   22.3403 C   0  0  0  0  0  0
  -22.7849  -13.5252   21.1836 C   0  0  0  0  0  0
  -22.1663   -4.2153   21.0980 F   0  0  0  0  0  0
  -21.5619   -3.4533   25.7739 F   0  0  0  0  0  0
  -30.0463  -13.2496   20.4647 N   0  0  0  0  0  0
  -26.3016  -12.9336   20.3352 N   0  0  0  0  0  0
  -25.9301  -11.6489   20.5727 N   0  0  0  0  0  0
  -22.0471  -12.8264   22.0388 N   0  0  0  0  0  0
  -25.4283  -15.1880   20.4043 N   0  0  0  0  0  0
  -31.8167  -14.6320   20.0573 O   0  0  0  0  0  0
  -21.6632   -6.8880   21.4241 O   0  0  0  0  0  0
  -22.3540  -14.5565   20.6690 O   0  0  0  0  0  0
  -24.6117  -31.8699   23.2127 C   0  0  0  0  0  0
  -25.9036  -32.4826   23.8394 C   0  0  1  0  0  0
  -27.2464  -27.4663   20.0721 C   0  0  0  0  0  0
  -25.5915  -33.8631   24.2308 N   0  0  0  0  0  0
  -23.3965  -30.4939   21.5532 C   0  0  2  0  0  0
  -24.8422  -28.9621   20.1204 C   0  0  0  0  0  0
  -22.7374  -29.4670   22.5014 C   0  0  0  0  0  0
  -18.0263  -28.1380   22.8493 C   0  0  0  0  0  0
  -24.1489  -36.7306   23.2633 C   0  0  0  0  0  0
  -25.9243  -30.8410   21.3656 C   0  0  0  0  0  0
  -26.0004  -29.4791   20.7105 C   0  0  0  0  0  0
  -27.1997  -28.7368   20.6872 C   0  0  0  0  0  0
  -26.0555  -26.9462   19.5075 C   0  0  0  0  0  0
  -24.8618  -27.6898   19.5256 C   0  0  0  0  0  0
  -23.6036  -29.8260   20.1684 C   0  0  0  0  0  0
  -25.4115  -36.3095   24.0314 C   0  0  1  0  0  0
  -20.5852  -28.3658   23.1337 C   0  0  2  0  0  0
  -20.6774  -26.9406   22.5421 C   0  0  0  0  0  0
  -19.5749  -26.6392   21.5218 C   0  0  0  0  0  0
  -18.1920  -26.7930   22.1623 C   0  0  0  0  0  0
  -19.1517  -28.8834   23.2911 C   0  0  0  0  0  0
  -18.9446  -30.1441   23.8911 C   0  0  0  0  0  0
  -17.6457  -30.6589   24.0574 C   0  0  0  0  0  0
  -25.9038  -34.9475   23.5094 C   0  0  0  0  0  0
  -16.5343  -29.9091   23.6344 C   0  0  0  0  0  0
  -16.7257  -28.6517   23.0347 C   0  0  0  0  0  0
  -26.4482  -31.6618   25.0727 C   0  0  0  0  0  0
  -25.3758  -31.3769   26.1483 C   0  0  0  0  0  0
  -27.0315  -30.3047   24.6135 C   0  0  0  0  0  0
  -27.6023  -32.4374   25.7512 C   0  0  0  0  0  0
  -27.5573  -37.1808   24.8456 C   0  0  0  0  0  0
  -21.4115  -29.3023   22.3737 N   0  0  0  0  0  0
  -26.4292  -37.3782   23.9391 N   0  0  0  0  0  0
  -24.6614  -31.0818   22.1017 N   0  0  0  0  0  0
  -23.4156  -28.8222   23.3058 O   0  0  0  0  0  0
  -28.4643  -26.8150   20.0546 O   0  0  0  0  0  0
  -26.5588  -34.8924   22.4646 O   0  0  0  0  0  0
  -23.5322  -32.1451   23.7541 O   0  0  0  0  0  0
  -29.7417  -17.0108   19.3590 C   0  0  0  0  0  0
  -29.6956  -19.0820   21.2164 C   0  0  0  0  0  0
  -29.5515  -18.3318   18.9123 C   0  0  0  0  0  0
  -29.5574  -19.3962   19.8417 C   0  0  0  0  0  0
  -29.9097  -16.7403   20.7436 C   0  0  0  0  0  0
  -31.0891  -22.0983   20.4955 C   0  0  0  0  0  0
  -29.0379  -23.1153   19.3633 C   0  0  0  0  0  0
  -28.6436  -25.6282   19.2819 C   0  0  0  0  0  0
  -29.6028  -21.9003   20.1364 C   0  0  1  0  0  0
  -28.8097  -24.3969   20.1975 C   0  0  1  0  0  0
  -29.8530  -17.7927   21.6066 N   0  3  0  0  0  0
  -29.3349  -18.6147   17.5565 N   0  0  0  0  0  0
  -29.4334  -20.6980   19.3276 N   0  0  0  0  0  0
  -30.0536  -15.4079   21.2369 N   0  0  0  0  0  0
  -27.6372  -24.2129   20.9769 O   0  0  0  0  0  0
  -31.4685  -12.3597   19.1259 H   0  0  0  0  0  0
  -30.3009  -11.2638   19.8006 H   0  0  0  0  0  0
  -29.7261  -11.7889   17.4170 H   0  0  0  0  0  0
  -29.6816  -13.4942   17.7715 H   0  0  0  0  0  0
  -27.8044  -11.3294   18.7836 H   0  0  0  0  0  0
  -27.3737  -12.6903   17.7807 H   0  0  0  0  0  0
  -27.7156  -14.2598   19.6013 H   0  0  0  0  0  0
  -28.6603  -11.9113   21.3154 H   0  0  0  0  0  0
  -28.4620  -13.5312   21.8945 H   0  0  0  0  0  0
  -25.2764   -9.5693   22.4745 H   0  0  0  0  0  0
  -24.0008   -7.4629   22.7448 H   0  0  0  0  0  0
  -21.0832   -8.8785   19.8941 H   0  0  0  0  0  0
  -22.3703  -10.9673   19.6144 H   0  0  0  0  0  0
  -21.2032   -7.6146   23.9733 H   0  0  0  0  0  0
  -21.1457   -6.0508   25.9081 H   0  0  0  0  0  0
  -22.0604   -2.7606   23.2844 H   0  0  0  0  0  0
  -22.4082  -11.9955   22.4819 H   0  0  0  0  0  0
  -21.1077  -13.1271   22.2550 H   0  0  0  0  0  0
  -24.6525  -15.8347   20.5006 H   0  0  0  0  0  0
  -26.2632  -15.6240   20.0368 H   0  0  0  0  0  0
  -26.7112  -32.5536   23.1160 H   0  0  0  0  0  0
  -25.0113  -33.9820   25.0482 H   0  0  0  0  0  0
  -22.6829  -31.3093   21.4151 H   0  0  0  0  0  0
  -23.3740  -35.9651   23.3314 H   0  0  0  0  0  0
  -24.3577  -36.8912   22.2045 H   0  0  0  0  0  0
  -23.7277  -37.6522   23.6655 H   0  0  0  0  0  0
  -26.0412  -31.6144   20.6050 H   0  0  0  0  0  0
  -26.8093  -30.8852   21.9883 H   0  0  0  0  0  0
  -28.0991  -29.1438   21.1276 H   0  0  0  0  0  0
  -26.0071  -25.9722   19.0493 H   0  0  0  0  0  0
  -23.9660  -27.2764   19.0834 H   0  0  0  0  0  0
  -23.7114  -30.6001   19.4076 H   0  0  0  0  0  0
  -22.7285  -29.2430   19.8749 H   0  0  0  0  0  0
  -25.1302  -36.1935   25.0807 H   0  0  0  0  0  0
  -20.9934  -28.3228   24.1457 H   0  0  0  0  0  0
  -20.5718  -26.2250   23.3590 H   0  0  0  0  0  0
  -21.6644  -26.7491   22.1188 H   0  0  0  0  0  0
  -19.6923  -25.6305   21.1237 H   0  0  0  0  0  0
  -19.6700  -27.3217   20.6757 H   0  0  0  0  0  0
  -17.4196  -26.6673   21.4020 H   0  0  0  0  0  0
  -18.0320  -26.0067   22.9014 H   0  0  0  0  0  0
  -19.7923  -30.7261   24.2274 H   0  0  0  0  0  0
  -17.5013  -31.6273   24.5169 H   0  0  0  0  0  0
  -15.5346  -30.3001   23.7669 H   0  0  0  0  0  0
  -15.8650  -28.0855   22.7041 H   0  0  0  0  0  0
  -24.5867  -30.7185   25.7834 H   0  0  0  0  0  0
  -24.9045  -32.2967   26.4958 H   0  0  0  0  0  0
  -25.8112  -30.8905   27.0217 H   0  0  0  0  0  0
  -26.2872  -29.6814   24.1161 H   0  0  0  0  0  0
  -27.4027  -29.7287   25.4622 H   0  0  0  0  0  0
  -27.8733  -30.4332   23.9325 H   0  0  0  0  0  0
  -27.2567  -33.3631   26.2133 H   0  0  0  0  0  0
  -28.3821  -32.7025   25.0359 H   0  0  0  0  0  0
  -28.0707  -31.8497   26.5415 H   0  0  0  0  0  0
  -28.2587  -38.0106   24.7483 H   0  0  0  0  0  0
  -28.1066  -36.2631   24.6297 H   0  0  0  0  0  0
  -27.2280  -37.1480   25.8858 H   0  0  0  0  0  0
  -20.9250  -29.8711   21.6950 H   0  0  0  0  0  0
  -26.0159  -38.2844   24.1409 H   0  0  0  0  0  0
  -29.7406  -16.2125   18.6340 H   0  0  0  0  0  0
  -29.6982  -19.8173   22.0106 H   0  0  0  0  0  0
  -31.2300  -22.9440   21.1683 H   0  0  0  0  0  0
  -31.6942  -22.2819   19.6062 H   0  0  0  0  0  0
  -31.5100  -21.2254   20.9961 H   0  0  0  0  0  0
  -28.0918  -22.8474   18.8876 H   0  0  0  0  0  0
  -29.7127  -23.3377   18.5354 H   0  0  0  0  0  0
  -27.9116  -25.4640   18.4939 H   0  0  0  0  0  0
  -29.5809  -25.7721   18.7415 H   0  0  0  0  0  0
  -29.0202  -21.7869   21.0521 H   0  0  0  0  0  0
  -29.6576  -24.5711   20.8608 H   0  0  0  0  0  0
  -29.9529  -17.6169   22.6122 H   0  0  0  0  0  0
  -28.9804  -17.8421   17.0075 H   0  0  0  0  0  0
  -28.7442  -19.4283   17.4350 H   0  0  0  0  0  0
  -29.6701  -20.7548   18.3410 H   0  0  0  0  0  0
  -29.3361  -15.0913   21.8657 H   0  0  0  0  0  0
  -26.8847  -24.2776   20.3988 H   0  0  0  0  0  0
  1 25  1  0  0  0
  1 30  2  0  0  0
  1 84  1  0  0  0
  2  3  1  0  0  0
  2 25  1  0  0  0
  2 86  1  0  0  0
  2 87  1  0  0  0
  3  4  1  0  0  0
  3 88  1  0  0  0
  3 89  1  0  0  0
  4  5  1  0  0  0
  4 90  1  0  0  0
  4 91  1  0  0  0
  5  6  1  0  0  0
  5 26  1  0  0  0
  5 92  1  0  0  0
  6 25  1  0  0  0
  6 93  1  0  0  0
  6 94  1  0  0  0
  7  8  2  0  0  0
  7 26  1  0  0  0
  7 29  1  0  0  0
  8  9  1  0  0  0
  8 22  1  0  0  0
  9 10  1  0  0  0
  9 27  2  0  0  0
 10 11  2  0  0  0
 10 15  1  0  0  0
 11 12  1  0  0  0
 11 95  1  0  0  0
 12 13  2  0  0  0
 12 96  1  0  0  0
 13 14  1  0  0  0
 13 31  1  0  0  0
 14 15  2  0  0  0
 14 97  1  0  0  0
 15 98  1  0  0  0
 16 17  2  0  0  0
 16 21  1  0  0  0
 16 31  1  0  0  0
 17 18  1  0  0  0
 17 99  1  0  0  0
 18 19  2  0  0  0
 18100  1  0  0  0
 19 20  1  0  0  0
 19 24  1  0  0  0
 20 21  2  0  0  0
 20101  1  0  0  0
 21 23  1  0  0  0
 22 28  1  0  0  0
 22 32  2  0  0  0
 26 27  1  0  0  0
 28102  1  0  0  0
 28103  1  0  0  0
 29104  1  0  0  0
 29105  1  0  0  0
 33 34  1  0  0  0
 33 66  1  0  0  0
 33 70  2  0  0  0
 34 36  1  0  0  0
 34 59  1  0  0  0
 34106  1  0  0  0
 35 44  2  0  0  0
 35 45  1  0  0  0
 35 68  1  0  0  0
 36 56  1  0  0  0
 36107  1  0  0  0
 37 39  1  0  0  0
 37 47  1  0  0  0
 37 66  1  0  0  0
 37108  1  0  0  0
 38 43  2  0  0  0
 38 46  1  0  0  0
 38 47  1  0  0  0
 39 64  1  0  0  0
 39 67  2  0  0  0
 40 52  1  0  0  0
 40 53  2  0  0  0
 40 58  1  0  0  0
 41109  1  0  0  0
 41110  1  0  0  0
 41111  1  0  0  0
 41 48  1  0  0  0
 42 43  1  0  0  0
 42 66  1  0  0  0
 42112  1  0  0  0
 42113  1  0  0  0
 43 44  1  0  0  0
 44114  1  0  0  0
 45 46  2  0  0  0
 45115  1  0  0  0
 46116  1  0  0  0
 47117  1  0  0  0
 47118  1  0  0  0
 48 56  1  0  0  0
 48 65  1  0  0  0
 48119  1  0  0  0
 49 50  1  0  0  0
 49 53  1  0  0  0
 49 64  1  0  0  0
 49120  1  0  0  0
 50 51  1  0  0  0
 50121  1  0  0  0
 50122  1  0  0  0
 51 52  1  0  0  0
 51123  1  0  0  0
 51124  1  0  0  0
 52125  1  0  0  0
 52126  1  0  0  0
 53 54  1  0  0  0
 54 55  2  0  0  0
 54127  1  0  0  0
 55 57  1  0  0  0
 55128  1  0  0  0
 56 69  2  0  0  0
 57 58  2  0  0  0
 57129  1  0  0  0
 58130  1  0  0  0
 59 60  1  0  0  0
 59 61  1  0  0  0
 59 62  1  0  0  0
 60131  1  0  0  0
 60132  1  0  0  0
 60133  1  0  0  0
 61134  1  0  0  0
 61135  1  0  0  0
 61136  1  0  0  0
 62137  1  0  0  0
 62138  1  0  0  0
 62139  1  0  0  0
 63 65  1  0  0  0
 63140  1  0  0  0
 63141  1  0  0  0
 63142  1  0  0  0
 64143  1  0  0  0
 65144  1  0  0  0
 68 78  1  0  0  0
 71 73  2  0  0  0
 71 75  1  0  0  0
 71145  1  0  0  0
 72 74  2  0  0  0
 72 81  1  0  0  0
 72146  1  0  0  0
 73 74  1  0  0  0
 73 82  1  0  0  0
 74 83  1  0  0  0
 75 81  2  0  0  0
 75 84  1  0  0  0
 76147  1  0  0  0
 76148  1  0  0  0
 76149  1  0  0  0
 76 79  1  0  0  0
 77 79  1  0  0  0
 77 80  1  0  0  0
 77150  1  0  0  0
 77151  1  0  0  0
 78 80  1  0  0  0
 78152  1  0  0  0
 78153  1  0  0  0
 79 83  1  0  0  0
 79154  1  0  0  0
 80 85  1  0  0  0
 80155  1  0  0  0
 81156  1  0  0  0
 82157  1  0  0  0
 82158  1  0  0  0
 83159  1  0  0  0
 84160  1  0  0  0
 85161  1  0  0  0
M  CHG  1  81   1
M  ISO  4   1 100  68 101  78 101  84 100
M  END
> <chiral flag>
0

> <version>
0

> <s_m_source_file>
/data/baiqing/PycharmProjects/Reinvent-master-3.2/result/LINK_invent/BTK/process_docking_weight1_custom_product_contain_oxygen_bond_distance_aromatic_linkinvent_7_9_3/rearranged_h_0198.sdf

> <i_m_source_file_index>
70

> <r_mmod_Potential_Energy-OPLS-2005>
-67.3260726928711

> <r_mmod_Stretch_Energy-OPLS-2005>
37.0734443664551

> <r_mmod_Bend_Energy-OPLS-2005>
116.473907470703

> <r_mmod_Torsional_Energy-OPLS-2005>
245.31005859375

> <r_mmod_Improper_Torsional_Energy-OPLS-2005>
12.277024269104

> <r_mmod_Van_der_Waal_Energy-OPLS-2005>
162.451217651367

> <r_mmod_Electrostatic_Energy-OPLS-2005>
-183.571502685547

> <r_mmod_Solvation_Energy-OPLS-2005>
-467.026702880859

> <b_mmod_Minimization_Converged-OPLS-2005>
0

> <r_mmod_RMS_Derivative-OPLS-2005>
2.35721111297607

$$$$
70
                    3D
 Structure written by MMmdl.
157165  0  0  1  0            999 V2000
  -30.7205  -14.4713   20.6341 C   0  0  0  0  0  0
  -30.4325  -12.3331   19.4186 C   0  0  0  0  0  0
  -29.4940  -12.5261   18.2093 C   0  0  0  0  0  0
  -28.0224  -12.3543   18.6312 C   0  0  0  0  0  0
  -27.6644  -13.2055   19.8760 C   0  0  2  0  0  0
  -28.7000  -12.9926   21.0015 C   0  0  0  0  0  0
  -25.2558  -13.8166   20.5596 C   0  0  0  0  0  0
  -24.1824  -13.0457   20.9196 C   0  0  0  0  0  0
  -24.6367  -11.6911   20.8712 C   0  0  0  0  0  0
  -23.9035  -10.4287   21.0423 C   0  0  0  0  0  0
  -24.3597   -9.4183   21.9165 C   0  0  0  0  0  0
  -23.6271   -8.2215   22.0707 C   0  0  0  0  0  0
  -22.4255   -8.0256   21.3510 C   0  0  0  0  0  0
  -21.9879   -9.0246   20.4616 C   0  0  0  0  0  0
  -22.7203  -10.2132   20.3043 C   0  0  0  0  0  0
  -21.6835   -6.0726   22.5267 C   0  0  0  0  0  0
  -21.4012   -6.5623   23.8211 C   0  0  0  0  0  0
  -21.3673   -5.6765   24.9172 C   0  0  0  0  0  0
  -21.6037   -4.3027   24.7209 C   0  0  0  0  0  0
  -21.8827   -3.8132   23.4313 C   0  0  0  0  0  0
  -21.9188   -4.6953   22.3388 C   0  0  0  0  0  0
  -22.7836  -13.5241   21.1901 C   0  0  0  0  0  0
  -22.1659   -4.2146   21.0955 F   0  0  0  0  0  0
  -21.5632   -3.4508   25.7720 F   0  0  0  0  0  0
  -30.0396  -13.3013   20.4603 N   0  0  0  0  0  0
  -26.3022  -12.9346   20.3329 N   0  0  0  0  0  0
  -25.9291  -11.6507   20.5742 N   0  0  0  0  0  0
  -22.0470  -12.8236   22.0464 N   0  0  0  0  0  0
  -25.4205  -15.1870   20.3809 N   0  0  0  0  0  0
  -31.8154  -14.6876   20.1049 O   0  0  0  0  0  0
  -21.6601   -6.8865   21.4223 O   0  0  0  0  0  0
  -22.3507  -14.5575   20.6787 O   0  0  0  0  0  0
  -24.6182  -31.8673   23.2102 C   0  0  0  0  0  0
  -25.9070  -32.4835   23.8388 C   0  0  1  0  0  0
  -27.2164  -27.4132   20.1020 C   0  0  0  0  0  0
  -25.5917  -33.8634   24.2317 N   0  0  0  0  0  0
  -23.4047  -30.4975   21.5526 C   0  0  2  0  0  0
  -24.8439  -28.9666   20.1130 C   0  0  0  0  0  0
  -22.7423  -29.4675   22.4966 C   0  0  0  0  0  0
  -18.0286  -28.1404   22.8491 C   0  0  0  0  0  0
  -24.1491  -36.7328   23.2636 C   0  0  0  0  0  0
  -25.9358  -30.8297   21.3636 C   0  0  0  0  0  0
  -26.0085  -29.4633   20.7111 C   0  0  0  0  0  0
  -27.1966  -28.6939   20.7053 C   0  0  0  0  0  0
  -26.0338  -26.9532   19.4711 C   0  0  0  0  0  0
  -24.8511  -27.7101   19.4895 C   0  0  0  0  0  0
  -23.6107  -29.8374   20.1646 C   0  0  0  0  0  0
  -25.4109  -36.3122   24.0339 C   0  0  1  0  0  0
  -20.5877  -28.3699   23.1321 C   0  0  2  0  0  0
  -20.6770  -26.9419   22.5458 C   0  0  0  0  0  0
  -19.5766  -26.6391   21.5235 C   0  0  0  0  0  0
  -18.1923  -26.7953   22.1599 C   0  0  0  0  0  0
  -19.1533  -28.8860   23.2902 C   0  0  0  0  0  0
  -18.9454  -30.1457   23.8926 C   0  0  0  0  0  0
  -17.6453  -30.6596   24.0583 C   0  0  0  0  0  0
  -25.9040  -34.9490   23.5121 C   0  0  0  0  0  0
  -16.5349  -29.9110   23.6327 C   0  0  0  0  0  0
  -16.7267  -28.6535   23.0337 C   0  0  0  0  0  0
  -26.4486  -31.6629   25.0715 C   0  0  0  0  0  0
  -25.3771  -31.3791   26.1495 C   0  0  0  0  0  0
  -27.0299  -30.3062   24.6096 C   0  0  0  0  0  0
  -27.6064  -32.4356   25.7462 C   0  0  0  0  0  0
  -27.5595  -37.1807   24.8454 C   0  0  0  0  0  0
  -21.4152  -29.3056   22.3717 N   0  0  0  0  0  0
  -26.4296  -37.3805   23.9416 N   0  0  0  0  0  0
  -24.6729  -31.0790   22.1013 N   0  0  0  0  0  0
  -23.4191  -28.8206   23.3002 O   0  0  0  0  0  0
  -28.3625  -26.6357   20.1634 O   0  0  0  0  0  0
  -26.5582  -34.8938   22.4669 O   0  0  0  0  0  0
  -23.5375  -32.1425   23.7493 O   0  0  0  0  0  0
  -31.2632  -19.0393   21.8721 C   0  0  0  0  0  0
  -30.0975  -19.0924   21.1483 C   0  0  0  0  0  0
  -29.5666  -17.7748   20.9059 C   0  0  0  0  0  0
  -30.3520  -16.7480   21.3960 C   0  0  0  0  0  0
  -28.2866  -17.5461   20.1543 C   0  0  0  0  0  0
  -29.4221  -20.3476   20.6082 C   0  0  0  0  0  0
  -29.2350  -24.3280   20.7021 C   0  0  0  0  0  0
  -28.9519  -22.8277   20.4140 C   0  0  0  0  0  0
  -28.1641  -25.2145   20.0273 C   0  0  0  0  0  0
  -29.7936  -21.7546   21.1623 C   0  0  1  0  0  0
  -30.0712  -15.4171   21.3463 N   0  0  0  0  0  0
  -29.4575  -21.8356   22.5376 O   0  0  0  0  0  0
  -31.7656  -17.3969   22.1949 S   0  0  0  0  0  0
  -31.4738  -12.4496   19.1094 H   0  0  0  0  0  0
  -30.3530  -11.3163   19.8074 H   0  0  0  0  0  0
  -29.7436  -11.8173   17.4187 H   0  0  0  0  0  0
  -29.6383  -13.5214   17.7865 H   0  0  0  0  0  0
  -27.8570  -11.2973   18.8440 H   0  0  0  0  0  0
  -27.3634  -12.5987   17.7986 H   0  0  0  0  0  0
  -27.7167  -14.2494   19.5692 H   0  0  0  0  0  0
  -28.6700  -11.9578   21.3473 H   0  0  0  0  0  0
  -28.4407  -13.5904   21.8763 H   0  0  0  0  0  0
  -25.2745   -9.5670   22.4732 H   0  0  0  0  0  0
  -23.9978   -7.4600   22.7409 H   0  0  0  0  0  0
  -21.0805   -8.8752   19.8951 H   0  0  0  0  0  0
  -22.3628  -10.9654   19.6150 H   0  0  0  0  0  0
  -21.2007   -7.6125   23.9731 H   0  0  0  0  0  0
  -21.1500   -6.0476   25.9087 H   0  0  0  0  0  0
  -22.0614   -2.7589   23.2802 H   0  0  0  0  0  0
  -22.4072  -11.9917   22.4890 H   0  0  0  0  0  0
  -21.1090  -13.1310   22.2714 H   0  0  0  0  0  0
  -24.6454  -15.8352   20.4640 H   0  0  0  0  0  0
  -26.2430  -15.5999   19.9614 H   0  0  0  0  0  0
  -26.7129  -32.5537   23.1141 H   0  0  0  0  0  0
  -25.0121  -33.9790   25.0504 H   0  0  0  0  0  0
  -22.6966  -31.3171   21.4167 H   0  0  0  0  0  0
  -23.3753  -35.9663   23.3306 H   0  0  0  0  0  0
  -24.3589  -36.8937   22.2050 H   0  0  0  0  0  0
  -23.7244  -37.6541   23.6639 H   0  0  0  0  0  0
  -26.0428  -31.5884   20.5871 H   0  0  0  0  0  0
  -26.8292  -30.8882   21.9748 H   0  0  0  0  0  0
  -28.0896  -29.0639   21.1889 H   0  0  0  0  0  0
  -25.9908  -25.9989   18.9670 H   0  0  0  0  0  0
  -23.9549  -27.3241   19.0225 H   0  0  0  0  0  0
  -23.7288  -30.6137   19.4068 H   0  0  0  0  0  0
  -22.7307  -29.2646   19.8639 H   0  0  0  0  0  0
  -25.1281  -36.1995   25.0835 H   0  0  0  0  0  0
  -20.9964  -28.3291   24.1442 H   0  0  0  0  0  0
  -20.5659  -26.2310   23.3666 H   0  0  0  0  0  0
  -21.6659  -26.7455   22.1282 H   0  0  0  0  0  0
  -19.6940  -25.6298   21.1278 H   0  0  0  0  0  0
  -19.6739  -27.3199   20.6766 H   0  0  0  0  0  0
  -17.4228  -26.6752   21.3955 H   0  0  0  0  0  0
  -18.0258  -26.0077   22.8966 H   0  0  0  0  0  0
  -19.7937  -30.7261   24.2304 H   0  0  0  0  0  0
  -17.5026  -31.6270   24.5206 H   0  0  0  0  0  0
  -15.5360  -30.3027   23.7641 H   0  0  0  0  0  0
  -15.8663  -28.0875   22.7019 H   0  0  0  0  0  0
  -24.5881  -30.7184   25.7879 H   0  0  0  0  0  0
  -24.9032  -32.2987   26.4944 H   0  0  0  0  0  0
  -25.8134  -30.8967   27.0254 H   0  0  0  0  0  0
  -26.2823  -29.6830   24.1162 H   0  0  0  0  0  0
  -27.4088  -29.7291   25.4547 H   0  0  0  0  0  0
  -27.8657  -30.4375   23.9213 H   0  0  0  0  0  0
  -27.2652  -33.3603   26.2133 H   0  0  0  0  0  0
  -28.3803  -32.7034   25.0253 H   0  0  0  0  0  0
  -28.0822  -31.8450   26.5304 H   0  0  0  0  0  0
  -28.2632  -38.0087   24.7493 H   0  0  0  0  0  0
  -28.1067  -36.2625   24.6267 H   0  0  0  0  0  0
  -27.2326  -37.1464   25.8861 H   0  0  0  0  0  0
  -20.9304  -29.8793   21.6962 H   0  0  0  0  0  0
  -26.0199  -38.2890   24.1430 H   0  0  0  0  0  0
  -31.8722  -19.8670   22.2165 H   0  0  0  0  0  0
  -28.4046  -17.7808   19.0969 H   0  0  0  0  0  0
  -27.4780  -18.1670   20.5365 H   0  0  0  0  0  0
  -27.9445  -16.5185   20.2160 H   0  0  0  0  0  0
  -28.3399  -20.2444   20.6863 H   0  0  0  0  0  0
  -29.6198  -20.3680   19.5367 H   0  0  0  0  0  0
  -30.2246  -24.5981   20.3343 H   0  0  0  0  0  0
  -29.2299  -24.5147   21.7768 H   0  0  0  0  0  0
  -29.0862  -22.6754   19.3415 H   0  0  0  0  0  0
  -27.8931  -22.6246   20.5931 H   0  0  0  0  0  0
  -27.2124  -24.9204   20.4772 H   0  0  0  0  0  0
  -28.1033  -24.9721   18.9652 H   0  0  0  0  0  0
  -30.8591  -21.9508   21.0283 H   0  0  0  0  0  0
  -29.1599  -15.1459   21.6826 H   0  0  0  0  0  0
  -29.6594  -22.7178   22.8314 H   0  0  0  0  0  0
  1 25  1  0  0  0
  1 30  2  0  0  0
  1 81  1  0  0  0
  2  3  1  0  0  0
  2 25  1  0  0  0
  2 84  1  0  0  0
  2 85  1  0  0  0
  3  4  1  0  0  0
  3 86  1  0  0  0
  3 87  1  0  0  0
  4  5  1  0  0  0
  4 88  1  0  0  0
  4 89  1  0  0  0
  5  6  1  0  0  0
  5 26  1  0  0  0
  5 90  1  0  0  0
  6 25  1  0  0  0
  6 91  1  0  0  0
  6 92  1  0  0  0
  7  8  2  0  0  0
  7 26  1  0  0  0
  7 29  1  0  0  0
  8  9  1  0  0  0
  8 22  1  0  0  0
  9 10  1  0  0  0
  9 27  2  0  0  0
 10 11  2  0  0  0
 10 15  1  0  0  0
 11 12  1  0  0  0
 11 93  1  0  0  0
 12 13  2  0  0  0
 12 94  1  0  0  0
 13 14  1  0  0  0
 13 31  1  0  0  0
 14 15  2  0  0  0
 14 95  1  0  0  0
 15 96  1  0  0  0
 16 17  2  0  0  0
 16 21  1  0  0  0
 16 31  1  0  0  0
 17 18  1  0  0  0
 17 97  1  0  0  0
 18 19  2  0  0  0
 18 98  1  0  0  0
 19 20  1  0  0  0
 19 24  1  0  0  0
 20 21  2  0  0  0
 20 99  1  0  0  0
 21 23  1  0  0  0
 22 28  1  0  0  0
 22 32  2  0  0  0
 26 27  1  0  0  0
 28100  1  0  0  0
 28101  1  0  0  0
 29102  1  0  0  0
 29103  1  0  0  0
 33 34  1  0  0  0
 33 66  1  0  0  0
 33 70  2  0  0  0
 34 36  1  0  0  0
 34 59  1  0  0  0
 34104  1  0  0  0
 35 44  2  0  0  0
 35 45  1  0  0  0
 35 68  1  0  0  0
 36 56  1  0  0  0
 36105  1  0  0  0
 37 39  1  0  0  0
 37 47  1  0  0  0
 37 66  1  0  0  0
 37106  1  0  0  0
 38 43  2  0  0  0
 38 46  1  0  0  0
 38 47  1  0  0  0
 39 64  1  0  0  0
 39 67  2  0  0  0
 40 52  1  0  0  0
 40 53  2  0  0  0
 40 58  1  0  0  0
 41107  1  0  0  0
 41108  1  0  0  0
 41109  1  0  0  0
 41 48  1  0  0  0
 42 43  1  0  0  0
 42 66  1  0  0  0
 42110  1  0  0  0
 42111  1  0  0  0
 43 44  1  0  0  0
 44112  1  0  0  0
 45 46  2  0  0  0
 45113  1  0  0  0
 46114  1  0  0  0
 47115  1  0  0  0
 47116  1  0  0  0
 48 56  1  0  0  0
 48 65  1  0  0  0
 48117  1  0  0  0
 49 50  1  0  0  0
 49 53  1  0  0  0
 49 64  1  0  0  0
 49118  1  0  0  0
 50 51  1  0  0  0
 50119  1  0  0  0
 50120  1  0  0  0
 51 52  1  0  0  0
 51121  1  0  0  0
 51122  1  0  0  0
 52123  1  0  0  0
 52124  1  0  0  0
 53 54  1  0  0  0
 54 55  2  0  0  0
 54125  1  0  0  0
 55 57  1  0  0  0
 55126  1  0  0  0
 56 69  2  0  0  0
 57 58  2  0  0  0
 57127  1  0  0  0
 58128  1  0  0  0
 59 60  1  0  0  0
 59 61  1  0  0  0
 59 62  1  0  0  0
 60129  1  0  0  0
 60130  1  0  0  0
 60131  1  0  0  0
 61132  1  0  0  0
 61133  1  0  0  0
 61134  1  0  0  0
 62135  1  0  0  0
 62136  1  0  0  0
 62137  1  0  0  0
 63 65  1  0  0  0
 63138  1  0  0  0
 63139  1  0  0  0
 63140  1  0  0  0
 64141  1  0  0  0
 65142  1  0  0  0
 68 79  1  0  0  0
 71 72  2  0  0  0
 71 83  1  0  0  0
 71143  1  0  0  0
 72 73  1  0  0  0
 72 76  1  0  0  0
 73 74  2  0  0  0
 73 75  1  0  0  0
 74 81  1  0  0  0
 74 83  1  0  0  0
 75144  1  0  0  0
 75145  1  0  0  0
 75146  1  0  0  0
 76 80  1  0  0  0
 76147  1  0  0  0
 76148  1  0  0  0
 77 78  1  0  0  0
 77 79  1  0  0  0
 77149  1  0  0  0
 77150  1  0  0  0
 78 80  1  0  0  0
 78151  1  0  0  0
 78152  1  0  0  0
 79153  1  0  0  0
 79154  1  0  0  0
 80 82  1  0  0  0
 80155  1  0  0  0
 81156  1  0  0  0
 82157  1  0  0  0
M  ISO  4   1 100  68 101  79 101  81 100
M  END
> <chiral flag>
0

> <version>
0

> <s_m_source_file>
/data/baiqing/PycharmProjects/Reinvent-master-3.2/result/LINK_invent/BTK/process_docking_weight1_custom_product_contain_oxygen_bond_distance_aromatic_linkinvent_7_9_3/rearranged_h_0198.sdf

> <i_m_source_file_index>
71

> <r_mmod_Potential_Energy-OPLS-2005>
-94.0513153076172

> <r_mmod_Stretch_Energy-OPLS-2005>
38.6154327392578

> <r_mmod_Bend_Energy-OPLS-2005>
110.881408691406

> <r_mmod_Torsional_Energy-OPLS-2005>
221.771118164062

> <r_mmod_Improper_Torsional_Energy-OPLS-2005>
3.67991256713867

> <r_mmod_Van_der_Waal_Energy-OPLS-2005>
133.658569335938

> <r_mmod_Electrostatic_Energy-OPLS-2005>
-386.065826416016

> <r_mmod_Solvation_Energy-OPLS-2005>
-232.864501953125

> <b_mmod_Minimization_Converged-OPLS-2005>
0

> <r_mmod_RMS_Derivative-OPLS-2005>
4.69448757171631

$$$$
71
                    3D
 Structure written by MMmdl.
154162  0  0  1  0            999 V2000
  -30.6180  -14.7860   20.4368 C   0  0  0  0  0  0
  -30.4232  -12.4740   19.4964 C   0  0  0  0  0  0
  -29.5093  -12.5056   18.2521 C   0  0  0  0  0  0
  -28.0440  -12.2964   18.6715 C   0  0  0  0  0  0
  -27.6351  -13.2317   19.8391 C   0  0  2  0  0  0
  -28.6735  -13.2258   20.9818 C   0  0  0  0  0  0
  -25.2558  -13.8210   20.5734 C   0  0  0  0  0  0
  -24.1838  -13.0484   20.9194 C   0  0  0  0  0  0
  -24.6399  -11.6949   20.8781 C   0  0  0  0  0  0
  -23.9064  -10.4315   21.0426 C   0  0  0  0  0  0
  -24.3598   -9.4216   21.9198 C   0  0  0  0  0  0
  -23.6271   -8.2262   22.0741 C   0  0  0  0  0  0
  -22.4244   -8.0292   21.3557 C   0  0  0  0  0  0
  -21.9904   -9.0268   20.4656 C   0  0  0  0  0  0
  -22.7238  -10.2146   20.3076 C   0  0  0  0  0  0
  -21.6840   -6.0752   22.5312 C   0  0  0  0  0  0
  -21.4029   -6.5668   23.8244 C   0  0  0  0  0  0
  -21.3666   -5.6822   24.9199 C   0  0  0  0  0  0
  -21.6012   -4.3085   24.7258 C   0  0  0  0  0  0
  -21.8819   -3.8170   23.4393 C   0  0  0  0  0  0
  -21.9198   -4.6983   22.3436 C   0  0  0  0  0  0
  -22.7865  -13.5272   21.1863 C   0  0  0  0  0  0
  -22.1660   -4.2184   21.1010 F   0  0  0  0  0  0
  -21.5574   -3.4549   25.7762 F   0  0  0  0  0  0
  -29.9800  -13.5612   20.4008 N   0  0  0  0  0  0
  -26.2938  -12.9418   20.3265 N   0  0  0  0  0  0
  -25.9325  -11.6561   20.5767 N   0  0  0  0  0  0
  -22.0492  -12.8265   22.0404 N   0  0  0  0  0  0
  -25.4382  -15.1913   20.4191 N   0  0  0  0  0  0
  -31.8076  -14.8578   20.1237 O   0  0  0  0  0  0
  -21.6614   -6.8886   21.4256 O   0  0  0  0  0  0
  -22.3577  -14.5582   20.6691 O   0  0  0  0  0  0
  -24.6361  -31.8511   23.1937 C   0  0  0  0  0  0
  -25.9177  -32.4725   23.8262 C   0  0  1  0  0  0
  -27.1920  -27.2128   20.1111 C   0  0  0  0  0  0
  -25.5959  -33.8509   24.2186 N   0  0  0  0  0  0
  -23.4329  -30.4739   21.5397 C   0  0  2  0  0  0
  -24.8702  -28.9084   20.1106 C   0  0  0  0  0  0
  -22.7479  -29.4589   22.4884 C   0  0  0  0  0  0
  -18.0257  -28.1423   22.8459 C   0  0  0  0  0  0
  -24.1498  -36.7278   23.2637 C   0  0  0  0  0  0
  -25.9845  -30.7425   21.3841 C   0  0  0  0  0  0
  -26.0480  -29.3615   20.7209 C   0  0  0  0  0  0
  -27.2168  -28.5257   20.7028 C   0  0  0  0  0  0
  -25.9912  -26.8289   19.4873 C   0  0  0  0  0  0
  -24.8466  -27.6515   19.4856 C   0  0  0  0  0  0
  -23.6516  -29.8120   20.1545 C   0  0  0  0  0  0
  -25.4134  -36.3042   24.0301 C   0  0  1  0  0  0
  -20.5852  -28.3744   23.1249 C   0  0  2  0  0  0
  -20.6759  -26.9474   22.5397 C   0  0  0  0  0  0
  -19.5764  -26.6433   21.5197 C   0  0  0  0  0  0
  -18.1938  -26.7958   22.1599 C   0  0  0  0  0  0
  -19.1518  -28.8884   23.2853 C   0  0  0  0  0  0
  -18.9457  -30.1482   23.8896 C   0  0  0  0  0  0
  -17.6453  -30.6617   24.0579 C   0  0  0  0  0  0
  -25.9088  -34.9410   23.5052 C   0  0  0  0  0  0
  -16.5350  -29.9129   23.6307 C   0  0  0  0  0  0
  -16.7240  -28.6518   23.0370 C   0  0  0  0  0  0
  -26.4530  -31.6559   25.0660 C   0  0  0  0  0  0
  -25.3731  -31.3721   26.1367 C   0  0  0  0  0  0
  -27.0389  -30.2952   24.6188 C   0  0  0  0  0  0
  -27.6074  -32.4323   25.7456 C   0  0  0  0  0  0
  -27.5576  -37.1798   24.8458 C   0  0  0  0  0  0
  -21.4168  -29.3096   22.3642 N   0  0  0  0  0  0
  -26.4290  -37.3769   23.9394 N   0  0  0  0  0  0
  -24.7041  -31.0413   22.0953 N   0  0  0  0  0  0
  -23.4140  -28.8123   23.3002 O   0  0  0  0  0  0
  -28.2797  -26.3049   20.0675 O   0  0  0  0  0  0
  -26.5684  -34.8925   22.4626 O   0  0  0  0  0  0
  -23.5501  -32.1357   23.7219 O   0  0  0  0  0  0
  -29.2653  -18.6130   20.5221 C   0  0  0  0  0  0
  -27.2116  -19.2724   21.0309 C   0  0  0  0  0  0
  -28.6405  -20.8493   20.3816 C   0  0  0  0  0  0
  -28.4772  -23.7260   18.2162 C   0  0  0  0  0  0
  -30.3017  -17.4054   20.3869 C   0  0  0  0  0  0
  -28.1573  -24.8716   20.5680 C   0  0  0  0  0  0
  -28.1380  -23.4624   19.7016 C   0  0  2  0  0  0
  -28.0541  -18.2570   20.9328 N   0  0  0  0  0  0
  -29.6219  -19.9113   20.2448 N   0  0  0  0  0  0
  -27.4046  -20.5642   20.7738 N   0  0  0  0  0  0
  -25.9590  -18.9100   21.4261 N   0  0  0  0  0  0
  -28.9561  -22.2497   20.1850 N   0  0  0  0  0  0
  -29.8747  -15.9479   20.6122 N   0  0  0  0  0  0
  -31.4665  -12.5833   19.1974 H   0  0  0  0  0  0
  -30.3544  -11.5081   20.0026 H   0  0  0  0  0  0
  -29.8102  -11.7396   17.5347 H   0  0  0  0  0  0
  -29.6087  -13.4642   17.7409 H   0  0  0  0  0  0
  -27.9334  -11.2542   18.9752 H   0  0  0  0  0  0
  -27.3795  -12.4311   17.8154 H   0  0  0  0  0  0
  -27.6171  -14.2392   19.4200 H   0  0  0  0  0  0
  -28.7035  -12.2577   21.4876 H   0  0  0  0  0  0
  -28.3892  -13.9581   21.7391 H   0  0  0  0  0  0
  -25.2734   -9.5699   22.4788 H   0  0  0  0  0  0
  -24.0008   -7.4652   22.7462 H   0  0  0  0  0  0
  -21.0838   -8.8797   19.8953 H   0  0  0  0  0  0
  -22.3696  -10.9684   19.6201 H   0  0  0  0  0  0
  -21.2027   -7.6181   23.9774 H   0  0  0  0  0  0
  -21.1463   -6.0537   25.9108 H   0  0  0  0  0  0
  -22.0574   -2.7639   23.2892 H   0  0  0  0  0  0
  -22.4088  -11.9877   22.4747 H   0  0  0  0  0  0
  -21.1154  -13.1362   22.2641 H   0  0  0  0  0  0
  -24.6807  -15.8601   20.4878 H   0  0  0  0  0  0
  -26.3117  -15.6144   20.1286 H   0  0  0  0  0  0
  -26.7216  -32.5321   23.0973 H   0  0  0  0  0  0
  -25.0091  -33.9636   25.0315 H   0  0  0  0  0  0
  -22.7335  -31.2995   21.3903 H   0  0  0  0  0  0
  -23.3765  -35.9612   23.3312 H   0  0  0  0  0  0
  -24.3582  -36.8901   22.2052 H   0  0  0  0  0  0
  -23.7272  -37.6467   23.6685 H   0  0  0  0  0  0
  -26.1378  -31.5056   20.6216 H   0  0  0  0  0  0
  -26.8624  -30.7824   22.0186 H   0  0  0  0  0  0
  -28.1284  -28.8627   21.1765 H   0  0  0  0  0  0
  -25.9342  -25.8709   18.9871 H   0  0  0  0  0  0
  -23.9434  -27.3051   19.0015 H   0  0  0  0  0  0
  -23.7961  -30.5947   19.4098 H   0  0  0  0  0  0
  -22.7655  -29.2593   19.8359 H   0  0  0  0  0  0
  -25.1325  -36.1866   25.0796 H   0  0  0  0  0  0
  -20.9911  -28.3378   24.1395 H   0  0  0  0  0  0
  -20.5683  -26.2359   23.3585 H   0  0  0  0  0  0
  -21.6616  -26.7536   22.1159 H   0  0  0  0  0  0
  -19.6967  -25.6342   21.1252 H   0  0  0  0  0  0
  -19.6742  -27.3225   20.6726 H   0  0  0  0  0  0
  -17.4205  -26.6663   21.4023 H   0  0  0  0  0  0
  -18.0403  -26.0102   22.9010 H   0  0  0  0  0  0
  -19.7934  -30.7234   24.2298 H   0  0  0  0  0  0
  -17.5029  -31.6300   24.5175 H   0  0  0  0  0  0
  -15.5364  -30.3036   23.7623 H   0  0  0  0  0  0
  -15.8636  -28.0812   22.7107 H   0  0  0  0  0  0
  -24.5926  -30.7068   25.7660 H   0  0  0  0  0  0
  -24.8917  -32.2897   26.4742 H   0  0  0  0  0  0
  -25.8026  -30.8898   27.0153 H   0  0  0  0  0  0
  -26.2950  -29.6684   24.1257 H   0  0  0  0  0  0
  -27.4078  -29.7231   25.4701 H   0  0  0  0  0  0
  -27.8837  -30.4178   23.9425 H   0  0  0  0  0  0
  -27.2655  -33.3631   26.2009 H   0  0  0  0  0  0
  -28.3920  -32.6890   25.0319 H   0  0  0  0  0  0
  -28.0733  -31.8468   26.5395 H   0  0  0  0  0  0
  -28.2599  -38.0099   24.7512 H   0  0  0  0  0  0
  -28.1079  -36.2612   24.6290 H   0  0  0  0  0  0
  -27.2289  -37.1456   25.8868 H   0  0  0  0  0  0
  -20.9330  -29.8810   21.6852 H   0  0  0  0  0  0
  -26.0153  -38.2826   24.1423 H   0  0  0  0  0  0
  -28.3549  -22.8198   17.6209 H   0  0  0  0  0  0
  -29.5092  -24.0638   18.0866 H   0  0  0  0  0  0
  -27.8287  -24.4841   17.7662 H   0  0  0  0  0  0
  -30.7226  -17.4650   19.3806 H   0  0  0  0  0  0
  -31.1323  -17.6270   21.0626 H   0  0  0  0  0  0
  -29.0130  -24.7809   21.2329 H   0  0  0  0  0  0
  -27.3060  -24.8436   21.2489 H   0  0  0  0  0  0
  -27.0979  -23.1267   19.7078 H   0  0  0  0  0  0
  -25.3551  -19.6380   21.7856 H   0  0  0  0  0  0
  -25.8635  -18.0121   21.8822 H   0  0  0  0  0  0
  -29.9381  -22.3544   19.9683 H   0  0  0  0  0  0
  -28.8987  -15.8543   20.8492 H   0  0  0  0  0  0
  1 25  1  0  0  0
  1 30  2  0  0  0
  1 83  1  0  0  0
  2  3  1  0  0  0
  2 25  1  0  0  0
  2 84  1  0  0  0
  2 85  1  0  0  0
  3  4  1  0  0  0
  3 86  1  0  0  0
  3 87  1  0  0  0
  4  5  1  0  0  0
  4 88  1  0  0  0
  4 89  1  0  0  0
  5  6  1  0  0  0
  5 26  1  0  0  0
  5 90  1  0  0  0
  6 25  1  0  0  0
  6 91  1  0  0  0
  6 92  1  0  0  0
  7  8  2  0  0  0
  7 26  1  0  0  0
  7 29  1  0  0  0
  8  9  1  0  0  0
  8 22  1  0  0  0
  9 10  1  0  0  0
  9 27  2  0  0  0
 10 11  2  0  0  0
 10 15  1  0  0  0
 11 12  1  0  0  0
 11 93  1  0  0  0
 12 13  2  0  0  0
 12 94  1  0  0  0
 13 14  1  0  0  0
 13 31  1  0  0  0
 14 15  2  0  0  0
 14 95  1  0  0  0
 15 96  1  0  0  0
 16 17  2  0  0  0
 16 21  1  0  0  0
 16 31  1  0  0  0
 17 18  1  0  0  0
 17 97  1  0  0  0
 18 19  2  0  0  0
 18 98  1  0  0  0
 19 20  1  0  0  0
 19 24  1  0  0  0
 20 21  2  0  0  0
 20 99  1  0  0  0
 21 23  1  0  0  0
 22 28  1  0  0  0
 22 32  2  0  0  0
 26 27  1  0  0  0
 28100  1  0  0  0
 28101  1  0  0  0
 29102  1  0  0  0
 29103  1  0  0  0
 33 34  1  0  0  0
 33 66  1  0  0  0
 33 70  2  0  0  0
 34 36  1  0  0  0
 34 59  1  0  0  0
 34104  1  0  0  0
 35 44  2  0  0  0
 35 45  1  0  0  0
 35 68  1  0  0  0
 36 56  1  0  0  0
 36105  1  0  0  0
 37 39  1  0  0  0
 37 47  1  0  0  0
 37 66  1  0  0  0
 37106  1  0  0  0
 38 43  2  0  0  0
 38 46  1  0  0  0
 38 47  1  0  0  0
 39 64  1  0  0  0
 39 67  2  0  0  0
 40 52  1  0  0  0
 40 53  2  0  0  0
 40 58  1  0  0  0
 41107  1  0  0  0
 41108  1  0  0  0
 41109  1  0  0  0
 41 48  1  0  0  0
 42 43  1  0  0  0
 42 66  1  0  0  0
 42110  1  0  0  0
 42111  1  0  0  0
 43 44  1  0  0  0
 44112  1  0  0  0
 45 46  2  0  0  0
 45113  1  0  0  0
 46114  1  0  0  0
 47115  1  0  0  0
 47116  1  0  0  0
 48 56  1  0  0  0
 48 65  1  0  0  0
 48117  1  0  0  0
 49 50  1  0  0  0
 49 53  1  0  0  0
 49 64  1  0  0  0
 49118  1  0  0  0
 50 51  1  0  0  0
 50119  1  0  0  0
 50120  1  0  0  0
 51 52  1  0  0  0
 51121  1  0  0  0
 51122  1  0  0  0
 52123  1  0  0  0
 52124  1  0  0  0
 53 54  1  0  0  0
 54 55  2  0  0  0
 54125  1  0  0  0
 55 57  1  0  0  0
 55126  1  0  0  0
 56 69  2  0  0  0
 57 58  2  0  0  0
 57127  1  0  0  0
 58128  1  0  0  0
 59 60  1  0  0  0
 59 61  1  0  0  0
 59 62  1  0  0  0
 60129  1  0  0  0
 60130  1  0  0  0
 60131  1  0  0  0
 61132  1  0  0  0
 61133  1  0  0  0
 61134  1  0  0  0
 62135  1  0  0  0
 62136  1  0  0  0
 62137  1  0  0  0
 63 65  1  0  0  0
 63138  1  0  0  0
 63139  1  0  0  0
 63140  1  0  0  0
 64141  1  0  0  0
 65142  1  0  0  0
 68 76  1  0  0  0
 71 75  1  0  0  0
 71 78  1  0  0  0
 71 79  2  0  0  0
 72 78  2  0  0  0
 72 80  1  0  0  0
 72 81  1  0  0  0
 73 79  1  0  0  0
 73 80  2  0  0  0
 73 82  1  0  0  0
 74143  1  0  0  0
 74144  1  0  0  0
 74145  1  0  0  0
 74 77  1  0  0  0
 75 83  1  0  0  0
 75146  1  0  0  0
 75147  1  0  0  0
 76 77  1  0  0  0
 76148  1  0  0  0
 76149  1  0  0  0
 77 82  1  0  0  0
 77150  1  0  0  0
 81151  1  0  0  0
 81152  1  0  0  0
 82153  1  0  0  0
 83154  1  0  0  0
M  ISO  4   1 100  68 101  76 101  83 100
M  END
> <chiral flag>
0

> <version>
0

> <s_m_source_file>
/data/baiqing/PycharmProjects/Reinvent-master-3.2/result/LINK_invent/BTK/process_docking_weight1_custom_product_contain_oxygen_bond_distance_aromatic_linkinvent_7_9_3/rearranged_h_0198.sdf

> <i_m_source_file_index>
72

> <r_mmod_Potential_Energy-OPLS-2005>
-887.424560546875

> <r_mmod_Stretch_Energy-OPLS-2005>
139.992568969727

> <r_mmod_Bend_Energy-OPLS-2005>
198.147796630859

> <r_mmod_Torsional_Energy-OPLS-2005>
234.474914550781

> <r_mmod_Improper_Torsional_Energy-OPLS-2005>
9.71615505218506

> <r_mmod_Van_der_Waal_Energy-OPLS-2005>
143.857513427734

> <r_mmod_Electrostatic_Energy-OPLS-2005>
-1484.69543457031

> <r_mmod_Solvation_Energy-OPLS-2005>
-239.072204589844

> <b_mmod_Minimization_Converged-OPLS-2005>
0

> <r_mmod_RMS_Derivative-OPLS-2005>
6.60506629943848

$$$$
72
                    3D
 Structure written by MMmdl.
160168  0  0  1  0            999 V2000
  -30.6617  -14.5185   20.5441 C   0  0  0  0  0  0
  -30.4303  -12.3255   19.4281 C   0  0  0  0  0  0
  -29.4987  -12.5060   18.2095 C   0  0  0  0  0  0
  -28.0187  -12.3629   18.6199 C   0  0  0  0  0  0
  -27.6594  -13.2056   19.8724 C   0  0  2  0  0  0
  -28.7021  -12.9934   20.9946 C   0  0  0  0  0  0
  -25.2583  -13.8150   20.5674 C   0  0  0  0  0  0
  -24.1839  -13.0429   20.9184 C   0  0  0  0  0  0
  -24.6391  -11.6898   20.8739 C   0  0  0  0  0  0
  -23.9054  -10.4289   21.0412 C   0  0  0  0  0  0
  -24.3614   -9.4202   21.9183 C   0  0  0  0  0  0
  -23.6291   -8.2237   22.0755 C   0  0  0  0  0  0
  -22.4269   -8.0279   21.3546 C   0  0  0  0  0  0
  -21.9906   -9.0252   20.4646 C   0  0  0  0  0  0
  -22.7232  -10.2133   20.3057 C   0  0  0  0  0  0
  -21.6853   -6.0734   22.5280 C   0  0  0  0  0  0
  -21.4014   -6.5642   23.8212 C   0  0  0  0  0  0
  -21.3659   -5.6797   24.9175 C   0  0  0  0  0  0
  -21.6042   -4.3059   24.7225 C   0  0  0  0  0  0
  -21.8819   -3.8148   23.4348 C   0  0  0  0  0  0
  -21.9195   -4.6962   22.3405 C   0  0  0  0  0  0
  -22.7862  -13.5230   21.1851 C   0  0  0  0  0  0
  -22.1663   -4.2148   21.0981 F   0  0  0  0  0  0
  -21.5629   -3.4543   25.7737 F   0  0  0  0  0  0
  -30.0305  -13.3139   20.4433 N   0  0  0  0  0  0
  -26.3012  -12.9314   20.3345 N   0  0  0  0  0  0
  -25.9317  -11.6477   20.5760 N   0  0  0  0  0  0
  -22.0508  -12.8218   22.0407 N   0  0  0  0  0  0
  -25.4301  -15.1872   20.4079 N   0  0  0  0  0  0
  -31.8058  -14.6996   20.1130 O   0  0  0  0  0  0
  -21.6636   -6.8875   21.4242 O   0  0  0  0  0  0
  -22.3546  -14.5541   20.6709 O   0  0  0  0  0  0
  -24.6167  -31.8671   23.2081 C   0  0  0  0  0  0
  -25.9050  -32.4813   23.8387 C   0  0  1  0  0  0
  -27.2367  -27.4047   20.0838 C   0  0  0  0  0  0
  -25.5903  -33.8615   24.2315 N   0  0  0  0  0  0
  -23.4059  -30.4903   21.5496 C   0  0  2  0  0  0
  -24.8499  -28.9524   20.1162 C   0  0  0  0  0  0
  -22.7422  -29.4658   22.4984 C   0  0  0  0  0  0
  -18.0275  -28.1378   22.8498 C   0  0  0  0  0  0
  -24.1487  -36.7307   23.2640 C   0  0  0  0  0  0
  -25.9393  -30.8209   21.3673 C   0  0  0  0  0  0
  -26.0134  -29.4540   20.7109 C   0  0  0  0  0  0
  -27.2051  -28.6868   20.6924 C   0  0  0  0  0  0
  -26.0384  -26.9156   19.5108 C   0  0  0  0  0  0
  -24.8586  -27.6823   19.5176 C   0  0  0  0  0  0
  -23.6145  -29.8235   20.1647 C   0  0  0  0  0  0
  -25.4110  -36.3103   24.0336 C   0  0  1  0  0  0
  -20.5870  -28.3673   23.1314 C   0  0  2  0  0  0
  -20.6765  -26.9407   22.5418 C   0  0  0  0  0  0
  -19.5742  -26.6384   21.5216 C   0  0  0  0  0  0
  -18.1921  -26.7924   22.1628 C   0  0  0  0  0  0
  -19.1525  -28.8842   23.2904 C   0  0  0  0  0  0
  -18.9450  -30.1445   23.8914 C   0  0  0  0  0  0
  -17.6451  -30.6586   24.0565 C   0  0  0  0  0  0
  -25.9041  -34.9471   23.5122 C   0  0  0  0  0  0
  -16.5343  -29.9088   23.6326 C   0  0  0  0  0  0
  -16.7265  -28.6503   23.0355 C   0  0  0  0  0  0
  -26.4470  -31.6606   25.0730 C   0  0  0  0  0  0
  -25.3724  -31.3717   26.1470 C   0  0  0  0  0  0
  -27.0315  -30.3044   24.6137 C   0  0  0  0  0  0
  -27.6045  -32.4338   25.7487 C   0  0  0  0  0  0
  -27.5582  -37.1807   24.8464 C   0  0  0  0  0  0
  -21.4149  -29.3035   22.3715 N   0  0  0  0  0  0
  -26.4294  -37.3788   23.9408 N   0  0  0  0  0  0
  -24.6721  -31.0747   22.0990 N   0  0  0  0  0  0
  -23.4184  -28.8203   23.3035 O   0  0  0  0  0  0
  -28.4230  -26.6812   20.0954 O   0  0  0  0  0  0
  -26.5608  -34.8925   22.4687 O   0  0  0  0  0  0
  -23.5350  -32.1445   23.7451 O   0  0  0  0  0  0
  -30.8938  -18.9954   20.4502 C   0  0  0  0  0  0
  -29.5652  -19.3682   20.3783 C   0  0  0  0  0  0
  -29.9671  -16.9312   20.7851 C   0  0  0  0  0  0
  -31.3046  -22.0230   17.3748 C   0  0  0  0  0  0
  -27.2328  -22.4846   18.7530 C   0  0  0  0  0  0
  -30.2113  -21.1422   18.0005 C   0  0  0  0  0  0
  -28.7300  -24.1472   20.0031 C   0  0  0  0  0  0
  -28.6018  -25.5155   19.2559 C   0  0  0  0  0  0
  -28.6857  -22.9162   19.0376 C   0  0  1  0  0  0
  -29.6407  -21.6926   19.3398 C   0  0  1  0  0  0
  -31.1102  -17.6197   20.6665 N   0  0  0  0  0  0
  -28.9706  -20.6251   20.1066 N   0  0  0  0  0  0
  -29.8811  -15.5190   21.0113 N   0  0  0  0  0  0
  -28.5394  -17.9725   20.6733 S   0  0  0  0  0  0
  -31.4739  -12.4351   19.1271 H   0  0  0  0  0  0
  -30.3423  -11.3165   19.8333 H   0  0  0  0  0  0
  -29.7428  -11.7760   17.4364 H   0  0  0  0  0  0
  -29.6607  -13.4880   17.7622 H   0  0  0  0  0  0
  -27.8305  -11.3071   18.8183 H   0  0  0  0  0  0
  -27.3694  -12.6333   17.7860 H   0  0  0  0  0  0
  -27.6981  -14.2511   19.5661 H   0  0  0  0  0  0
  -28.6871  -11.9561   21.3333 H   0  0  0  0  0  0
  -28.4599  -13.5872   21.8777 H   0  0  0  0  0  0
  -25.2763   -9.5678   22.4744 H   0  0  0  0  0  0
  -24.0004   -7.4628   22.7474 H   0  0  0  0  0  0
  -21.0838   -8.8773   19.8951 H   0  0  0  0  0  0
  -22.3700  -10.9669   19.6162 H   0  0  0  0  0  0
  -21.2008   -7.6151   23.9717 H   0  0  0  0  0  0
  -21.1479   -6.0525   25.9079 H   0  0  0  0  0  0
  -22.0600   -2.7608   23.2849 H   0  0  0  0  0  0
  -22.4135  -11.9874   22.4774 H   0  0  0  0  0  0
  -21.1129  -13.1239   22.2628 H   0  0  0  0  0  0
  -24.6574  -15.8365   20.5091 H   0  0  0  0  0  0
  -26.2687  -15.6262   20.0517 H   0  0  0  0  0  0
  -26.7119  -32.5508   23.1148 H   0  0  0  0  0  0
  -25.0038  -33.9777   25.0449 H   0  0  0  0  0  0
  -22.6954  -31.3079   21.4096 H   0  0  0  0  0  0
  -23.3745  -35.9644   23.3312 H   0  0  0  0  0  0
  -24.3574  -36.8916   22.2052 H   0  0  0  0  0  0
  -23.7246  -37.6515   23.6654 H   0  0  0  0  0  0
  -26.0601  -31.5874   20.6013 H   0  0  0  0  0  0
  -26.8241  -30.8681   21.9912 H   0  0  0  0  0  0
  -28.1058  -29.0753   21.1473 H   0  0  0  0  0  0
  -25.9744  -25.9320   19.0724 H   0  0  0  0  0  0
  -23.9582  -27.2826   19.0710 H   0  0  0  0  0  0
  -23.7253  -30.5989   19.4056 H   0  0  0  0  0  0
  -22.7363  -29.2465   19.8677 H   0  0  0  0  0  0
  -25.1287  -36.1964   25.0828 H   0  0  0  0  0  0
  -20.9963  -28.3238   24.1434 H   0  0  0  0  0  0
  -20.5672  -26.2282   23.3605 H   0  0  0  0  0  0
  -21.6635  -26.7449   22.1206 H   0  0  0  0  0  0
  -19.6907  -25.6296   21.1244 H   0  0  0  0  0  0
  -19.6678  -27.3195   20.6746 H   0  0  0  0  0  0
  -17.4191  -26.6681   21.4027 H   0  0  0  0  0  0
  -18.0318  -26.0059   22.9017 H   0  0  0  0  0  0
  -19.7920  -30.7261   24.2294 H   0  0  0  0  0  0
  -17.5002  -31.6266   24.5163 H   0  0  0  0  0  0
  -15.5345  -30.2995   23.7635 H   0  0  0  0  0  0
  -15.8664  -28.0823   22.7069 H   0  0  0  0  0  0
  -24.5889  -30.7080   25.7795 H   0  0  0  0  0  0
  -24.8918  -32.2871   26.4930 H   0  0  0  0  0  0
  -25.8062  -30.8867   27.0224 H   0  0  0  0  0  0
  -26.2876  -29.6796   24.1180 H   0  0  0  0  0  0
  -27.4060  -29.7292   25.4615 H   0  0  0  0  0  0
  -27.8720  -30.4355   23.9318 H   0  0  0  0  0  0
  -27.2667  -33.3632   26.2085 H   0  0  0  0  0  0
  -28.3837  -32.6916   25.0302 H   0  0  0  0  0  0
  -28.0738  -31.8457   26.5383 H   0  0  0  0  0  0
  -28.2604  -38.0099   24.7508 H   0  0  0  0  0  0
  -28.1074  -36.2631   24.6295 H   0  0  0  0  0  0
  -27.2300  -37.1465   25.8868 H   0  0  0  0  0  0
  -20.9310  -29.8751   21.6933 H   0  0  0  0  0  0
  -26.0182  -38.2870   24.1394 H   0  0  0  0  0  0
  -31.7530  -19.6388   20.3245 H   0  0  0  0  0  0
  -31.7245  -21.5408   16.4915 H   0  0  0  0  0  0
  -32.1233  -22.1896   18.0758 H   0  0  0  0  0  0
  -30.9319  -22.9967   17.0598 H   0  0  0  0  0  0
  -26.6508  -23.3048   18.3325 H   0  0  0  0  0  0
  -26.7234  -22.1598   19.6604 H   0  0  0  0  0  0
  -27.1957  -21.6630   18.0370 H   0  0  0  0  0  0
  -30.6588  -20.1587   18.1241 H   0  0  0  0  0  0
  -29.4041  -20.9940   17.2817 H   0  0  0  0  0  0
  -27.9435  -24.0542   20.7523 H   0  0  0  0  0  0
  -29.6683  -24.1498   20.5585 H   0  0  0  0  0  0
  -27.8752  -25.4492   18.4495 H   0  0  0  0  0  0
  -29.5409  -25.6790   18.7265 H   0  0  0  0  0  0
  -29.0382  -23.3273   18.0930 H   0  0  0  0  0  0
  -30.4821  -22.0417   19.9412 H   0  0  0  0  0  0
  -27.9571  -20.6942   20.1280 H   0  0  0  0  0  0
  -28.9785  -15.2018   21.3268 H   0  0  0  0  0  0
  1 25  1  0  0  0
  1 30  2  0  0  0
  1 83  1  0  0  0
  2  3  1  0  0  0
  2 25  1  0  0  0
  2 85  1  0  0  0
  2 86  1  0  0  0
  3  4  1  0  0  0
  3 87  1  0  0  0
  3 88  1  0  0  0
  4  5  1  0  0  0
  4 89  1  0  0  0
  4 90  1  0  0  0
  5  6  1  0  0  0
  5 26  1  0  0  0
  5 91  1  0  0  0
  6 25  1  0  0  0
  6 92  1  0  0  0
  6 93  1  0  0  0
  7  8  2  0  0  0
  7 26  1  0  0  0
  7 29  1  0  0  0
  8  9  1  0  0  0
  8 22  1  0  0  0
  9 10  1  0  0  0
  9 27  2  0  0  0
 10 11  2  0  0  0
 10 15  1  0  0  0
 11 12  1  0  0  0
 11 94  1  0  0  0
 12 13  2  0  0  0
 12 95  1  0  0  0
 13 14  1  0  0  0
 13 31  1  0  0  0
 14 15  2  0  0  0
 14 96  1  0  0  0
 15 97  1  0  0  0
 16 17  2  0  0  0
 16 21  1  0  0  0
 16 31  1  0  0  0
 17 18  1  0  0  0
 17 98  1  0  0  0
 18 19  2  0  0  0
 18 99  1  0  0  0
 19 20  1  0  0  0
 19 24  1  0  0  0
 20 21  2  0  0  0
 20100  1  0  0  0
 21 23  1  0  0  0
 22 28  1  0  0  0
 22 32  2  0  0  0
 26 27  1  0  0  0
 28101  1  0  0  0
 28102  1  0  0  0
 29103  1  0  0  0
 29104  1  0  0  0
 33 34  1  0  0  0
 33 66  1  0  0  0
 33 70  2  0  0  0
 34 36  1  0  0  0
 34 59  1  0  0  0
 34105  1  0  0  0
 35 44  2  0  0  0
 35 45  1  0  0  0
 35 68  1  0  0  0
 36 56  1  0  0  0
 36106  1  0  0  0
 37 39  1  0  0  0
 37 47  1  0  0  0
 37 66  1  0  0  0
 37107  1  0  0  0
 38 43  2  0  0  0
 38 46  1  0  0  0
 38 47  1  0  0  0
 39 64  1  0  0  0
 39 67  2  0  0  0
 40 52  1  0  0  0
 40 53  2  0  0  0
 40 58  1  0  0  0
 41108  1  0  0  0
 41109  1  0  0  0
 41110  1  0  0  0
 41 48  1  0  0  0
 42 43  1  0  0  0
 42 66  1  0  0  0
 42111  1  0  0  0
 42112  1  0  0  0
 43 44  1  0  0  0
 44113  1  0  0  0
 45 46  2  0  0  0
 45114  1  0  0  0
 46115  1  0  0  0
 47116  1  0  0  0
 47117  1  0  0  0
 48 56  1  0  0  0
 48 65  1  0  0  0
 48118  1  0  0  0
 49 50  1  0  0  0
 49 53  1  0  0  0
 49 64  1  0  0  0
 49119  1  0  0  0
 50 51  1  0  0  0
 50120  1  0  0  0
 50121  1  0  0  0
 51 52  1  0  0  0
 51122  1  0  0  0
 51123  1  0  0  0
 52124  1  0  0  0
 52125  1  0  0  0
 53 54  1  0  0  0
 54 55  2  0  0  0
 54126  1  0  0  0
 55 57  1  0  0  0
 55127  1  0  0  0
 56 69  2  0  0  0
 57 58  2  0  0  0
 57128  1  0  0  0
 58129  1  0  0  0
 59 60  1  0  0  0
 59 61  1  0  0  0
 59 62  1  0  0  0
 60130  1  0  0  0
 60131  1  0  0  0
 60132  1  0  0  0
 61133  1  0  0  0
 61134  1  0  0  0
 61135  1  0  0  0
 62136  1  0  0  0
 62137  1  0  0  0
 62138  1  0  0  0
 63 65  1  0  0  0
 63139  1  0  0  0
 63140  1  0  0  0
 63141  1  0  0  0
 64142  1  0  0  0
 65143  1  0  0  0
 68 78  1  0  0  0
 71 72  2  0  0  0
 71 81  1  0  0  0
 71144  1  0  0  0
 72 82  1  0  0  0
 72 84  1  0  0  0
 73 81  2  0  0  0
 73 83  1  0  0  0
 73 84  1  0  0  0
 74 76  1  0  0  0
 74145  1  0  0  0
 74146  1  0  0  0
 74147  1  0  0  0
 75148  1  0  0  0
 75149  1  0  0  0
 75150  1  0  0  0
 75 79  1  0  0  0
 76151  1  0  0  0
 76152  1  0  0  0
 76 80  1  0  0  0
 77 78  1  0  0  0
 77 79  1  0  0  0
 77153  1  0  0  0
 77154  1  0  0  0
 78155  1  0  0  0
 78156  1  0  0  0
 79 80  1  0  0  0
 79157  1  0  0  0
 80 82  1  0  0  0
 80158  1  0  0  0
 82159  1  0  0  0
 83160  1  0  0  0
M  ISO  4   1 100  68 101  78 101  83 100
M  END
> <chiral flag>
0

> <version>
0

> <s_m_source_file>
/data/baiqing/PycharmProjects/Reinvent-master-3.2/result/LINK_invent/BTK/process_docking_weight1_custom_product_contain_oxygen_bond_distance_aromatic_linkinvent_7_9_3/rearranged_h_0198.sdf

> <i_m_source_file_index>
73

> <r_mmod_Potential_Energy-OPLS-2005>
-37.1971473693848

> <r_mmod_Stretch_Energy-OPLS-2005>
46.6148338317871

> <r_mmod_Bend_Energy-OPLS-2005>
126.181343078613

> <r_mmod_Torsional_Energy-OPLS-2005>
242.833984375

> <r_mmod_Improper_Torsional_Energy-OPLS-2005>
5.85423469543457

> <r_mmod_Van_der_Waal_Energy-OPLS-2005>
135.273712158203

> <r_mmod_Electrostatic_Energy-OPLS-2005>
-386.138366699219

> <r_mmod_Solvation_Energy-OPLS-2005>
-225.577529907227

> <b_mmod_Minimization_Converged-OPLS-2005>
0

> <r_mmod_RMS_Derivative-OPLS-2005>
0.936996817588806

$$$$
73
                    3D
 Structure written by MMmdl.
161169  0  0  1  0            999 V2000
  -30.6881  -14.4845   20.5198 C   0  0  0  0  0  0
  -30.4236  -12.3005   19.4182 C   0  0  0  0  0  0
  -29.4985  -12.5198   18.2015 C   0  0  0  0  0  0
  -28.0164  -12.3885   18.6070 C   0  0  0  0  0  0
  -27.6635  -13.2121   19.8749 C   0  0  2  0  0  0
  -28.7086  -12.9879   20.9926 C   0  0  0  0  0  0
  -25.2594  -13.8168   20.5684 C   0  0  0  0  0  0
  -24.1844  -13.0440   20.9174 C   0  0  0  0  0  0
  -24.6399  -11.6902   20.8705 C   0  0  0  0  0  0
  -23.9055  -10.4294   21.0388 C   0  0  0  0  0  0
  -24.3619   -9.4219   21.9172 C   0  0  0  0  0  0
  -23.6299   -8.2257   22.0748 C   0  0  0  0  0  0
  -22.4276   -8.0292   21.3548 C   0  0  0  0  0  0
  -21.9900   -9.0257   20.4643 C   0  0  0  0  0  0
  -22.7221  -10.2137   20.3038 C   0  0  0  0  0  0
  -21.6846   -6.0728   22.5286 C   0  0  0  0  0  0
  -21.4022   -6.5637   23.8215 C   0  0  0  0  0  0
  -21.3663   -5.6789   24.9176 C   0  0  0  0  0  0
  -21.6054   -4.3053   24.7232 C   0  0  0  0  0  0
  -21.8808   -3.8146   23.4353 C   0  0  0  0  0  0
  -21.9205   -4.6962   22.3413 C   0  0  0  0  0  0
  -22.7867  -13.5236   21.1847 C   0  0  0  0  0  0
  -22.1658   -4.2155   21.0973 F   0  0  0  0  0  0
  -21.5645   -3.4521   25.7738 F   0  0  0  0  0  0
  -30.0431  -13.2871   20.4428 N   0  0  0  0  0  0
  -26.3036  -12.9340   20.3352 N   0  0  0  0  0  0
  -25.9323  -11.6487   20.5740 N   0  0  0  0  0  0
  -22.0506  -12.8236   22.0408 N   0  0  0  0  0  0
  -25.4322  -15.1891   20.4101 N   0  0  0  0  0  0
  -31.8231  -14.6629   20.0661 O   0  0  0  0  0  0
  -21.6650   -6.8881   21.4237 O   0  0  0  0  0  0
  -22.3544  -14.5533   20.6674 O   0  0  0  0  0  0
  -24.6129  -31.8667   23.2101 C   0  0  0  0  0  0
  -25.9018  -32.4819   23.8406 C   0  0  1  0  0  0
  -27.2426  -27.4459   20.0990 C   0  0  0  0  0  0
  -25.5879  -33.8614   24.2333 N   0  0  0  0  0  0
  -23.4047  -30.4886   21.5474 C   0  0  2  0  0  0
  -24.8564  -28.9565   20.1128 C   0  0  0  0  0  0
  -22.7418  -29.4653   22.4971 C   0  0  0  0  0  0
  -18.0271  -28.1381   22.8474 C   0  0  0  0  0  0
  -24.1486  -36.7320   23.2640 C   0  0  0  0  0  0
  -25.9322  -30.8367   21.3650 C   0  0  0  0  0  0
  -26.0144  -29.4727   20.7094 C   0  0  0  0  0  0
  -27.2149  -28.7247   20.7000 C   0  0  0  0  0  0
  -26.0724  -26.9403   19.4986 C   0  0  0  0  0  0
  -24.8801  -27.6889   19.5037 C   0  0  0  0  0  0
  -23.6154  -29.8180   20.1629 C   0  0  0  0  0  0
  -25.4108  -36.3112   24.0344 C   0  0  1  0  0  0
  -20.5862  -28.3674   23.1309 C   0  0  2  0  0  0
  -20.6762  -26.9405   22.5412 C   0  0  0  0  0  0
  -19.5742  -26.6386   21.5207 C   0  0  0  0  0  0
  -18.1923  -26.7924   22.1613 C   0  0  0  0  0  0
  -19.1517  -28.8842   23.2899 C   0  0  0  0  0  0
  -18.9441  -30.1450   23.8913 C   0  0  0  0  0  0
  -17.6441  -30.6584   24.0571 C   0  0  0  0  0  0
  -25.9019  -34.9469   23.5137 C   0  0  0  0  0  0
  -16.5339  -29.9087   23.6311 C   0  0  0  0  0  0
  -16.7264  -28.6504   23.0338 C   0  0  0  0  0  0
  -26.4453  -31.6607   25.0735 C   0  0  0  0  0  0
  -25.3732  -31.3716   26.1503 C   0  0  0  0  0  0
  -27.0291  -30.3043   24.6131 C   0  0  0  0  0  0
  -27.6033  -32.4337   25.7483 C   0  0  0  0  0  0
  -27.5590  -37.1803   24.8459 C   0  0  0  0  0  0
  -21.4143  -29.3039   22.3708 N   0  0  0  0  0  0
  -26.4295  -37.3800   23.9413 N   0  0  0  0  0  0
  -24.6673  -31.0776   22.0996 N   0  0  0  0  0  0
  -23.4177  -28.8182   23.3016 O   0  0  0  0  0  0
  -28.3781  -26.6698   20.1014 O   0  0  0  0  0  0
  -26.5590  -34.8925   22.4705 O   0  0  0  0  0  0
  -23.5322  -32.1410   23.7490 O   0  0  0  0  0  0
  -30.0881  -18.5763   19.0379 C   0  0  0  0  0  0
  -29.2811  -17.7693   21.4762 C   0  0  0  0  0  0
  -29.4680  -19.4831   19.9311 C   0  0  0  0  0  0
  -29.9018  -16.8473   20.5942 C   0  0  0  0  0  0
  -32.1963  -21.2451   19.4680 C   0  0  0  0  0  0
  -29.1085  -20.9270   19.5233 C   0  0  0  0  0  0
  -31.2413  -22.4333   19.6460 C   0  0  0  0  0  0
  -29.4404  -24.6136   21.0518 C   0  0  0  0  0  0
  -28.9550  -23.4001   20.2071 C   0  0  0  0  0  0
  -28.4101  -25.7579   21.2073 C   0  0  0  0  0  0
  -29.8454  -22.1122   20.2384 C   0  0  1  0  0  0
  -29.0659  -19.0708   21.1595 N   0  0  0  0  0  0
  -30.3110  -17.2752   19.3667 N   0  0  0  0  0  0
  -29.9655  -15.4916   21.0403 N   0  0  0  0  0  0
  -29.9989  -21.7747   21.6051 O   0  0  0  0  0  0
  -31.4684  -12.3889   19.1181 H   0  0  0  0  0  0
  -30.3094  -11.2883   19.8081 H   0  0  0  0  0  0
  -29.7326  -11.8037   17.4121 H   0  0  0  0  0  0
  -29.6753  -13.5100   17.7765 H   0  0  0  0  0  0
  -27.8100  -11.3313   18.7761 H   0  0  0  0  0  0
  -27.3731  -12.6969   17.7813 H   0  0  0  0  0  0
  -27.7043  -14.2636   19.5880 H   0  0  0  0  0  0
  -28.6810  -11.9513   21.3315 H   0  0  0  0  0  0
  -28.4731  -13.5886   21.8720 H   0  0  0  0  0  0
  -25.2771   -9.5696   22.4742 H   0  0  0  0  0  0
  -24.0023   -7.4630   22.7435 H   0  0  0  0  0  0
  -21.0849   -8.8741   19.8936 H   0  0  0  0  0  0
  -22.3664  -10.9672   19.6143 H   0  0  0  0  0  0
  -21.1994   -7.6140   23.9710 H   0  0  0  0  0  0
  -21.1498   -6.0525   25.9080 H   0  0  0  0  0  0
  -22.0593   -2.7605   23.2838 H   0  0  0  0  0  0
  -22.4120  -11.9922   22.4837 H   0  0  0  0  0  0
  -21.1104  -13.1243   22.2577 H   0  0  0  0  0  0
  -24.6645  -15.8450   20.5085 H   0  0  0  0  0  0
  -26.2854  -15.6287   20.0871 H   0  0  0  0  0  0
  -26.7098  -32.5541   23.1183 H   0  0  0  0  0  0
  -25.0025  -33.9789   25.0477 H   0  0  0  0  0  0
  -22.6931  -31.3041   21.4043 H   0  0  0  0  0  0
  -23.3742  -35.9653   23.3298 H   0  0  0  0  0  0
  -24.3584  -36.8934   22.2053 H   0  0  0  0  0  0
  -23.7238  -37.6527   23.6652 H   0  0  0  0  0  0
  -26.0481  -31.6059   20.6003 H   0  0  0  0  0  0
  -26.8179  -30.8863   21.9872 H   0  0  0  0  0  0
  -28.1110  -29.1199   21.1587 H   0  0  0  0  0  0
  -26.0859  -25.9622   19.0397 H   0  0  0  0  0  0
  -23.9904  -27.2837   19.0430 H   0  0  0  0  0  0
  -23.7213  -30.5910   19.4004 H   0  0  0  0  0  0
  -22.7429  -29.2324   19.8686 H   0  0  0  0  0  0
  -25.1275  -36.1987   25.0835 H   0  0  0  0  0  0
  -20.9954  -28.3239   24.1430 H   0  0  0  0  0  0
  -20.5661  -26.2279   23.3601 H   0  0  0  0  0  0
  -21.6635  -26.7443   22.1209 H   0  0  0  0  0  0
  -19.6906  -25.6296   21.1239 H   0  0  0  0  0  0
  -19.6695  -27.3193   20.6738 H   0  0  0  0  0  0
  -17.4194  -26.6670   21.4021 H   0  0  0  0  0  0
  -18.0329  -26.0078   22.9017 H   0  0  0  0  0  0
  -19.7927  -30.7258   24.2298 H   0  0  0  0  0  0
  -17.5003  -31.6270   24.5168 H   0  0  0  0  0  0
  -15.5342  -30.2998   23.7639 H   0  0  0  0  0  0
  -15.8666  -28.0851   22.7023 H   0  0  0  0  0  0
  -24.5860  -30.7119   25.7836 H   0  0  0  0  0  0
  -24.8988  -32.2886   26.5012 H   0  0  0  0  0  0
  -25.8090  -30.8820   27.0227 H   0  0  0  0  0  0
  -26.2847  -29.6799   24.1175 H   0  0  0  0  0  0
  -27.4041  -29.7283   25.4607 H   0  0  0  0  0  0
  -27.8693  -30.4356   23.9304 H   0  0  0  0  0  0
  -27.2642  -33.3614   26.2109 H   0  0  0  0  0  0
  -28.3800  -32.6945   25.0277 H   0  0  0  0  0  0
  -28.0758  -31.8445   26.5357 H   0  0  0  0  0  0
  -28.2588  -38.0112   24.7521 H   0  0  0  0  0  0
  -28.1094  -36.2649   24.6251 H   0  0  0  0  0  0
  -27.2311  -37.1421   25.8857 H   0  0  0  0  0  0
  -20.9299  -29.8762   21.6939 H   0  0  0  0  0  0
  -26.0184  -38.2873   24.1421 H   0  0  0  0  0  0
  -30.3799  -18.8814   18.0418 H   0  0  0  0  0  0
  -28.9336  -17.4557   22.4482 H   0  0  0  0  0  0
  -33.2086  -21.6004   19.2712 H   0  0  0  0  0  0
  -31.9052  -20.6336   18.6153 H   0  0  0  0  0  0
  -32.2346  -20.6150   20.3560 H   0  0  0  0  0  0
  -28.0374  -21.0141   19.7056 H   0  0  0  0  0  0
  -29.2123  -21.0355   18.4439 H   0  0  0  0  0  0
  -31.1237  -22.9182   18.6765 H   0  0  0  0  0  0
  -31.7366  -23.1702   20.2786 H   0  0  0  0  0  0
  -30.3813  -25.0084   20.6724 H   0  0  0  0  0  0
  -29.6602  -24.2586   22.0593 H   0  0  0  0  0  0
  -28.8353  -23.7259   19.1725 H   0  0  0  0  0  0
  -27.9509  -23.1419   20.5437 H   0  0  0  0  0  0
  -28.6665  -26.3368   22.0966 H   0  0  0  0  0  0
  -27.4237  -25.3317   21.4024 H   0  0  0  0  0  0
  -29.2022  -15.2057   21.6293 H   0  0  0  0  0  0
  -29.7423  -20.8563   21.6867 H   0  0  0  0  0  0
  1 25  1  0  0  0
  1 30  2  0  0  0
  1 84  1  0  0  0
  2  3  1  0  0  0
  2 25  1  0  0  0
  2 86  1  0  0  0
  2 87  1  0  0  0
  3  4  1  0  0  0
  3 88  1  0  0  0
  3 89  1  0  0  0
  4  5  1  0  0  0
  4 90  1  0  0  0
  4 91  1  0  0  0
  5  6  1  0  0  0
  5 26  1  0  0  0
  5 92  1  0  0  0
  6 25  1  0  0  0
  6 93  1  0  0  0
  6 94  1  0  0  0
  7  8  2  0  0  0
  7 26  1  0  0  0
  7 29  1  0  0  0
  8  9  1  0  0  0
  8 22  1  0  0  0
  9 10  1  0  0  0
  9 27  2  0  0  0
 10 11  2  0  0  0
 10 15  1  0  0  0
 11 12  1  0  0  0
 11 95  1  0  0  0
 12 13  2  0  0  0
 12 96  1  0  0  0
 13 14  1  0  0  0
 13 31  1  0  0  0
 14 15  2  0  0  0
 14 97  1  0  0  0
 15 98  1  0  0  0
 16 17  2  0  0  0
 16 21  1  0  0  0
 16 31  1  0  0  0
 17 18  1  0  0  0
 17 99  1  0  0  0
 18 19  2  0  0  0
 18100  1  0  0  0
 19 20  1  0  0  0
 19 24  1  0  0  0
 20 21  2  0  0  0
 20101  1  0  0  0
 21 23  1  0  0  0
 22 28  1  0  0  0
 22 32  2  0  0  0
 26 27  1  0  0  0
 28102  1  0  0  0
 28103  1  0  0  0
 29104  1  0  0  0
 29105  1  0  0  0
 33 34  1  0  0  0
 33 66  1  0  0  0
 33 70  2  0  0  0
 34 36  1  0  0  0
 34 59  1  0  0  0
 34106  1  0  0  0
 35 44  2  0  0  0
 35 45  1  0  0  0
 35 68  1  0  0  0
 36 56  1  0  0  0
 36107  1  0  0  0
 37 39  1  0  0  0
 37 47  1  0  0  0
 37 66  1  0  0  0
 37108  1  0  0  0
 38 43  2  0  0  0
 38 46  1  0  0  0
 38 47  1  0  0  0
 39 64  1  0  0  0
 39 67  2  0  0  0
 40 52  1  0  0  0
 40 53  2  0  0  0
 40 58  1  0  0  0
 41109  1  0  0  0
 41110  1  0  0  0
 41111  1  0  0  0
 41 48  1  0  0  0
 42 43  1  0  0  0
 42 66  1  0  0  0
 42112  1  0  0  0
 42113  1  0  0  0
 43 44  1  0  0  0
 44114  1  0  0  0
 45 46  2  0  0  0
 45115  1  0  0  0
 46116  1  0  0  0
 47117  1  0  0  0
 47118  1  0  0  0
 48 56  1  0  0  0
 48 65  1  0  0  0
 48119  1  0  0  0
 49 50  1  0  0  0
 49 53  1  0  0  0
 49 64  1  0  0  0
 49120  1  0  0  0
 50 51  1  0  0  0
 50121  1  0  0  0
 50122  1  0  0  0
 51 52  1  0  0  0
 51123  1  0  0  0
 51124  1  0  0  0
 52125  1  0  0  0
 52126  1  0  0  0
 53 54  1  0  0  0
 54 55  2  0  0  0
 54127  1  0  0  0
 55 57  1  0  0  0
 55128  1  0  0  0
 56 69  2  0  0  0
 57 58  2  0  0  0
 57129  1  0  0  0
 58130  1  0  0  0
 59 60  1  0  0  0
 59 61  1  0  0  0
 59 62  1  0  0  0
 60131  1  0  0  0
 60132  1  0  0  0
 60133  1  0  0  0
 61134  1  0  0  0
 61135  1  0  0  0
 61136  1  0  0  0
 62137  1  0  0  0
 62138  1  0  0  0
 62139  1  0  0  0
 63 65  1  0  0  0
 63140  1  0  0  0
 63141  1  0  0  0
 63142  1  0  0  0
 64143  1  0  0  0
 65144  1  0  0  0
 68 80  1  0  0  0
 71 73  2  0  0  0
 71 83  1  0  0  0
 71145  1  0  0  0
 72 74  1  0  0  0
 72 82  2  0  0  0
 72146  1  0  0  0
 73 76  1  0  0  0
 73 82  1  0  0  0
 74 83  2  0  0  0
 74 84  1  0  0  0
 75 77  1  0  0  0
 75147  1  0  0  0
 75148  1  0  0  0
 75149  1  0  0  0
 76 81  1  0  0  0
 76150  1  0  0  0
 76151  1  0  0  0
 77 81  1  0  0  0
 77152  1  0  0  0
 77153  1  0  0  0
 78 79  1  0  0  0
 78 80  1  0  0  0
 78154  1  0  0  0
 78155  1  0  0  0
 79 81  1  0  0  0
 79156  1  0  0  0
 79157  1  0  0  0
 80158  1  0  0  0
 80159  1  0  0  0
 81 85  1  0  0  0
 84160  1  0  0  0
 85161  1  0  0  0
M  ISO  4   1 100  68 101  80 101  84 100
M  END
> <chiral flag>
0

> <version>
0

> <s_m_source_file>
/data/baiqing/PycharmProjects/Reinvent-master-3.2/result/LINK_invent/BTK/process_docking_weight1_custom_product_contain_oxygen_bond_distance_aromatic_linkinvent_7_9_3/rearranged_h_0198.sdf

> <i_m_source_file_index>
74

> <r_mmod_Potential_Energy-OPLS-2005>
-11.1034898757935

> <r_mmod_Stretch_Energy-OPLS-2005>
43.1819267272949

> <r_mmod_Bend_Energy-OPLS-2005>
103.092346191406

> <r_mmod_Torsional_Energy-OPLS-2005>
265.071746826172

> <r_mmod_Improper_Torsional_Energy-OPLS-2005>
4.14843130111694

> <r_mmod_Van_der_Waal_Energy-OPLS-2005>
156.608291625977

> <r_mmod_Electrostatic_Energy-OPLS-2005>
-365.906555175781

> <r_mmod_Solvation_Energy-OPLS-2005>
-230.793716430664

> <b_mmod_Minimization_Converged-OPLS-2005>
0

> <r_mmod_RMS_Derivative-OPLS-2005>
3.2743091583252

$$$$
74
                    3D
 Structure written by MMmdl.
157165  0  0  1  0            999 V2000
  -30.6048  -14.7207   20.4842 C   0  0  0  0  0  0
  -30.4344  -12.4370   19.4946 C   0  0  0  0  0  0
  -29.5180  -12.5064   18.2528 C   0  0  0  0  0  0
  -28.0440  -12.3315   18.6614 C   0  0  0  0  0  0
  -27.6488  -13.2272   19.8656 C   0  0  2  0  0  0
  -28.6846  -13.1411   21.0081 C   0  0  0  0  0  0
  -25.2548  -13.8185   20.5720 C   0  0  0  0  0  0
  -24.1817  -13.0442   20.9180 C   0  0  0  0  0  0
  -24.6396  -11.6916   20.8737 C   0  0  0  0  0  0
  -23.9074  -10.4301   21.0398 C   0  0  0  0  0  0
  -24.3624   -9.4216   21.9178 C   0  0  0  0  0  0
  -23.6294   -8.2257   22.0761 C   0  0  0  0  0  0
  -22.4274   -8.0299   21.3557 C   0  0  0  0  0  0
  -21.9913   -9.0270   20.4657 C   0  0  0  0  0  0
  -22.7245  -10.2144   20.3054 C   0  0  0  0  0  0
  -21.6858   -6.0741   22.5282 C   0  0  0  0  0  0
  -21.4006   -6.5643   23.8214 C   0  0  0  0  0  0
  -21.3654   -5.6795   24.9178 C   0  0  0  0  0  0
  -21.6043   -4.3060   24.7231 C   0  0  0  0  0  0
  -21.8813   -3.8152   23.4354 C   0  0  0  0  0  0
  -21.9192   -4.6967   22.3408 C   0  0  0  0  0  0
  -22.7847  -13.5238   21.1856 C   0  0  0  0  0  0
  -22.1661   -4.2144   21.0989 F   0  0  0  0  0  0
  -21.5635   -3.4549   25.7752 F   0  0  0  0  0  0
  -29.9974  -13.4856   20.4481 N   0  0  0  0  0  0
  -26.2973  -12.9378   20.3337 N   0  0  0  0  0  0
  -25.9330  -11.6523   20.5773 N   0  0  0  0  0  0
  -22.0502  -12.8216   22.0404 N   0  0  0  0  0  0
  -25.4286  -15.1910   20.4181 N   0  0  0  0  0  0
  -31.7563  -14.8511   20.0564 O   0  0  0  0  0  0
  -21.6646   -6.8889   21.4248 O   0  0  0  0  0  0
  -22.3543  -14.5555   20.6730 O   0  0  0  0  0  0
  -24.6323  -31.8556   23.2005 C   0  0  0  0  0  0
  -25.9150  -32.4756   23.8375 C   0  0  1  0  0  0
  -27.2110  -27.2489   20.1333 C   0  0  0  0  0  0
  -25.5935  -33.8572   24.2285 N   0  0  0  0  0  0
  -23.4319  -30.4787   21.5458 C   0  0  2  0  0  0
  -24.8783  -28.9330   20.1102 C   0  0  0  0  0  0
  -22.7526  -29.4608   22.4936 C   0  0  0  0  0  0
  -18.0304  -28.1376   22.8454 C   0  0  0  0  0  0
  -24.1496  -36.7280   23.2641 C   0  0  0  0  0  0
  -25.9813  -30.7656   21.3863 C   0  0  0  0  0  0
  -26.0532  -29.3909   20.7212 C   0  0  0  0  0  0
  -27.2244  -28.5624   20.7204 C   0  0  0  0  0  0
  -26.0152  -26.8780   19.4743 C   0  0  0  0  0  0
  -24.8666  -27.6867   19.4715 C   0  0  0  0  0  0
  -23.6502  -29.8167   20.1618 C   0  0  0  0  0  0
  -25.4122  -36.3087   24.0331 C   0  0  1  0  0  0
  -20.5915  -28.3695   23.1255 C   0  0  2  0  0  0
  -20.6818  -26.9446   22.5313 C   0  0  0  0  0  0
  -19.5781  -26.6443   21.5120 C   0  0  0  0  0  0
  -18.1957  -26.7934   22.1551 C   0  0  0  0  0  0
  -19.1564  -28.8853   23.2846 C   0  0  0  0  0  0
  -18.9470  -30.1431   23.8886 C   0  0  0  0  0  0
  -17.6467  -30.6561   24.0534 C   0  0  0  0  0  0
  -25.9055  -34.9442   23.5114 C   0  0  0  0  0  0
  -16.5362  -29.9057   23.6314 C   0  0  0  0  0  0
  -16.7282  -28.6465   23.0350 C   0  0  0  0  0  0
  -26.4503  -31.6595   25.0781 C   0  0  0  0  0  0
  -25.3710  -31.3746   26.1491 C   0  0  0  0  0  0
  -27.0355  -30.3001   24.6310 C   0  0  0  0  0  0
  -27.6064  -32.4347   25.7526 C   0  0  0  0  0  0
  -27.5586  -37.1802   24.8466 C   0  0  0  0  0  0
  -21.4237  -29.3068   22.3677 N   0  0  0  0  0  0
  -26.4304  -37.3775   23.9404 N   0  0  0  0  0  0
  -24.7003  -31.0518   22.0990 N   0  0  0  0  0  0
  -23.4218  -28.8123   23.3026 O   0  0  0  0  0  0
  -28.2745  -26.3120   20.2228 O   0  0  0  0  0  0
  -26.5623  -34.8904   22.4680 O   0  0  0  0  0  0
  -23.5462  -32.1394   23.7274 O   0  0  0  0  0  0
  -29.3254  -17.0156   18.7844 C   0  0  0  0  0  0
  -28.8766  -19.4141   18.6876 C   0  0  0  0  0  0
  -28.9452  -18.1572   18.0527 C   0  0  0  0  0  0
  -29.6254  -17.0953   20.1615 C   0  0  0  0  0  0
  -29.1983  -19.5580   20.0590 C   0  0  0  0  0  0
  -26.9392  -21.8778   20.9235 C   0  0  0  0  0  0
  -28.8621  -23.5852   20.5313 C   0  0  0  0  0  0
  -27.9337  -24.8453   20.0858 C   0  0  0  0  0  0
  -28.3262  -22.0603   20.2752 C   0  0  1  0  0  0
  -29.5418  -18.3736   20.7303 N   0  3  0  0  0  0
  -28.6407  -18.0270   16.6919 N   0  0  0  0  0  0
  -29.8646  -15.8245   20.8856 N   0  0  0  0  0  0
  -29.1975  -20.8747   20.6792 N   0  0  0  0  0  0
  -31.4779  -12.5543   19.1996 H   0  0  0  0  0  0
  -30.3745  -11.4530   19.9634 H   0  0  0  0  0  0
  -29.7989  -11.7339   17.5360 H   0  0  0  0  0  0
  -29.6499  -13.4605   17.7409 H   0  0  0  0  0  0
  -27.9055  -11.2830   18.9256 H   0  0  0  0  0  0
  -27.3867  -12.5164   17.8117 H   0  0  0  0  0  0
  -27.6514  -14.2533   19.4978 H   0  0  0  0  0  0
  -28.7113  -12.1370   21.4337 H   0  0  0  0  0  0
  -28.4123  -13.8083   21.8272 H   0  0  0  0  0  0
  -25.2770   -9.5684   22.4756 H   0  0  0  0  0  0
  -24.0009   -7.4641   22.7471 H   0  0  0  0  0  0
  -21.0849   -8.8775   19.8953 H   0  0  0  0  0  0
  -22.3701  -10.9680   19.6167 H   0  0  0  0  0  0
  -21.1987   -7.6150   23.9711 H   0  0  0  0  0  0
  -21.1484   -6.0536   25.9076 H   0  0  0  0  0  0
  -22.0591   -2.7614   23.2861 H   0  0  0  0  0  0
  -22.4139  -11.9878   22.4764 H   0  0  0  0  0  0
  -21.1128  -13.1237   22.2638 H   0  0  0  0  0  0
  -24.6711  -15.8503   20.5578 H   0  0  0  0  0  0
  -26.2917  -15.6311   20.1268 H   0  0  0  0  0  0
  -26.7230  -32.5410   23.1133 H   0  0  0  0  0  0
  -25.0113  -33.9722   25.0450 H   0  0  0  0  0  0
  -22.7299  -31.3020   21.4007 H   0  0  0  0  0  0
  -23.3771  -35.9598   23.3307 H   0  0  0  0  0  0
  -24.3599  -36.8898   22.2057 H   0  0  0  0  0  0
  -23.7230  -37.6480   23.6650 H   0  0  0  0  0  0
  -26.1342  -31.5355   20.6283 H   0  0  0  0  0  0
  -26.8508  -30.8027   22.0309 H   0  0  0  0  0  0
  -28.1210  -28.9049   21.2180 H   0  0  0  0  0  0
  -25.9258  -25.9294   18.9669 H   0  0  0  0  0  0
  -23.9684  -27.3357   18.9806 H   0  0  0  0  0  0
  -23.7705  -30.5930   19.4054 H   0  0  0  0  0  0
  -22.7680  -29.2475   19.8616 H   0  0  0  0  0  0
  -25.1305  -36.1953   25.0821 H   0  0  0  0  0  0
  -21.0016  -28.3257   24.1372 H   0  0  0  0  0  0
  -20.5765  -26.2283   23.3478 H   0  0  0  0  0  0
  -21.6663  -26.7536   22.1022 H   0  0  0  0  0  0
  -19.6711  -27.3319   20.6704 H   0  0  0  0  0  0
  -19.6965  -25.6389   21.1050 H   0  0  0  0  0  0
  -18.0359  -26.0020   22.8876 H   0  0  0  0  0  0
  -17.4254  -26.6750   21.3921 H   0  0  0  0  0  0
  -19.7931  -30.7251   24.2287 H   0  0  0  0  0  0
  -17.5023  -31.6225   24.5158 H   0  0  0  0  0  0
  -15.5344  -30.2929   23.7644 H   0  0  0  0  0  0
  -15.8682  -28.0753   22.7110 H   0  0  0  0  0  0
  -24.5877  -30.7108   25.7811 H   0  0  0  0  0  0
  -24.8895  -32.2907   26.4918 H   0  0  0  0  0  0
  -25.7999  -30.8914   27.0279 H   0  0  0  0  0  0
  -26.2954  -29.6744   24.1299 H   0  0  0  0  0  0
  -27.3982  -29.7284   25.4868 H   0  0  0  0  0  0
  -27.8866  -30.4287   23.9617 H   0  0  0  0  0  0
  -27.2688  -33.3657   26.2102 H   0  0  0  0  0  0
  -28.3840  -32.6903   25.0313 H   0  0  0  0  0  0
  -28.0781  -31.8488   26.5432 H   0  0  0  0  0  0
  -28.2612  -38.0094   24.7511 H   0  0  0  0  0  0
  -28.1076  -36.2621   24.6294 H   0  0  0  0  0  0
  -27.2304  -37.1463   25.8872 H   0  0  0  0  0  0
  -20.9437  -29.8833   21.6915 H   0  0  0  0  0  0
  -26.0190  -38.2860   24.1377 H   0  0  0  0  0  0
  -29.3563  -16.0605   18.2811 H   0  0  0  0  0  0
  -28.6025  -20.2737   18.0981 H   0  0  0  0  0  0
  -26.2151  -22.5965   20.5436 H   0  0  0  0  0  0
  -26.9874  -22.0002   22.0060 H   0  0  0  0  0  0
  -26.5295  -20.8874   20.7259 H   0  0  0  0  0  0
  -29.8202  -23.6861   20.0215 H   0  0  0  0  0  0
  -29.0830  -23.6943   21.5924 H   0  0  0  0  0  0
  -27.7022  -24.6775   19.0336 H   0  0  0  0  0  0
  -26.9992  -24.7089   20.6309 H   0  0  0  0  0  0
  -28.1688  -21.9912   19.2015 H   0  0  0  0  0  0
  -29.7482  -18.4550   21.7311 H   0  0  0  0  0  0
  -28.4718  -17.0919   16.3388 H   0  0  0  0  0  0
  -28.0211  -18.7136   16.2739 H   0  0  0  0  0  0
  -29.1148  -15.5711   21.5119 H   0  0  0  0  0  0
  -29.5525  -20.9199   21.6237 H   0  0  0  0  0  0
  1 25  1  0  0  0
  1 30  2  0  0  0
  1 82  1  0  0  0
  2  3  1  0  0  0
  2 25  1  0  0  0
  2 84  1  0  0  0
  2 85  1  0  0  0
  3  4  1  0  0  0
  3 86  1  0  0  0
  3 87  1  0  0  0
  4  5  1  0  0  0
  4 88  1  0  0  0
  4 89  1  0  0  0
  5  6  1  0  0  0
  5 26  1  0  0  0
  5 90  1  0  0  0
  6 25  1  0  0  0
  6 91  1  0  0  0
  6 92  1  0  0  0
  7  8  2  0  0  0
  7 26  1  0  0  0
  7 29  1  0  0  0
  8  9  1  0  0  0
  8 22  1  0  0  0
  9 10  1  0  0  0
  9 27  2  0  0  0
 10 11  2  0  0  0
 10 15  1  0  0  0
 11 12  1  0  0  0
 11 93  1  0  0  0
 12 13  2  0  0  0
 12 94  1  0  0  0
 13 14  1  0  0  0
 13 31  1  0  0  0
 14 15  2  0  0  0
 14 95  1  0  0  0
 15 96  1  0  0  0
 16 17  2  0  0  0
 16 21  1  0  0  0
 16 31  1  0  0  0
 17 18  1  0  0  0
 17 97  1  0  0  0
 18 19  2  0  0  0
 18 98  1  0  0  0
 19 20  1  0  0  0
 19 24  1  0  0  0
 20 21  2  0  0  0
 20 99  1  0  0  0
 21 23  1  0  0  0
 22 28  1  0  0  0
 22 32  2  0  0  0
 26 27  1  0  0  0
 28100  1  0  0  0
 28101  1  0  0  0
 29102  1  0  0  0
 29103  1  0  0  0
 33 34  1  0  0  0
 33 66  1  0  0  0
 33 70  2  0  0  0
 34 36  1  0  0  0
 34 59  1  0  0  0
 34104  1  0  0  0
 35 44  2  0  0  0
 35 45  1  0  0  0
 35 68  1  0  0  0
 36 56  1  0  0  0
 36105  1  0  0  0
 37 39  1  0  0  0
 37 47  1  0  0  0
 37 66  1  0  0  0
 37106  1  0  0  0
 38 43  2  0  0  0
 38 46  1  0  0  0
 38 47  1  0  0  0
 39 64  1  0  0  0
 39 67  2  0  0  0
 40 52  1  0  0  0
 40 53  2  0  0  0
 40 58  1  0  0  0
 41107  1  0  0  0
 41108  1  0  0  0
 41109  1  0  0  0
 41 48  1  0  0  0
 42 43  1  0  0  0
 42 66  1  0  0  0
 42110  1  0  0  0
 42111  1  0  0  0
 43 44  1  0  0  0
 44112  1  0  0  0
 45 46  2  0  0  0
 45113  1  0  0  0
 46114  1  0  0  0
 47115  1  0  0  0
 47116  1  0  0  0
 48 56  1  0  0  0
 48 65  1  0  0  0
 48117  1  0  0  0
 49 50  1  0  0  0
 49 53  1  0  0  0
 49 64  1  0  0  0
 49118  1  0  0  0
 50 51  1  0  0  0
 50119  1  0  0  0
 50120  1  0  0  0
 51 52  1  0  0  0
 51121  1  0  0  0
 51122  1  0  0  0
 52123  1  0  0  0
 52124  1  0  0  0
 53 54  1  0  0  0
 54 55  2  0  0  0
 54125  1  0  0  0
 55 57  1  0  0  0
 55126  1  0  0  0
 56 69  2  0  0  0
 57 58  2  0  0  0
 57127  1  0  0  0
 58128  1  0  0  0
 59 60  1  0  0  0
 59 61  1  0  0  0
 59 62  1  0  0  0
 60129  1  0  0  0
 60130  1  0  0  0
 60131  1  0  0  0
 61132  1  0  0  0
 61133  1  0  0  0
 61134  1  0  0  0
 62135  1  0  0  0
 62136  1  0  0  0
 62137  1  0  0  0
 63 65  1  0  0  0
 63138  1  0  0  0
 63139  1  0  0  0
 63140  1  0  0  0
 64141  1  0  0  0
 65142  1  0  0  0
 68 78  1  0  0  0
 71 73  2  0  0  0
 71 74  1  0  0  0
 71143  1  0  0  0
 72 73  1  0  0  0
 72 75  2  0  0  0
 72144  1  0  0  0
 73 81  1  0  0  0
 74 80  2  0  0  0
 74 82  1  0  0  0
 75 80  1  0  0  0
 75 83  1  0  0  0
 76145  1  0  0  0
 76146  1  0  0  0
 76147  1  0  0  0
 76 79  1  0  0  0
 77 78  1  0  0  0
 77 79  1  0  0  0
 77148  1  0  0  0
 77149  1  0  0  0
 78150  1  0  0  0
 78151  1  0  0  0
 79 83  1  0  0  0
 79152  1  0  0  0
 80153  1  0  0  0
 81154  1  0  0  0
 81155  1  0  0  0
 82156  1  0  0  0
 83157  1  0  0  0
M  CHG  1  80   1
M  ISO  4   1 100  68 101  78 101  82 100
M  END
> <chiral flag>
0

> <version>
0

> <s_m_source_file>
/data/baiqing/PycharmProjects/Reinvent-master-3.2/result/LINK_invent/BTK/process_docking_weight1_custom_product_contain_oxygen_bond_distance_aromatic_linkinvent_7_9_3/rearranged_h_0198.sdf

> <i_m_source_file_index>
75

> <r_mmod_Potential_Energy-OPLS-2005>
183.366073608398

> <r_mmod_Stretch_Energy-OPLS-2005>
131.450485229492

> <r_mmod_Bend_Energy-OPLS-2005>
174.762939453125

> <r_mmod_Torsional_Energy-OPLS-2005>
247.798294067383

> <r_mmod_Improper_Torsional_Energy-OPLS-2005>
10.0635280609131

> <r_mmod_Van_der_Waal_Energy-OPLS-2005>
141.235900878906

> <r_mmod_Electrostatic_Energy-OPLS-2005>
-169.382507324219

> <r_mmod_Solvation_Energy-OPLS-2005>
-439.945037841797

> <b_mmod_Minimization_Converged-OPLS-2005>
0

> <r_mmod_RMS_Derivative-OPLS-2005>
2.79393720626831

$$$$
75
                    3D
 Structure written by MMmdl.
153161  0  0  1  0            999 V2000
  -30.5659  -14.7725   20.4333 C   0  0  0  0  0  0
  -30.4233  -12.4671   19.4741 C   0  0  0  0  0  0
  -29.5044  -12.5207   18.2327 C   0  0  0  0  0  0
  -28.0285  -12.3405   18.6440 C   0  0  0  0  0  0
  -27.6344  -13.2360   19.8492 C   0  0  2  0  0  0
  -28.6760  -13.1672   20.9840 C   0  0  0  0  0  0
  -25.2455  -13.8209   20.5684 C   0  0  0  0  0  0
  -24.1761  -13.0459   20.9229 C   0  0  0  0  0  0
  -24.6350  -11.6931   20.8767 C   0  0  0  0  0  0
  -23.9048  -10.4305   21.0404 C   0  0  0  0  0  0
  -24.3592   -9.4230   21.9194 C   0  0  0  0  0  0
  -23.6279   -8.2269   22.0754 C   0  0  0  0  0  0
  -22.4284   -8.0282   21.3531 C   0  0  0  0  0  0
  -21.9898   -9.0259   20.4661 C   0  0  0  0  0  0
  -22.7213  -10.2140   20.3080 C   0  0  0  0  0  0
  -21.6852   -6.0731   22.5287 C   0  0  0  0  0  0
  -21.4016   -6.5638   23.8217 C   0  0  0  0  0  0
  -21.3660   -5.6797   24.9188 C   0  0  0  0  0  0
  -21.6034   -4.3054   24.7235 C   0  0  0  0  0  0
  -21.8817   -3.8141   23.4358 C   0  0  0  0  0  0
  -21.9182   -4.6958   22.3414 C   0  0  0  0  0  0
  -22.7782  -13.5227   21.1872 C   0  0  0  0  0  0
  -22.1652   -4.2133   21.0985 F   0  0  0  0  0  0
  -21.5622   -3.4542   25.7742 F   0  0  0  0  0  0
  -29.9723  -13.5306   20.4034 N   0  0  0  0  0  0
  -26.2877  -12.9428   20.3293 N   0  0  0  0  0  0
  -25.9278  -11.6546   20.5778 N   0  0  0  0  0  0
  -22.0422  -12.8255   22.0428 N   0  0  0  0  0  0
  -25.4101  -15.1930   20.3951 N   0  0  0  0  0  0
  -31.7548  -14.8881   20.1205 O   0  0  0  0  0  0
  -21.6640   -6.8872   21.4248 O   0  0  0  0  0  0
  -22.3508  -14.5528   20.6691 O   0  0  0  0  0  0
  -24.6322  -31.8589   23.1972 C   0  0  0  0  0  0
  -25.9179  -32.4743   23.8302 C   0  0  1  0  0  0
  -27.1765  -27.2147   20.1406 C   0  0  0  0  0  0
  -25.5997  -33.8533   24.2255 N   0  0  0  0  0  0
  -23.4226  -30.4869   21.5420 C   0  0  2  0  0  0
  -24.8598  -28.9182   20.1152 C   0  0  0  0  0  0
  -22.7436  -29.4687   22.4910 C   0  0  0  0  0  0
  -18.0302  -28.1353   22.8458 C   0  0  0  0  0  0
  -24.1506  -36.7258   23.2651 C   0  0  0  0  0  0
  -25.9747  -30.7463   21.3907 C   0  0  0  0  0  0
  -26.0349  -29.3668   20.7327 C   0  0  0  0  0  0
  -27.2007  -28.5292   20.7303 C   0  0  0  0  0  0
  -25.9813  -26.8372   19.5050 C   0  0  0  0  0  0
  -24.8411  -27.6632   19.4884 C   0  0  0  0  0  0
  -23.6380  -29.8178   20.1588 C   0  0  0  0  0  0
  -25.4130  -36.3043   24.0339 C   0  0  1  0  0  0
  -20.5909  -28.3652   23.1237 C   0  0  2  0  0  0
  -20.6825  -26.9402   22.5323 C   0  0  0  0  0  0
  -19.5756  -26.6227   21.5206 C   0  0  0  0  0  0
  -18.1895  -26.7899   22.1549 C   0  0  0  0  0  0
  -19.1563  -28.8797   23.2875 C   0  0  0  0  0  0
  -18.9507  -30.1394   23.8898 C   0  0  0  0  0  0
  -17.6490  -30.6512   24.0612 C   0  0  0  0  0  0
  -25.9077  -34.9437   23.5091 C   0  0  0  0  0  0
  -16.5389  -29.9038   23.6324 C   0  0  0  0  0  0
  -16.7292  -28.6482   23.0297 C   0  0  0  0  0  0
  -26.4514  -31.6580   25.0717 C   0  0  0  0  0  0
  -25.3683  -31.3770   26.1394 C   0  0  0  0  0  0
  -27.0394  -30.2989   24.6285 C   0  0  0  0  0  0
  -27.6045  -32.4338   25.7509 C   0  0  0  0  0  0
  -27.5579  -37.1788   24.8472 C   0  0  0  0  0  0
  -21.4164  -29.2988   22.3552 N   0  0  0  0  0  0
  -26.4295  -37.3759   23.9399 N   0  0  0  0  0  0
  -24.6952  -31.0490   22.0979 N   0  0  0  0  0  0
  -23.4097  -28.8325   23.3117 O   0  0  0  0  0  0
  -28.2652  -26.3160   20.0760 O   0  0  0  0  0  0
  -26.5634  -34.8911   22.4647 O   0  0  0  0  0  0
  -23.5480  -32.1460   23.7272 O   0  0  0  0  0  0
  -27.7716  -18.2565   21.0174 C   0  0  0  0  0  0
  -26.8850  -19.3275   21.2030 C   0  0  0  0  0  0
  -29.0489  -18.5447   20.5227 C   0  0  0  0  0  0
  -28.4266  -20.8730   20.4880 C   0  0  0  0  0  0
  -27.0542  -23.4762   18.8191 C   0  0  0  0  0  0
  -30.0826  -17.3598   20.2511 C   0  0  0  0  0  0
  -28.2598  -24.9465   20.7276 C   0  0  0  0  0  0
  -27.7844  -23.4670   20.1718 C   0  0  2  0  0  0
  -27.2095  -20.6140   20.9402 N   0  0  0  0  0  0
  -29.3503  -19.8871   20.2699 N   0  0  0  0  0  0
  -28.7290  -22.2641   20.2610 N   0  0  0  0  0  0
  -29.7612  -15.8960   20.5829 N   0  0  0  0  0  0
  -31.4641  -12.5968   19.1727 H   0  0  0  0  0  0
  -30.3690  -11.4907   19.9554 H   0  0  0  0  0  0
  -29.7894  -11.7463   17.5191 H   0  0  0  0  0  0
  -29.6334  -13.4734   17.7164 H   0  0  0  0  0  0
  -27.8788  -11.2904   18.9008 H   0  0  0  0  0  0
  -27.3749  -12.5442   17.7935 H   0  0  0  0  0  0
  -27.6251  -14.2598   19.4705 H   0  0  0  0  0  0
  -28.7178  -12.1686   21.4175 H   0  0  0  0  0  0
  -28.4087  -13.8442   21.7964 H   0  0  0  0  0  0
  -25.2728   -9.5714   22.4774 H   0  0  0  0  0  0
  -23.9985   -7.4656   22.7472 H   0  0  0  0  0  0
  -21.0827   -8.8775   19.8959 H   0  0  0  0  0  0
  -22.3660  -10.9681   19.6199 H   0  0  0  0  0  0
  -21.2026   -7.6143   23.9720 H   0  0  0  0  0  0
  -21.1480   -6.0522   25.9080 H   0  0  0  0  0  0
  -22.0589   -2.7597   23.2870 H   0  0  0  0  0  0
  -22.4015  -11.9948   22.4895 H   0  0  0  0  0  0
  -21.1042  -13.1302   22.2577 H   0  0  0  0  0  0
  -24.6099  -15.8166   20.4231 H   0  0  0  0  0  0
  -26.2098  -15.6032   19.9283 H   0  0  0  0  0  0
  -26.7241  -32.5332   23.1026 H   0  0  0  0  0  0
  -25.0109  -33.9660   25.0383 H   0  0  0  0  0  0
  -22.7250  -31.3150   21.3986 H   0  0  0  0  0  0
  -23.3781  -35.9581   23.3315 H   0  0  0  0  0  0
  -24.3609  -36.8852   22.2059 H   0  0  0  0  0  0
  -23.7241  -37.6461   23.6659 H   0  0  0  0  0  0
  -26.1314  -31.5038   20.6221 H   0  0  0  0  0  0
  -26.8443  -30.7811   22.0353 H   0  0  0  0  0  0
  -28.1057  -28.8711   21.2083 H   0  0  0  0  0  0
  -25.9185  -25.8874   19.0072 H   0  0  0  0  0  0
  -23.9429  -27.3145   18.9954 H   0  0  0  0  0  0
  -23.7641  -30.5979   19.4082 H   0  0  0  0  0  0
  -22.7495  -29.2612   19.8535 H   0  0  0  0  0  0
  -25.1314  -36.1899   25.0839 H   0  0  0  0  0  0
  -21.0063  -28.3291   24.1346 H   0  0  0  0  0  0
  -20.5894  -26.2219   23.3462 H   0  0  0  0  0  0
  -21.6703  -26.7584   22.1074 H   0  0  0  0  0  0
  -19.6911  -25.6048   21.1403 H   0  0  0  0  0  0
  -19.6664  -27.2846   20.6593 H   0  0  0  0  0  0
  -17.4210  -26.6825   21.3872 H   0  0  0  0  0  0
  -18.0130  -26.0023   22.8878 H   0  0  0  0  0  0
  -19.8038  -30.7147   24.2253 H   0  0  0  0  0  0
  -17.5054  -31.6191   24.5224 H   0  0  0  0  0  0
  -15.5385  -30.2933   23.7574 H   0  0  0  0  0  0
  -15.8734  -28.0847   22.6878 H   0  0  0  0  0  0
  -24.5883  -30.7126   25.7675 H   0  0  0  0  0  0
  -24.8860  -32.2964   26.4721 H   0  0  0  0  0  0
  -25.7922  -30.8978   27.0225 H   0  0  0  0  0  0
  -26.3017  -29.6714   24.1278 H   0  0  0  0  0  0
  -27.4018  -29.7279   25.4834 H   0  0  0  0  0  0
  -27.8918  -30.4253   23.9609 H   0  0  0  0  0  0
  -27.2645  -33.3648   26.2071 H   0  0  0  0  0  0
  -28.3870  -32.6895   25.0352 H   0  0  0  0  0  0
  -28.0729  -31.8484   26.5435 H   0  0  0  0  0  0
  -28.2608  -38.0075   24.7506 H   0  0  0  0  0  0
  -28.1058  -36.2597   24.6321 H   0  0  0  0  0  0
  -27.2294  -37.1467   25.8880 H   0  0  0  0  0  0
  -20.9367  -29.8442   21.6530 H   0  0  0  0  0  0
  -26.0174  -38.2844   24.1365 H   0  0  0  0  0  0
  -27.4589  -17.2474   21.2487 H   0  0  0  0  0  0
  -25.8840  -19.1458   21.5684 H   0  0  0  0  0  0
  -27.0549  -22.4941   18.3457 H   0  0  0  0  0  0
  -27.4979  -24.1746   18.1076 H   0  0  0  0  0  0
  -26.0028  -23.7273   18.9537 H   0  0  0  0  0  0
  -31.0212  -17.6266   20.7335 H   0  0  0  0  0  0
  -30.2896  -17.3795   19.1804 H   0  0  0  0  0  0
  -29.3083  -24.8135   20.9929 H   0  0  0  0  0  0
  -27.7659  -25.0885   21.6899 H   0  0  0  0  0  0
  -27.0033  -23.1918   20.8776 H   0  0  0  0  0  0
  -29.6583  -22.4226   19.8942 H   0  0  0  0  0  0
  -28.7990  -15.7267   20.8279 H   0  0  0  0  0  0
  1 25  1  0  0  0
  1 30  2  0  0  0
  1 82  1  0  0  0
  2  3  1  0  0  0
  2 25  1  0  0  0
  2 83  1  0  0  0
  2 84  1  0  0  0
  3  4  1  0  0  0
  3 85  1  0  0  0
  3 86  1  0  0  0
  4  5  1  0  0  0
  4 87  1  0  0  0
  4 88  1  0  0  0
  5  6  1  0  0  0
  5 26  1  0  0  0
  5 89  1  0  0  0
  6 25  1  0  0  0
  6 90  1  0  0  0
  6 91  1  0  0  0
  7  8  2  0  0  0
  7 26  1  0  0  0
  7 29  1  0  0  0
  8  9  1  0  0  0
  8 22  1  0  0  0
  9 10  1  0  0  0
  9 27  2  0  0  0
 10 11  2  0  0  0
 10 15  1  0  0  0
 11 12  1  0  0  0
 11 92  1  0  0  0
 12 13  2  0  0  0
 12 93  1  0  0  0
 13 14  1  0  0  0
 13 31  1  0  0  0
 14 15  2  0  0  0
 14 94  1  0  0  0
 15 95  1  0  0  0
 16 17  2  0  0  0
 16 21  1  0  0  0
 16 31  1  0  0  0
 17 18  1  0  0  0
 17 96  1  0  0  0
 18 19  2  0  0  0
 18 97  1  0  0  0
 19 20  1  0  0  0
 19 24  1  0  0  0
 20 21  2  0  0  0
 20 98  1  0  0  0
 21 23  1  0  0  0
 22 28  1  0  0  0
 22 32  2  0  0  0
 26 27  1  0  0  0
 28 99  1  0  0  0
 28100  1  0  0  0
 29101  1  0  0  0
 29102  1  0  0  0
 33 34  1  0  0  0
 33 66  1  0  0  0
 33 70  2  0  0  0
 34 36  1  0  0  0
 34 59  1  0  0  0
 34103  1  0  0  0
 35 44  2  0  0  0
 35 45  1  0  0  0
 35 68  1  0  0  0
 36 56  1  0  0  0
 36104  1  0  0  0
 37 39  1  0  0  0
 37 47  1  0  0  0
 37 66  1  0  0  0
 37105  1  0  0  0
 38 43  2  0  0  0
 38 46  1  0  0  0
 38 47  1  0  0  0
 39 64  1  0  0  0
 39 67  2  0  0  0
 40 52  1  0  0  0
 40 53  2  0  0  0
 40 58  1  0  0  0
 41106  1  0  0  0
 41107  1  0  0  0
 41108  1  0  0  0
 41 48  1  0  0  0
 42 43  1  0  0  0
 42 66  1  0  0  0
 42109  1  0  0  0
 42110  1  0  0  0
 43 44  1  0  0  0
 44111  1  0  0  0
 45 46  2  0  0  0
 45112  1  0  0  0
 46113  1  0  0  0
 47114  1  0  0  0
 47115  1  0  0  0
 48 56  1  0  0  0
 48 65  1  0  0  0
 48116  1  0  0  0
 49 50  1  0  0  0
 49 53  1  0  0  0
 49 64  1  0  0  0
 49117  1  0  0  0
 50 51  1  0  0  0
 50118  1  0  0  0
 50119  1  0  0  0
 51 52  1  0  0  0
 51120  1  0  0  0
 51121  1  0  0  0
 52122  1  0  0  0
 52123  1  0  0  0
 53 54  1  0  0  0
 54 55  2  0  0  0
 54124  1  0  0  0
 55 57  1  0  0  0
 55125  1  0  0  0
 56 69  2  0  0  0
 57 58  2  0  0  0
 57126  1  0  0  0
 58127  1  0  0  0
 59 60  1  0  0  0
 59 61  1  0  0  0
 59 62  1  0  0  0
 60128  1  0  0  0
 60129  1  0  0  0
 60130  1  0  0  0
 61131  1  0  0  0
 61132  1  0  0  0
 61133  1  0  0  0
 62134  1  0  0  0
 62135  1  0  0  0
 62136  1  0  0  0
 63 65  1  0  0  0
 63137  1  0  0  0
 63138  1  0  0  0
 63139  1  0  0  0
 64140  1  0  0  0
 65141  1  0  0  0
 68 77  1  0  0  0
 71 72  2  0  0  0
 71 73  1  0  0  0
 71142  1  0  0  0
 72 79  1  0  0  0
 72143  1  0  0  0
 73 76  1  0  0  0
 73 80  2  0  0  0
 74 79  2  0  0  0
 74 80  1  0  0  0
 74 81  1  0  0  0
 75144  1  0  0  0
 75145  1  0  0  0
 75146  1  0  0  0
 75 78  1  0  0  0
 76 82  1  0  0  0
 76147  1  0  0  0
 76148  1  0  0  0
 77 78  1  0  0  0
 77149  1  0  0  0
 77150  1  0  0  0
 78 81  1  0  0  0
 78151  1  0  0  0
 81152  1  0  0  0
 82153  1  0  0  0
M  ISO  4   1 100  68 101  77 101  82 100
M  END
> <chiral flag>
0

> <version>
0

> <s_m_source_file>
/data/baiqing/PycharmProjects/Reinvent-master-3.2/result/LINK_invent/BTK/process_docking_weight1_custom_product_contain_oxygen_bond_distance_aromatic_linkinvent_7_9_3/rearranged_h_0198.sdf

> <i_m_source_file_index>
76

> <r_mmod_Potential_Energy-OPLS-2005>
-481.202026367188

> <r_mmod_Stretch_Energy-OPLS-2005>
132.507080078125

> <r_mmod_Bend_Energy-OPLS-2005>
206.226287841797

> <r_mmod_Torsional_Energy-OPLS-2005>
235.720245361328

> <r_mmod_Improper_Torsional_Energy-OPLS-2005>
7.48456954956055

> <r_mmod_Van_der_Waal_Energy-OPLS-2005>
138.011413574219

> <r_mmod_Electrostatic_Energy-OPLS-2005>
-1055.73950195312

> <r_mmod_Solvation_Energy-OPLS-2005>
-249.184539794922

> <b_mmod_Minimization_Converged-OPLS-2005>
0

> <r_mmod_RMS_Derivative-OPLS-2005>
5.67881393432617

$$$$
76
                    3D
 Structure written by MMmdl.
161169  0  0  1  0            999 V2000
  -30.6179  -14.5389   20.5874 C   0  0  0  0  0  0
  -30.4453  -12.3516   19.4173 C   0  0  0  0  0  0
  -29.5007  -12.5247   18.2064 C   0  0  0  0  0  0
  -28.0216  -12.3639   18.6183 C   0  0  0  0  0  0
  -27.6632  -13.1940   19.8786 C   0  0  2  0  0  0
  -28.7043  -12.9450   20.9920 C   0  0  0  0  0  0
  -25.2612  -13.8119   20.5664 C   0  0  0  0  0  0
  -24.1846  -13.0420   20.9160 C   0  0  0  0  0  0
  -24.6379  -11.6878   20.8726 C   0  0  0  0  0  0
  -23.9039  -10.4273   21.0407 C   0  0  0  0  0  0
  -24.3599   -9.4193   21.9187 C   0  0  0  0  0  0
  -23.6278   -8.2233   22.0758 C   0  0  0  0  0  0
  -22.4264   -8.0272   21.3546 C   0  0  0  0  0  0
  -21.9890   -9.0240   20.4648 C   0  0  0  0  0  0
  -22.7213  -10.2120   20.3054 C   0  0  0  0  0  0
  -21.6852   -6.0727   22.5278 C   0  0  0  0  0  0
  -21.4014   -6.5635   23.8210 C   0  0  0  0  0  0
  -21.3660   -5.6792   24.9176 C   0  0  0  0  0  0
  -21.6041   -4.3054   24.7230 C   0  0  0  0  0  0
  -21.8819   -3.8141   23.4354 C   0  0  0  0  0  0
  -21.9190   -4.6953   22.3407 C   0  0  0  0  0  0
  -22.7871  -13.5238   21.1833 C   0  0  0  0  0  0
  -22.1660   -4.2136   21.0986 F   0  0  0  0  0  0
  -21.5628   -3.4541   25.7747 F   0  0  0  0  0  0
  -30.0300  -13.3125   20.4524 N   0  0  0  0  0  0
  -26.3027  -12.9258   20.3359 N   0  0  0  0  0  0
  -25.9301  -11.6431   20.5753 N   0  0  0  0  0  0
  -22.0512  -12.8230   22.0388 N   0  0  0  0  0  0
  -25.4357  -15.1839   20.4086 N   0  0  0  0  0  0
  -31.7282  -14.8033   20.1085 O   0  0  0  0  0  0
  -21.6636   -6.8866   21.4239 O   0  0  0  0  0  0
  -22.3559  -14.5550   20.6688 O   0  0  0  0  0  0
  -24.6181  -31.8632   23.2044 C   0  0  0  0  0  0
  -25.9051  -32.4800   23.8359 C   0  0  1  0  0  0
  -27.2403  -27.3948   20.1095 C   0  0  0  0  0  0
  -25.5898  -33.8600   24.2296 N   0  0  0  0  0  0
  -23.4096  -30.4847   21.5445 C   0  0  2  0  0  0
  -24.8577  -28.9357   20.1224 C   0  0  0  0  0  0
  -22.7444  -29.4635   22.4957 C   0  0  0  0  0  0
  -18.0286  -28.1380   22.8471 C   0  0  0  0  0  0
  -24.1493  -36.7304   23.2643 C   0  0  0  0  0  0
  -25.9419  -30.8162   21.3643 C   0  0  0  0  0  0
  -26.0200  -29.4445   20.7169 C   0  0  0  0  0  0
  -27.2155  -28.6844   20.7006 C   0  0  0  0  0  0
  -26.0593  -26.8986   19.5221 C   0  0  0  0  0  0
  -24.8735  -27.6623   19.5243 C   0  0  0  0  0  0
  -23.6238  -29.8112   20.1626 C   0  0  0  0  0  0
  -25.4113  -36.3096   24.0342 C   0  0  1  0  0  0
  -20.5876  -28.3669   23.1298 C   0  0  2  0  0  0
  -20.6785  -26.9401   22.5408 C   0  0  0  0  0  0
  -19.5771  -26.6380   21.5207 C   0  0  0  0  0  0
  -18.1942  -26.7919   22.1605 C   0  0  0  0  0  0
  -19.1538  -28.8844   23.2877 C   0  0  0  0  0  0
  -18.9465  -30.1449   23.8889 C   0  0  0  0  0  0
  -17.6468  -30.6579   24.0569 C   0  0  0  0  0  0
  -25.9045  -34.9465   23.5120 C   0  0  0  0  0  0
  -16.5359  -29.9080   23.6329 C   0  0  0  0  0  0
  -16.7274  -28.6511   23.0324 C   0  0  0  0  0  0
  -26.4464  -31.6595   25.0711 C   0  0  0  0  0  0
  -25.3720  -31.3718   26.1463 C   0  0  0  0  0  0
  -27.0300  -30.3038   24.6093 C   0  0  0  0  0  0
  -27.6046  -32.4313   25.7467 C   0  0  0  0  0  0
  -27.5580  -37.1804   24.8467 C   0  0  0  0  0  0
  -21.4161  -29.3030   22.3706 N   0  0  0  0  0  0
  -26.4293  -37.3780   23.9411 N   0  0  0  0  0  0
  -24.6747  -31.0701   22.0959 N   0  0  0  0  0  0
  -23.4210  -28.8182   23.3004 O   0  0  0  0  0  0
  -28.4112  -26.6639   20.0284 O   0  0  0  0  0  0
  -26.5603  -34.8931   22.4679 O   0  0  0  0  0  0
  -23.5365  -32.1386   23.7425 O   0  0  0  0  0  0
  -29.8661  -19.1325   21.2143 C   0  0  0  0  0  0
  -29.4008  -19.0394   22.5108 C   0  0  0  0  0  0
  -29.8787  -16.8332   21.5025 C   0  0  0  0  0  0
  -27.5295  -20.2094   23.7460 C   0  0  0  0  0  0
  -30.1803  -20.4517   20.4937 C   0  0  0  0  0  0
  -29.0353  -20.1393   23.4609 C   0  0  0  0  0  0
  -28.3062  -24.0810   20.0619 C   0  0  0  0  0  0
  -29.3475  -22.9561   20.4261 C   0  0  0  0  0  0
  -28.5256  -25.4470   20.8026 C   0  0  0  0  0  0
  -28.9929  -21.4408   20.1536 C   0  0  1  0  0  0
  -30.1185  -17.8499   20.6413 N   0  0  0  0  0  0
  -29.8220  -15.4322   21.2185 N   0  0  0  0  0  0
  -28.5191  -21.2302   18.7694 N   0  3  0  0  0  0
  -29.2779  -17.3865   23.0524 S   0  0  0  0  0  0
  -31.4834  -12.4994   19.1136 H   0  0  0  0  0  0
  -30.3891  -11.3335   19.8046 H   0  0  0  0  0  0
  -29.7520  -11.8049   17.4265 H   0  0  0  0  0  0
  -29.6467  -13.5126   17.7675 H   0  0  0  0  0  0
  -27.8424  -11.3056   18.8108 H   0  0  0  0  0  0
  -27.3672  -12.6369   17.7894 H   0  0  0  0  0  0
  -27.7126  -14.2455   19.5950 H   0  0  0  0  0  0
  -28.7018  -11.8917   21.2776 H   0  0  0  0  0  0
  -28.4413  -13.4791   21.9063 H   0  0  0  0  0  0
  -25.2748   -9.5676   22.4755 H   0  0  0  0  0  0
  -23.9990   -7.4627   22.7478 H   0  0  0  0  0  0
  -21.0821   -8.8754   19.8957 H   0  0  0  0  0  0
  -22.3672  -10.9659   19.6160 H   0  0  0  0  0  0
  -21.2008   -7.6142   23.9709 H   0  0  0  0  0  0
  -21.1485   -6.0528   25.9078 H   0  0  0  0  0  0
  -22.0598   -2.7600   23.2863 H   0  0  0  0  0  0
  -22.4129  -11.9888   22.4764 H   0  0  0  0  0  0
  -21.1134  -13.1262   22.2609 H   0  0  0  0  0  0
  -24.6696  -15.8399   20.5169 H   0  0  0  0  0  0
  -26.2862  -15.6211   20.0763 H   0  0  0  0  0  0
  -26.7129  -32.5503   23.1127 H   0  0  0  0  0  0
  -25.0078  -33.9755   25.0464 H   0  0  0  0  0  0
  -22.6993  -31.3010   21.3977 H   0  0  0  0  0  0
  -23.3754  -35.9638   23.3315 H   0  0  0  0  0  0
  -24.3585  -36.8903   22.2056 H   0  0  0  0  0  0
  -23.7252  -37.6519   23.6646 H   0  0  0  0  0  0
  -26.0570  -31.5780   20.5925 H   0  0  0  0  0  0
  -26.8303  -30.8715   21.9829 H   0  0  0  0  0  0
  -28.1185  -29.0800   21.1445 H   0  0  0  0  0  0
  -26.0616  -25.9264   19.0493 H   0  0  0  0  0  0
  -23.9812  -27.2594   19.0651 H   0  0  0  0  0  0
  -23.7458  -30.5845   19.4037 H   0  0  0  0  0  0
  -22.7468  -29.2376   19.8578 H   0  0  0  0  0  0
  -25.1287  -36.1965   25.0834 H   0  0  0  0  0  0
  -20.9958  -28.3235   24.1424 H   0  0  0  0  0  0
  -20.5697  -26.2273   23.3592 H   0  0  0  0  0  0
  -21.6653  -26.7442   22.1201 H   0  0  0  0  0  0
  -19.6943  -25.6298   21.1233 H   0  0  0  0  0  0
  -19.6730  -27.3199   20.6750 H   0  0  0  0  0  0
  -17.4217  -26.6669   21.4006 H   0  0  0  0  0  0
  -18.0339  -26.0055   22.8997 H   0  0  0  0  0  0
  -19.7948  -30.7273   24.2235 H   0  0  0  0  0  0
  -17.5027  -31.6257   24.5175 H   0  0  0  0  0  0
  -15.5362  -30.2987   23.7662 H   0  0  0  0  0  0
  -15.8669  -28.0856   22.6997 H   0  0  0  0  0  0
  -24.5913  -30.7031   25.7808 H   0  0  0  0  0  0
  -24.8894  -32.2891   26.4856 H   0  0  0  0  0  0
  -25.8075  -30.8940   27.0248 H   0  0  0  0  0  0
  -26.2848  -29.6807   24.1142 H   0  0  0  0  0  0
  -27.4077  -29.7260   25.4535 H   0  0  0  0  0  0
  -27.8668  -30.4362   23.9232 H   0  0  0  0  0  0
  -27.2671  -33.3616   26.2040 H   0  0  0  0  0  0
  -28.3851  -32.6862   25.0288 H   0  0  0  0  0  0
  -28.0712  -31.8440   26.5386 H   0  0  0  0  0  0
  -28.2599  -38.0094   24.7491 H   0  0  0  0  0  0
  -28.1069  -36.2628   24.6312 H   0  0  0  0  0  0
  -27.2302  -37.1473   25.8870 H   0  0  0  0  0  0
  -20.9334  -29.8735   21.6913 H   0  0  0  0  0  0
  -26.0191  -38.2864   24.1399 H   0  0  0  0  0  0
  -27.3034  -21.0117   24.4490 H   0  0  0  0  0  0
  -27.1645  -19.2788   24.1825 H   0  0  0  0  0  0
  -26.9593  -20.3945   22.8358 H   0  0  0  0  0  0
  -30.7543  -20.2508   19.5884 H   0  0  0  0  0  0
  -30.8872  -20.9932   21.1231 H   0  0  0  0  0  0
  -29.3758  -21.1032   23.0848 H   0  0  0  0  0  0
  -29.5707  -19.9930   24.4000 H   0  0  0  0  0  0
  -27.2946  -23.7369   20.2829 H   0  0  0  0  0  0
  -28.3335  -24.2537   18.9856 H   0  0  0  0  0  0
  -29.5648  -23.0395   21.4918 H   0  0  0  0  0  0
  -30.2872  -23.1972   19.9284 H   0  0  0  0  0  0
  -29.5454  -25.4601   21.1892 H   0  0  0  0  0  0
  -27.8897  -25.4987   21.6882 H   0  0  0  0  0  0
  -28.1579  -21.1968   20.8104 H   0  0  0  0  0  0
  -29.0396  -14.9729   21.6565 H   0  0  0  0  0  0
  -29.2238  -21.4848   18.1001 H   0  0  0  0  0  0
  -27.6949  -21.7718   18.5814 H   0  0  0  0  0  0
  -28.2848  -20.2637   18.6218 H   0  0  0  0  0  0
  1 25  1  0  0  0
  1 30  2  0  0  0
  1 82  1  0  0  0
  2  3  1  0  0  0
  2 25  1  0  0  0
  2 85  1  0  0  0
  2 86  1  0  0  0
  3  4  1  0  0  0
  3 87  1  0  0  0
  3 88  1  0  0  0
  4  5  1  0  0  0
  4 89  1  0  0  0
  4 90  1  0  0  0
  5  6  1  0  0  0
  5 26  1  0  0  0
  5 91  1  0  0  0
  6 25  1  0  0  0
  6 92  1  0  0  0
  6 93  1  0  0  0
  7  8  2  0  0  0
  7 26  1  0  0  0
  7 29  1  0  0  0
  8  9  1  0  0  0
  8 22  1  0  0  0
  9 10  1  0  0  0
  9 27  2  0  0  0
 10 11  2  0  0  0
 10 15  1  0  0  0
 11 12  1  0  0  0
 11 94  1  0  0  0
 12 13  2  0  0  0
 12 95  1  0  0  0
 13 14  1  0  0  0
 13 31  1  0  0  0
 14 15  2  0  0  0
 14 96  1  0  0  0
 15 97  1  0  0  0
 16 17  2  0  0  0
 16 21  1  0  0  0
 16 31  1  0  0  0
 17 18  1  0  0  0
 17 98  1  0  0  0
 18 19  2  0  0  0
 18 99  1  0  0  0
 19 20  1  0  0  0
 19 24  1  0  0  0
 20 21  2  0  0  0
 20100  1  0  0  0
 21 23  1  0  0  0
 22 28  1  0  0  0
 22 32  2  0  0  0
 26 27  1  0  0  0
 28101  1  0  0  0
 28102  1  0  0  0
 29103  1  0  0  0
 29104  1  0  0  0
 33 34  1  0  0  0
 33 66  1  0  0  0
 33 70  2  0  0  0
 34 36  1  0  0  0
 34 59  1  0  0  0
 34105  1  0  0  0
 35 44  2  0  0  0
 35 45  1  0  0  0
 35 68  1  0  0  0
 36 56  1  0  0  0
 36106  1  0  0  0
 37 39  1  0  0  0
 37 47  1  0  0  0
 37 66  1  0  0  0
 37107  1  0  0  0
 38 43  2  0  0  0
 38 46  1  0  0  0
 38 47  1  0  0  0
 39 64  1  0  0  0
 39 67  2  0  0  0
 40 52  1  0  0  0
 40 53  2  0  0  0
 40 58  1  0  0  0
 41108  1  0  0  0
 41109  1  0  0  0
 41110  1  0  0  0
 41 48  1  0  0  0
 42 43  1  0  0  0
 42 66  1  0  0  0
 42111  1  0  0  0
 42112  1  0  0  0
 43 44  1  0  0  0
 44113  1  0  0  0
 45 46  2  0  0  0
 45114  1  0  0  0
 46115  1  0  0  0
 47116  1  0  0  0
 47117  1  0  0  0
 48 56  1  0  0  0
 48 65  1  0  0  0
 48118  1  0  0  0
 49 50  1  0  0  0
 49 53  1  0  0  0
 49 64  1  0  0  0
 49119  1  0  0  0
 50 51  1  0  0  0
 50120  1  0  0  0
 50121  1  0  0  0
 51 52  1  0  0  0
 51122  1  0  0  0
 51123  1  0  0  0
 52124  1  0  0  0
 52125  1  0  0  0
 53 54  1  0  0  0
 54 55  2  0  0  0
 54126  1  0  0  0
 55 57  1  0  0  0
 55127  1  0  0  0
 56 69  2  0  0  0
 57 58  2  0  0  0
 57128  1  0  0  0
 58129  1  0  0  0
 59 60  1  0  0  0
 59 61  1  0  0  0
 59 62  1  0  0  0
 60130  1  0  0  0
 60131  1  0  0  0
 60132  1  0  0  0
 61133  1  0  0  0
 61134  1  0  0  0
 61135  1  0  0  0
 62136  1  0  0  0
 62137  1  0  0  0
 62138  1  0  0  0
 63 65  1  0  0  0
 63139  1  0  0  0
 63140  1  0  0  0
 63141  1  0  0  0
 64142  1  0  0  0
 65143  1  0  0  0
 68 79  1  0  0  0
 71 72  2  0  0  0
 71 75  1  0  0  0
 71 81  1  0  0  0
 72 76  1  0  0  0
 72 84  1  0  0  0
 73 81  2  0  0  0
 73 82  1  0  0  0
 73 84  1  0  0  0
 74 76  1  0  0  0
 74144  1  0  0  0
 74145  1  0  0  0
 74146  1  0  0  0
 75 80  1  0  0  0
 75147  1  0  0  0
 75148  1  0  0  0
 76149  1  0  0  0
 76150  1  0  0  0
 77 78  1  0  0  0
 77 79  1  0  0  0
 77151  1  0  0  0
 77152  1  0  0  0
 78 80  1  0  0  0
 78153  1  0  0  0
 78154  1  0  0  0
 79155  1  0  0  0
 79156  1  0  0  0
 80 83  1  0  0  0
 80157  1  0  0  0
 82158  1  0  0  0
 83159  1  0  0  0
 83160  1  0  0  0
 83161  1  0  0  0
M  CHG  1  83   1
M  ISO  4   1 100  68 101  79 101  82 100
M  END
> <chiral flag>
0

> <version>
0

> <s_m_source_file>
/data/baiqing/PycharmProjects/Reinvent-master-3.2/result/LINK_invent/BTK/process_docking_weight1_custom_product_contain_oxygen_bond_distance_aromatic_linkinvent_7_9_3/rearranged_h_0198.sdf

> <i_m_source_file_index>
77

> <r_mmod_Potential_Energy-OPLS-2005>
-268.299102783203

> <r_mmod_Stretch_Energy-OPLS-2005>
51.454475402832

> <r_mmod_Bend_Energy-OPLS-2005>
137.357971191406

> <r_mmod_Torsional_Energy-OPLS-2005>
259.048614501953

> <r_mmod_Improper_Torsional_Energy-OPLS-2005>
4.22771310806274

> <r_mmod_Van_der_Waal_Energy-OPLS-2005>
112.750549316406

> <r_mmod_Electrostatic_Energy-OPLS-2005>
-346.718475341797

> <r_mmod_Solvation_Energy-OPLS-2005>
-507.210479736328

> <b_mmod_Minimization_Converged-OPLS-2005>
0

> <r_mmod_RMS_Derivative-OPLS-2005>
1.72980034351349

$$$$
77
                    3D
 Structure written by MMmdl.
155163  0  0  1  0            999 V2000
  -30.7124  -14.4016   20.5901 C   0  0  0  0  0  0
  -30.4331  -12.2854   19.3723 C   0  0  0  0  0  0
  -29.4799  -12.4737   18.1782 C   0  0  0  0  0  0
  -28.0044  -12.3512   18.6095 C   0  0  0  0  0  0
  -27.6675  -13.1885   19.8704 C   0  0  2  0  0  0
  -28.7118  -12.9203   20.9716 C   0  0  0  0  0  0
  -25.2670  -13.8155   20.5670 C   0  0  0  0  0  0
  -24.1892  -13.0433   20.9172 C   0  0  0  0  0  0
  -24.6415  -11.6905   20.8731 C   0  0  0  0  0  0
  -23.9068  -10.4304   21.0432 C   0  0  0  0  0  0
  -24.3604   -9.4225   21.9234 C   0  0  0  0  0  0
  -23.6263   -8.2275   22.0803 C   0  0  0  0  0  0
  -22.4260   -8.0324   21.3576 C   0  0  0  0  0  0
  -21.9928   -9.0274   20.4653 C   0  0  0  0  0  0
  -22.7262  -10.2153   20.3061 C   0  0  0  0  0  0
  -21.6840   -6.0781   22.5299 C   0  0  0  0  0  0
  -21.4045   -6.5673   23.8229 C   0  0  0  0  0  0
  -21.3648   -5.6813   24.9181 C   0  0  0  0  0  0
  -21.6020   -4.3070   24.7222 C   0  0  0  0  0  0
  -21.8833   -3.8180   23.4330 C   0  0  0  0  0  0
  -21.9187   -4.7015   22.3401 C   0  0  0  0  0  0
  -22.7919  -13.5237   21.1811 C   0  0  0  0  0  0
  -22.1644   -4.2218   21.0970 F   0  0  0  0  0  0
  -21.5585   -3.4534   25.7714 F   0  0  0  0  0  0
  -30.0405  -13.2384   20.4183 N   0  0  0  0  0  0
  -26.3074  -12.9258   20.3342 N   0  0  0  0  0  0
  -25.9316  -11.6452   20.5768 N   0  0  0  0  0  0
  -22.0504  -12.8231   22.0326 N   0  0  0  0  0  0
  -25.4406  -15.1854   20.4053 N   0  0  0  0  0  0
  -31.8318  -14.6195   20.1177 O   0  0  0  0  0  0
  -21.6612   -6.8931   21.4263 O   0  0  0  0  0  0
  -22.3620  -14.5530   20.6653 O   0  0  0  0  0  0
  -24.6086  -31.8691   23.2097 C   0  0  0  0  0  0
  -25.9010  -32.4823   23.8373 C   0  0  1  0  0  0
  -27.2504  -27.4990   20.0889 C   0  0  0  0  0  0
  -25.5887  -33.8610   24.2328 N   0  0  0  0  0  0
  -23.3943  -30.4909   21.5513 C   0  0  2  0  0  0
  -24.8398  -28.9574   20.1225 C   0  0  0  0  0  0
  -22.7361  -29.4669   22.5023 C   0  0  0  0  0  0
  -18.0228  -28.1398   22.8495 C   0  0  0  0  0  0
  -24.1434  -36.7283   23.2642 C   0  0  0  0  0  0
  -25.9109  -30.8624   21.3397 C   0  0  0  0  0  0
  -25.9938  -29.4936   20.7059 C   0  0  0  0  0  0
  -27.1968  -28.7710   20.6858 C   0  0  0  0  0  0
  -26.0700  -26.9478   19.5249 C   0  0  0  0  0  0
  -24.8692  -27.6822   19.5365 C   0  0  0  0  0  0
  -23.5973  -29.8172   20.1679 C   0  0  0  0  0  0
  -25.4065  -36.3104   24.0352 C   0  0  1  0  0  0
  -20.5809  -28.3657   23.1345 C   0  0  2  0  0  0
  -20.6731  -26.9400   22.5449 C   0  0  0  0  0  0
  -19.5723  -26.6383   21.5224 C   0  0  0  0  0  0
  -18.1879  -26.7942   22.1629 C   0  0  0  0  0  0
  -19.1481  -28.8849   23.2909 C   0  0  0  0  0  0
  -18.9434  -30.1451   23.8913 C   0  0  0  0  0  0
  -17.6455  -30.6614   24.0576 C   0  0  0  0  0  0
  -25.9007  -34.9488   23.5142 C   0  0  0  0  0  0
  -16.5331  -29.9145   23.6333 C   0  0  0  0  0  0
  -16.7226  -28.6560   23.0356 C   0  0  0  0  0  0
  -26.4433  -31.6585   25.0693 C   0  0  0  0  0  0
  -25.3705  -31.3709   26.1465 C   0  0  0  0  0  0
  -27.0247  -30.3048   24.5989 C   0  0  0  0  0  0
  -27.5991  -32.4294   25.7483 C   0  0  0  0  0  0
  -27.5532  -37.1781   24.8470 C   0  0  0  0  0  0
  -21.4084  -29.3026   22.3763 N   0  0  0  0  0  0
  -26.4236  -37.3805   23.9436 N   0  0  0  0  0  0
  -24.6578  -31.0856   22.0955 N   0  0  0  0  0  0
  -23.4137  -28.8178   23.3052 O   0  0  0  0  0  0
  -28.4854  -26.9030   20.0802 O   0  0  0  0  0  0
  -26.5592  -34.8938   22.4705 O   0  0  0  0  0  0
  -23.5305  -32.1398   23.7535 O   0  0  0  0  0  0
  -30.6870  -17.5030   19.0779 C   0  0  0  0  0  0
  -30.3530  -17.6636   20.4035 C   0  0  0  0  0  0
  -29.7576  -19.6962   19.6093 C   0  0  0  0  0  0
  -30.4966  -16.6872   21.5350 C   0  0  0  0  0  0
  -28.3703  -24.5506   20.5875 C   0  0  0  0  0  0
  -29.0032  -22.0020   20.6130 C   0  0  0  0  0  0
  -28.6399  -25.6223   19.5227 C   0  0  0  0  0  0
  -28.3279  -23.1818   19.8917 C   0  0  1  0  0  0
  -29.8131  -18.9228   20.6872 N   0  0  0  0  0  0
  -29.3205  -21.0008   19.6077 N   0  0  0  0  0  0
  -30.0211  -15.3490   21.2243 N   0  0  0  0  0  0
  -26.9813  -22.8467   19.6227 O   0  0  0  0  0  0
  -30.3393  -18.9253   18.1376 S   0  0  0  0  0  0
  -30.3887  -11.2617   19.7481 H   0  0  0  0  0  0
  -31.4613  -12.4339   19.0416 H   0  0  0  0  0  0
  -29.6953  -11.7243   17.4156 H   0  0  0  0  0  0
  -29.6501  -13.4416   17.7047 H   0  0  0  0  0  0
  -27.8135  -11.2940   18.8067 H   0  0  0  0  0  0
  -27.3441  -12.6259   17.7857 H   0  0  0  0  0  0
  -27.7245  -14.2402   19.5897 H   0  0  0  0  0  0
  -28.6898  -11.8678   21.2550 H   0  0  0  0  0  0
  -28.4763  -13.4715   21.8855 H   0  0  0  0  0  0
  -25.2753   -9.5672   22.4813 H   0  0  0  0  0  0
  -23.9950   -7.4654   22.7526 H   0  0  0  0  0  0
  -21.0892   -8.8761   19.8908 H   0  0  0  0  0  0
  -22.3739  -10.9669   19.6133 H   0  0  0  0  0  0
  -21.2085   -7.6200   23.9741 H   0  0  0  0  0  0
  -21.1415   -6.0561   25.9078 H   0  0  0  0  0  0
  -22.0614   -2.7661   23.2801 H   0  0  0  0  0  0
  -22.4084  -11.9928   22.4800 H   0  0  0  0  0  0
  -21.1140  -13.1351   22.2464 H   0  0  0  0  0  0
  -24.6855  -15.8521   20.5369 H   0  0  0  0  0  0
  -26.2842  -15.6141   20.0399 H   0  0  0  0  0  0
  -26.7107  -32.5560   23.1157 H   0  0  0  0  0  0
  -25.0042  -33.9734   25.0482 H   0  0  0  0  0  0
  -22.6867  -31.3078   21.4104 H   0  0  0  0  0  0
  -23.3728  -35.9581   23.3302 H   0  0  0  0  0  0
  -24.3528  -36.8900   22.2057 H   0  0  0  0  0  0
  -23.7129  -37.6470   23.6661 H   0  0  0  0  0  0
  -25.9924  -31.6112   20.5501 H   0  0  0  0  0  0
  -26.8126  -30.9427   21.9355 H   0  0  0  0  0  0
  -28.0991  -29.1900   21.1096 H   0  0  0  0  0  0
  -26.0460  -25.9695   19.0686 H   0  0  0  0  0  0
  -23.9816  -27.2550   19.0930 H   0  0  0  0  0  0
  -23.6934  -30.5845   19.3997 H   0  0  0  0  0  0
  -22.7251  -29.2278   19.8828 H   0  0  0  0  0  0
  -25.1211  -36.1963   25.0842 H   0  0  0  0  0  0
  -20.9901  -28.3229   24.1470 H   0  0  0  0  0  0
  -20.5623  -26.2244   23.3609 H   0  0  0  0  0  0
  -21.6589  -26.7445   22.1231 H   0  0  0  0  0  0
  -19.6875  -25.6290   21.1244 H   0  0  0  0  0  0
  -19.6683  -27.3199   20.6761 H   0  0  0  0  0  0
  -17.4140  -26.6649   21.4058 H   0  0  0  0  0  0
  -18.0330  -26.0095   22.9054 H   0  0  0  0  0  0
  -19.7910  -30.7258   24.2281 H   0  0  0  0  0  0
  -17.5019  -31.6289   24.5188 H   0  0  0  0  0  0
  -15.5349  -30.3090   23.7631 H   0  0  0  0  0  0
  -15.8591  -28.0902   22.7086 H   0  0  0  0  0  0
  -24.5846  -30.7084   25.7821 H   0  0  0  0  0  0
  -24.8937  -32.2891   26.4916 H   0  0  0  0  0  0
  -25.8039  -30.8877   27.0225 H   0  0  0  0  0  0
  -26.2796  -29.6875   24.0978 H   0  0  0  0  0  0
  -27.4014  -29.7192   25.4383 H   0  0  0  0  0  0
  -27.8594  -30.4414   23.9106 H   0  0  0  0  0  0
  -27.2588  -33.3563   26.2103 H   0  0  0  0  0  0
  -28.3791  -32.6898   25.0321 H   0  0  0  0  0  0
  -28.0676  -31.8401   26.5370 H   0  0  0  0  0  0
  -28.2544  -38.0091   24.7573 H   0  0  0  0  0  0
  -28.1012  -36.2620   24.6210 H   0  0  0  0  0  0
  -27.2269  -37.1366   25.8882 H   0  0  0  0  0  0
  -20.9239  -29.8771   21.6989 H   0  0  0  0  0  0
  -26.0111  -38.2844   24.1573 H   0  0  0  0  0  0
  -31.1268  -16.6358   18.6034 H   0  0  0  0  0  0
  -29.9139  -17.0332   22.3893 H   0  0  0  0  0  0
  -31.5327  -16.6446   21.8689 H   0  0  0  0  0  0
  -27.4486  -24.7632   21.1343 H   0  0  0  0  0  0
  -29.1713  -24.6007   21.3267 H   0  0  0  0  0  0
  -28.3977  -21.5899   21.4253 H   0  0  0  0  0  0
  -29.9437  -22.3332   21.0546 H   0  0  0  0  0  0
  -28.0420  -25.4829   18.6233 H   0  0  0  0  0  0
  -29.6733  -25.5325   19.1900 H   0  0  0  0  0  0
  -28.8441  -23.2985   18.9381 H   0  0  0  0  0  0
  -29.3026  -21.3917   18.6704 H   0  0  0  0  0  0
  -29.0942  -15.1051   21.5424 H   0  0  0  0  0  0
  -26.5115  -22.8321   20.4503 H   0  0  0  0  0  0
  1 25  1  0  0  0
  1 30  2  0  0  0
  1 81  1  0  0  0
  2  3  1  0  0  0
  2 25  1  0  0  0
  2 84  1  0  0  0
  2 85  1  0  0  0
  3  4  1  0  0  0
  3 86  1  0  0  0
  3 87  1  0  0  0
  4  5  1  0  0  0
  4 88  1  0  0  0
  4 89  1  0  0  0
  5  6  1  0  0  0
  5 26  1  0  0  0
  5 90  1  0  0  0
  6 25  1  0  0  0
  6 91  1  0  0  0
  6 92  1  0  0  0
  7  8  2  0  0  0
  7 26  1  0  0  0
  7 29  1  0  0  0
  8  9  1  0  0  0
  8 22  1  0  0  0
  9 10  1  0  0  0
  9 27  2  0  0  0
 10 11  2  0  0  0
 10 15  1  0  0  0
 11 12  1  0  0  0
 11 93  1  0  0  0
 12 13  2  0  0  0
 12 94  1  0  0  0
 13 14  1  0  0  0
 13 31  1  0  0  0
 14 15  2  0  0  0
 14 95  1  0  0  0
 15 96  1  0  0  0
 16 17  2  0  0  0
 16 21  1  0  0  0
 16 31  1  0  0  0
 17 18  1  0  0  0
 17 97  1  0  0  0
 18 19  2  0  0  0
 18 98  1  0  0  0
 19 20  1  0  0  0
 19 24  1  0  0  0
 20 21  2  0  0  0
 20 99  1  0  0  0
 21 23  1  0  0  0
 22 28  1  0  0  0
 22 32  2  0  0  0
 26 27  1  0  0  0
 28100  1  0  0  0
 28101  1  0  0  0
 29102  1  0  0  0
 29103  1  0  0  0
 33 34  1  0  0  0
 33 66  1  0  0  0
 33 70  2  0  0  0
 34 36  1  0  0  0
 34 59  1  0  0  0
 34104  1  0  0  0
 35 44  2  0  0  0
 35 45  1  0  0  0
 35 68  1  0  0  0
 36 56  1  0  0  0
 36105  1  0  0  0
 37 39  1  0  0  0
 37 47  1  0  0  0
 37 66  1  0  0  0
 37106  1  0  0  0
 38 43  2  0  0  0
 38 46  1  0  0  0
 38 47  1  0  0  0
 39 64  1  0  0  0
 39 67  2  0  0  0
 40 52  1  0  0  0
 40 53  2  0  0  0
 40 58  1  0  0  0
 41107  1  0  0  0
 41108  1  0  0  0
 41109  1  0  0  0
 41 48  1  0  0  0
 42 43  1  0  0  0
 42 66  1  0  0  0
 42110  1  0  0  0
 42111  1  0  0  0
 43 44  1  0  0  0
 44112  1  0  0  0
 45 46  2  0  0  0
 45113  1  0  0  0
 46114  1  0  0  0
 47115  1  0  0  0
 47116  1  0  0  0
 48 56  1  0  0  0
 48 65  1  0  0  0
 48117  1  0  0  0
 49 50  1  0  0  0
 49 53  1  0  0  0
 49 64  1  0  0  0
 49118  1  0  0  0
 50 51  1  0  0  0
 50119  1  0  0  0
 50120  1  0  0  0
 51 52  1  0  0  0
 51121  1  0  0  0
 51122  1  0  0  0
 52123  1  0  0  0
 52124  1  0  0  0
 53 54  1  0  0  0
 54 55  2  0  0  0
 54125  1  0  0  0
 55 57  1  0  0  0
 55126  1  0  0  0
 56 69  2  0  0  0
 57 58  2  0  0  0
 57127  1  0  0  0
 58128  1  0  0  0
 59 60  1  0  0  0
 59 61  1  0  0  0
 59 62  1  0  0  0
 60129  1  0  0  0
 60130  1  0  0  0
 60131  1  0  0  0
 61132  1  0  0  0
 61133  1  0  0  0
 61134  1  0  0  0
 62135  1  0  0  0
 62136  1  0  0  0
 62137  1  0  0  0
 63 65  1  0  0  0
 63138  1  0  0  0
 63139  1  0  0  0
 63140  1  0  0  0
 64141  1  0  0  0
 65142  1  0  0  0
 68 77  1  0  0  0
 71 72  2  0  0  0
 71 83  1  0  0  0
 71143  1  0  0  0
 72 74  1  0  0  0
 72 79  1  0  0  0
 73 79  2  0  0  0
 73 80  1  0  0  0
 73 83  1  0  0  0
 74 81  1  0  0  0
 74144  1  0  0  0
 74145  1  0  0  0
 75 77  1  0  0  0
 75 78  1  0  0  0
 75146  1  0  0  0
 75147  1  0  0  0
 76 78  1  0  0  0
 76 80  1  0  0  0
 76148  1  0  0  0
 76149  1  0  0  0
 77150  1  0  0  0
 77151  1  0  0  0
 78 82  1  0  0  0
 78152  1  0  0  0
 80153  1  0  0  0
 81154  1  0  0  0
 82155  1  0  0  0
M  ISO  4   1 100  68 101  77 101  81 100
M  END
> <chiral flag>
0

> <version>
0

> <s_m_source_file>
/data/baiqing/PycharmProjects/Reinvent-master-3.2/result/LINK_invent/BTK/process_docking_weight1_custom_product_contain_oxygen_bond_distance_aromatic_linkinvent_7_9_3/rearranged_h_0198.sdf

> <i_m_source_file_index>
78

> <r_mmod_Potential_Energy-OPLS-2005>
-336.790222167969

> <r_mmod_Stretch_Energy-OPLS-2005>
28.4694232940674

> <r_mmod_Bend_Energy-OPLS-2005>
105.133354187012

> <r_mmod_Torsional_Energy-OPLS-2005>
201.504623413086

> <r_mmod_Improper_Torsional_Energy-OPLS-2005>
2.78236627578735

> <r_mmod_Van_der_Waal_Energy-OPLS-2005>
139.982345581055

> <r_mmod_Electrostatic_Energy-OPLS-2005>
-587.480895996094

> <r_mmod_Solvation_Energy-OPLS-2005>
-239.878280639648

> <b_mmod_Minimization_Converged-OPLS-2005>
0

> <r_mmod_RMS_Derivative-OPLS-2005>
5.86557769775391

$$$$
78
                    3D
 Structure written by MMmdl.
153161  0  0  1  0            999 V2000
  -30.6985  -14.4386   20.6150 C   0  0  0  0  0  0
  -30.4241  -12.2954   19.4252 C   0  0  0  0  0  0
  -29.5002  -12.5231   18.2087 C   0  0  0  0  0  0
  -28.0176  -12.3844   18.6105 C   0  0  0  0  0  0
  -27.6662  -13.2037   19.8817 C   0  0  2  0  0  0
  -28.7005  -12.9516   21.0022 C   0  0  0  0  0  0
  -25.2612  -13.8159   20.5667 C   0  0  0  0  0  0
  -24.1855  -13.0441   20.9149 C   0  0  0  0  0  0
  -24.6402  -11.6909   20.8709 C   0  0  0  0  0  0
  -23.9056  -10.4305   21.0378 C   0  0  0  0  0  0
  -24.3612   -9.4231   21.9169 C   0  0  0  0  0  0
  -23.6305   -8.2254   22.0741 C   0  0  0  0  0  0
  -22.4285   -8.0285   21.3536 C   0  0  0  0  0  0
  -21.9909   -9.0252   20.4640 C   0  0  0  0  0  0
  -22.7216  -10.2142   20.3044 C   0  0  0  0  0  0
  -21.6862   -6.0746   22.5278 C   0  0  0  0  0  0
  -21.4018   -6.5649   23.8210 C   0  0  0  0  0  0
  -21.3658   -5.6796   24.9167 C   0  0  0  0  0  0
  -21.6049   -4.3061   24.7208 C   0  0  0  0  0  0
  -21.8821   -3.8155   23.4330 C   0  0  0  0  0  0
  -21.9195   -4.6974   22.3393 C   0  0  0  0  0  0
  -22.7877  -13.5244   21.1824 C   0  0  0  0  0  0
  -22.1664   -4.2162   21.0967 F   0  0  0  0  0  0
  -21.5627   -3.4537   25.7717 F   0  0  0  0  0  0
  -30.0414  -13.2569   20.4709 N   0  0  0  0  0  0
  -26.3041  -12.9320   20.3361 N   0  0  0  0  0  0
  -25.9325  -11.6483   20.5731 N   0  0  0  0  0  0
  -22.0513  -12.8248   22.0387 N   0  0  0  0  0  0
  -25.4354  -15.1876   20.4107 N   0  0  0  0  0  0
  -31.7943  -14.6650   20.0908 O   0  0  0  0  0  0
  -21.6645   -6.8886   21.4239 O   0  0  0  0  0  0
  -22.3565  -14.5547   20.6659 O   0  0  0  0  0  0
  -24.6129  -31.8686   23.2118 C   0  0  0  0  0  0
  -25.9026  -32.4837   23.8398 C   0  0  1  0  0  0
  -27.2272  -27.4314   20.0921 C   0  0  0  0  0  0
  -25.5890  -33.8631   24.2324 N   0  0  0  0  0  0
  -23.3991  -30.4940   21.5516 C   0  0  2  0  0  0
  -24.8415  -28.9591   20.1138 C   0  0  0  0  0  0
  -22.7392  -29.4670   22.4990 C   0  0  0  0  0  0
  -18.0270  -28.1379   22.8487 C   0  0  0  0  0  0
  -24.1489  -36.7313   23.2645 C   0  0  0  0  0  0
  -25.9288  -30.8312   21.3667 C   0  0  0  0  0  0
  -26.0002  -29.4663   20.7111 C   0  0  0  0  0  0
  -27.1917  -28.7071   20.6997 C   0  0  0  0  0  0
  -26.0413  -26.9301   19.5030 C   0  0  0  0  0  0
  -24.8562  -27.6894   19.5104 C   0  0  0  0  0  0
  -23.6048  -29.8277   20.1648 C   0  0  0  0  0  0
  -25.4115  -36.3117   24.0337 C   0  0  1  0  0  0
  -20.5856  -28.3668   23.1315 C   0  0  2  0  0  0
  -20.6762  -26.9405   22.5413 C   0  0  0  0  0  0
  -19.5744  -26.6381   21.5210 C   0  0  0  0  0  0
  -18.1923  -26.7927   22.1618 C   0  0  0  0  0  0
  -19.1515  -28.8836   23.2898 C   0  0  0  0  0  0
  -18.9452  -30.1446   23.8910 C   0  0  0  0  0  0
  -17.6456  -30.6587   24.0564 C   0  0  0  0  0  0
  -25.9035  -34.9485   23.5129 C   0  0  0  0  0  0
  -16.5343  -29.9095   23.6329 C   0  0  0  0  0  0
  -16.7260  -28.6506   23.0351 C   0  0  0  0  0  0
  -26.4457  -31.6626   25.0732 C   0  0  0  0  0  0
  -25.3727  -31.3746   26.1491 C   0  0  0  0  0  0
  -27.0300  -30.3072   24.6125 C   0  0  0  0  0  0
  -27.6026  -32.4365   25.7481 C   0  0  0  0  0  0
  -27.5582  -37.1818   24.8465 C   0  0  0  0  0  0
  -21.4120  -29.3036   22.3720 N   0  0  0  0  0  0
  -26.4306  -37.3793   23.9398 N   0  0  0  0  0  0
  -24.6650  -31.0789   22.1014 N   0  0  0  0  0  0
  -23.4172  -28.8224   23.3031 O   0  0  0  0  0  0
  -28.4228  -26.7400   20.1061 O   0  0  0  0  0  0
  -26.5590  -34.8931   22.4687 O   0  0  0  0  0  0
  -23.5319  -32.1437   23.7512 O   0  0  0  0  0  0
  -30.3989  -17.2789   19.7732 C   0  0  0  0  0  0
  -29.9332  -16.7587   21.0097 C   0  0  0  0  0  0
  -29.5322  -19.3003   20.3170 C   0  0  0  0  0  0
  -28.2110  -24.2559   20.3503 C   0  0  0  0  0  0
  -28.6860  -21.6882   20.6327 C   0  0  0  0  0  0
  -28.5492  -25.4720   19.4492 C   0  0  0  0  0  0
  -28.5680  -22.9036   19.6825 C   0  0  1  0  0  0
  -30.1830  -18.5659   19.4260 N   0  0  0  0  0  0
  -29.2872  -17.6062   21.8579 N   0  0  0  0  0  0
  -29.0890  -18.8937   21.5160 N   0  0  0  0  0  0
  -30.0434  -15.3751   21.3229 N   0  0  0  0  0  0
  -29.2987  -20.5827   19.9018 N   0  0  0  0  0  0
  -27.5814  -22.5654   18.7204 O   0  0  0  0  0  0
  -31.4718  -12.3923   19.1318 H   0  0  0  0  0  0
  -30.3158  -11.2754   19.7989 H   0  0  0  0  0  0
  -29.7429  -11.8160   17.4136 H   0  0  0  0  0  0
  -29.6758  -13.5184   17.7977 H   0  0  0  0  0  0
  -27.8166  -11.3260   18.7825 H   0  0  0  0  0  0
  -27.3737  -12.6844   17.7817 H   0  0  0  0  0  0
  -27.7196  -14.2570   19.6050 H   0  0  0  0  0  0
  -28.6678  -11.9085   21.3204 H   0  0  0  0  0  0
  -28.4487  -13.5259   21.8951 H   0  0  0  0  0  0
  -25.2756   -9.5728   22.4737 H   0  0  0  0  0  0
  -24.0029   -7.4653   22.7468 H   0  0  0  0  0  0
  -21.0832   -8.8749   19.8963 H   0  0  0  0  0  0
  -22.3647  -10.9670   19.6158 H   0  0  0  0  0  0
  -21.2009   -7.6156   23.9715 H   0  0  0  0  0  0
  -21.1481   -6.0524   25.9075 H   0  0  0  0  0  0
  -22.0602   -2.7618   23.2812 H   0  0  0  0  0  0
  -22.4114  -11.9923   22.4807 H   0  0  0  0  0  0
  -21.1131  -13.1288   22.2558 H   0  0  0  0  0  0
  -24.6693  -15.8431   20.5184 H   0  0  0  0  0  0
  -26.2933  -15.6302   20.1086 H   0  0  0  0  0  0
  -26.7091  -32.5539   23.1152 H   0  0  0  0  0  0
  -25.0070  -33.9799   25.0490 H   0  0  0  0  0  0
  -22.6869  -31.3104   21.4159 H   0  0  0  0  0  0
  -23.3746  -35.9650   23.3339 H   0  0  0  0  0  0
  -24.3565  -36.8891   22.2048 H   0  0  0  0  0  0
  -23.7246  -37.6535   23.6633 H   0  0  0  0  0  0
  -26.0453  -31.5995   20.6018 H   0  0  0  0  0  0
  -26.8141  -30.8770   21.9899 H   0  0  0  0  0  0
  -28.0876  -29.0986   21.1612 H   0  0  0  0  0  0
  -26.0007  -25.9544   19.0429 H   0  0  0  0  0  0
  -23.9603  -27.2900   19.0546 H   0  0  0  0  0  0
  -23.7105  -30.6037   19.4047 H   0  0  0  0  0  0
  -22.7274  -29.2478   19.8728 H   0  0  0  0  0  0
  -25.1296  -36.1988   25.0831 H   0  0  0  0  0  0
  -20.9939  -28.3235   24.1440 H   0  0  0  0  0  0
  -20.5677  -26.2275   23.3596 H   0  0  0  0  0  0
  -21.6640  -26.7468   22.1202 H   0  0  0  0  0  0
  -19.6910  -25.6295   21.1243 H   0  0  0  0  0  0
  -19.6695  -27.3192   20.6742 H   0  0  0  0  0  0
  -17.4195  -26.6670   21.4020 H   0  0  0  0  0  0
  -18.0332  -26.0071   22.9018 H   0  0  0  0  0  0
  -19.7929  -30.7246   24.2288 H   0  0  0  0  0  0
  -17.5021  -31.6274   24.5161 H   0  0  0  0  0  0
  -15.5346  -30.3003   23.7651 H   0  0  0  0  0  0
  -15.8656  -28.0829   22.7066 H   0  0  0  0  0  0
  -24.5842  -30.7169   25.7820 H   0  0  0  0  0  0
  -24.8999  -32.2927   26.4993 H   0  0  0  0  0  0
  -25.8072  -30.8851   27.0215 H   0  0  0  0  0  0
  -26.2862  -29.6832   24.1165 H   0  0  0  0  0  0
  -27.4056  -29.7313   25.4589 H   0  0  0  0  0  0
  -27.8694  -30.4395   23.9295 H   0  0  0  0  0  0
  -27.2620  -33.3633   26.2104 H   0  0  0  0  0  0
  -28.3795  -32.6988   25.0290 H   0  0  0  0  0  0
  -28.0745  -31.8485   26.5359 H   0  0  0  0  0  0
  -28.2626  -38.0091   24.7490 H   0  0  0  0  0  0
  -28.1056  -36.2624   24.6331 H   0  0  0  0  0  0
  -27.2294  -37.1518   25.8867 H   0  0  0  0  0  0
  -20.9269  -29.8750   21.6939 H   0  0  0  0  0  0
  -26.0201  -38.2882   24.1372 H   0  0  0  0  0  0
  -30.8970  -16.6770   19.0307 H   0  0  0  0  0  0
  -27.1640  -24.2738   20.6521 H   0  0  0  0  0  0
  -28.7905  -24.3545   21.2685 H   0  0  0  0  0  0
  -27.7130  -21.3974   21.0337 H   0  0  0  0  0  0
  -29.3227  -21.9378   21.4830 H   0  0  0  0  0  0
  -28.0097  -25.4371   18.5029 H   0  0  0  0  0  0
  -29.6003  -25.3980   19.1696 H   0  0  0  0  0  0
  -29.5250  -23.0273   19.1725 H   0  0  0  0  0  0
  -29.3248  -15.0235   21.9356 H   0  0  0  0  0  0
  -29.5548  -20.7674   18.9430 H   0  0  0  0  0  0
  -27.6599  -23.1631   17.9831 H   0  0  0  0  0  0
  1 25  1  0  0  0
  1 30  2  0  0  0
  1 81  1  0  0  0
  2  3  1  0  0  0
  2 25  1  0  0  0
  2 84  1  0  0  0
  2 85  1  0  0  0
  3  4  1  0  0  0
  3 86  1  0  0  0
  3 87  1  0  0  0
  4  5  1  0  0  0
  4 88  1  0  0  0
  4 89  1  0  0  0
  5  6  1  0  0  0
  5 26  1  0  0  0
  5 90  1  0  0  0
  6 25  1  0  0  0
  6 91  1  0  0  0
  6 92  1  0  0  0
  7  8  2  0  0  0
  7 26  1  0  0  0
  7 29  1  0  0  0
  8  9  1  0  0  0
  8 22  1  0  0  0
  9 10  1  0  0  0
  9 27  2  0  0  0
 10 11  2  0  0  0
 10 15  1  0  0  0
 11 12  1  0  0  0
 11 93  1  0  0  0
 12 13  2  0  0  0
 12 94  1  0  0  0
 13 14  1  0  0  0
 13 31  1  0  0  0
 14 15  2  0  0  0
 14 95  1  0  0  0
 15 96  1  0  0  0
 16 17  2  0  0  0
 16 21  1  0  0  0
 16 31  1  0  0  0
 17 18  1  0  0  0
 17 97  1  0  0  0
 18 19  2  0  0  0
 18 98  1  0  0  0
 19 20  1  0  0  0
 19 24  1  0  0  0
 20 21  2  0  0  0
 20 99  1  0  0  0
 21 23  1  0  0  0
 22 28  1  0  0  0
 22 32  2  0  0  0
 26 27  1  0  0  0
 28100  1  0  0  0
 28101  1  0  0  0
 29102  1  0  0  0
 29103  1  0  0  0
 33 34  1  0  0  0
 33 66  1  0  0  0
 33 70  2  0  0  0
 34 36  1  0  0  0
 34 59  1  0  0  0
 34104  1  0  0  0
 35 44  2  0  0  0
 35 45  1  0  0  0
 35 68  1  0  0  0
 36 56  1  0  0  0
 36105  1  0  0  0
 37 39  1  0  0  0
 37 47  1  0  0  0
 37 66  1  0  0  0
 37106  1  0  0  0
 38 43  2  0  0  0
 38 46  1  0  0  0
 38 47  1  0  0  0
 39 64  1  0  0  0
 39 67  2  0  0  0
 40 52  1  0  0  0
 40 53  2  0  0  0
 40 58  1  0  0  0
 41107  1  0  0  0
 41108  1  0  0  0
 41109  1  0  0  0
 41 48  1  0  0  0
 42 43  1  0  0  0
 42 66  1  0  0  0
 42110  1  0  0  0
 42111  1  0  0  0
 43 44  1  0  0  0
 44112  1  0  0  0
 45 46  2  0  0  0
 45113  1  0  0  0
 46114  1  0  0  0
 47115  1  0  0  0
 47116  1  0  0  0
 48 56  1  0  0  0
 48 65  1  0  0  0
 48117  1  0  0  0
 49 50  1  0  0  0
 49 53  1  0  0  0
 49 64  1  0  0  0
 49118  1  0  0  0
 50 51  1  0  0  0
 50119  1  0  0  0
 50120  1  0  0  0
 51 52  1  0  0  0
 51121  1  0  0  0
 51122  1  0  0  0
 52123  1  0  0  0
 52124  1  0  0  0
 53 54  1  0  0  0
 54 55  2  0  0  0
 54125  1  0  0  0
 55 57  1  0  0  0
 55126  1  0  0  0
 56 69  2  0  0  0
 57 58  2  0  0  0
 57127  1  0  0  0
 58128  1  0  0  0
 59 60  1  0  0  0
 59 61  1  0  0  0
 59 62  1  0  0  0
 60129  1  0  0  0
 60130  1  0  0  0
 60131  1  0  0  0
 61132  1  0  0  0
 61133  1  0  0  0
 61134  1  0  0  0
 62135  1  0  0  0
 62136  1  0  0  0
 62137  1  0  0  0
 63 65  1  0  0  0
 63138  1  0  0  0
 63139  1  0  0  0
 63140  1  0  0  0
 64141  1  0  0  0
 65142  1  0  0  0
 68 76  1  0  0  0
 71 72  2  0  0  0
 71 78  1  0  0  0
 71143  1  0  0  0
 72 79  1  0  0  0
 72 81  1  0  0  0
 73 78  2  0  0  0
 73 80  1  0  0  0
 73 82  1  0  0  0
 74 76  1  0  0  0
 74 77  1  0  0  0
 74144  1  0  0  0
 74145  1  0  0  0
 75 77  1  0  0  0
 75 82  1  0  0  0
 75146  1  0  0  0
 75147  1  0  0  0
 76148  1  0  0  0
 76149  1  0  0  0
 77 83  1  0  0  0
 77150  1  0  0  0
 79 80  2  0  0  0
 81151  1  0  0  0
 82152  1  0  0  0
 83153  1  0  0  0
M  ISO  4   1 100  68 101  76 101  81 100
M  END
> <chiral flag>
0

> <version>
0

> <s_m_source_file>
/data/baiqing/PycharmProjects/Reinvent-master-3.2/result/LINK_invent/BTK/process_docking_weight1_custom_product_contain_oxygen_bond_distance_aromatic_linkinvent_7_9_3/rearranged_h_0198.sdf

> <i_m_source_file_index>
79

> <r_mmod_Potential_Energy-OPLS-2005>
-383.395263671875

> <r_mmod_Stretch_Energy-OPLS-2005>
37.4186553955078

> <r_mmod_Bend_Energy-OPLS-2005>
121.814331054688

> <r_mmod_Torsional_Energy-OPLS-2005>
224.509384155273

> <r_mmod_Improper_Torsional_Energy-OPLS-2005>
3.66747903823853

> <r_mmod_Van_der_Waal_Energy-OPLS-2005>
171.044906616211

> <r_mmod_Electrostatic_Energy-OPLS-2005>
-703.561584472656

> <r_mmod_Solvation_Energy-OPLS-2005>
-248.826782226562

> <b_mmod_Minimization_Converged-OPLS-2005>
0

> <r_mmod_RMS_Derivative-OPLS-2005>
2.16504049301147

$$$$
79
                    3D
 Structure written by MMmdl.
160168  0  0  1  0            999 V2000
  -30.7042  -14.4429   20.5890 C   0  0  0  0  0  0
  -30.4238  -12.2932   19.4178 C   0  0  0  0  0  0
  -29.4954  -12.5114   18.2053 C   0  0  0  0  0  0
  -28.0155  -12.3739   18.6153 C   0  0  0  0  0  0
  -27.6654  -13.2031   19.8797 C   0  0  2  0  0  0
  -28.7043  -12.9595   20.9981 C   0  0  0  0  0  0
  -25.2604  -13.8154   20.5680 C   0  0  0  0  0  0
  -24.1845  -13.0437   20.9171 C   0  0  0  0  0  0
  -24.6390  -11.6901   20.8728 C   0  0  0  0  0  0
  -23.9057  -10.4290   21.0404 C   0  0  0  0  0  0
  -24.3613   -9.4207   21.9180 C   0  0  0  0  0  0
  -23.6290   -8.2242   22.0748 C   0  0  0  0  0  0
  -22.4272   -8.0283   21.3546 C   0  0  0  0  0  0
  -21.9903   -9.0258   20.4652 C   0  0  0  0  0  0
  -22.7228  -10.2137   20.3057 C   0  0  0  0  0  0
  -21.6854   -6.0735   22.5280 C   0  0  0  0  0  0
  -21.4014   -6.5635   23.8216 C   0  0  0  0  0  0
  -21.3658   -5.6788   24.9177 C   0  0  0  0  0  0
  -21.6045   -4.3051   24.7226 C   0  0  0  0  0  0
  -21.8818   -3.8145   23.4344 C   0  0  0  0  0  0
  -21.9194   -4.6963   22.3404 C   0  0  0  0  0  0
  -22.7871  -13.5246   21.1846 C   0  0  0  0  0  0
  -22.1663   -4.2151   21.0978 F   0  0  0  0  0  0
  -21.5631   -3.4533   25.7735 F   0  0  0  0  0  0
  -30.0411  -13.2632   20.4551 N   0  0  0  0  0  0
  -26.3038  -12.9317   20.3371 N   0  0  0  0  0  0
  -25.9315  -11.6477   20.5752 N   0  0  0  0  0  0
  -22.0510  -12.8249   22.0406 N   0  0  0  0  0  0
  -25.4349  -15.1868   20.4092 N   0  0  0  0  0  0
  -31.8167  -14.6459   20.0931 O   0  0  0  0  0  0
  -21.6636   -6.8879   21.4241 O   0  0  0  0  0  0
  -22.3560  -14.5559   20.6700 O   0  0  0  0  0  0
  -24.6127  -31.8697   23.2107 C   0  0  0  0  0  0
  -25.9024  -32.4834   23.8405 C   0  0  1  0  0  0
  -27.2354  -27.4470   20.1007 C   0  0  0  0  0  0
  -25.5884  -33.8632   24.2329 N   0  0  0  0  0  0
  -23.4010  -30.4926   21.5510 C   0  0  2  0  0  0
  -24.8497  -28.9612   20.1143 C   0  0  0  0  0  0
  -22.7406  -29.4667   22.4996 C   0  0  0  0  0  0
  -18.0272  -28.1382   22.8489 C   0  0  0  0  0  0
  -24.1484  -36.7319   23.2631 C   0  0  0  0  0  0
  -25.9294  -30.8392   21.3638 C   0  0  0  0  0  0
  -26.0090  -29.4750   20.7103 C   0  0  0  0  0  0
  -27.2079  -28.7266   20.6977 C   0  0  0  0  0  0
  -26.0640  -26.9494   19.4900 C   0  0  0  0  0  0
  -24.8718  -27.6971   19.4993 C   0  0  0  0  0  0
  -23.6094  -29.8245   20.1658 C   0  0  0  0  0  0
  -25.4094  -36.3117   24.0343 C   0  0  1  0  0  0
  -20.5862  -28.3668   23.1326 C   0  0  2  0  0  0
  -20.6758  -26.9402   22.5429 C   0  0  0  0  0  0
  -19.5743  -26.6389   21.5218 C   0  0  0  0  0  0
  -18.1919  -26.7929   22.1619 C   0  0  0  0  0  0
  -19.1521  -28.8839   23.2905 C   0  0  0  0  0  0
  -18.9449  -30.1446   23.8913 C   0  0  0  0  0  0
  -17.6453  -30.6585   24.0568 C   0  0  0  0  0  0
  -25.9031  -34.9486   23.5134 C   0  0  0  0  0  0
  -16.5344  -29.9090   23.6327 C   0  0  0  0  0  0
  -16.7262  -28.6510   23.0339 C   0  0  0  0  0  0
  -26.4445  -31.6613   25.0737 C   0  0  0  0  0  0
  -25.3709  -31.3759   26.1501 C   0  0  0  0  0  0
  -27.0250  -30.3040   24.6125 C   0  0  0  0  0  0
  -27.6051  -32.4315   25.7463 C   0  0  0  0  0  0
  -27.5606  -37.1770   24.8431 C   0  0  0  0  0  0
  -21.4135  -29.3033   22.3729 N   0  0  0  0  0  0
  -26.4269  -37.3816   23.9453 N   0  0  0  0  0  0
  -24.6657  -31.0809   22.1002 N   0  0  0  0  0  0
  -23.4180  -28.8212   23.3039 O   0  0  0  0  0  0
  -28.3870  -26.6926   20.1046 O   0  0  0  0  0  0
  -26.5602  -34.8937   22.4701 O   0  0  0  0  0  0
  -23.5322  -32.1442   23.7505 O   0  0  0  0  0  0
  -31.2484  -17.4967   20.6389 C   0  0  0  0  0  0
  -30.1602  -16.7624   21.0714 C   0  0  0  0  0  0
  -29.8055  -19.2198   20.9554 C   0  0  0  0  0  0
  -30.1142  -21.7608   18.9719 C   0  0  0  0  0  0
  -31.6048  -22.4734   16.9988 C   0  0  0  0  0  0
  -31.5031  -22.2076   18.5100 C   0  0  0  0  0  0
  -28.8934  -22.9755   20.8528 C   0  0  0  0  0  0
  -28.2795  -25.4706   20.8515 C   0  0  0  0  0  0
  -29.8456  -21.8002   20.4863 C   0  0  1  0  0  0
  -29.3170  -24.4074   20.4119 C   0  0  1  0  0  0
  -31.0357  -18.8816   20.5753 N   0  0  0  0  0  0
  -30.0087  -15.4131   21.2112 N   0  0  0  0  0  0
  -29.3099  -20.5190   20.9573 N   0  0  0  0  0  0
  -29.2648  -21.3874   18.1578 O   0  0  0  0  0  0
  -30.5703  -24.7104   21.0047 O   0  0  0  0  0  0
  -28.8311  -17.8405   21.4536 S   0  0  0  0  0  0
  -31.4687  -12.3905   19.1178 H   0  0  0  0  0  0
  -30.3198  -11.2768   19.8008 H   0  0  0  0  0  0
  -29.7324  -11.7969   17.4156 H   0  0  0  0  0  0
  -29.6690  -13.5023   17.7829 H   0  0  0  0  0  0
  -27.8203  -11.3174   18.8009 H   0  0  0  0  0  0
  -27.3678  -12.6615   17.7864 H   0  0  0  0  0  0
  -27.7182  -14.2546   19.5963 H   0  0  0  0  0  0
  -28.6726  -11.9170   21.3193 H   0  0  0  0  0  0
  -28.4611  -13.5394   21.8892 H   0  0  0  0  0  0
  -25.2761   -9.5680   22.4748 H   0  0  0  0  0  0
  -24.0007   -7.4626   22.7454 H   0  0  0  0  0  0
  -21.0837   -8.8781   19.8956 H   0  0  0  0  0  0
  -22.3692  -10.9679   19.6165 H   0  0  0  0  0  0
  -21.2007   -7.6144   23.9718 H   0  0  0  0  0  0
  -21.1481   -6.0516   25.9080 H   0  0  0  0  0  0
  -22.0598   -2.7606   23.2843 H   0  0  0  0  0  0
  -22.4116  -11.9906   22.4796 H   0  0  0  0  0  0
  -21.1132  -13.1290   22.2617 H   0  0  0  0  0  0
  -24.6702  -15.8448   20.5164 H   0  0  0  0  0  0
  -26.2913  -15.6233   20.0918 H   0  0  0  0  0  0
  -26.7106  -32.5550   23.1185 H   0  0  0  0  0  0
  -25.0012  -33.9796   25.0457 H   0  0  0  0  0  0
  -22.6888  -31.3087   21.4125 H   0  0  0  0  0  0
  -23.3772  -35.9619   23.3217 H   0  0  0  0  0  0
  -24.3612  -36.9008   22.2065 H   0  0  0  0  0  0
  -23.7187  -37.6482   23.6688 H   0  0  0  0  0  0
  -26.0435  -31.6070   20.5972 H   0  0  0  0  0  0
  -26.8159  -30.8899   21.9846 H   0  0  0  0  0  0
  -28.1038  -29.1191   21.1583 H   0  0  0  0  0  0
  -26.0717  -25.9821   19.0074 H   0  0  0  0  0  0
  -23.9825  -27.2981   19.0312 H   0  0  0  0  0  0
  -23.7134  -30.5985   19.4044 H   0  0  0  0  0  0
  -22.7346  -29.2405   19.8736 H   0  0  0  0  0  0
  -25.1251  -36.1966   25.0829 H   0  0  0  0  0  0
  -20.9957  -28.3238   24.1445 H   0  0  0  0  0  0
  -20.5653  -26.2277   23.3617 H   0  0  0  0  0  0
  -21.6632  -26.7443   22.1234 H   0  0  0  0  0  0
  -19.6903  -25.6301   21.1247 H   0  0  0  0  0  0
  -19.6689  -27.3203   20.6750 H   0  0  0  0  0  0
  -17.4194  -26.6688   21.4012 H   0  0  0  0  0  0
  -18.0309  -26.0067   22.9011 H   0  0  0  0  0  0
  -19.7928  -30.7258   24.2287 H   0  0  0  0  0  0
  -17.5011  -31.6266   24.5173 H   0  0  0  0  0  0
  -15.5344  -30.2995   23.7642 H   0  0  0  0  0  0
  -15.8664  -28.0840   22.7033 H   0  0  0  0  0  0
  -24.5850  -30.7134   25.7856 H   0  0  0  0  0  0
  -24.8934  -32.2937   26.4947 H   0  0  0  0  0  0
  -25.8048  -30.8927   27.0264 H   0  0  0  0  0  0
  -26.2796  -29.6834   24.1141 H   0  0  0  0  0  0
  -27.3957  -29.7252   25.4595 H   0  0  0  0  0  0
  -27.8663  -30.4338   23.9314 H   0  0  0  0  0  0
  -27.2704  -33.3605   26.2088 H   0  0  0  0  0  0
  -28.3811  -32.6889   25.0244 H   0  0  0  0  0  0
  -28.0777  -31.8413   26.5324 H   0  0  0  0  0  0
  -28.2522  -38.0170   24.7654 H   0  0  0  0  0  0
  -28.1202  -36.2721   24.6003 H   0  0  0  0  0  0
  -27.2378  -37.1127   25.8838 H   0  0  0  0  0  0
  -20.9292  -29.8750   21.6950 H   0  0  0  0  0  0
  -26.0155  -38.2869   24.1558 H   0  0  0  0  0  0
  -32.2175  -17.1228   20.3397 H   0  0  0  0  0  0
  -32.6007  -22.8320   16.7383 H   0  0  0  0  0  0
  -30.8869  -23.2309   16.6811 H   0  0  0  0  0  0
  -31.4182  -21.5678   16.4204 H   0  0  0  0  0  0
  -32.2200  -21.4398   18.8018 H   0  0  0  0  0  0
  -31.7701  -23.1101   19.0599 H   0  0  0  0  0  0
  -28.7373  -22.9743   21.9326 H   0  0  0  0  0  0
  -27.9128  -22.7690   20.4190 H   0  0  0  0  0  0
  -28.3708  -25.6873   21.9174 H   0  0  0  0  0  0
  -27.2876  -25.0342   20.7276 H   0  0  0  0  0  0
  -30.7973  -21.9551   20.9968 H   0  0  0  0  0  0
  -29.4114  -24.4440   19.3256 H   0  0  0  0  0  0
  -29.1381  -15.1044   21.6166 H   0  0  0  0  0  0
  -28.3276  -20.5576   21.2053 H   0  0  0  0  0  0
  -30.4354  -24.8183   21.9415 H   0  0  0  0  0  0
  1 25  1  0  0  0
  1 30  2  0  0  0
  1 82  1  0  0  0
  2  3  1  0  0  0
  2 25  1  0  0  0
  2 87  1  0  0  0
  2 88  1  0  0  0
  3  4  1  0  0  0
  3 89  1  0  0  0
  3 90  1  0  0  0
  4  5  1  0  0  0
  4 91  1  0  0  0
  4 92  1  0  0  0
  5  6  1  0  0  0
  5 26  1  0  0  0
  5 93  1  0  0  0
  6 25  1  0  0  0
  6 94  1  0  0  0
  6 95  1  0  0  0
  7  8  2  0  0  0
  7 26  1  0  0  0
  7 29  1  0  0  0
  8  9  1  0  0  0
  8 22  1  0  0  0
  9 10  1  0  0  0
  9 27  2  0  0  0
 10 11  2  0  0  0
 10 15  1  0  0  0
 11 12  1  0  0  0
 11 96  1  0  0  0
 12 13  2  0  0  0
 12 97  1  0  0  0
 13 14  1  0  0  0
 13 31  1  0  0  0
 14 15  2  0  0  0
 14 98  1  0  0  0
 15 99  1  0  0  0
 16 17  2  0  0  0
 16 21  1  0  0  0
 16 31  1  0  0  0
 17 18  1  0  0  0
 17100  1  0  0  0
 18 19  2  0  0  0
 18101  1  0  0  0
 19 20  1  0  0  0
 19 24  1  0  0  0
 20 21  2  0  0  0
 20102  1  0  0  0
 21 23  1  0  0  0
 22 28  1  0  0  0
 22 32  2  0  0  0
 26 27  1  0  0  0
 28103  1  0  0  0
 28104  1  0  0  0
 29105  1  0  0  0
 29106  1  0  0  0
 33 34  1  0  0  0
 33 66  1  0  0  0
 33 70  2  0  0  0
 34 36  1  0  0  0
 34 59  1  0  0  0
 34107  1  0  0  0
 35 44  2  0  0  0
 35 45  1  0  0  0
 35 68  1  0  0  0
 36 56  1  0  0  0
 36108  1  0  0  0
 37 39  1  0  0  0
 37 47  1  0  0  0
 37 66  1  0  0  0
 37109  1  0  0  0
 38 43  2  0  0  0
 38 46  1  0  0  0
 38 47  1  0  0  0
 39 64  1  0  0  0
 39 67  2  0  0  0
 40 52  1  0  0  0
 40 53  2  0  0  0
 40 58  1  0  0  0
 41110  1  0  0  0
 41111  1  0  0  0
 41112  1  0  0  0
 41 48  1  0  0  0
 42 43  1  0  0  0
 42 66  1  0  0  0
 42113  1  0  0  0
 42114  1  0  0  0
 43 44  1  0  0  0
 44115  1  0  0  0
 45 46  2  0  0  0
 45116  1  0  0  0
 46117  1  0  0  0
 47118  1  0  0  0
 47119  1  0  0  0
 48 56  1  0  0  0
 48 65  1  0  0  0
 48120  1  0  0  0
 49 50  1  0  0  0
 49 53  1  0  0  0
 49 64  1  0  0  0
 49121  1  0  0  0
 50 51  1  0  0  0
 50122  1  0  0  0
 50123  1  0  0  0
 51 52  1  0  0  0
 51124  1  0  0  0
 51125  1  0  0  0
 52126  1  0  0  0
 52127  1  0  0  0
 53 54  1  0  0  0
 54 55  2  0  0  0
 54128  1  0  0  0
 55 57  1  0  0  0
 55129  1  0  0  0
 56 69  2  0  0  0
 57 58  2  0  0  0
 57130  1  0  0  0
 58131  1  0  0  0
 59 60  1  0  0  0
 59 61  1  0  0  0
 59 62  1  0  0  0
 60132  1  0  0  0
 60133  1  0  0  0
 60134  1  0  0  0
 61135  1  0  0  0
 61136  1  0  0  0
 61137  1  0  0  0
 62138  1  0  0  0
 62139  1  0  0  0
 62140  1  0  0  0
 63 65  1  0  0  0
 63141  1  0  0  0
 63142  1  0  0  0
 63143  1  0  0  0
 64144  1  0  0  0
 65145  1  0  0  0
 68 78  1  0  0  0
 71 72  2  0  0  0
 71 81  1  0  0  0
 71146  1  0  0  0
 72 82  1  0  0  0
 72 86  1  0  0  0
 73 81  2  0  0  0
 73 83  1  0  0  0
 73 86  1  0  0  0
 74 76  1  0  0  0
 74 79  1  0  0  0
 74 84  2  0  0  0
 75 76  1  0  0  0
 75147  1  0  0  0
 75148  1  0  0  0
 75149  1  0  0  0
 76150  1  0  0  0
 76151  1  0  0  0
 77 80  1  0  0  0
 77152  1  0  0  0
 77153  1  0  0  0
 77 79  1  0  0  0
 78 80  1  0  0  0
 78154  1  0  0  0
 78155  1  0  0  0
 79 83  1  0  0  0
 79156  1  0  0  0
 80 85  1  0  0  0
 80157  1  0  0  0
 82158  1  0  0  0
 83159  1  0  0  0
 85160  1  0  0  0
M  ISO  4   1 100  68 101  78 101  82 100
M  END
> <chiral flag>
0

> <version>
0

> <s_m_source_file>
/data/baiqing/PycharmProjects/Reinvent-master-3.2/result/LINK_invent/BTK/process_docking_weight1_custom_product_contain_oxygen_bond_distance_aromatic_linkinvent_7_9_3/rearranged_h_0198.sdf

> <i_m_source_file_index>
80

> <r_mmod_Potential_Energy-OPLS-2005>
-168.403350830078

> <r_mmod_Stretch_Energy-OPLS-2005>
35.2907943725586

> <r_mmod_Bend_Energy-OPLS-2005>
92.697151184082

> <r_mmod_Torsional_Energy-OPLS-2005>
225.024017333984

> <r_mmod_Improper_Torsional_Energy-OPLS-2005>
3.79936099052429

> <r_mmod_Van_der_Waal_Energy-OPLS-2005>
130.212127685547

> <r_mmod_Electrostatic_Energy-OPLS-2005>
-415.435333251953

> <r_mmod_Solvation_Energy-OPLS-2005>
-250.441619873047

> <b_mmod_Minimization_Converged-OPLS-2005>
0

> <r_mmod_RMS_Derivative-OPLS-2005>
0.852486491203308

$$$$
80
                    3D
 Structure written by MMmdl.
166174  0  0  1  0            999 V2000
  -30.5474  -15.1990   20.3869 C   0  0  0  0  0  0
  -30.4231  -12.7821   19.4846 C   0  0  0  0  0  0
  -29.5169  -12.5568   18.2562 C   0  0  0  0  0  0
  -28.0676  -12.2947   18.6983 C   0  0  0  0  0  0
  -27.6062  -13.2759   19.8040 C   0  0  2  0  0  0
  -28.6551  -13.4642   20.9198 C   0  0  0  0  0  0
  -25.2409  -13.8253   20.5766 C   0  0  0  0  0  0
  -24.1744  -13.0470   20.9276 C   0  0  0  0  0  0
  -24.6377  -11.6951   20.8773 C   0  0  0  0  0  0
  -23.9051  -10.4318   21.0407 C   0  0  0  0  0  0
  -24.3599   -9.4234   21.9181 C   0  0  0  0  0  0
  -23.6284   -8.2266   22.0746 C   0  0  0  0  0  0
  -22.4270   -8.0283   21.3549 C   0  0  0  0  0  0
  -21.9906   -9.0244   20.4642 C   0  0  0  0  0  0
  -22.7225  -10.2133   20.3048 C   0  0  0  0  0  0
  -21.6860   -6.0720   22.5273 C   0  0  0  0  0  0
  -21.4024   -6.5621   23.8209 C   0  0  0  0  0  0
  -21.3671   -5.6768   24.9172 C   0  0  0  0  0  0
  -21.6050   -4.3028   24.7217 C   0  0  0  0  0  0
  -21.8824   -3.8125   23.4333 C   0  0  0  0  0  0
  -21.9191   -4.6947   22.3391 C   0  0  0  0  0  0
  -22.7747  -13.5235   21.1872 C   0  0  0  0  0  0
  -22.1651   -4.2138   21.0966 F   0  0  0  0  0  0
  -21.5638   -3.4504   25.7727 F   0  0  0  0  0  0
  -29.8721  -13.9568   20.2506 N   0  0  0  0  0  0
  -26.2811  -12.9522   20.3188 N   0  0  0  0  0  0
  -25.9324  -11.6640   20.5729 N   0  0  0  0  0  0
  -22.0315  -12.8291   22.0413 N   0  0  0  0  0  0
  -25.4105  -15.1980   20.4231 N   0  0  0  0  0  0
  -31.7736  -15.0163   20.3565 O   0  0  0  0  0  0
  -21.6640   -6.8874   21.4246 O   0  0  0  0  0  0
  -22.3455  -14.5506   20.6628 O   0  0  0  0  0  0
  -24.6593  -31.8250   23.1739 C   0  0  0  0  0  0
  -25.9299  -32.4584   23.8193 C   0  0  1  0  0  0
  -27.2086  -26.9705   20.1726 C   0  0  0  0  0  0
  -25.5992  -33.8403   24.2086 N   0  0  0  0  0  0
  -23.4680  -30.4385   21.5238 C   0  0  2  0  0  0
  -24.9181  -28.8324   20.1143 C   0  0  0  0  0  0
  -22.7621  -29.4473   22.4829 C   0  0  0  0  0  0
  -18.0298  -28.1391   22.8475 C   0  0  0  0  0  0
  -24.1489  -36.7212   23.2645 C   0  0  0  0  0  0
  -26.0363  -30.6450   21.3950 C   0  0  0  0  0  0
  -26.1015  -29.2391   20.7437 C   0  0  0  0  0  0
  -27.2452  -28.3290   20.7480 C   0  0  0  0  0  0
  -25.9942  -26.7010   19.5052 C   0  0  0  0  0  0
  -24.8848  -27.5811   19.4783 C   0  0  0  0  0  0
  -23.6996  -29.7484   20.1508 C   0  0  0  0  0  0
  -25.4131  -36.2965   24.0293 C   0  0  1  0  0  0
  -20.5929  -28.3739   23.1208 C   0  0  2  0  0  0
  -20.6787  -26.9431   22.5404 C   0  0  0  0  0  0
  -19.5757  -26.6375   21.5211 C   0  0  0  0  0  0
  -18.1932  -26.7925   22.1608 C   0  0  0  0  0  0
  -19.1556  -28.8885   23.2825 C   0  0  0  0  0  0
  -18.9470  -30.1479   23.8862 C   0  0  0  0  0  0
  -17.6468  -30.6610   24.0534 C   0  0  0  0  0  0
  -25.9096  -34.9352   23.4998 C   0  0  0  0  0  0
  -16.5360  -29.9086   23.6361 C   0  0  0  0  0  0
  -16.7275  -28.6488   23.0405 C   0  0  0  0  0  0
  -26.4583  -31.6535   25.0708 C   0  0  0  0  0  0
  -25.3717  -31.3783   26.1364 C   0  0  0  0  0  0
  -27.0458  -30.2900   24.6410 C   0  0  0  0  0  0
  -27.6054  -32.4355   25.7514 C   0  0  0  0  0  0
  -27.5572  -37.1768   24.8465 C   0  0  0  0  0  0
  -21.4305  -29.3038   22.3585 N   0  0  0  0  0  0
  -26.4285  -37.3700   23.9395 N   0  0  0  0  0  0
  -24.7435  -30.9968   22.0822 N   0  0  0  0  0  0
  -23.4194  -28.8025   23.3043 O   0  0  0  0  0  0
  -28.2264  -25.8985   20.2272 O   0  0  0  0  0  0
  -26.5696  -34.8877   22.4587 O   0  0  0  0  0  0
  -23.5685  -32.1191   23.6883 O   0  0  0  0  0  0
  -33.6205  -18.5629   20.4399 C   0  0  0  0  0  0
  -34.3591  -19.1589   19.3979 C   0  0  0  0  0  0
  -32.0408  -17.7959   18.9095 C   0  0  0  0  0  0
  -32.8231  -18.3793   17.8625 C   0  0  0  0  0  0
  -29.7065  -17.4841   17.6672 C   0  0  0  0  0  0
  -29.9670  -23.1948   21.4103 C   0  0  0  0  0  0
  -28.6299  -21.1202   20.3485 C   0  0  0  0  0  0
  -29.3532  -17.9049   20.5858 C   0  0  0  0  0  0
  -27.9484  -24.2929   20.1697 C   0  0  0  0  0  0
  -30.7457  -16.9588   18.6941 C   0  0  2  0  0  0
  -29.0011  -22.8650   20.2639 C   0  0  1  0  0  0
  -29.6475  -19.6573   20.3019 C   0  0  2  0  0  0
  -32.4746  -17.8912   20.1944 N   0  0  0  0  0  0
  -33.9605  -19.0643   18.1074 N   0  0  0  0  0  0
  -32.5194  -18.2889   16.5122 N   0  0  0  0  0  0
  -30.0473  -16.5348   19.9467 N   0  0  0  0  0  0
  -30.5468  -19.9701   21.3423 O   0  0  0  0  0  0
  -31.4440  -12.9589   19.1413 H   0  0  0  0  0  0
  -30.4760  -11.8836   20.1038 H   0  0  0  0  0  0
  -29.8871  -11.7259   17.6538 H   0  0  0  0  0  0
  -29.5446  -13.4383   17.6133 H   0  0  0  0  0  0
  -28.0211  -11.2724   19.0767 H   0  0  0  0  0  0
  -27.3967  -12.3407   17.8377 H   0  0  0  0  0  0
  -27.5157  -14.2404   19.2984 H   0  0  0  0  0  0
  -28.8276  -12.5375   21.4705 H   0  0  0  0  0  0
  -28.3056  -14.2002   21.6451 H   0  0  0  0  0  0
  -25.2743   -9.5711   22.4779 H   0  0  0  0  0  0
  -23.9988   -7.4657   22.7464 H   0  0  0  0  0  0
  -21.0843   -8.8764   19.8940 H   0  0  0  0  0  0
  -22.3683  -10.9668   19.6156 H   0  0  0  0  0  0
  -21.2023   -7.6126   23.9723 H   0  0  0  0  0  0
  -21.1490   -6.0480   25.9076 H   0  0  0  0  0  0
  -22.0597   -2.7586   23.2819 H   0  0  0  0  0  0
  -22.3849  -12.0030   22.5012 H   0  0  0  0  0  0
  -21.0884  -13.1359   22.2419 H   0  0  0  0  0  0
  -24.6518  -15.8584   20.5472 H   0  0  0  0  0  0
  -26.2695  -15.6379   20.1186 H   0  0  0  0  0  0
  -26.7358  -32.5107   23.0910 H   0  0  0  0  0  0
  -25.0143  -33.9477   25.0239 H   0  0  0  0  0  0
  -22.7816  -31.2710   21.3568 H   0  0  0  0  0  0
  -23.3758  -35.9538   23.3273 H   0  0  0  0  0  0
  -24.3586  -36.8878   22.2069 H   0  0  0  0  0  0
  -23.7249  -37.6391   23.6718 H   0  0  0  0  0  0
  -26.2108  -31.3871   20.6132 H   0  0  0  0  0  0
  -26.9010  -30.7012   22.0465 H   0  0  0  0  0  0
  -28.1459  -28.6369   21.2608 H   0  0  0  0  0  0
  -25.8723  -25.7449   19.0168 H   0  0  0  0  0  0
  -23.9814  -27.2661   18.9749 H   0  0  0  0  0  0
  -23.8342  -30.5095   19.3811 H   0  0  0  0  0  0
  -22.8102  -29.1890   19.8500 H   0  0  0  0  0  0
  -25.1342  -36.1762   25.0793 H   0  0  0  0  0  0
  -20.9992  -28.3303   24.1328 H   0  0  0  0  0  0
  -20.5674  -26.2330   23.3618 H   0  0  0  0  0  0
  -21.6646  -26.7410   22.1202 H   0  0  0  0  0  0
  -19.6915  -25.6263   21.1278 H   0  0  0  0  0  0
  -19.6713  -27.3149   20.6708 H   0  0  0  0  0  0
  -17.4213  -26.6681   21.4003 H   0  0  0  0  0  0
  -18.0325  -26.0076   22.9004 H   0  0  0  0  0  0
  -19.7955  -30.7301   24.2215 H   0  0  0  0  0  0
  -17.5032  -31.6288   24.5122 H   0  0  0  0  0  0
  -15.5359  -30.2979   23.7728 H   0  0  0  0  0  0
  -15.8659  -28.0783   22.7201 H   0  0  0  0  0  0
  -24.5899  -30.7123   25.7710 H   0  0  0  0  0  0
  -24.8911  -32.2972   26.4711 H   0  0  0  0  0  0
  -25.7969  -30.9021   27.0198 H   0  0  0  0  0  0
  -26.3109  -29.6598   24.1379 H   0  0  0  0  0  0
  -27.3958  -29.7253   25.5071 H   0  0  0  0  0  0
  -27.9075  -30.4103   23.9831 H   0  0  0  0  0  0
  -27.2602  -33.3690   26.1980 H   0  0  0  0  0  0
  -28.3942  -32.6858   25.0401 H   0  0  0  0  0  0
  -28.0636  -31.8545   26.5531 H   0  0  0  0  0  0
  -28.2579  -38.0080   24.7518 H   0  0  0  0  0  0
  -28.1083  -36.2604   24.6290 H   0  0  0  0  0  0
  -27.2285  -37.1407   25.8870 H   0  0  0  0  0  0
  -20.9555  -29.8718   21.6727 H   0  0  0  0  0  0
  -26.0120  -38.2746   24.1416 H   0  0  0  0  0  0
  -33.9413  -18.6239   21.4704 H   0  0  0  0  0  0
  -35.2700  -19.7040   19.5975 H   0  0  0  0  0  0
  -30.0941  -17.4823   16.6516 H   0  0  0  0  0  0
  -29.3461  -18.4881   17.8712 H   0  0  0  0  0  0
  -28.8349  -16.8293   17.6414 H   0  0  0  0  0  0
  -30.8387  -22.5442   21.4162 H   0  0  0  0  0  0
  -29.4730  -23.1054   22.3774 H   0  0  0  0  0  0
  -30.3395  -24.2187   21.3255 H   0  0  0  0  0  0
  -27.9054  -20.9690   19.5470 H   0  0  0  0  0  0
  -28.0206  -21.0108   21.2453 H   0  0  0  0  0  0
  -28.3003  -17.7637   20.3391 H   0  0  0  0  0  0
  -29.3817  -17.7508   21.6653 H   0  0  0  0  0  0
  -27.2051  -24.1411   20.9524 H   0  0  0  0  0  0
  -27.3962  -24.1439   19.2423 H   0  0  0  0  0  0
  -31.1281  -16.0692   18.1874 H   0  0  0  0  0  0
  -29.5937  -22.9373   19.3512 H   0  0  0  0  0  0
  -30.2201  -19.7556   19.3807 H   0  0  0  0  0  0
  -31.5883  -18.0036   16.2323 H   0  0  0  0  0  0
  -32.9587  -18.9500   15.8795 H   0  0  0  0  0  0
  -31.0803  -20.7061   21.0533 H   0  0  0  0  0  0
  1 25  1  0  0  0
  1 30  2  0  0  0
  1 86  1  0  0  0
  2  3  1  0  0  0
  2 25  1  0  0  0
  2 88  1  0  0  0
  2 89  1  0  0  0
  3  4  1  0  0  0
  3 90  1  0  0  0
  3 91  1  0  0  0
  4  5  1  0  0  0
  4 92  1  0  0  0
  4 93  1  0  0  0
  5  6  1  0  0  0
  5 26  1  0  0  0
  5 94  1  0  0  0
  6 25  1  0  0  0
  6 95  1  0  0  0
  6 96  1  0  0  0
  7  8  2  0  0  0
  7 26  1  0  0  0
  7 29  1  0  0  0
  8  9  1  0  0  0
  8 22  1  0  0  0
  9 10  1  0  0  0
  9 27  2  0  0  0
 10 11  2  0  0  0
 10 15  1  0  0  0
 11 12  1  0  0  0
 11 97  1  0  0  0
 12 13  2  0  0  0
 12 98  1  0  0  0
 13 14  1  0  0  0
 13 31  1  0  0  0
 14 15  2  0  0  0
 14 99  1  0  0  0
 15100  1  0  0  0
 16 17  2  0  0  0
 16 21  1  0  0  0
 16 31  1  0  0  0
 17 18  1  0  0  0
 17101  1  0  0  0
 18 19  2  0  0  0
 18102  1  0  0  0
 19 20  1  0  0  0
 19 24  1  0  0  0
 20 21  2  0  0  0
 20103  1  0  0  0
 21 23  1  0  0  0
 22 28  1  0  0  0
 22 32  2  0  0  0
 26 27  1  0  0  0
 28104  1  0  0  0
 28105  1  0  0  0
 29106  1  0  0  0
 29107  1  0  0  0
 33 34  1  0  0  0
 33 66  1  0  0  0
 33 70  2  0  0  0
 34 36  1  0  0  0
 34 59  1  0  0  0
 34108  1  0  0  0
 35 44  2  0  0  0
 35 45  1  0  0  0
 35 68  1  0  0  0
 36 56  1  0  0  0
 36109  1  0  0  0
 37 39  1  0  0  0
 37 47  1  0  0  0
 37 66  1  0  0  0
 37110  1  0  0  0
 38 43  2  0  0  0
 38 46  1  0  0  0
 38 47  1  0  0  0
 39 64  1  0  0  0
 39 67  2  0  0  0
 40 52  1  0  0  0
 40 53  2  0  0  0
 40 58  1  0  0  0
 41111  1  0  0  0
 41112  1  0  0  0
 41113  1  0  0  0
 41 48  1  0  0  0
 42 43  1  0  0  0
 42 66  1  0  0  0
 42114  1  0  0  0
 42115  1  0  0  0
 43 44  1  0  0  0
 44116  1  0  0  0
 45 46  2  0  0  0
 45117  1  0  0  0
 46118  1  0  0  0
 47119  1  0  0  0
 47120  1  0  0  0
 48 56  1  0  0  0
 48 65  1  0  0  0
 48121  1  0  0  0
 49 50  1  0  0  0
 49 53  1  0  0  0
 49 64  1  0  0  0
 49122  1  0  0  0
 50 51  1  0  0  0
 50123  1  0  0  0
 50124  1  0  0  0
 51 52  1  0  0  0
 51125  1  0  0  0
 51126  1  0  0  0
 52127  1  0  0  0
 52128  1  0  0  0
 53 54  1  0  0  0
 54 55  2  0  0  0
 54129  1  0  0  0
 55 57  1  0  0  0
 55130  1  0  0  0
 56 69  2  0  0  0
 57 58  2  0  0  0
 57131  1  0  0  0
 58132  1  0  0  0
 59 60  1  0  0  0
 59 61  1  0  0  0
 59 62  1  0  0  0
 60133  1  0  0  0
 60134  1  0  0  0
 60135  1  0  0  0
 61136  1  0  0  0
 61137  1  0  0  0
 61138  1  0  0  0
 62139  1  0  0  0
 62140  1  0  0  0
 62141  1  0  0  0
 63 65  1  0  0  0
 63142  1  0  0  0
 63143  1  0  0  0
 63144  1  0  0  0
 64145  1  0  0  0
 65146  1  0  0  0
 68 79  1  0  0  0
 71 72  2  0  0  0
 71 83  1  0  0  0
 71147  1  0  0  0
 72 84  1  0  0  0
 72148  1  0  0  0
 73 74  1  0  0  0
 73 80  1  0  0  0
 73 83  2  0  0  0
 74 84  2  0  0  0
 74 85  1  0  0  0
 75149  1  0  0  0
 75150  1  0  0  0
 75151  1  0  0  0
 75 80  1  0  0  0
 76152  1  0  0  0
 76153  1  0  0  0
 76154  1  0  0  0
 76 81  1  0  0  0
 77 81  1  0  0  0
 77 82  1  0  0  0
 77155  1  0  0  0
 77156  1  0  0  0
 78 82  1  0  0  0
 78 86  1  0  0  0
 78157  1  0  0  0
 78158  1  0  0  0
 79 81  1  0  0  0
 79159  1  0  0  0
 79160  1  0  0  0
 80 86  1  0  0  0
 80161  1  0  0  0
 81162  1  0  0  0
 82 87  1  0  0  0
 82163  1  0  0  0
 85164  1  0  0  0
 85165  1  0  0  0
 87166  1  0  0  0
M  ISO  4   1 100  68 101  79 101  86 100
M  END
> <chiral flag>
0

> <version>
0

> <s_m_source_file>
/data/baiqing/PycharmProjects/Reinvent-master-3.2/result/LINK_invent/BTK/process_docking_weight1_custom_product_contain_oxygen_bond_distance_aromatic_linkinvent_7_9_3/rearranged_h_0198.sdf

> <i_m_source_file_index>
81

> <r_mmod_Potential_Energy-OPLS-2005>
1381.04467773438

> <r_mmod_Stretch_Energy-OPLS-2005>
586.98681640625

> <r_mmod_Bend_Energy-OPLS-2005>
463.029937744141

> <r_mmod_Torsional_Energy-OPLS-2005>
338.463104248047

> <r_mmod_Improper_Torsional_Energy-OPLS-2005>
29.804817199707

> <r_mmod_Van_der_Waal_Energy-OPLS-2005>
148.828887939453

> <r_mmod_Electrostatic_Energy-OPLS-2005>
-337.016632080078

> <r_mmod_Solvation_Energy-OPLS-2005>
-243.240432739258

> <b_mmod_Minimization_Converged-OPLS-2005>
0

> <r_mmod_RMS_Derivative-OPLS-2005>
4.21087789535522

$$$$
81
                    3D
 Structure written by MMmdl.
155163  0  0  1  0            999 V2000
  -30.6606  -14.4969   20.5443 C   0  0  0  0  0  0
  -30.4095  -12.3119   19.4262 C   0  0  0  0  0  0
  -29.4806  -12.5086   18.2071 C   0  0  0  0  0  0
  -28.0029  -12.3712   18.6178 C   0  0  0  0  0  0
  -27.6533  -13.2104   19.8746 C   0  0  2  0  0  0
  -28.6909  -12.9839   20.9977 C   0  0  0  0  0  0
  -25.2530  -13.8173   20.5709 C   0  0  0  0  0  0
  -24.1806  -13.0422   20.9221 C   0  0  0  0  0  0
  -24.6384  -11.6897   20.8741 C   0  0  0  0  0  0
  -23.9060  -10.4275   21.0393 C   0  0  0  0  0  0
  -24.3626   -9.4183   21.9162 C   0  0  0  0  0  0
  -23.6302   -8.2212   22.0726 C   0  0  0  0  0  0
  -22.4263   -8.0274   21.3536 C   0  0  0  0  0  0
  -21.9912   -9.0239   20.4622 C   0  0  0  0  0  0
  -22.7241  -10.2117   20.3030 C   0  0  0  0  0  0
  -21.6851   -6.0746   22.5290 C   0  0  0  0  0  0
  -21.4023   -6.5651   23.8231 C   0  0  0  0  0  0
  -21.3664   -5.6802   24.9193 C   0  0  0  0  0  0
  -21.6033   -4.3062   24.7236 C   0  0  0  0  0  0
  -21.8815   -3.8157   23.4357 C   0  0  0  0  0  0
  -21.9187   -4.6970   22.3413 C   0  0  0  0  0  0
  -22.7832  -13.5173   21.1949 C   0  0  0  0  0  0
  -22.1652   -4.2156   21.0989 F   0  0  0  0  0  0
  -21.5621   -3.4543   25.7747 F   0  0  0  0  0  0
  -30.0208  -13.2971   20.4518 N   0  0  0  0  0  0
  -26.2959  -12.9356   20.3352 N   0  0  0  0  0  0
  -25.9295  -11.6504   20.5740 N   0  0  0  0  0  0
  -22.0530  -12.8082   22.0493 N   0  0  0  0  0  0
  -25.4219  -15.1895   20.4149 N   0  0  0  0  0  0
  -31.7862  -14.6796   20.0661 O   0  0  0  0  0  0
  -21.6625   -6.8871   21.4243 O   0  0  0  0  0  0
  -22.3475  -14.5485   20.6849 O   0  0  0  0  0  0
  -24.6193  -31.8669   23.2122 C   0  0  0  0  0  0
  -25.9075  -32.4804   23.8413 C   0  0  1  0  0  0
  -27.2178  -27.3826   20.0932 C   0  0  0  0  0  0
  -25.5903  -33.8601   24.2332 N   0  0  0  0  0  0
  -23.4077  -30.4957   21.5546 C   0  0  2  0  0  0
  -24.8533  -28.9655   20.1146 C   0  0  0  0  0  0
  -22.7434  -29.4668   22.4984 C   0  0  0  0  0  0
  -18.0273  -28.1382   22.8483 C   0  0  0  0  0  0
  -24.1460  -36.7246   23.2641 C   0  0  0  0  0  0
  -25.9493  -30.8132   21.3827 C   0  0  0  0  0  0
  -26.0232  -29.4524   20.7111 C   0  0  0  0  0  0
  -27.2114  -28.6722   20.6929 C   0  0  0  0  0  0
  -26.0240  -26.9417   19.4694 C   0  0  0  0  0  0
  -24.8525  -27.7134   19.4870 C   0  0  0  0  0  0
  -23.6180  -29.8338   20.1694 C   0  0  0  0  0  0
  -25.4100  -36.3095   24.0339 C   0  0  1  0  0  0
  -20.5866  -28.3676   23.1277 C   0  0  2  0  0  0
  -20.6764  -26.9404   22.5401 C   0  0  0  0  0  0
  -19.5751  -26.6392   21.5191 C   0  0  0  0  0  0
  -18.1934  -26.7920   22.1618 C   0  0  0  0  0  0
  -19.1525  -28.8849   23.2872 C   0  0  0  0  0  0
  -18.9461  -30.1456   23.8889 C   0  0  0  0  0  0
  -17.6469  -30.6602   24.0554 C   0  0  0  0  0  0
  -25.9053  -34.9458   23.5140 C   0  0  0  0  0  0
  -16.5353  -29.9091   23.6347 C   0  0  0  0  0  0
  -16.7257  -28.6497   23.0376 C   0  0  0  0  0  0
  -26.4479  -31.6604   25.0771 C   0  0  0  0  0  0
  -25.3692  -31.3713   26.1473 C   0  0  0  0  0  0
  -27.0339  -30.3027   24.6240 C   0  0  0  0  0  0
  -27.6080  -32.4308   25.7497 C   0  0  0  0  0  0
  -27.5570  -37.1779   24.8486 C   0  0  0  0  0  0
  -21.4163  -29.3012   22.3661 N   0  0  0  0  0  0
  -26.4286  -37.3787   23.9417 N   0  0  0  0  0  0
  -24.6765  -31.0736   22.1046 N   0  0  0  0  0  0
  -23.4187  -28.8231   23.3059 O   0  0  0  0  0  0
  -28.3433  -26.5622   20.1445 O   0  0  0  0  0  0
  -26.5637  -34.8923   22.4723 O   0  0  0  0  0  0
  -23.5383  -32.1415   23.7520 O   0  0  0  0  0  0
  -29.9327  -18.9821   19.3662 C   0  0  0  0  0  0
  -29.8577  -19.1534   20.7308 C   0  0  0  0  0  0
  -29.9659  -16.8507   20.6036 C   0  0  0  0  0  0
  -27.5727  -22.2834   21.3370 C   0  0  0  0  0  0
  -29.8684  -20.4502   21.5393 C   0  0  0  0  0  0
  -29.1861  -24.1431   20.5159 C   0  0  0  0  0  0
  -28.0936  -25.1313   19.9981 C   0  0  0  0  0  0
  -28.8138  -22.6051   20.4655 C   0  0  1  0  0  0
  -29.8243  -17.9120   21.4136 N   0  0  0  0  0  0
  -29.9645  -15.5120   21.0965 N   0  0  0  0  0  0
  -30.0038  -21.7354   20.7786 N   0  3  0  0  0  0
  -30.0585  -17.2980   18.9021 S   0  0  0  0  0  0
  -31.4545  -12.4090   19.1262 H   0  0  0  0  0  0
  -30.3066  -11.2997   19.8190 H   0  0  0  0  0  0
  -29.7130  -11.7810   17.4276 H   0  0  0  0  0  0
  -29.6485  -13.4919   17.7659 H   0  0  0  0  0  0
  -27.8120  -11.3160   18.8132 H   0  0  0  0  0  0
  -27.3521  -12.6465   17.7872 H   0  0  0  0  0  0
  -27.6939  -14.2588   19.5784 H   0  0  0  0  0  0
  -28.6655  -11.9429   21.3243 H   0  0  0  0  0  0
  -28.4501  -13.5719   21.8841 H   0  0  0  0  0  0
  -25.2774   -9.5654   22.4746 H   0  0  0  0  0  0
  -24.0027   -7.4580   22.7420 H   0  0  0  0  0  0
  -21.0857   -8.8751   19.8916 H   0  0  0  0  0  0
  -22.3702  -10.9662   19.6143 H   0  0  0  0  0  0
  -21.2029   -7.6161   23.9743 H   0  0  0  0  0  0
  -21.1488   -6.0533   25.9102 H   0  0  0  0  0  0
  -22.0585   -2.7615   23.2859 H   0  0  0  0  0  0
  -22.4211  -11.9709   22.4774 H   0  0  0  0  0  0
  -21.1162  -13.1047   22.2806 H   0  0  0  0  0  0
  -24.6614  -15.8456   20.5576 H   0  0  0  0  0  0
  -26.2638  -15.6307   20.0670 H   0  0  0  0  0  0
  -26.7150  -32.5480   23.1179 H   0  0  0  0  0  0
  -24.9999  -33.9748   25.0434 H   0  0  0  0  0  0
  -22.6965  -31.3138   21.4181 H   0  0  0  0  0  0
  -23.3763  -35.9544   23.3354 H   0  0  0  0  0  0
  -24.3528  -36.8815   22.2049 H   0  0  0  0  0  0
  -23.7184  -37.6445   23.6625 H   0  0  0  0  0  0
  -26.0945  -31.5886   20.6297 H   0  0  0  0  0  0
  -26.8218  -30.8421   22.0240 H   0  0  0  0  0  0
  -28.1116  -29.0406   21.1669 H   0  0  0  0  0  0
  -25.9572  -25.9872   18.9689 H   0  0  0  0  0  0
  -23.9531  -27.3374   19.0186 H   0  0  0  0  0  0
  -23.7252  -30.6075   19.4085 H   0  0  0  0  0  0
  -22.7391  -29.2533   19.8823 H   0  0  0  0  0  0
  -25.1288  -36.1958   25.0836 H   0  0  0  0  0  0
  -20.9954  -28.3256   24.1395 H   0  0  0  0  0  0
  -20.5660  -26.2278   23.3588 H   0  0  0  0  0  0
  -21.6642  -26.7445   22.1206 H   0  0  0  0  0  0
  -19.6929  -25.6309   21.1203 H   0  0  0  0  0  0
  -19.6710  -27.3212   20.6733 H   0  0  0  0  0  0
  -17.4198  -26.6638   21.4031 H   0  0  0  0  0  0
  -18.0391  -26.0050   22.9017 H   0  0  0  0  0  0
  -19.7943  -30.7261   24.2262 H   0  0  0  0  0  0
  -17.5033  -31.6287   24.5145 H   0  0  0  0  0  0
  -15.5355  -30.3013   23.7684 H   0  0  0  0  0  0
  -15.8642  -28.0817   22.7140 H   0  0  0  0  0  0
  -24.5886  -30.7075   25.7742 H   0  0  0  0  0  0
  -24.8843  -32.2860   26.4889 H   0  0  0  0  0  0
  -25.7963  -30.8860   27.0259 H   0  0  0  0  0  0
  -26.2952  -29.6761   24.1238 H   0  0  0  0  0  0
  -27.4012  -29.7303   25.4773 H   0  0  0  0  0  0
  -27.8819  -30.4325   23.9513 H   0  0  0  0  0  0
  -27.2770  -33.3625   26.2093 H   0  0  0  0  0  0
  -28.3851  -32.6843   25.0270 H   0  0  0  0  0  0
  -28.0794  -31.8412   26.5372 H   0  0  0  0  0  0
  -28.2645  -38.0027   24.7523 H   0  0  0  0  0  0
  -28.1019  -36.2573   24.6345 H   0  0  0  0  0  0
  -27.2270  -37.1454   25.8885 H   0  0  0  0  0  0
  -20.9382  -29.8565   21.6705 H   0  0  0  0  0  0
  -26.0184  -38.2869   24.1420 H   0  0  0  0  0  0
  -29.9601  -19.7305   18.5847 H   0  0  0  0  0  0
  -26.6955  -22.8632   21.0516 H   0  0  0  0  0  0
  -27.7597  -22.4671   22.3955 H   0  0  0  0  0  0
  -27.2575  -21.2467   21.2222 H   0  0  0  0  0  0
  -30.7582  -20.4190   22.1683 H   0  0  0  0  0  0
  -29.0612  -20.4638   22.2670 H   0  0  0  0  0  0
  -29.4157  -24.4140   21.5448 H   0  0  0  0  0  0
  -30.1042  -24.3166   19.9504 H   0  0  0  0  0  0
  -27.1795  -24.8971   20.5421 H   0  0  0  0  0  0
  -27.9054  -24.9129   18.9462 H   0  0  0  0  0  0
  -28.5384  -22.3631   19.4378 H   0  0  0  0  0  0
  -29.1844  -15.2679   21.6881 H   0  0  0  0  0  0
  -30.5236  -21.5448   19.9395 H   0  0  0  0  0  0
  -30.6106  -22.2948   21.3534 H   0  0  0  0  0  0
  1 25  1  0  0  0
  1 30  2  0  0  0
  1 80  1  0  0  0
  2  3  1  0  0  0
  2 25  1  0  0  0
  2 83  1  0  0  0
  2 84  1  0  0  0
  3  4  1  0  0  0
  3 85  1  0  0  0
  3 86  1  0  0  0
  4  5  1  0  0  0
  4 87  1  0  0  0
  4 88  1  0  0  0
  5  6  1  0  0  0
  5 26  1  0  0  0
  5 89  1  0  0  0
  6 25  1  0  0  0
  6 90  1  0  0  0
  6 91  1  0  0  0
  7  8  2  0  0  0
  7 26  1  0  0  0
  7 29  1  0  0  0
  8  9  1  0  0  0
  8 22  1  0  0  0
  9 10  1  0  0  0
  9 27  2  0  0  0
 10 11  2  0  0  0
 10 15  1  0  0  0
 11 12  1  0  0  0
 11 92  1  0  0  0
 12 13  2  0  0  0
 12 93  1  0  0  0
 13 14  1  0  0  0
 13 31  1  0  0  0
 14 15  2  0  0  0
 14 94  1  0  0  0
 15 95  1  0  0  0
 16 17  2  0  0  0
 16 21  1  0  0  0
 16 31  1  0  0  0
 17 18  1  0  0  0
 17 96  1  0  0  0
 18 19  2  0  0  0
 18 97  1  0  0  0
 19 20  1  0  0  0
 19 24  1  0  0  0
 20 21  2  0  0  0
 20 98  1  0  0  0
 21 23  1  0  0  0
 22 28  1  0  0  0
 22 32  2  0  0  0
 26 27  1  0  0  0
 28 99  1  0  0  0
 28100  1  0  0  0
 29101  1  0  0  0
 29102  1  0  0  0
 33 34  1  0  0  0
 33 66  1  0  0  0
 33 70  2  0  0  0
 34 36  1  0  0  0
 34 59  1  0  0  0
 34103  1  0  0  0
 35 44  2  0  0  0
 35 45  1  0  0  0
 35 68  1  0  0  0
 36 56  1  0  0  0
 36104  1  0  0  0
 37 39  1  0  0  0
 37 47  1  0  0  0
 37 66  1  0  0  0
 37105  1  0  0  0
 38 43  2  0  0  0
 38 46  1  0  0  0
 38 47  1  0  0  0
 39 64  1  0  0  0
 39 67  2  0  0  0
 40 52  1  0  0  0
 40 53  2  0  0  0
 40 58  1  0  0  0
 41106  1  0  0  0
 41107  1  0  0  0
 41108  1  0  0  0
 41 48  1  0  0  0
 42 43  1  0  0  0
 42 66  1  0  0  0
 42109  1  0  0  0
 42110  1  0  0  0
 43 44  1  0  0  0
 44111  1  0  0  0
 45 46  2  0  0  0
 45112  1  0  0  0
 46113  1  0  0  0
 47114  1  0  0  0
 47115  1  0  0  0
 48 56  1  0  0  0
 48 65  1  0  0  0
 48116  1  0  0  0
 49 50  1  0  0  0
 49 53  1  0  0  0
 49 64  1  0  0  0
 49117  1  0  0  0
 50 51  1  0  0  0
 50118  1  0  0  0
 50119  1  0  0  0
 51 52  1  0  0  0
 51120  1  0  0  0
 51121  1  0  0  0
 52122  1  0  0  0
 52123  1  0  0  0
 53 54  1  0  0  0
 54 55  2  0  0  0
 54124  1  0  0  0
 55 57  1  0  0  0
 55125  1  0  0  0
 56 69  2  0  0  0
 57 58  2  0  0  0
 57126  1  0  0  0
 58127  1  0  0  0
 59 60  1  0  0  0
 59 61  1  0  0  0
 59 62  1  0  0  0
 60128  1  0  0  0
 60129  1  0  0  0
 60130  1  0  0  0
 61131  1  0  0  0
 61132  1  0  0  0
 61133  1  0  0  0
 62134  1  0  0  0
 62135  1  0  0  0
 62136  1  0  0  0
 63 65  1  0  0  0
 63137  1  0  0  0
 63138  1  0  0  0
 63139  1  0  0  0
 64140  1  0  0  0
 65141  1  0  0  0
 68 77  1  0  0  0
 71 72  2  0  0  0
 71 82  1  0  0  0
 71142  1  0  0  0
 72 75  1  0  0  0
 72 79  1  0  0  0
 73 79  2  0  0  0
 73 80  1  0  0  0
 73 82  1  0  0  0
 74143  1  0  0  0
 74144  1  0  0  0
 74145  1  0  0  0
 74 78  1  0  0  0
 75 81  1  0  0  0
 75146  1  0  0  0
 75147  1  0  0  0
 76 77  1  0  0  0
 76 78  1  0  0  0
 76148  1  0  0  0
 76149  1  0  0  0
 77150  1  0  0  0
 77151  1  0  0  0
 78 81  1  0  0  0
 78152  1  0  0  0
 80153  1  0  0  0
 81154  1  0  0  0
 81155  1  0  0  0
M  CHG  1  81   1
M  ISO  4   1 100  68 101  77 101  80 100
M  END
> <chiral flag>
0

> <version>
0

> <s_m_source_file>
/data/baiqing/PycharmProjects/Reinvent-master-3.2/result/LINK_invent/BTK/process_docking_weight1_custom_product_contain_oxygen_bond_distance_aromatic_linkinvent_7_9_3/rearranged_h_0198.sdf

> <i_m_source_file_index>
82

> <r_mmod_Potential_Energy-OPLS-2005>
-300.127258300781

> <r_mmod_Stretch_Energy-OPLS-2005>
48.2652893066406

> <r_mmod_Bend_Energy-OPLS-2005>
114.94010925293

> <r_mmod_Torsional_Energy-OPLS-2005>
239.648284912109

> <r_mmod_Improper_Torsional_Energy-OPLS-2005>
3.99384164810181

> <r_mmod_Van_der_Waal_Energy-OPLS-2005>
137.957504272461

> <r_mmod_Electrostatic_Energy-OPLS-2005>
-371.667175292969

> <r_mmod_Solvation_Energy-OPLS-2005>
-495.070373535156

> <b_mmod_Minimization_Converged-OPLS-2005>
0

> <r_mmod_RMS_Derivative-OPLS-2005>
3.3674590587616

$$$$
82
                    3D
 Structure written by MMmdl.
155163  0  0  1  0            999 V2000
  -30.6658  -14.5283   20.5475 C   0  0  0  0  0  0
  -30.4316  -12.3321   19.4322 C   0  0  0  0  0  0
  -29.5009  -12.5043   18.2124 C   0  0  0  0  0  0
  -28.0220  -12.3566   18.6233 C   0  0  0  0  0  0
  -27.6596  -13.2051   19.8708 C   0  0  2  0  0  0
  -28.7019  -13.0039   20.9949 C   0  0  0  0  0  0
  -25.2589  -13.8148   20.5677 C   0  0  0  0  0  0
  -24.1841  -13.0432   20.9187 C   0  0  0  0  0  0
  -24.6383  -11.6896   20.8732 C   0  0  0  0  0  0
  -23.9043  -10.4289   21.0404 C   0  0  0  0  0  0
  -24.3601   -9.4208   21.9182 C   0  0  0  0  0  0
  -23.6285   -8.2240   22.0753 C   0  0  0  0  0  0
  -22.4267   -8.0274   21.3544 C   0  0  0  0  0  0
  -21.9895   -9.0247   20.4649 C   0  0  0  0  0  0
  -22.7215  -10.2130   20.3055 C   0  0  0  0  0  0
  -21.6853   -6.0729   22.5279 C   0  0  0  0  0  0
  -21.4015   -6.5633   23.8211 C   0  0  0  0  0  0
  -21.3659   -5.6789   24.9175 C   0  0  0  0  0  0
  -21.6044   -4.3052   24.7226 C   0  0  0  0  0  0
  -21.8819   -3.8143   23.4347 C   0  0  0  0  0  0
  -21.9194   -4.6959   22.3403 C   0  0  0  0  0  0
  -22.7866  -13.5244   21.1849 C   0  0  0  0  0  0
  -22.1663   -4.2143   21.0981 F   0  0  0  0  0  0
  -21.5629   -3.4536   25.7737 F   0  0  0  0  0  0
  -30.0297  -13.3255   20.4427 N   0  0  0  0  0  0
  -26.3012  -12.9309   20.3332 N   0  0  0  0  0  0
  -25.9308  -11.6474   20.5747 N   0  0  0  0  0  0
  -22.0496  -12.8246   22.0404 N   0  0  0  0  0  0
  -25.4321  -15.1865   20.4069 N   0  0  0  0  0  0
  -31.8104  -14.7012   20.1163 O   0  0  0  0  0  0
  -21.6637   -6.8869   21.4238 O   0  0  0  0  0  0
  -22.3559  -14.5552   20.6691 O   0  0  0  0  0  0
  -24.6194  -31.8656   23.2083 C   0  0  0  0  0  0
  -25.9072  -32.4804   23.8389 C   0  0  1  0  0  0
  -27.2305  -27.3917   20.0800 C   0  0  0  0  0  0
  -25.5910  -33.8606   24.2311 N   0  0  0  0  0  0
  -23.4079  -30.4916   21.5507 C   0  0  2  0  0  0
  -24.8511  -28.9572   20.1129 C   0  0  0  0  0  0
  -22.7436  -29.4650   22.4978 C   0  0  0  0  0  0
  -18.0273  -28.1375   22.8487 C   0  0  0  0  0  0
  -24.1488  -36.7310   23.2640 C   0  0  0  0  0  0
  -25.9438  -30.8154   21.3701 C   0  0  0  0  0  0
  -26.0166  -29.4490   20.7116 C   0  0  0  0  0  0
  -27.2040  -28.6720   20.6968 C   0  0  0  0  0  0
  -26.0290  -26.9220   19.4953 C   0  0  0  0  0  0
  -24.8542  -27.6936   19.5059 C   0  0  0  0  0  0
  -23.6167  -29.8291   20.1644 C   0  0  0  0  0  0
  -25.4111  -36.3101   24.0335 C   0  0  1  0  0  0
  -20.5868  -28.3669   23.1308 C   0  0  2  0  0  0
  -20.6763  -26.9403   22.5414 C   0  0  0  0  0  0
  -19.5742  -26.6384   21.5210 C   0  0  0  0  0  0
  -18.1922  -26.7919   22.1622 C   0  0  0  0  0  0
  -19.1523  -28.8838   23.2890 C   0  0  0  0  0  0
  -18.9451  -30.1443   23.8903 C   0  0  0  0  0  0
  -17.6453  -30.6583   24.0560 C   0  0  0  0  0  0
  -25.9040  -34.9467   23.5120 C   0  0  0  0  0  0
  -16.5343  -29.9083   23.6326 C   0  0  0  0  0  0
  -16.7262  -28.6499   23.0348 C   0  0  0  0  0  0
  -26.4480  -31.6595   25.0734 C   0  0  0  0  0  0
  -25.3736  -31.3718   26.1479 C   0  0  0  0  0  0
  -27.0309  -30.3025   24.6147 C   0  0  0  0  0  0
  -27.6056  -32.4318   25.7493 C   0  0  0  0  0  0
  -27.5577  -37.1815   24.8469 C   0  0  0  0  0  0
  -21.4159  -29.3035   22.3718 N   0  0  0  0  0  0
  -26.4297  -37.3785   23.9400 N   0  0  0  0  0  0
  -24.6755  -31.0727   22.1003 N   0  0  0  0  0  0
  -23.4197  -28.8186   23.3025 O   0  0  0  0  0  0
  -28.3944  -26.6280   20.1235 O   0  0  0  0  0  0
  -26.5604  -34.8923   22.4683 O   0  0  0  0  0  0
  -23.5375  -32.1430   23.7452 O   0  0  0  0  0  0
  -28.8997  -17.7460   21.2270 C   0  0  0  0  0  0
  -30.0491  -19.7512   20.9085 C   0  0  0  0  0  0
  -30.0491  -16.9637   20.9352 C   0  0  0  0  0  0
  -31.2138  -18.9693   20.6032 C   0  0  0  0  0  0
  -30.0607  -21.2780   21.0391 C   0  0  0  0  0  0
  -28.7098  -23.4041   20.6950 C   0  0  0  0  0  0
  -28.6326  -25.5822   19.1462 C   0  0  0  0  0  0
  -29.4123  -24.3195   19.6453 C   0  0  1  0  0  0
  -28.8891  -19.1069   21.2103 N   0  0  0  0  0  0
  -31.2026  -17.6093   20.6094 N   0  0  0  0  0  0
  -32.4540  -19.5049   20.2655 N   0  0  0  0  0  0
  -29.8922  -15.5362   21.0170 N   0  0  0  0  0  0
  -28.9999  -21.9557   20.5509 N   0  0  0  0  0  0
  -31.0007  -21.8590   21.5881 O   0  0  0  0  0  0
  -30.6717  -24.7579   20.1216 O   0  0  0  0  0  0
  -31.4746  -12.4423   19.1306 H   0  0  0  0  0  0
  -30.3454  -11.3243   19.8415 H   0  0  0  0  0  0
  -29.7496  -11.7721   17.4430 H   0  0  0  0  0  0
  -29.6606  -13.4852   17.7618 H   0  0  0  0  0  0
  -27.8410  -11.3013   18.8304 H   0  0  0  0  0  0
  -27.3711  -12.6168   17.7880 H   0  0  0  0  0  0
  -27.6969  -14.2491   19.5596 H   0  0  0  0  0  0
  -28.6898  -11.9692   21.3412 H   0  0  0  0  0  0
  -28.4564  -13.6047   21.8716 H   0  0  0  0  0  0
  -25.2747   -9.5692   22.4750 H   0  0  0  0  0  0
  -24.0001   -7.4633   22.7467 H   0  0  0  0  0  0
  -21.0828   -8.8760   19.8957 H   0  0  0  0  0  0
  -22.3669  -10.9666   19.6162 H   0  0  0  0  0  0
  -21.2004   -7.6139   23.9710 H   0  0  0  0  0  0
  -21.1483   -6.0521   25.9079 H   0  0  0  0  0  0
  -22.0599   -2.7606   23.2849 H   0  0  0  0  0  0
  -22.4104  -11.9908   22.4803 H   0  0  0  0  0  0
  -21.1117  -13.1284   22.2597 H   0  0  0  0  0  0
  -24.6573  -15.8351   20.4967 H   0  0  0  0  0  0
  -26.2628  -15.6162   20.0220 H   0  0  0  0  0  0
  -26.7143  -32.5489   23.1145 H   0  0  0  0  0  0
  -25.0057  -33.9765   25.0453 H   0  0  0  0  0  0
  -22.6979  -31.3097   21.4134 H   0  0  0  0  0  0
  -23.3737  -35.9659   23.3335 H   0  0  0  0  0  0
  -24.3576  -36.8889   22.2048 H   0  0  0  0  0  0
  -23.7268  -37.6537   23.6633 H   0  0  0  0  0  0
  -26.0690  -31.5823   20.6045 H   0  0  0  0  0  0
  -26.8272  -30.8607   21.9953 H   0  0  0  0  0  0
  -28.1015  -29.0499   21.1664 H   0  0  0  0  0  0
  -25.9356  -25.9454   19.0507 H   0  0  0  0  0  0
  -23.9527  -27.3009   19.0557 H   0  0  0  0  0  0
  -23.7290  -30.6059   19.4071 H   0  0  0  0  0  0
  -22.7383  -29.2538   19.8662 H   0  0  0  0  0  0
  -25.1291  -36.1966   25.0830 H   0  0  0  0  0  0
  -20.9951  -28.3232   24.1431 H   0  0  0  0  0  0
  -20.5666  -26.2279   23.3604 H   0  0  0  0  0  0
  -21.6636  -26.7444   22.1208 H   0  0  0  0  0  0
  -19.6907  -25.6298   21.1232 H   0  0  0  0  0  0
  -19.6676  -27.3198   20.6743 H   0  0  0  0  0  0
  -17.4193  -26.6663   21.4022 H   0  0  0  0  0  0
  -18.0321  -26.0059   22.9017 H   0  0  0  0  0  0
  -19.7932  -30.7250   24.2279 H   0  0  0  0  0  0
  -17.5014  -31.6266   24.5158 H   0  0  0  0  0  0
  -15.5343  -30.2985   23.7652 H   0  0  0  0  0  0
  -15.8662  -28.0818   22.7061 H   0  0  0  0  0  0
  -24.5903  -30.7069   25.7820 H   0  0  0  0  0  0
  -24.8931  -32.2877   26.4929 H   0  0  0  0  0  0
  -25.8081  -30.8888   27.0239 H   0  0  0  0  0  0
  -26.2861  -29.6792   24.1184 H   0  0  0  0  0  0
  -27.4036  -29.7264   25.4627 H   0  0  0  0  0  0
  -27.8722  -30.4323   23.9334 H   0  0  0  0  0  0
  -27.2676  -33.3609   26.2093 H   0  0  0  0  0  0
  -28.3848  -32.6891   25.0307 H   0  0  0  0  0  0
  -28.0745  -31.8429   26.5386 H   0  0  0  0  0  0
  -28.2624  -38.0082   24.7475 H   0  0  0  0  0  0
  -28.1039  -36.2612   24.6339 H   0  0  0  0  0  0
  -27.2290  -37.1530   25.8873 H   0  0  0  0  0  0
  -20.9329  -29.8767   21.6944 H   0  0  0  0  0  0
  -26.0184  -38.2869   24.1368 H   0  0  0  0  0  0
  -27.9633  -17.2715   21.4857 H   0  0  0  0  0  0
  -27.6308  -23.5046   20.5689 H   0  0  0  0  0  0
  -28.9128  -23.7405   21.7132 H   0  0  0  0  0  0
  -27.7407  -25.2058   18.6581 H   0  0  0  0  0  0
  -29.2024  -26.0445   18.3392 H   0  0  0  0  0  0
  -29.5974  -23.7116   18.7579 H   0  0  0  0  0  0
  -32.6380  -20.4755   20.5022 H   0  0  0  0  0  0
  -33.2689  -18.9037   20.2988 H   0  0  0  0  0  0
  -28.9901  -15.2300   21.3455 H   0  0  0  0  0  0
  -28.2803  -21.3821   20.1316 H   0  0  0  0  0  0
  -30.5007  -25.4216   20.7835 H   0  0  0  0  0  0
  1 25  1  0  0  0
  1 30  2  0  0  0
  1 82  1  0  0  0
  2  3  1  0  0  0
  2 25  1  0  0  0
  2 86  1  0  0  0
  2 87  1  0  0  0
  3  4  1  0  0  0
  3 88  1  0  0  0
  3 89  1  0  0  0
  4  5  1  0  0  0
  4 90  1  0  0  0
  4 91  1  0  0  0
  5  6  1  0  0  0
  5 26  1  0  0  0
  5 92  1  0  0  0
  6 25  1  0  0  0
  6 93  1  0  0  0
  6 94  1  0  0  0
  7  8  2  0  0  0
  7 26  1  0  0  0
  7 29  1  0  0  0
  8  9  1  0  0  0
  8 22  1  0  0  0
  9 10  1  0  0  0
  9 27  2  0  0  0
 10 11  2  0  0  0
 10 15  1  0  0  0
 11 12  1  0  0  0
 11 95  1  0  0  0
 12 13  2  0  0  0
 12 96  1  0  0  0
 13 14  1  0  0  0
 13 31  1  0  0  0
 14 15  2  0  0  0
 14 97  1  0  0  0
 15 98  1  0  0  0
 16 17  2  0  0  0
 16 21  1  0  0  0
 16 31  1  0  0  0
 17 18  1  0  0  0
 17 99  1  0  0  0
 18 19  2  0  0  0
 18100  1  0  0  0
 19 20  1  0  0  0
 19 24  1  0  0  0
 20 21  2  0  0  0
 20101  1  0  0  0
 21 23  1  0  0  0
 22 28  1  0  0  0
 22 32  2  0  0  0
 26 27  1  0  0  0
 28102  1  0  0  0
 28103  1  0  0  0
 29104  1  0  0  0
 29105  1  0  0  0
 33 34  1  0  0  0
 33 66  1  0  0  0
 33 70  2  0  0  0
 34 36  1  0  0  0
 34 59  1  0  0  0
 34106  1  0  0  0
 35 44  2  0  0  0
 35 45  1  0  0  0
 35 68  1  0  0  0
 36 56  1  0  0  0
 36107  1  0  0  0
 37 39  1  0  0  0
 37 47  1  0  0  0
 37 66  1  0  0  0
 37108  1  0  0  0
 38 43  2  0  0  0
 38 46  1  0  0  0
 38 47  1  0  0  0
 39 64  1  0  0  0
 39 67  2  0  0  0
 40 52  1  0  0  0
 40 53  2  0  0  0
 40 58  1  0  0  0
 41109  1  0  0  0
 41110  1  0  0  0
 41111  1  0  0  0
 41 48  1  0  0  0
 42 43  1  0  0  0
 42 66  1  0  0  0
 42112  1  0  0  0
 42113  1  0  0  0
 43 44  1  0  0  0
 44114  1  0  0  0
 45 46  2  0  0  0
 45115  1  0  0  0
 46116  1  0  0  0
 47117  1  0  0  0
 47118  1  0  0  0
 48 56  1  0  0  0
 48 65  1  0  0  0
 48119  1  0  0  0
 49 50  1  0  0  0
 49 53  1  0  0  0
 49 64  1  0  0  0
 49120  1  0  0  0
 50 51  1  0  0  0
 50121  1  0  0  0
 50122  1  0  0  0
 51 52  1  0  0  0
 51123  1  0  0  0
 51124  1  0  0  0
 52125  1  0  0  0
 52126  1  0  0  0
 53 54  1  0  0  0
 54 55  2  0  0  0
 54127  1  0  0  0
 55 57  1  0  0  0
 55128  1  0  0  0
 56 69  2  0  0  0
 57 58  2  0  0  0
 57129  1  0  0  0
 58130  1  0  0  0
 59 60  1  0  0  0
 59 61  1  0  0  0
 59 62  1  0  0  0
 60131  1  0  0  0
 60132  1  0  0  0
 60133  1  0  0  0
 61134  1  0  0  0
 61135  1  0  0  0
 61136  1  0  0  0
 62137  1  0  0  0
 62138  1  0  0  0
 62139  1  0  0  0
 63 65  1  0  0  0
 63140  1  0  0  0
 63141  1  0  0  0
 63142  1  0  0  0
 64143  1  0  0  0
 65144  1  0  0  0
 68 77  1  0  0  0
 71 73  2  0  0  0
 71 79  1  0  0  0
 71145  1  0  0  0
 72 74  1  0  0  0
 72 75  1  0  0  0
 72 79  2  0  0  0
 73 80  1  0  0  0
 73 82  1  0  0  0
 74 80  2  0  0  0
 74 81  1  0  0  0
 75 83  1  0  0  0
 75 84  2  0  0  0
 76 78  1  0  0  0
 76 83  1  0  0  0
 76146  1  0  0  0
 76147  1  0  0  0
 77 78  1  0  0  0
 77148  1  0  0  0
 77149  1  0  0  0
 78 85  1  0  0  0
 78150  1  0  0  0
 81151  1  0  0  0
 81152  1  0  0  0
 82153  1  0  0  0
 83154  1  0  0  0
 85155  1  0  0  0
M  ISO  4   1 100  68 101  77 101  82 100
M  END
> <chiral flag>
0

> <version>
0

> <s_m_source_file>
/data/baiqing/PycharmProjects/Reinvent-master-3.2/result/LINK_invent/BTK/process_docking_weight1_custom_product_contain_oxygen_bond_distance_aromatic_linkinvent_7_9_3/rearranged_h_0198.sdf

> <i_m_source_file_index>
83

> <r_mmod_Potential_Energy-OPLS-2005>
31.5968017578125

> <r_mmod_Stretch_Energy-OPLS-2005>
52.9110794067383

> <r_mmod_Bend_Energy-OPLS-2005>
129.653427124023

> <r_mmod_Torsional_Energy-OPLS-2005>
246.826431274414

> <r_mmod_Improper_Torsional_Energy-OPLS-2005>
7.15958499908447

> <r_mmod_Van_der_Waal_Energy-OPLS-2005>
156.304306030273

> <r_mmod_Electrostatic_Energy-OPLS-2005>
-294.9736328125

> <r_mmod_Solvation_Energy-OPLS-2005>
-287.186676025391

> <b_mmod_Minimization_Converged-OPLS-2005>
0

> <r_mmod_RMS_Derivative-OPLS-2005>
0.652410387992859

$$$$
83
                    3D
 Structure written by MMmdl.
165173  0  0  1  0            999 V2000
  -30.6021  -14.7637   20.4597 C   0  0  0  0  0  0
  -30.4387  -12.4649   19.4553 C   0  0  0  0  0  0
  -29.5089  -12.4913   18.2234 C   0  0  0  0  0  0
  -28.0411  -12.3102   18.6554 C   0  0  0  0  0  0
  -27.6459  -13.2233   19.8457 C   0  0  2  0  0  0
  -28.6952  -13.1754   20.9764 C   0  0  0  0  0  0
  -25.2601  -13.8163   20.5735 C   0  0  0  0  0  0
  -24.1879  -13.0441   20.9214 C   0  0  0  0  0  0
  -24.6457  -11.6916   20.8772 C   0  0  0  0  0  0
  -23.9118  -10.4296   21.0419 C   0  0  0  0  0  0
  -24.3656   -9.4207   21.9202 C   0  0  0  0  0  0
  -23.6321   -8.2253   22.0768 C   0  0  0  0  0  0
  -22.4287   -8.0301   21.3570 C   0  0  0  0  0  0
  -21.9947   -9.0280   20.4660 C   0  0  0  0  0  0
  -22.7293  -10.2154   20.3072 C   0  0  0  0  0  0
  -21.6850   -6.0774   22.5298 C   0  0  0  0  0  0
  -21.4017   -6.5658   23.8238 C   0  0  0  0  0  0
  -21.3647   -5.6800   24.9185 C   0  0  0  0  0  0
  -21.6038   -4.3068   24.7228 C   0  0  0  0  0  0
  -21.8817   -3.8174   23.4345 C   0  0  0  0  0  0
  -21.9195   -4.7002   22.3407 C   0  0  0  0  0  0
  -22.7905  -13.5249   21.1858 C   0  0  0  0  0  0
  -22.1662   -4.2187   21.0992 F   0  0  0  0  0  0
  -21.5619   -3.4545   25.7737 F   0  0  0  0  0  0
  -29.9850  -13.5331   20.3783 N   0  0  0  0  0  0
  -26.3000  -12.9357   20.3293 N   0  0  0  0  0  0
  -25.9375  -11.6514   20.5766 N   0  0  0  0  0  0
  -22.0519  -12.8260   22.0384 N   0  0  0  0  0  0
  -25.4341  -15.1909   20.4249 N   0  0  0  0  0  0
  -31.8102  -14.8455   20.2127 O   0  0  0  0  0  0
  -21.6632   -6.8920   21.4265 O   0  0  0  0  0  0
  -22.3616  -14.5565   20.6682 O   0  0  0  0  0  0
  -24.6274  -31.8477   23.1903 C   0  0  0  0  0  0
  -25.9086  -32.4690   23.8269 C   0  0  1  0  0  0
  -27.2354  -27.2396   20.1500 C   0  0  0  0  0  0
  -25.5857  -33.8510   24.2176 N   0  0  0  0  0  0
  -23.4262  -30.4578   21.5350 C   0  0  2  0  0  0
  -24.8809  -28.8899   20.1162 C   0  0  0  0  0  0
  -22.7462  -29.4545   22.4955 C   0  0  0  0  0  0
  -18.0273  -28.1385   22.8433 C   0  0  0  0  0  0
  -24.1469  -36.7281   23.2641 C   0  0  0  0  0  0
  -25.9675  -30.7499   21.3747 C   0  0  0  0  0  0
  -26.0433  -29.3648   20.7304 C   0  0  0  0  0  0
  -27.2142  -28.5442   20.7509 C   0  0  0  0  0  0
  -26.0543  -26.8285   19.4976 C   0  0  0  0  0  0
  -24.8874  -27.6264   19.4974 C   0  0  0  0  0  0
  -23.6465  -29.7690   20.1608 C   0  0  0  0  0  0
  -25.4100  -36.3035   24.0300 C   0  0  1  0  0  0
  -20.5864  -28.3688   23.1268 C   0  0  2  0  0  0
  -20.6759  -26.9399   22.5431 C   0  0  0  0  0  0
  -19.5756  -26.6373   21.5201 C   0  0  0  0  0  0
  -18.1921  -26.7908   22.1588 C   0  0  0  0  0  0
  -19.1524  -28.8852   23.2826 C   0  0  0  0  0  0
  -18.9464  -30.1453   23.8837 C   0  0  0  0  0  0
  -17.6484  -30.6584   24.0552 C   0  0  0  0  0  0
  -25.9046  -34.9396   23.5056 C   0  0  0  0  0  0
  -16.5365  -29.9087   23.6336 C   0  0  0  0  0  0
  -16.7265  -28.6516   23.0315 C   0  0  0  0  0  0
  -26.4442  -31.6548   25.0696 C   0  0  0  0  0  0
  -25.3638  -31.3770   26.1415 C   0  0  0  0  0  0
  -27.0315  -30.2933   24.6260 C   0  0  0  0  0  0
  -27.5970  -32.4347   25.7475 C   0  0  0  0  0  0
  -27.5547  -37.1773   24.8444 C   0  0  0  0  0  0
  -21.4181  -29.3005   22.3660 N   0  0  0  0  0  0
  -26.4264  -37.3737   23.9387 N   0  0  0  0  0  0
  -24.6916  -31.0392   22.0895 N   0  0  0  0  0  0
  -23.4143  -28.8111   23.3088 O   0  0  0  0  0  0
  -28.3574  -26.3864   20.2757 O   0  0  0  0  0  0
  -26.5652  -34.8877   22.4654 O   0  0  0  0  0  0
  -23.5409  -32.1352   23.7176 O   0  0  0  0  0  0
  -31.0109  -17.6193   21.8232 C   0  0  0  0  0  0
  -31.1994  -18.9483   22.2347 C   0  0  0  0  0  0
  -30.0610  -17.3362   20.8303 C   0  0  0  0  0  0
  -29.6558  -19.7256   20.7355 C   0  0  0  0  0  0
  -33.0640  -23.2228   18.9042 C   0  0  0  0  0  0
  -32.5800  -20.8317   19.3219 C   0  0  0  0  0  0
  -31.3077  -22.0724   17.5566 C   0  0  0  0  0  0
  -28.4778  -23.5799   20.4182 C   0  0  0  0  0  0
  -30.8980  -22.6295   20.0564 C   0  0  0  0  0  0
  -28.5434  -25.0301   19.6519 C   0  0  0  0  0  0
  -29.3737  -22.3156   19.8816 C   0  0  1  0  0  0
  -31.9276  -22.1790   18.9638 C   0  0  0  0  0  0
  -30.5210  -19.9784   21.6976 N   0  0  0  0  0  0
  -29.3741  -18.4462   20.3225 N   0  0  0  0  0  0
  -29.7889  -15.9000   20.5305 N   0  0  0  0  0  0
  -28.9563  -20.8729   20.2124 N   0  0  0  0  0  0
  -31.4777  -12.5917   19.1509 H   0  0  0  0  0  0
  -30.3913  -11.4903   19.9425 H   0  0  0  0  0  0
  -29.7861  -11.7037   17.5205 H   0  0  0  0  0  0
  -29.6261  -13.4346   17.6879 H   0  0  0  0  0  0
  -27.9198  -11.2651   18.9400 H   0  0  0  0  0  0
  -27.3681  -12.4711   17.8125 H   0  0  0  0  0  0
  -27.6367  -14.2378   19.4473 H   0  0  0  0  0  0
  -28.7462  -12.1850   21.4312 H   0  0  0  0  0  0
  -28.4357  -13.8640   21.7820 H   0  0  0  0  0  0
  -25.2819   -9.5650   22.4762 H   0  0  0  0  0  0
  -24.0014   -7.4641   22.7500 H   0  0  0  0  0  0
  -21.0870   -8.8846   19.8967 H   0  0  0  0  0  0
  -22.3807  -10.9703   19.6164 H   0  0  0  0  0  0
  -21.2019   -7.6164   23.9759 H   0  0  0  0  0  0
  -21.1452   -6.0522   25.9091 H   0  0  0  0  0  0
  -22.0604   -2.7638   23.2835 H   0  0  0  0  0  0
  -22.4106  -11.9895   22.4746 H   0  0  0  0  0  0
  -21.1141  -13.1326   22.2573 H   0  0  0  0  0  0
  -24.6745  -15.8438   20.5780 H   0  0  0  0  0  0
  -26.2914  -15.6435   20.1415 H   0  0  0  0  0  0
  -26.7142  -32.5324   23.1007 H   0  0  0  0  0  0
  -24.9894  -33.9637   25.0248 H   0  0  0  0  0  0
  -22.7215  -31.2759   21.3712 H   0  0  0  0  0  0
  -23.3703  -35.9632   23.3310 H   0  0  0  0  0  0
  -24.3561  -36.8938   22.2051 H   0  0  0  0  0  0
  -23.7284  -37.6498   23.6704 H   0  0  0  0  0  0
  -26.0924  -31.4959   20.5890 H   0  0  0  0  0  0
  -26.8478  -30.8190   22.0011 H   0  0  0  0  0  0
  -28.0925  -28.8905   21.2757 H   0  0  0  0  0  0
  -25.9971  -25.8576   19.0274 H   0  0  0  0  0  0
  -23.9851  -27.2486   19.0354 H   0  0  0  0  0  0
  -23.7620  -30.5258   19.3860 H   0  0  0  0  0  0
  -22.7709  -29.1826   19.8753 H   0  0  0  0  0  0
  -25.1298  -36.1844   25.0789 H   0  0  0  0  0  0
  -20.9899  -28.3285   24.1413 H   0  0  0  0  0  0
  -20.5631  -26.2299   23.3644 H   0  0  0  0  0  0
  -21.6633  -26.7417   22.1245 H   0  0  0  0  0  0
  -19.6938  -25.6279   21.1239 H   0  0  0  0  0  0
  -19.6711  -27.3171   20.6714 H   0  0  0  0  0  0
  -17.4196  -26.6616   21.3993 H   0  0  0  0  0  0
  -18.0331  -26.0061   22.8993 H   0  0  0  0  0  0
  -19.7961  -30.7250   24.2168 H   0  0  0  0  0  0
  -17.5067  -31.6249   24.5173 H   0  0  0  0  0  0
  -15.5368  -30.2982   23.7734 H   0  0  0  0  0  0
  -15.8647  -28.0874   22.7012 H   0  0  0  0  0  0
  -24.5899  -30.6973   25.7832 H   0  0  0  0  0  0
  -24.8697  -32.2938   26.4617 H   0  0  0  0  0  0
  -25.7947  -30.9185   27.0327 H   0  0  0  0  0  0
  -26.2942  -29.6656   24.1226 H   0  0  0  0  0  0
  -27.3890  -29.7217   25.4847 H   0  0  0  0  0  0
  -27.8843  -30.4167   23.9581 H   0  0  0  0  0  0
  -27.2553  -33.3723   26.1894 H   0  0  0  0  0  0
  -28.3846  -32.6813   25.0331 H   0  0  0  0  0  0
  -28.0538  -31.8577   26.5524 H   0  0  0  0  0  0
  -28.2544  -38.0080   24.7482 H   0  0  0  0  0  0
  -28.1065  -36.2612   24.6286 H   0  0  0  0  0  0
  -27.2266  -37.1445   25.8847 H   0  0  0  0  0  0
  -20.9395  -29.8728   21.6844 H   0  0  0  0  0  0
  -26.0119  -38.2789   24.1441 H   0  0  0  0  0  0
  -31.5650  -16.8292   22.3095 H   0  0  0  0  0  0
  -31.8906  -19.1900   23.0289 H   0  0  0  0  0  0
  -33.8355  -22.9319   18.1874 H   0  0  0  0  0  0
  -33.5488  -23.3408   19.8752 H   0  0  0  0  0  0
  -32.6983  -24.2040   18.5955 H   0  0  0  0  0  0
  -33.4200  -20.6097   18.6639 H   0  0  0  0  0  0
  -31.8819  -20.0036   19.2280 H   0  0  0  0  0  0
  -32.9605  -20.8343   20.3446 H   0  0  0  0  0  0
  -32.0618  -21.8793   16.7914 H   0  0  0  0  0  0
  -30.7951  -22.9945   17.2817 H   0  0  0  0  0  0
  -30.5898  -21.2542   17.4922 H   0  0  0  0  0  0
  -27.4313  -23.2773   20.3992 H   0  0  0  0  0  0
  -28.7100  -23.7231   21.4735 H   0  0  0  0  0  0
  -31.2427  -22.3366   21.0464 H   0  0  0  0  0  0
  -30.9802  -23.7122   20.1111 H   0  0  0  0  0  0
  -27.9849  -24.9696   18.7183 H   0  0  0  0  0  0
  -29.5729  -25.1299   19.3160 H   0  0  0  0  0  0
  -29.1724  -22.3625   18.8150 H   0  0  0  0  0  0
  -28.8125  -15.6916   20.4108 H   0  0  0  0  0  0
  -28.1877  -20.5812   19.6191 H   0  0  0  0  0  0
  1 25  1  0  0  0
  1 30  2  0  0  0
  1 85  1  0  0  0
  2  3  1  0  0  0
  2 25  1  0  0  0
  2 87  1  0  0  0
  2 88  1  0  0  0
  3  4  1  0  0  0
  3 89  1  0  0  0
  3 90  1  0  0  0
  4  5  1  0  0  0
  4 91  1  0  0  0
  4 92  1  0  0  0
  5  6  1  0  0  0
  5 26  1  0  0  0
  5 93  1  0  0  0
  6 25  1  0  0  0
  6 94  1  0  0  0
  6 95  1  0  0  0
  7  8  2  0  0  0
  7 26  1  0  0  0
  7 29  1  0  0  0
  8  9  1  0  0  0
  8 22  1  0  0  0
  9 10  1  0  0  0
  9 27  2  0  0  0
 10 11  2  0  0  0
 10 15  1  0  0  0
 11 12  1  0  0  0
 11 96  1  0  0  0
 12 13  2  0  0  0
 12 97  1  0  0  0
 13 14  1  0  0  0
 13 31  1  0  0  0
 14 15  2  0  0  0
 14 98  1  0  0  0
 15 99  1  0  0  0
 16 17  2  0  0  0
 16 21  1  0  0  0
 16 31  1  0  0  0
 17 18  1  0  0  0
 17100  1  0  0  0
 18 19  2  0  0  0
 18101  1  0  0  0
 19 20  1  0  0  0
 19 24  1  0  0  0
 20 21  2  0  0  0
 20102  1  0  0  0
 21 23  1  0  0  0
 22 28  1  0  0  0
 22 32  2  0  0  0
 26 27  1  0  0  0
 28103  1  0  0  0
 28104  1  0  0  0
 29105  1  0  0  0
 29106  1  0  0  0
 33 34  1  0  0  0
 33 66  1  0  0  0
 33 70  2  0  0  0
 34 36  1  0  0  0
 34 59  1  0  0  0
 34107  1  0  0  0
 35 44  2  0  0  0
 35 45  1  0  0  0
 35 68  1  0  0  0
 36 56  1  0  0  0
 36108  1  0  0  0
 37 39  1  0  0  0
 37 47  1  0  0  0
 37 66  1  0  0  0
 37109  1  0  0  0
 38 43  2  0  0  0
 38 46  1  0  0  0
 38 47  1  0  0  0
 39 64  1  0  0  0
 39 67  2  0  0  0
 40 52  1  0  0  0
 40 53  2  0  0  0
 40 58  1  0  0  0
 41110  1  0  0  0
 41111  1  0  0  0
 41112  1  0  0  0
 41 48  1  0  0  0
 42 43  1  0  0  0
 42 66  1  0  0  0
 42113  1  0  0  0
 42114  1  0  0  0
 43 44  1  0  0  0
 44115  1  0  0  0
 45 46  2  0  0  0
 45116  1  0  0  0
 46117  1  0  0  0
 47118  1  0  0  0
 47119  1  0  0  0
 48 56  1  0  0  0
 48 65  1  0  0  0
 48120  1  0  0  0
 49 50  1  0  0  0
 49 53  1  0  0  0
 49 64  1  0  0  0
 49121  1  0  0  0
 50 51  1  0  0  0
 50122  1  0  0  0
 50123  1  0  0  0
 51 52  1  0  0  0
 51124  1  0  0  0
 51125  1  0  0  0
 52126  1  0  0  0
 52127  1  0  0  0
 53 54  1  0  0  0
 54 55  2  0  0  0
 54128  1  0  0  0
 55 57  1  0  0  0
 55129  1  0  0  0
 56 69  2  0  0  0
 57 58  2  0  0  0
 57130  1  0  0  0
 58131  1  0  0  0
 59 60  1  0  0  0
 59 61  1  0  0  0
 59 62  1  0  0  0
 60132  1  0  0  0
 60133  1  0  0  0
 60134  1  0  0  0
 61135  1  0  0  0
 61136  1  0  0  0
 61137  1  0  0  0
 62138  1  0  0  0
 62139  1  0  0  0
 62140  1  0  0  0
 63 65  1  0  0  0
 63141  1  0  0  0
 63142  1  0  0  0
 63143  1  0  0  0
 64144  1  0  0  0
 65145  1  0  0  0
 68 80  1  0  0  0
 71 72  2  0  0  0
 71 73  1  0  0  0
 71146  1  0  0  0
 72 83  1  0  0  0
 72147  1  0  0  0
 73 84  2  0  0  0
 73 85  1  0  0  0
 74 83  2  0  0  0
 74 84  1  0  0  0
 74 86  1  0  0  0
 75148  1  0  0  0
 75149  1  0  0  0
 75150  1  0  0  0
 75 82  1  0  0  0
 76 82  1  0  0  0
 76151  1  0  0  0
 76152  1  0  0  0
 76153  1  0  0  0
 77 82  1  0  0  0
 77154  1  0  0  0
 77155  1  0  0  0
 77156  1  0  0  0
 78 80  1  0  0  0
 78157  1  0  0  0
 78158  1  0  0  0
 78 81  1  0  0  0
 79 81  1  0  0  0
 79 82  1  0  0  0
 79159  1  0  0  0
 79160  1  0  0  0
 80161  1  0  0  0
 80162  1  0  0  0
 81 86  1  0  0  0
 81163  1  0  0  0
 85164  1  0  0  0
 86165  1  0  0  0
M  ISO  4   1 100  68 101  80 101  85 100
M  END
> <chiral flag>
0

> <version>
0

> <s_m_source_file>
/data/baiqing/PycharmProjects/Reinvent-master-3.2/result/LINK_invent/BTK/process_docking_weight1_custom_product_contain_oxygen_bond_distance_aromatic_linkinvent_7_9_3/rearranged_h_0198.sdf

> <i_m_source_file_index>
84

> <r_mmod_Potential_Energy-OPLS-2005>
-174.736450195312

> <r_mmod_Stretch_Energy-OPLS-2005>
140.784912109375

> <r_mmod_Bend_Energy-OPLS-2005>
232.059371948242

> <r_mmod_Torsional_Energy-OPLS-2005>
255.16194152832

> <r_mmod_Improper_Torsional_Energy-OPLS-2005>
9.51657581329346

> <r_mmod_Van_der_Waal_Energy-OPLS-2005>
144.869827270508

> <r_mmod_Electrostatic_Energy-OPLS-2005>
-820.100708007812

> <r_mmod_Solvation_Energy-OPLS-2005>
-235.44743347168

> <b_mmod_Minimization_Converged-OPLS-2005>
0

> <r_mmod_RMS_Derivative-OPLS-2005>
5.09646511077881

$$$$
84
                    3D
 Structure written by MMmdl.
148156  0  0  1  0            999 V2000
  -30.6447  -14.6892   20.4895 C   0  0  0  0  0  0
  -30.4287  -12.4292   19.4560 C   0  0  0  0  0  0
  -29.5022  -12.5004   18.2239 C   0  0  0  0  0  0
  -28.0288  -12.3317   18.6428 C   0  0  0  0  0  0
  -27.6428  -13.2275   19.8502 C   0  0  2  0  0  0
  -28.6900  -13.1436   20.9811 C   0  0  0  0  0  0
  -25.2519  -13.8194   20.5698 C   0  0  0  0  0  0
  -24.1805  -13.0442   20.9210 C   0  0  0  0  0  0
  -24.6391  -11.6918   20.8752 C   0  0  0  0  0  0
  -23.9068  -10.4295   21.0411 C   0  0  0  0  0  0
  -24.3619   -9.4208   21.9186 C   0  0  0  0  0  0
  -23.6294   -8.2243   22.0754 C   0  0  0  0  0  0
  -22.4276   -8.0282   21.3544 C   0  0  0  0  0  0
  -21.9913   -9.0256   20.4647 C   0  0  0  0  0  0
  -22.7242  -10.2136   20.3058 C   0  0  0  0  0  0
  -21.6853   -6.0736   22.5279 C   0  0  0  0  0  0
  -21.4014   -6.5640   23.8212 C   0  0  0  0  0  0
  -21.3659   -5.6794   24.9174 C   0  0  0  0  0  0
  -21.6045   -4.3056   24.7225 C   0  0  0  0  0  0
  -21.8819   -3.8148   23.4346 C   0  0  0  0  0  0
  -21.9193   -4.6964   22.3402 C   0  0  0  0  0  0
  -22.7826  -13.5225   21.1869 C   0  0  0  0  0  0
  -22.1662   -4.2149   21.0980 F   0  0  0  0  0  0
  -21.5629   -3.4540   25.7738 F   0  0  0  0  0  0
  -29.9922  -13.4845   20.3952 N   0  0  0  0  0  0
  -26.2944  -12.9394   20.3290 N   0  0  0  0  0  0
  -25.9320  -11.6540   20.5760 N   0  0  0  0  0  0
  -22.0474  -12.8213   22.0425 N   0  0  0  0  0  0
  -25.4215  -15.1917   20.4107 N   0  0  0  0  0  0
  -31.8349  -14.7763   20.1780 O   0  0  0  0  0  0
  -21.6640   -6.8879   21.4241 O   0  0  0  0  0  0
  -22.3510  -14.5531   20.6716 O   0  0  0  0  0  0
  -24.6303  -31.8575   23.2012 C   0  0  0  0  0  0
  -25.9137  -32.4765   23.8348 C   0  0  1  0  0  0
  -27.2145  -27.2816   20.1185 C   0  0  0  0  0  0
  -25.5940  -33.8567   24.2270 N   0  0  0  0  0  0
  -23.4248  -30.4835   21.5452 C   0  0  2  0  0  0
  -24.8691  -28.9376   20.1113 C   0  0  0  0  0  0
  -22.7495  -29.4620   22.4921 C   0  0  0  0  0  0
  -18.0291  -28.1389   22.8486 C   0  0  0  0  0  0
  -24.1488  -36.7284   23.2640 C   0  0  0  0  0  0
  -25.9710  -30.7775   21.3780 C   0  0  0  0  0  0
  -26.0429  -29.4035   20.7167 C   0  0  0  0  0  0
  -27.2202  -28.5895   20.7073 C   0  0  0  0  0  0
  -26.0131  -26.8828   19.4865 C   0  0  0  0  0  0
  -24.8586  -27.6842   19.4862 C   0  0  0  0  0  0
  -23.6406  -29.8230   20.1597 C   0  0  0  0  0  0
  -25.4115  -36.3073   24.0328 C   0  0  1  0  0  0
  -20.5895  -28.3698   23.1271 C   0  0  2  0  0  0
  -20.6781  -26.9418   22.5406 C   0  0  0  0  0  0
  -19.5755  -26.6385   21.5211 C   0  0  0  0  0  0
  -18.1934  -26.7932   22.1624 C   0  0  0  0  0  0
  -19.1545  -28.8859   23.2873 C   0  0  0  0  0  0
  -18.9467  -30.1460   23.8890 C   0  0  0  0  0  0
  -17.6467  -30.6590   24.0562 C   0  0  0  0  0  0
  -25.9056  -34.9445   23.5098 C   0  0  0  0  0  0
  -16.5356  -29.9089   23.6334 C   0  0  0  0  0  0
  -16.7276  -28.6507   23.0354 C   0  0  0  0  0  0
  -26.4506  -31.6585   25.0731 C   0  0  0  0  0  0
  -25.3729  -31.3738   26.1452 C   0  0  0  0  0  0
  -27.0356  -30.3005   24.6213 C   0  0  0  0  0  0
  -27.6054  -32.4331   25.7506 C   0  0  0  0  0  0
  -27.5576  -37.1799   24.8466 C   0  0  0  0  0  0
  -21.4204  -29.3048   22.3663 N   0  0  0  0  0  0
  -26.4289  -37.3772   23.9409 N   0  0  0  0  0  0
  -24.6945  -31.0567   22.0976 N   0  0  0  0  0  0
  -23.4205  -28.8152   23.3005 O   0  0  0  0  0  0
  -28.3128  -26.3938   20.1630 O   0  0  0  0  0  0
  -26.5621  -34.8918   22.4663 O   0  0  0  0  0  0
  -23.5458  -32.1386   23.7323 O   0  0  0  0  0  0
  -30.3817  -19.2631   19.5209 C   0  0  0  0  0  0
  -29.9313  -18.5627   20.6272 C   0  0  0  0  0  0
  -29.2459  -21.0597   20.4585 C   0  0  0  0  0  0
  -30.4496  -17.1837   21.1730 C   0  0  0  0  0  0
  -29.1835  -23.8174   20.3083 C   0  0  0  0  0  0
  -28.0258  -24.9231   20.1808 C   0  0  0  0  0  0
  -30.0214  -20.6399   19.4516 N   0  0  0  0  0  0
  -28.7813  -22.4046   20.6630 N   0  0  0  0  0  0
  -29.9110  -15.8247   20.7690 N   0  0  0  0  0  0
  -28.9077  -19.6823   21.5668 S   0  0  0  0  0  0
  -31.4691  -12.5491   19.1495 H   0  0  0  0  0  0
  -30.3678  -11.4488   19.9309 H   0  0  0  0  0  0
  -29.7753  -11.7308   17.5007 H   0  0  0  0  0  0
  -29.6339  -13.4578   17.7174 H   0  0  0  0  0  0
  -27.8802  -11.2825   18.9005 H   0  0  0  0  0  0
  -27.3692  -12.5318   17.7976 H   0  0  0  0  0  0
  -27.6438  -14.2521   19.4777 H   0  0  0  0  0  0
  -28.7178  -12.1417   21.4121 H   0  0  0  0  0  0
  -28.4334  -13.8198   21.7982 H   0  0  0  0  0  0
  -25.2762   -9.5684   22.4762 H   0  0  0  0  0  0
  -24.0002   -7.4633   22.7470 H   0  0  0  0  0  0
  -21.0846   -8.8774   19.8951 H   0  0  0  0  0  0
  -22.3700  -10.9675   19.6168 H   0  0  0  0  0  0
  -21.2004   -7.6149   23.9716 H   0  0  0  0  0  0
  -21.1481   -6.0524   25.9077 H   0  0  0  0  0  0
  -22.0598   -2.7610   23.2846 H   0  0  0  0  0  0
  -22.4092  -11.9870   22.4805 H   0  0  0  0  0  0
  -21.1092  -13.1234   22.2638 H   0  0  0  0  0  0
  -24.6529  -15.8447   20.5183 H   0  0  0  0  0  0
  -26.2666  -15.6314   20.0694 H   0  0  0  0  0  0
  -26.7203  -32.5419   23.1089 H   0  0  0  0  0  0
  -25.0094  -33.9709   25.0420 H   0  0  0  0  0  0
  -22.7204  -31.3056   21.4031 H   0  0  0  0  0  0
  -23.3752  -35.9615   23.3303 H   0  0  0  0  0  0
  -24.3578  -36.8904   22.2053 H   0  0  0  0  0  0
  -23.7242  -37.6487   23.6661 H   0  0  0  0  0  0
  -26.1107  -31.5415   20.6119 H   0  0  0  0  0  0
  -26.8484  -30.8216   22.0116 H   0  0  0  0  0  0
  -28.1196  -28.9432   21.1916 H   0  0  0  0  0  0
  -25.9227  -25.9332   18.9848 H   0  0  0  0  0  0
  -23.9602  -27.3222   19.0051 H   0  0  0  0  0  0
  -23.7650  -30.6016   19.4062 H   0  0  0  0  0  0
  -22.7586  -29.2578   19.8536 H   0  0  0  0  0  0
  -25.1299  -36.1917   25.0820 H   0  0  0  0  0  0
  -20.9988  -28.3271   24.1391 H   0  0  0  0  0  0
  -20.5686  -26.2307   23.3609 H   0  0  0  0  0  0
  -21.6649  -26.7446   22.1193 H   0  0  0  0  0  0
  -19.6917  -25.6295   21.1244 H   0  0  0  0  0  0
  -19.6691  -27.3192   20.6739 H   0  0  0  0  0  0
  -17.4205  -26.6675   21.4026 H   0  0  0  0  0  0
  -18.0334  -26.0079   22.9025 H   0  0  0  0  0  0
  -19.7943  -30.7279   24.2253 H   0  0  0  0  0  0
  -17.5023  -31.6270   24.5165 H   0  0  0  0  0  0
  -15.5358  -30.2990   23.7669 H   0  0  0  0  0  0
  -15.8675  -28.0825   22.7072 H   0  0  0  0  0  0
  -24.5906  -30.7082   25.7785 H   0  0  0  0  0  0
  -24.8917  -32.2911   26.4857 H   0  0  0  0  0  0
  -25.8049  -30.8933   27.0238 H   0  0  0  0  0  0
  -26.2942  -29.6751   24.1225 H   0  0  0  0  0  0
  -27.4030  -29.7267   25.4731 H   0  0  0  0  0  0
  -27.8824  -30.4284   23.9465 H   0  0  0  0  0  0
  -27.2651  -33.3635   26.2066 H   0  0  0  0  0  0
  -28.3876  -32.6887   25.0345 H   0  0  0  0  0  0
  -28.0710  -31.8468   26.5438 H   0  0  0  0  0  0
  -28.2595  -38.0094   24.7510 H   0  0  0  0  0  0
  -28.1071  -36.2626   24.6297 H   0  0  0  0  0  0
  -27.2294  -37.1454   25.8869 H   0  0  0  0  0  0
  -20.9382  -29.8779   21.6880 H   0  0  0  0  0  0
  -26.0166  -38.2845   24.1411 H   0  0  0  0  0  0
  -31.0665  -18.8859   18.7741 H   0  0  0  0  0  0
  -30.3565  -17.2116   22.2594 H   0  0  0  0  0  0
  -31.5286  -17.1700   21.0109 H   0  0  0  0  0  0
  -29.8778  -24.1472   21.0819 H   0  0  0  0  0  0
  -29.7621  -23.7956   19.3839 H   0  0  0  0  0  0
  -27.3175  -24.7575   20.9942 H   0  0  0  0  0  0
  -27.5062  -24.6550   19.2629 H   0  0  0  0  0  0
  -28.1028  -22.4146   21.4199 H   0  0  0  0  0  0
  -28.9233  -15.6801   20.9134 H   0  0  0  0  0  0
  1 25  1  0  0  0
  1 30  2  0  0  0
  1 79  1  0  0  0
  2  3  1  0  0  0
  2 25  1  0  0  0
  2 81  1  0  0  0
  2 82  1  0  0  0
  3  4  1  0  0  0
  3 83  1  0  0  0
  3 84  1  0  0  0
  4  5  1  0  0  0
  4 85  1  0  0  0
  4 86  1  0  0  0
  5  6  1  0  0  0
  5 26  1  0  0  0
  5 87  1  0  0  0
  6 25  1  0  0  0
  6 88  1  0  0  0
  6 89  1  0  0  0
  7  8  2  0  0  0
  7 26  1  0  0  0
  7 29  1  0  0  0
  8  9  1  0  0  0
  8 22  1  0  0  0
  9 10  1  0  0  0
  9 27  2  0  0  0
 10 11  2  0  0  0
 10 15  1  0  0  0
 11 12  1  0  0  0
 11 90  1  0  0  0
 12 13  2  0  0  0
 12 91  1  0  0  0
 13 14  1  0  0  0
 13 31  1  0  0  0
 14 15  2  0  0  0
 14 92  1  0  0  0
 15 93  1  0  0  0
 16 17  2  0  0  0
 16 21  1  0  0  0
 16 31  1  0  0  0
 17 18  1  0  0  0
 17 94  1  0  0  0
 18 19  2  0  0  0
 18 95  1  0  0  0
 19 20  1  0  0  0
 19 24  1  0  0  0
 20 21  2  0  0  0
 20 96  1  0  0  0
 21 23  1  0  0  0
 22 28  1  0  0  0
 22 32  2  0  0  0
 26 27  1  0  0  0
 28 97  1  0  0  0
 28 98  1  0  0  0
 29 99  1  0  0  0
 29100  1  0  0  0
 33 34  1  0  0  0
 33 66  1  0  0  0
 33 70  2  0  0  0
 34 36  1  0  0  0
 34 59  1  0  0  0
 34101  1  0  0  0
 35 44  2  0  0  0
 35 45  1  0  0  0
 35 68  1  0  0  0
 36 56  1  0  0  0
 36102  1  0  0  0
 37 39  1  0  0  0
 37 47  1  0  0  0
 37 66  1  0  0  0
 37103  1  0  0  0
 38 43  2  0  0  0
 38 46  1  0  0  0
 38 47  1  0  0  0
 39 64  1  0  0  0
 39 67  2  0  0  0
 40 52  1  0  0  0
 40 53  2  0  0  0
 40 58  1  0  0  0
 41104  1  0  0  0
 41105  1  0  0  0
 41106  1  0  0  0
 41 48  1  0  0  0
 42 43  1  0  0  0
 42 66  1  0  0  0
 42107  1  0  0  0
 42108  1  0  0  0
 43 44  1  0  0  0
 44109  1  0  0  0
 45 46  2  0  0  0
 45110  1  0  0  0
 46111  1  0  0  0
 47112  1  0  0  0
 47113  1  0  0  0
 48 56  1  0  0  0
 48 65  1  0  0  0
 48114  1  0  0  0
 49 50  1  0  0  0
 49 53  1  0  0  0
 49 64  1  0  0  0
 49115  1  0  0  0
 50 51  1  0  0  0
 50116  1  0  0  0
 50117  1  0  0  0
 51 52  1  0  0  0
 51118  1  0  0  0
 51119  1  0  0  0
 52120  1  0  0  0
 52121  1  0  0  0
 53 54  1  0  0  0
 54 55  2  0  0  0
 54122  1  0  0  0
 55 57  1  0  0  0
 55123  1  0  0  0
 56 69  2  0  0  0
 57 58  2  0  0  0
 57124  1  0  0  0
 58125  1  0  0  0
 59 60  1  0  0  0
 59 61  1  0  0  0
 59 62  1  0  0  0
 60126  1  0  0  0
 60127  1  0  0  0
 60128  1  0  0  0
 61129  1  0  0  0
 61130  1  0  0  0
 61131  1  0  0  0
 62132  1  0  0  0
 62133  1  0  0  0
 62134  1  0  0  0
 63 65  1  0  0  0
 63135  1  0  0  0
 63136  1  0  0  0
 63137  1  0  0  0
 64138  1  0  0  0
 65139  1  0  0  0
 68 76  1  0  0  0
 71 72  2  0  0  0
 71 77  1  0  0  0
 71140  1  0  0  0
 72 74  1  0  0  0
 72 80  1  0  0  0
 73 77  2  0  0  0
 73 78  1  0  0  0
 73 80  1  0  0  0
 74 79  1  0  0  0
 74141  1  0  0  0
 74142  1  0  0  0
 75 76  1  0  0  0
 75 78  1  0  0  0
 75143  1  0  0  0
 75144  1  0  0  0
 76145  1  0  0  0
 76146  1  0  0  0
 78147  1  0  0  0
 79148  1  0  0  0
M  ISO  4   1 100  68 101  76 101  79 100
M  END
> <chiral flag>
0

> <version>
0

> <s_m_source_file>
/data/baiqing/PycharmProjects/Reinvent-master-3.2/result/LINK_invent/BTK/process_docking_weight1_custom_product_contain_oxygen_bond_distance_aromatic_linkinvent_7_9_3/rearranged_h_0198.sdf

> <i_m_source_file_index>
85

> <r_mmod_Potential_Energy-OPLS-2005>
-6.10393285751343

> <r_mmod_Stretch_Energy-OPLS-2005>
93.0892486572266

> <r_mmod_Bend_Energy-OPLS-2005>
153.889709472656

> <r_mmod_Torsional_Energy-OPLS-2005>
208.72004699707

> <r_mmod_Improper_Torsional_Energy-OPLS-2005>
6.40135288238525

> <r_mmod_Van_der_Waal_Energy-OPLS-2005>
123.607856750488

> <r_mmod_Electrostatic_Energy-OPLS-2005>
-424.353912353516

> <r_mmod_Solvation_Energy-OPLS-2005>
-236.595260620117

> <b_mmod_Minimization_Converged-OPLS-2005>
0

> <r_mmod_RMS_Derivative-OPLS-2005>
0.346932888031006

$$$$
85
                    3D
 Structure written by MMmdl.
161169  0  0  1  0            999 V2000
  -30.6160  -14.6631   20.5184 C   0  0  0  0  0  0
  -30.4414  -12.4099   19.4594 C   0  0  0  0  0  0
  -29.5100  -12.5180   18.2302 C   0  0  0  0  0  0
  -28.0330  -12.3522   18.6392 C   0  0  0  0  0  0
  -27.6547  -13.2199   19.8678 C   0  0  2  0  0  0
  -28.6986  -13.0725   20.9987 C   0  0  0  0  0  0
  -25.2562  -13.8170   20.5698 C   0  0  0  0  0  0
  -24.1828  -13.0436   20.9194 C   0  0  0  0  0  0
  -24.6399  -11.6908   20.8746 C   0  0  0  0  0  0
  -23.9066  -10.4291   21.0411 C   0  0  0  0  0  0
  -24.3615   -9.4206   21.9190 C   0  0  0  0  0  0
  -23.6287   -8.2244   22.0759 C   0  0  0  0  0  0
  -22.4271   -8.0279   21.3546 C   0  0  0  0  0  0
  -21.9903   -9.0254   20.4652 C   0  0  0  0  0  0
  -22.7235  -10.2133   20.3062 C   0  0  0  0  0  0
  -21.6850   -6.0734   22.5280 C   0  0  0  0  0  0
  -21.4016   -6.5642   23.8214 C   0  0  0  0  0  0
  -21.3657   -5.6794   24.9175 C   0  0  0  0  0  0
  -21.6044   -4.3057   24.7228 C   0  0  0  0  0  0
  -21.8818   -3.8146   23.4351 C   0  0  0  0  0  0
  -21.9193   -4.6961   22.3405 C   0  0  0  0  0  0
  -22.7851  -13.5229   21.1854 C   0  0  0  0  0  0
  -22.1664   -4.2147   21.0983 F   0  0  0  0  0  0
  -21.5624   -3.4542   25.7741 F   0  0  0  0  0  0
  -30.0154  -13.4285   20.4435 N   0  0  0  0  0  0
  -26.2993  -12.9360   20.3334 N   0  0  0  0  0  0
  -25.9330  -11.6513   20.5756 N   0  0  0  0  0  0
  -22.0493  -12.8224   22.0413 N   0  0  0  0  0  0
  -25.4285  -15.1889   20.4123 N   0  0  0  0  0  0
  -31.7581  -14.8386   20.0806 O   0  0  0  0  0  0
  -21.6633   -6.8876   21.4243 O   0  0  0  0  0  0
  -22.3543  -14.5536   20.6698 O   0  0  0  0  0  0
  -24.6280  -31.8602   23.2054 C   0  0  0  0  0  0
  -25.9127  -32.4782   23.8376 C   0  0  1  0  0  0
  -27.2077  -27.2796   20.1307 C   0  0  0  0  0  0
  -25.5940  -33.8584   24.2295 N   0  0  0  0  0  0
  -23.4233  -30.4856   21.5487 C   0  0  2  0  0  0
  -24.8697  -28.9433   20.1151 C   0  0  0  0  0  0
  -22.7486  -29.4623   22.4937 C   0  0  0  0  0  0
  -18.0287  -28.1389   22.8491 C   0  0  0  0  0  0
  -24.1487  -36.7286   23.2636 C   0  0  0  0  0  0
  -25.9693  -30.7742   21.3913 C   0  0  0  0  0  0
  -26.0388  -29.3979   20.7385 C   0  0  0  0  0  0
  -27.2087  -28.5736   20.7484 C   0  0  0  0  0  0
  -26.0388  -26.9331   19.4199 C   0  0  0  0  0  0
  -24.8725  -27.7145   19.4465 C   0  0  0  0  0  0
  -23.6415  -29.8276   20.1628 C   0  0  0  0  0  0
  -25.4113  -36.3085   24.0328 C   0  0  1  0  0  0
  -20.5888  -28.3699   23.1277 C   0  0  2  0  0  0
  -20.6777  -26.9419   22.5409 C   0  0  0  0  0  0
  -19.5751  -26.6388   21.5214 C   0  0  0  0  0  0
  -18.1932  -26.7932   22.1628 C   0  0  0  0  0  0
  -19.1541  -28.8861   23.2878 C   0  0  0  0  0  0
  -18.9462  -30.1459   23.8900 C   0  0  0  0  0  0
  -17.6462  -30.6594   24.0563 C   0  0  0  0  0  0
  -25.9055  -34.9454   23.5110 C   0  0  0  0  0  0
  -16.5354  -29.9092   23.6329 C   0  0  0  0  0  0
  -16.7274  -28.6506   23.0360 C   0  0  0  0  0  0
  -26.4509  -31.6591   25.0748 C   0  0  0  0  0  0
  -25.3733  -31.3739   26.1466 C   0  0  0  0  0  0
  -27.0348  -30.3001   24.6231 C   0  0  0  0  0  0
  -27.6062  -32.4331   25.7523 C   0  0  0  0  0  0
  -27.5577  -37.1801   24.8469 C   0  0  0  0  0  0
  -21.4199  -29.3050   22.3671 N   0  0  0  0  0  0
  -26.4292  -37.3778   23.9408 N   0  0  0  0  0  0
  -24.6919  -31.0578   22.1040 N   0  0  0  0  0  0
  -23.4193  -28.8151   23.3022 O   0  0  0  0  0  0
  -28.3021  -26.3870   20.1511 O   0  0  0  0  0  0
  -26.5617  -34.8919   22.4670 O   0  0  0  0  0  0
  -23.5436  -32.1433   23.7347 O   0  0  0  0  0  0
  -29.1922  -17.8801   21.9134 C   0  0  0  0  0  0
  -30.2589  -19.2481   19.8743 C   0  0  0  0  0  0
  -29.8793  -17.1444   20.9044 C   0  0  0  0  0  0
  -29.5775  -19.9751   20.9058 C   0  0  0  0  0  0
  -30.9718  -22.4156   19.3802 C   0  0  0  0  0  0
  -33.4627  -21.8690   19.6772 C   0  0  0  0  0  0
  -27.0091  -24.1170   19.9342 C   0  0  0  0  0  0
  -32.2174  -22.5559   20.2615 C   0  0  0  0  0  0
  -29.4678  -24.0583   20.6291 C   0  0  0  0  0  0
  -29.6004  -22.5318   20.0720 C   0  0  2  0  0  0
  -28.1349  -24.9482   20.5824 C   0  0  2  0  0  0
  -30.4166  -17.8761   19.8801 N   0  0  0  0  0  0
  -29.0559  -19.2434   21.9243 N   0  0  0  0  0  0
  -29.8472  -15.6821   21.0213 N   0  0  0  0  0  0
  -29.3849  -21.4009   21.0460 N   0  0  0  0  0  0
  -31.0825  -22.2034   18.1714 O   0  0  0  0  0  0
  -31.4822  -12.5396   19.1570 H   0  0  0  0  0  0
  -30.3830  -11.4130   19.8995 H   0  0  0  0  0  0
  -29.7770  -11.7664   17.4865 H   0  0  0  0  0  0
  -29.6485  -13.4873   17.7480 H   0  0  0  0  0  0
  -27.8706  -11.2978   18.8667 H   0  0  0  0  0  0
  -27.3783  -12.5861   17.7986 H   0  0  0  0  0  0
  -27.6727  -14.2559   19.5289 H   0  0  0  0  0  0
  -28.7146  -12.0468   21.3699 H   0  0  0  0  0  0
  -28.4333  -13.6909   21.8570 H   0  0  0  0  0  0
  -25.2764   -9.5674   22.4762 H   0  0  0  0  0  0
  -23.9995   -7.4632   22.7474 H   0  0  0  0  0  0
  -21.0836   -8.8770   19.8958 H   0  0  0  0  0  0
  -22.3695  -10.9670   19.6169 H   0  0  0  0  0  0
  -21.2015   -7.6151   23.9716 H   0  0  0  0  0  0
  -21.1479   -6.0528   25.9076 H   0  0  0  0  0  0
  -22.0599   -2.7608   23.2851 H   0  0  0  0  0  0
  -22.4095  -11.9877   22.4797 H   0  0  0  0  0  0
  -21.1117  -13.1263   22.2623 H   0  0  0  0  0  0
  -24.6607  -15.8433   20.5159 H   0  0  0  0  0  0
  -26.2721  -15.6221   20.0595 H   0  0  0  0  0  0
  -26.7188  -32.5447   23.1115 H   0  0  0  0  0  0
  -25.0094  -33.9735   25.0445 H   0  0  0  0  0  0
  -22.7184  -31.3071   21.4065 H   0  0  0  0  0  0
  -23.3756  -35.9614   23.3311 H   0  0  0  0  0  0
  -24.3577  -36.8896   22.2049 H   0  0  0  0  0  0
  -23.7237  -37.6489   23.6653 H   0  0  0  0  0  0
  -26.1091  -31.5334   20.6203 H   0  0  0  0  0  0
  -26.8467  -30.8218   22.0237 H   0  0  0  0  0  0
  -28.0986  -28.9109   21.2614 H   0  0  0  0  0  0
  -26.0038  -26.0523   18.8031 H   0  0  0  0  0  0
  -23.9913  -27.3787   18.9169 H   0  0  0  0  0  0
  -23.7682  -30.6075   19.4111 H   0  0  0  0  0  0
  -22.7607  -29.2619   19.8541 H   0  0  0  0  0  0
  -25.1290  -36.1940   25.0820 H   0  0  0  0  0  0
  -20.9975  -28.3276   24.1400 H   0  0  0  0  0  0
  -20.5685  -26.2306   23.3609 H   0  0  0  0  0  0
  -21.6643  -26.7452   22.1195 H   0  0  0  0  0  0
  -19.6913  -25.6298   21.1245 H   0  0  0  0  0  0
  -19.6687  -27.3198   20.6742 H   0  0  0  0  0  0
  -17.4196  -26.6678   21.4034 H   0  0  0  0  0  0
  -18.0338  -26.0073   22.9025 H   0  0  0  0  0  0
  -19.7938  -30.7268   24.2281 H   0  0  0  0  0  0
  -17.5020  -31.6278   24.5155 H   0  0  0  0  0  0
  -15.5355  -30.2995   23.7658 H   0  0  0  0  0  0
  -15.8671  -28.0821   22.7087 H   0  0  0  0  0  0
  -24.5908  -30.7089   25.7798 H   0  0  0  0  0  0
  -24.8925  -32.2909   26.4884 H   0  0  0  0  0  0
  -25.8048  -30.8924   27.0249 H   0  0  0  0  0  0
  -26.2934  -29.6757   24.1233 H   0  0  0  0  0  0
  -27.3998  -29.7258   25.4757 H   0  0  0  0  0  0
  -27.8833  -30.4268   23.9501 H   0  0  0  0  0  0
  -27.2667  -33.3630   26.2099 H   0  0  0  0  0  0
  -28.3878  -32.6895   25.0359 H   0  0  0  0  0  0
  -28.0725  -31.8458   26.5445 H   0  0  0  0  0  0
  -28.2601  -38.0092   24.7503 H   0  0  0  0  0  0
  -28.1066  -36.2621   24.6313 H   0  0  0  0  0  0
  -27.2291  -37.1467   25.8872 H   0  0  0  0  0  0
  -20.9382  -29.8773   21.6878 H   0  0  0  0  0  0
  -26.0177  -38.2854   24.1409 H   0  0  0  0  0  0
  -28.7288  -17.3605   22.7393 H   0  0  0  0  0  0
  -30.7012  -19.7499   19.0298 H   0  0  0  0  0  0
  -34.3058  -21.9519   20.3627 H   0  0  0  0  0  0
  -33.7619  -22.3204   18.7304 H   0  0  0  0  0  0
  -33.2801  -20.8077   19.5029 H   0  0  0  0  0  0
  -26.0204  -24.4777   20.2124 H   0  0  0  0  0  0
  -27.0978  -24.0809   18.8483 H   0  0  0  0  0  0
  -27.0156  -23.0912   20.3011 H   0  0  0  0  0  0
  -31.9947  -22.1398   21.2442 H   0  0  0  0  0  0
  -32.4167  -23.6171   20.4102 H   0  0  0  0  0  0
  -30.1838  -24.6710   20.0785 H   0  0  0  0  0  0
  -29.8570  -24.0847   21.6477 H   0  0  0  0  0  0
  -28.8599  -22.3968   19.2836 H   0  0  0  0  0  0
  -27.8282  -25.0365   21.6260 H   0  0  0  0  0  0
  -29.0370  -15.3364   21.5109 H   0  0  0  0  0  0
  -28.8973  -21.6626   21.8940 H   0  0  0  0  0  0
  1 25  1  0  0  0
  1 30  2  0  0  0
  1 84  1  0  0  0
  2  3  1  0  0  0
  2 25  1  0  0  0
  2 87  1  0  0  0
  2 88  1  0  0  0
  3  4  1  0  0  0
  3 89  1  0  0  0
  3 90  1  0  0  0
  4  5  1  0  0  0
  4 91  1  0  0  0
  4 92  1  0  0  0
  5  6  1  0  0  0
  5 26  1  0  0  0
  5 93  1  0  0  0
  6 25  1  0  0  0
  6 94  1  0  0  0
  6 95  1  0  0  0
  7  8  2  0  0  0
  7 26  1  0  0  0
  7 29  1  0  0  0
  8  9  1  0  0  0
  8 22  1  0  0  0
  9 10  1  0  0  0
  9 27  2  0  0  0
 10 11  2  0  0  0
 10 15  1  0  0  0
 11 12  1  0  0  0
 11 96  1  0  0  0
 12 13  2  0  0  0
 12 97  1  0  0  0
 13 14  1  0  0  0
 13 31  1  0  0  0
 14 15  2  0  0  0
 14 98  1  0  0  0
 15 99  1  0  0  0
 16 17  2  0  0  0
 16 21  1  0  0  0
 16 31  1  0  0  0
 17 18  1  0  0  0
 17100  1  0  0  0
 18 19  2  0  0  0
 18101  1  0  0  0
 19 20  1  0  0  0
 19 24  1  0  0  0
 20 21  2  0  0  0
 20102  1  0  0  0
 21 23  1  0  0  0
 22 28  1  0  0  0
 22 32  2  0  0  0
 26 27  1  0  0  0
 28103  1  0  0  0
 28104  1  0  0  0
 29105  1  0  0  0
 29106  1  0  0  0
 33 34  1  0  0  0
 33 66  1  0  0  0
 33 70  2  0  0  0
 34 36  1  0  0  0
 34 59  1  0  0  0
 34107  1  0  0  0
 35 44  2  0  0  0
 35 45  1  0  0  0
 35 68  1  0  0  0
 36 56  1  0  0  0
 36108  1  0  0  0
 37 39  1  0  0  0
 37 47  1  0  0  0
 37 66  1  0  0  0
 37109  1  0  0  0
 38 43  2  0  0  0
 38 46  1  0  0  0
 38 47  1  0  0  0
 39 64  1  0  0  0
 39 67  2  0  0  0
 40 52  1  0  0  0
 40 53  2  0  0  0
 40 58  1  0  0  0
 41110  1  0  0  0
 41111  1  0  0  0
 41112  1  0  0  0
 41 48  1  0  0  0
 42 43  1  0  0  0
 42 66  1  0  0  0
 42113  1  0  0  0
 42114  1  0  0  0
 43 44  1  0  0  0
 44115  1  0  0  0
 45 46  2  0  0  0
 45116  1  0  0  0
 46117  1  0  0  0
 47118  1  0  0  0
 47119  1  0  0  0
 48 56  1  0  0  0
 48 65  1  0  0  0
 48120  1  0  0  0
 49 50  1  0  0  0
 49 53  1  0  0  0
 49 64  1  0  0  0
 49121  1  0  0  0
 50 51  1  0  0  0
 50122  1  0  0  0
 50123  1  0  0  0
 51 52  1  0  0  0
 51124  1  0  0  0
 51125  1  0  0  0
 52126  1  0  0  0
 52127  1  0  0  0
 53 54  1  0  0  0
 54 55  2  0  0  0
 54128  1  0  0  0
 55 57  1  0  0  0
 55129  1  0  0  0
 56 69  2  0  0  0
 57 58  2  0  0  0
 57130  1  0  0  0
 58131  1  0  0  0
 59 60  1  0  0  0
 59 61  1  0  0  0
 59 62  1  0  0  0
 60132  1  0  0  0
 60133  1  0  0  0
 60134  1  0  0  0
 61135  1  0  0  0
 61136  1  0  0  0
 61137  1  0  0  0
 62138  1  0  0  0
 62139  1  0  0  0
 62140  1  0  0  0
 63 65  1  0  0  0
 63141  1  0  0  0
 63142  1  0  0  0
 63143  1  0  0  0
 64144  1  0  0  0
 65145  1  0  0  0
 68 81  1  0  0  0
 71 73  2  0  0  0
 71 83  1  0  0  0
 71146  1  0  0  0
 72 74  1  0  0  0
 72 82  2  0  0  0
 72147  1  0  0  0
 73 82  1  0  0  0
 73 84  1  0  0  0
 74 83  2  0  0  0
 74 85  1  0  0  0
 75 78  1  0  0  0
 75 80  1  0  0  0
 75 86  2  0  0  0
 76 78  1  0  0  0
 76148  1  0  0  0
 76149  1  0  0  0
 76150  1  0  0  0
 77151  1  0  0  0
 77152  1  0  0  0
 77153  1  0  0  0
 77 81  1  0  0  0
 78154  1  0  0  0
 78155  1  0  0  0
 79 81  1  0  0  0
 79156  1  0  0  0
 79157  1  0  0  0
 79 80  1  0  0  0
 80 85  1  0  0  0
 80158  1  0  0  0
 81159  1  0  0  0
 84160  1  0  0  0
 85161  1  0  0  0
M  ISO  4   1 100  68 101  81 101  84 100
M  END
> <chiral flag>
0

> <version>
0

> <s_m_source_file>
/data/baiqing/PycharmProjects/Reinvent-master-3.2/result/LINK_invent/BTK/process_docking_weight1_custom_product_contain_oxygen_bond_distance_aromatic_linkinvent_7_9_3/rearranged_h_0198.sdf

> <i_m_source_file_index>
86

> <r_mmod_Potential_Energy-OPLS-2005>
152.493072509766

> <r_mmod_Stretch_Energy-OPLS-2005>
104.648002624512

> <r_mmod_Bend_Energy-OPLS-2005>
200.782745361328

> <r_mmod_Torsional_Energy-OPLS-2005>
246.829345703125

> <r_mmod_Improper_Torsional_Energy-OPLS-2005>
3.32404708862305

> <r_mmod_Van_der_Waal_Energy-OPLS-2005>
156.657089233398

> <r_mmod_Electrostatic_Energy-OPLS-2005>
-377.527526855469

> <r_mmod_Solvation_Energy-OPLS-2005>
-244.265548706055

> <b_mmod_Minimization_Converged-OPLS-2005>
0

> <r_mmod_RMS_Derivative-OPLS-2005>
0.907657146453857

$$$$
86
                    3D
 Structure written by MMmdl.
155163  0  0  1  0            999 V2000
  -30.6938  -14.4469   20.6163 C   0  0  0  0  0  0
  -30.4302  -12.3036   19.4135 C   0  0  0  0  0  0
  -29.4953  -12.5160   18.2039 C   0  0  0  0  0  0
  -28.0157  -12.3741   18.6147 C   0  0  0  0  0  0
  -27.6665  -13.1990   19.8812 C   0  0  2  0  0  0
  -28.7046  -12.9413   20.9961 C   0  0  0  0  0  0
  -25.2612  -13.8145   20.5668 C   0  0  0  0  0  0
  -24.1847  -13.0433   20.9158 C   0  0  0  0  0  0
  -24.6390  -11.6895   20.8722 C   0  0  0  0  0  0
  -23.9052  -10.4288   21.0399 C   0  0  0  0  0  0
  -24.3608   -9.4206   21.9179 C   0  0  0  0  0  0
  -23.6286   -8.2242   22.0754 C   0  0  0  0  0  0
  -22.4270   -8.0278   21.3543 C   0  0  0  0  0  0
  -21.9899   -9.0249   20.4646 C   0  0  0  0  0  0
  -22.7224  -10.2129   20.3050 C   0  0  0  0  0  0
  -21.6852   -6.0731   22.5277 C   0  0  0  0  0  0
  -21.4014   -6.5637   23.8209 C   0  0  0  0  0  0
  -21.3660   -5.6790   24.9171 C   0  0  0  0  0  0
  -21.6043   -4.3051   24.7223 C   0  0  0  0  0  0
  -21.8820   -3.8143   23.4343 C   0  0  0  0  0  0
  -21.9194   -4.6960   22.3398 C   0  0  0  0  0  0
  -22.7872  -13.5240   21.1831 C   0  0  0  0  0  0
  -22.1661   -4.2145   21.0976 F   0  0  0  0  0  0
  -21.5632   -3.4536   25.7735 F   0  0  0  0  0  0
  -30.0427  -13.2610   20.4615 N   0  0  0  0  0  0
  -26.3045  -12.9296   20.3377 N   0  0  0  0  0  0
  -25.9314  -11.6465   20.5757 N   0  0  0  0  0  0
  -22.0515  -12.8235   22.0390 N   0  0  0  0  0  0
  -25.4355  -15.1862   20.4080 N   0  0  0  0  0  0
  -31.7854  -14.6840   20.0858 O   0  0  0  0  0  0
  -21.6637   -6.8872   21.4237 O   0  0  0  0  0  0
  -22.3558  -14.5551   20.6689 O   0  0  0  0  0  0
  -24.6136  -31.8684   23.2103 C   0  0  0  0  0  0
  -25.9035  -32.4824   23.8392 C   0  0  1  0  0  0
  -27.2368  -27.4377   20.0796 C   0  0  0  0  0  0
  -25.5897  -33.8624   24.2323 N   0  0  0  0  0  0
  -23.4006  -30.4920   21.5515 C   0  0  2  0  0  0
  -24.8450  -28.9565   20.1165 C   0  0  0  0  0  0
  -22.7398  -29.4660   22.4997 C   0  0  0  0  0  0
  -18.0267  -28.1364   22.8488 C   0  0  0  0  0  0
  -24.1496  -36.7311   23.2639 C   0  0  0  0  0  0
  -25.9294  -30.8302   21.3663 C   0  0  0  0  0  0
  -26.0042  -29.4635   20.7153 C   0  0  0  0  0  0
  -27.1978  -28.7064   20.7034 C   0  0  0  0  0  0
  -26.0510  -26.9379   19.4923 C   0  0  0  0  0  0
  -24.8618  -27.6901   19.5084 C   0  0  0  0  0  0
  -23.6080  -29.8238   20.1659 C   0  0  0  0  0  0
  -25.4114  -36.3111   24.0336 C   0  0  1  0  0  0
  -20.5857  -28.3650   23.1318 C   0  0  2  0  0  0
  -20.6762  -26.9392   22.5408 C   0  0  0  0  0  0
  -19.5744  -26.6374   21.5204 C   0  0  0  0  0  0
  -18.1920  -26.7910   22.1613 C   0  0  0  0  0  0
  -19.1516  -28.8822   23.2901 C   0  0  0  0  0  0
  -18.9451  -30.1432   23.8909 C   0  0  0  0  0  0
  -17.6457  -30.6574   24.0561 C   0  0  0  0  0  0
  -25.9035  -34.9479   23.5123 C   0  0  0  0  0  0
  -16.5347  -29.9075   23.6326 C   0  0  0  0  0  0
  -16.7256  -28.6490   23.0344 C   0  0  0  0  0  0
  -26.4462  -31.6604   25.0721 C   0  0  0  0  0  0
  -25.3729  -31.3705   26.1473 C   0  0  0  0  0  0
  -27.0294  -30.3051   24.6091 C   0  0  0  0  0  0
  -27.6045  -32.4319   25.7475 C   0  0  0  0  0  0
  -27.5586  -37.1810   24.8464 C   0  0  0  0  0  0
  -21.4128  -29.3030   22.3738 N   0  0  0  0  0  0
  -26.4302  -37.3793   23.9407 N   0  0  0  0  0  0
  -24.6659  -31.0785   22.1002 N   0  0  0  0  0  0
  -23.4177  -28.8194   23.3028 O   0  0  0  0  0  0
  -28.4261  -26.7327   20.0752 O   0  0  0  0  0  0
  -26.5597  -34.8929   22.4686 O   0  0  0  0  0  0
  -23.5331  -32.1439   23.7494 O   0  0  0  0  0  0
  -29.1408  -17.5751   22.0248 C   0  0  0  0  0  0
  -30.0620  -16.7702   21.3098 C   0  0  0  0  0  0
  -29.4173  -22.0386   20.1947 C   0  0  0  0  0  0
  -29.4419  -23.5864   20.2945 C   0  0  0  0  0  0
  -30.6315  -21.3644   20.8814 C   0  0  0  0  0  0
  -28.3264  -24.2869   19.4821 C   0  0  0  0  0  0
  -31.0490  -19.9772   20.3157 C   0  0  0  0  0  0
  -28.6421  -25.7446   19.0593 C   0  0  0  0  0  0
  -29.3624  -18.8414   21.7620 N   0  0  0  0  0  0
  -30.8620  -17.5377   20.6071 N   0  0  0  0  0  0
  -30.4194  -18.7962   20.9040 N   0  0  0  0  0  0
  -30.0269  -15.3480   21.3615 N   0  0  0  0  0  0
  -31.4726  -12.4172   19.1115 H   0  0  0  0  0  0
  -30.3425  -11.2836   19.7916 H   0  0  0  0  0  0
  -29.7334  -11.8013   17.4151 H   0  0  0  0  0  0
  -29.6625  -13.5069   17.7786 H   0  0  0  0  0  0
  -27.8226  -11.3162   18.7979 H   0  0  0  0  0  0
  -27.3656  -12.6613   17.7873 H   0  0  0  0  0  0
  -27.7227  -14.2521   19.6050 H   0  0  0  0  0  0
  -28.6786  -11.8925   21.2963 H   0  0  0  0  0  0
  -28.4511  -13.4961   21.8998 H   0  0  0  0  0  0
  -25.2757   -9.5683   22.4746 H   0  0  0  0  0  0
  -23.9998   -7.4634   22.7472 H   0  0  0  0  0  0
  -21.0831   -8.8763   19.8951 H   0  0  0  0  0  0
  -22.3685  -10.9665   19.6155 H   0  0  0  0  0  0
  -21.2005   -7.6145   23.9711 H   0  0  0  0  0  0
  -21.1483   -6.0520   25.9075 H   0  0  0  0  0  0
  -22.0601   -2.7605   23.2844 H   0  0  0  0  0  0
  -22.4129  -11.9892   22.4771 H   0  0  0  0  0  0
  -21.1138  -13.1266   22.2608 H   0  0  0  0  0  0
  -24.6687  -15.8426   20.5081 H   0  0  0  0  0  0
  -26.2888  -15.6224   20.0816 H   0  0  0  0  0  0
  -26.7100  -32.5532   23.1152 H   0  0  0  0  0  0
  -25.0087  -33.9792   25.0496 H   0  0  0  0  0  0
  -22.6893  -31.3087   21.4123 H   0  0  0  0  0  0
  -23.3759  -35.9643   23.3306 H   0  0  0  0  0  0
  -24.3591  -36.8910   22.2051 H   0  0  0  0  0  0
  -23.7250  -37.6520   23.6644 H   0  0  0  0  0  0
  -26.0453  -31.5953   20.5970 H   0  0  0  0  0  0
  -26.8161  -30.8815   21.9865 H   0  0  0  0  0  0
  -28.0951  -29.0965   21.1630 H   0  0  0  0  0  0
  -26.0232  -25.9654   19.0239 H   0  0  0  0  0  0
  -23.9679  -27.2887   19.0520 H   0  0  0  0  0  0
  -23.7152  -30.5983   19.4054 H   0  0  0  0  0  0
  -22.7320  -29.2438   19.8707 H   0  0  0  0  0  0
  -25.1293  -36.1976   25.0829 H   0  0  0  0  0  0
  -20.9945  -28.3208   24.1440 H   0  0  0  0  0  0
  -20.5661  -26.2258   23.3585 H   0  0  0  0  0  0
  -21.6634  -26.7427   22.1214 H   0  0  0  0  0  0
  -19.6913  -25.6287   21.1227 H   0  0  0  0  0  0
  -19.6694  -27.3192   20.6744 H   0  0  0  0  0  0
  -17.4194  -26.6659   21.4012 H   0  0  0  0  0  0
  -18.0322  -26.0035   22.8995 H   0  0  0  0  0  0
  -19.7933  -30.7239   24.2281 H   0  0  0  0  0  0
  -17.5017  -31.6261   24.5149 H   0  0  0  0  0  0
  -15.5350  -30.2984   23.7642 H   0  0  0  0  0  0
  -15.8652  -28.0814   22.7055 H   0  0  0  0  0  0
  -24.5913  -30.7034   25.7816 H   0  0  0  0  0  0
  -24.8911  -32.2859   26.4922 H   0  0  0  0  0  0
  -25.8087  -30.8884   27.0233 H   0  0  0  0  0  0
  -26.2837  -29.6813   24.1150 H   0  0  0  0  0  0
  -27.4081  -29.7280   25.4537 H   0  0  0  0  0  0
  -27.8659  -30.4378   23.9225 H   0  0  0  0  0  0
  -27.2678  -33.3621   26.2064 H   0  0  0  0  0  0
  -28.3845  -32.6872   25.0288 H   0  0  0  0  0  0
  -28.0723  -31.8434   26.5377 H   0  0  0  0  0  0
  -28.2604  -38.0111   24.7517 H   0  0  0  0  0  0
  -28.1082  -36.2638   24.6281 H   0  0  0  0  0  0
  -27.2301  -37.1444   25.8868 H   0  0  0  0  0  0
  -20.9281  -29.8759   21.6975 H   0  0  0  0  0  0
  -26.0189  -38.2872   24.1407 H   0  0  0  0  0  0
  -28.3413  -17.2727   22.6879 H   0  0  0  0  0  0
  -29.4145  -21.7658   19.1383 H   0  0  0  0  0  0
  -28.4896  -21.6435   20.6112 H   0  0  0  0  0  0
  -30.4081  -23.9310   19.9236 H   0  0  0  0  0  0
  -29.3912  -23.9023   21.3372 H   0  0  0  0  0  0
  -30.4878  -21.3188   21.9618 H   0  0  0  0  0  0
  -31.4926  -22.0182   20.7404 H   0  0  0  0  0  0
  -27.3745  -24.2303   20.0097 H   0  0  0  0  0  0
  -28.1827  -23.7225   18.5599 H   0  0  0  0  0  0
  -32.1219  -19.8603   20.4722 H   0  0  0  0  0  0
  -30.9050  -19.9419   19.2357 H   0  0  0  0  0  0
  -28.0931  -25.9967   18.1504 H   0  0  0  0  0  0
  -29.6880  -25.8108   18.7587 H   0  0  0  0  0  0
  -29.2368  -14.9601   21.8520 H   0  0  0  0  0  0
  1 25  1  0  0  0
  1 30  2  0  0  0
  1 82  1  0  0  0
  2  3  1  0  0  0
  2 25  1  0  0  0
  2 83  1  0  0  0
  2 84  1  0  0  0
  3  4  1  0  0  0
  3 85  1  0  0  0
  3 86  1  0  0  0
  4  5  1  0  0  0
  4 87  1  0  0  0
  4 88  1  0  0  0
  5  6  1  0  0  0
  5 26  1  0  0  0
  5 89  1  0  0  0
  6 25  1  0  0  0
  6 90  1  0  0  0
  6 91  1  0  0  0
  7  8  2  0  0  0
  7 26  1  0  0  0
  7 29  1  0  0  0
  8  9  1  0  0  0
  8 22  1  0  0  0
  9 10  1  0  0  0
  9 27  2  0  0  0
 10 11  2  0  0  0
 10 15  1  0  0  0
 11 12  1  0  0  0
 11 92  1  0  0  0
 12 13  2  0  0  0
 12 93  1  0  0  0
 13 14  1  0  0  0
 13 31  1  0  0  0
 14 15  2  0  0  0
 14 94  1  0  0  0
 15 95  1  0  0  0
 16 17  2  0  0  0
 16 21  1  0  0  0
 16 31  1  0  0  0
 17 18  1  0  0  0
 17 96  1  0  0  0
 18 19  2  0  0  0
 18 97  1  0  0  0
 19 20  1  0  0  0
 19 24  1  0  0  0
 20 21  2  0  0  0
 20 98  1  0  0  0
 21 23  1  0  0  0
 22 28  1  0  0  0
 22 32  2  0  0  0
 26 27  1  0  0  0
 28 99  1  0  0  0
 28100  1  0  0  0
 29101  1  0  0  0
 29102  1  0  0  0
 33 34  1  0  0  0
 33 66  1  0  0  0
 33 70  2  0  0  0
 34 36  1  0  0  0
 34 59  1  0  0  0
 34103  1  0  0  0
 35 44  2  0  0  0
 35 45  1  0  0  0
 35 68  1  0  0  0
 36 56  1  0  0  0
 36104  1  0  0  0
 37 39  1  0  0  0
 37 47  1  0  0  0
 37 66  1  0  0  0
 37105  1  0  0  0
 38 43  2  0  0  0
 38 46  1  0  0  0
 38 47  1  0  0  0
 39 64  1  0  0  0
 39 67  2  0  0  0
 40 52  1  0  0  0
 40 53  2  0  0  0
 40 58  1  0  0  0
 41106  1  0  0  0
 41107  1  0  0  0
 41108  1  0  0  0
 41 48  1  0  0  0
 42 43  1  0  0  0
 42 66  1  0  0  0
 42109  1  0  0  0
 42110  1  0  0  0
 43 44  1  0  0  0
 44111  1  0  0  0
 45 46  2  0  0  0
 45112  1  0  0  0
 46113  1  0  0  0
 47114  1  0  0  0
 47115  1  0  0  0
 48 56  1  0  0  0
 48 65  1  0  0  0
 48116  1  0  0  0
 49 50  1  0  0  0
 49 53  1  0  0  0
 49 64  1  0  0  0
 49117  1  0  0  0
 50 51  1  0  0  0
 50118  1  0  0  0
 50119  1  0  0  0
 51 52  1  0  0  0
 51120  1  0  0  0
 51121  1  0  0  0
 52122  1  0  0  0
 52123  1  0  0  0
 53 54  1  0  0  0
 54 55  2  0  0  0
 54124  1  0  0  0
 55 57  1  0  0  0
 55125  1  0  0  0
 56 69  2  0  0  0
 57 58  2  0  0  0
 57126  1  0  0  0
 58127  1  0  0  0
 59 60  1  0  0  0
 59 61  1  0  0  0
 59 62  1  0  0  0
 60128  1  0  0  0
 60129  1  0  0  0
 60130  1  0  0  0
 61131  1  0  0  0
 61132  1  0  0  0
 61133  1  0  0  0
 62134  1  0  0  0
 62135  1  0  0  0
 62136  1  0  0  0
 63 65  1  0  0  0
 63137  1  0  0  0
 63138  1  0  0  0
 63139  1  0  0  0
 64140  1  0  0  0
 65141  1  0  0  0
 68 78  1  0  0  0
 71 72  1  0  0  0
 71 79  2  0  0  0
 71142  1  0  0  0
 72 80  2  0  0  0
 72 82  1  0  0  0
 73 74  1  0  0  0
 73 75  1  0  0  0
 73143  1  0  0  0
 73144  1  0  0  0
 74 76  1  0  0  0
 74145  1  0  0  0
 74146  1  0  0  0
 75 77  1  0  0  0
 75147  1  0  0  0
 75148  1  0  0  0
 76 78  1  0  0  0
 76149  1  0  0  0
 76150  1  0  0  0
 77 81  1  0  0  0
 77151  1  0  0  0
 77152  1  0  0  0
 78153  1  0  0  0
 78154  1  0  0  0
 79 81  1  0  0  0
 80 81  1  0  0  0
 82155  1  0  0  0
M  ISO  4   1 100  68 101  78 101  82 100
M  END
> <chiral flag>
0

> <version>
0

> <s_m_source_file>
/data/baiqing/PycharmProjects/Reinvent-master-3.2/result/LINK_invent/BTK/process_docking_weight1_custom_product_contain_oxygen_bond_distance_aromatic_linkinvent_7_9_3/rearranged_h_0198.sdf

> <i_m_source_file_index>
87

> <r_mmod_Potential_Energy-OPLS-2005>
-58.2104454040527

> <r_mmod_Stretch_Energy-OPLS-2005>
35.768669128418

> <r_mmod_Bend_Energy-OPLS-2005>
119.747543334961

> <r_mmod_Torsional_Energy-OPLS-2005>
218.381942749023

> <r_mmod_Improper_Torsional_Energy-OPLS-2005>
2.89860939979553

> <r_mmod_Van_der_Waal_Energy-OPLS-2005>
133.508010864258

> <r_mmod_Electrostatic_Energy-OPLS-2005>
-352.192413330078

> <r_mmod_Solvation_Energy-OPLS-2005>
-226.388214111328

> <b_mmod_Minimization_Converged-OPLS-2005>
0

> <r_mmod_RMS_Derivative-OPLS-2005>
0.853799164295197

$$$$
87
                    3D
 Structure written by MMmdl.
154162  0  0  1  0            999 V2000
  -30.7523  -14.4746   20.5349 C   0  0  0  0  0  0
  -30.4120  -12.2993   19.4268 C   0  0  0  0  0  0
  -29.4922  -12.4887   18.2039 C   0  0  0  0  0  0
  -28.0148  -12.3586   18.6214 C   0  0  0  0  0  0
  -27.6609  -13.2163   19.8677 C   0  0  2  0  0  0
  -28.7105  -13.0444   20.9917 C   0  0  0  0  0  0
  -25.2597  -13.8188   20.5699 C   0  0  0  0  0  0
  -24.1858  -13.0447   20.9177 C   0  0  0  0  0  0
  -24.6417  -11.6923   20.8752 C   0  0  0  0  0  0
  -23.9085  -10.4297   21.0405 C   0  0  0  0  0  0
  -24.3632   -9.4214   21.9181 C   0  0  0  0  0  0
  -23.6300   -8.2254   22.0761 C   0  0  0  0  0  0
  -22.4280   -8.0291   21.3544 C   0  0  0  0  0  0
  -21.9917   -9.0272   20.4649 C   0  0  0  0  0  0
  -22.7259  -10.2146   20.3053 C   0  0  0  0  0  0
  -21.6853   -6.0742   22.5284 C   0  0  0  0  0  0
  -21.4012   -6.5638   23.8221 C   0  0  0  0  0  0
  -21.3660   -5.6789   24.9175 C   0  0  0  0  0  0
  -21.6040   -4.3054   24.7223 C   0  0  0  0  0  0
  -21.8823   -3.8151   23.4342 C   0  0  0  0  0  0
  -21.9195   -4.6967   22.3401 C   0  0  0  0  0  0
  -22.7869  -13.5241   21.1837 C   0  0  0  0  0  0
  -22.1663   -4.2148   21.0982 F   0  0  0  0  0  0
  -21.5629   -3.4541   25.7741 F   0  0  0  0  0  0
  -30.0394  -13.3182   20.4227 N   0  0  0  0  0  0
  -26.3048  -12.9378   20.3376 N   0  0  0  0  0  0
  -25.9351  -11.6520   20.5774 N   0  0  0  0  0  0
  -22.0508  -12.8230   22.0394 N   0  0  0  0  0  0
  -25.4298  -15.1905   20.4129 N   0  0  0  0  0  0
  -31.8937  -14.5776   20.0815 O   0  0  0  0  0  0
  -21.6641   -6.8883   21.4245 O   0  0  0  0  0  0
  -22.3564  -14.5551   20.6694 O   0  0  0  0  0  0
  -24.6176  -31.8659   23.2079 C   0  0  0  0  0  0
  -25.9057  -32.4804   23.8378 C   0  0  1  0  0  0
  -27.2328  -27.4065   20.0961 C   0  0  0  0  0  0
  -25.5911  -33.8595   24.2304 N   0  0  0  0  0  0
  -23.4063  -30.4926   21.5485 C   0  0  2  0  0  0
  -24.8525  -28.9580   20.1123 C   0  0  0  0  0  0
  -22.7431  -29.4658   22.4960 C   0  0  0  0  0  0
  -18.0286  -28.1392   22.8493 C   0  0  0  0  0  0
  -24.1489  -36.7294   23.2639 C   0  0  0  0  0  0
  -25.9388  -30.8248   21.3652 C   0  0  0  0  0  0
  -26.0171  -29.4589   20.7079 C   0  0  0  0  0  0
  -27.2103  -28.6924   20.6936 C   0  0  0  0  0  0
  -26.0439  -26.9348   19.4868 C   0  0  0  0  0  0
  -24.8624  -27.6961   19.4988 C   0  0  0  0  0  0
  -23.6175  -29.8285   20.1626 C   0  0  0  0  0  0
  -25.4110  -36.3091   24.0335 C   0  0  1  0  0  0
  -20.5868  -28.3678   23.1302 C   0  0  2  0  0  0
  -20.6768  -26.9408   22.5408 C   0  0  0  0  0  0
  -19.5752  -26.6395   21.5207 C   0  0  0  0  0  0
  -18.1932  -26.7938   22.1626 C   0  0  0  0  0  0
  -19.1533  -28.8857   23.2895 C   0  0  0  0  0  0
  -18.9466  -30.1464   23.8911 C   0  0  0  0  0  0
  -17.6471  -30.6595   24.0573 C   0  0  0  0  0  0
  -25.9036  -34.9462   23.5115 C   0  0  0  0  0  0
  -16.5356  -29.9099   23.6336 C   0  0  0  0  0  0
  -16.7279  -28.6521   23.0337 C   0  0  0  0  0  0
  -26.4485  -31.6592   25.0715 C   0  0  0  0  0  0
  -25.3748  -31.3688   26.1462 C   0  0  0  0  0  0
  -27.0306  -30.3039   24.6078 C   0  0  0  0  0  0
  -27.6060  -32.4312   25.7487 C   0  0  0  0  0  0
  -27.5572  -37.1803   24.8470 C   0  0  0  0  0  0
  -21.4152  -29.3042   22.3699 N   0  0  0  0  0  0
  -26.4288  -37.3780   23.9413 N   0  0  0  0  0  0
  -24.6722  -31.0743   22.0996 N   0  0  0  0  0  0
  -23.4192  -28.8181   23.3006 O   0  0  0  0  0  0
  -28.3916  -26.6390   20.1293 O   0  0  0  0  0  0
  -26.5599  -34.8930   22.4683 O   0  0  0  0  0  0
  -23.5369  -32.1425   23.7472 O   0  0  0  0  0  0
  -31.8813  -17.2756   21.2092 C   0  0  0  0  0  0
  -30.5627  -16.9114   21.0495 C   0  0  0  0  0  0
  -30.3545  -19.1922   21.0020 C   0  0  0  0  0  0
  -30.7394  -22.1710   22.3623 C   0  0  0  0  0  0
  -29.4247  -24.3430   20.4836 C   0  0  0  0  0  0
  -29.0903  -22.8188   20.5021 C   0  0  0  0  0  0
  -28.2246  -25.2063   20.0105 C   0  0  0  0  0  0
  -30.2111  -21.8368   20.9566 C   0  0  2  0  0  0
  -29.6981  -18.0208   20.9600 N   0  0  0  0  0  0
  -30.0908  -15.5561   21.0069 N   0  0  0  0  0  0
  -29.7436  -20.4453   20.9045 N   0  0  0  0  0  0
  -32.0949  -19.0070   21.1901 S   0  0  0  0  0  0
  -31.4586  -12.3600   19.1237 H   0  0  0  0  0  0
  -30.2854  -11.3005   19.8478 H   0  0  0  0  0  0
  -29.7276  -11.7479   17.4380 H   0  0  0  0  0  0
  -29.6675  -13.4653   17.7506 H   0  0  0  0  0  0
  -27.8267  -11.3052   18.8320 H   0  0  0  0  0  0
  -27.3632  -12.6215   17.7867 H   0  0  0  0  0  0
  -27.6921  -14.2571   19.5450 H   0  0  0  0  0  0
  -28.6852  -12.0283   21.3877 H   0  0  0  0  0  0
  -28.4848  -13.6966   21.8363 H   0  0  0  0  0  0
  -25.2777   -9.5681   22.4755 H   0  0  0  0  0  0
  -24.0002   -7.4644   22.7483 H   0  0  0  0  0  0
  -21.0845   -8.8791   19.8960 H   0  0  0  0  0  0
  -22.3717  -10.9682   19.6161 H   0  0  0  0  0  0
  -21.2004   -7.6147   23.9716 H   0  0  0  0  0  0
  -21.1475   -6.0522   25.9076 H   0  0  0  0  0  0
  -22.0601   -2.7612   23.2850 H   0  0  0  0  0  0
  -22.4111  -11.9888   22.4774 H   0  0  0  0  0  0
  -21.1129  -13.1274   22.2590 H   0  0  0  0  0  0
  -24.6660  -15.8456   20.5359 H   0  0  0  0  0  0
  -26.2810  -15.6357   20.0949 H   0  0  0  0  0  0
  -26.7120  -32.5530   23.1135 H   0  0  0  0  0  0
  -25.0061  -33.9750   25.0446 H   0  0  0  0  0  0
  -22.6993  -31.3119   21.4082 H   0  0  0  0  0  0
  -23.3747  -35.9627   23.3317 H   0  0  0  0  0  0
  -24.3570  -36.8895   22.2043 H   0  0  0  0  0  0
  -23.7254  -37.6508   23.6652 H   0  0  0  0  0  0
  -26.0508  -31.5926   20.5982 H   0  0  0  0  0  0
  -26.8264  -30.8777   21.9855 H   0  0  0  0  0  0
  -28.1091  -29.0704   21.1614 H   0  0  0  0  0  0
  -26.0054  -25.9741   18.9948 H   0  0  0  0  0  0
  -23.9685  -27.3068   19.0327 H   0  0  0  0  0  0
  -23.7300  -30.6050   19.4052 H   0  0  0  0  0  0
  -22.7417  -29.2516   19.8616 H   0  0  0  0  0  0
  -25.1292  -36.1933   25.0823 H   0  0  0  0  0  0
  -20.9969  -28.3246   24.1424 H   0  0  0  0  0  0
  -20.5659  -26.2291   23.3600 H   0  0  0  0  0  0
  -21.6643  -26.7443   22.1217 H   0  0  0  0  0  0
  -19.6907  -25.6309   21.1246 H   0  0  0  0  0  0
  -19.6696  -27.3203   20.6735 H   0  0  0  0  0  0
  -17.4193  -26.6686   21.4035 H   0  0  0  0  0  0
  -18.0339  -26.0077   22.9022 H   0  0  0  0  0  0
  -19.7942  -30.7269   24.2282 H   0  0  0  0  0  0
  -17.5029  -31.6277   24.5170 H   0  0  0  0  0  0
  -15.5360  -30.3008   23.7651 H   0  0  0  0  0  0
  -15.8677  -28.0854   22.7032 H   0  0  0  0  0  0
  -24.5943  -30.7010   25.7806 H   0  0  0  0  0  0
  -24.8917  -32.2826   26.4920 H   0  0  0  0  0  0
  -25.8111  -30.8865   27.0217 H   0  0  0  0  0  0
  -26.2830  -29.6809   24.1152 H   0  0  0  0  0  0
  -27.4096  -29.7269   25.4520 H   0  0  0  0  0  0
  -27.8663  -30.4363   23.9205 H   0  0  0  0  0  0
  -27.2681  -33.3610   26.2080 H   0  0  0  0  0  0
  -28.3873  -32.6866   25.0317 H   0  0  0  0  0  0
  -28.0723  -31.8419   26.5395 H   0  0  0  0  0  0
  -28.2604  -38.0088   24.7502 H   0  0  0  0  0  0
  -28.1058  -36.2615   24.6321 H   0  0  0  0  0  0
  -27.2287  -37.1481   25.8876 H   0  0  0  0  0  0
  -20.9306  -29.8779   21.6933 H   0  0  0  0  0  0
  -26.0170  -38.2851   24.1431 H   0  0  0  0  0  0
  -32.7495  -16.6387   21.3183 H   0  0  0  0  0  0
  -31.1485  -23.1800   22.4085 H   0  0  0  0  0  0
  -31.5461  -21.5024   22.6637 H   0  0  0  0  0  0
  -29.9495  -22.0978   23.1122 H   0  0  0  0  0  0
  -30.2871  -24.5232   19.8420 H   0  0  0  0  0  0
  -29.7139  -24.6706   21.4809 H   0  0  0  0  0  0
  -28.7719  -22.5373   19.4963 H   0  0  0  0  0  0
  -28.2145  -22.6698   21.1346 H   0  0  0  0  0  0
  -28.0015  -24.9534   18.9735 H   0  0  0  0  0  0
  -27.3619  -24.9050   20.6065 H   0  0  0  0  0  0
  -31.0433  -21.9206   20.2575 H   0  0  0  0  0  0
  -29.1198  -15.4080   21.2279 H   0  0  0  0  0  0
  -28.7427  -20.3678   20.7642 H   0  0  0  0  0  0
  1 25  1  0  0  0
  1 30  2  0  0  0
  1 80  1  0  0  0
  2  3  1  0  0  0
  2 25  1  0  0  0
  2 83  1  0  0  0
  2 84  1  0  0  0
  3  4  1  0  0  0
  3 85  1  0  0  0
  3 86  1  0  0  0
  4  5  1  0  0  0
  4 87  1  0  0  0
  4 88  1  0  0  0
  5  6  1  0  0  0
  5 26  1  0  0  0
  5 89  1  0  0  0
  6 25  1  0  0  0
  6 90  1  0  0  0
  6 91  1  0  0  0
  7  8  2  0  0  0
  7 26  1  0  0  0
  7 29  1  0  0  0
  8  9  1  0  0  0
  8 22  1  0  0  0
  9 10  1  0  0  0
  9 27  2  0  0  0
 10 11  2  0  0  0
 10 15  1  0  0  0
 11 12  1  0  0  0
 11 92  1  0  0  0
 12 13  2  0  0  0
 12 93  1  0  0  0
 13 14  1  0  0  0
 13 31  1  0  0  0
 14 15  2  0  0  0
 14 94  1  0  0  0
 15 95  1  0  0  0
 16 17  2  0  0  0
 16 21  1  0  0  0
 16 31  1  0  0  0
 17 18  1  0  0  0
 17 96  1  0  0  0
 18 19  2  0  0  0
 18 97  1  0  0  0
 19 20  1  0  0  0
 19 24  1  0  0  0
 20 21  2  0  0  0
 20 98  1  0  0  0
 21 23  1  0  0  0
 22 28  1  0  0  0
 22 32  2  0  0  0
 26 27  1  0  0  0
 28 99  1  0  0  0
 28100  1  0  0  0
 29101  1  0  0  0
 29102  1  0  0  0
 33 34  1  0  0  0
 33 66  1  0  0  0
 33 70  2  0  0  0
 34 36  1  0  0  0
 34 59  1  0  0  0
 34103  1  0  0  0
 35 44  2  0  0  0
 35 45  1  0  0  0
 35 68  1  0  0  0
 36 56  1  0  0  0
 36104  1  0  0  0
 37 39  1  0  0  0
 37 47  1  0  0  0
 37 66  1  0  0  0
 37105  1  0  0  0
 38 43  2  0  0  0
 38 46  1  0  0  0
 38 47  1  0  0  0
 39 64  1  0  0  0
 39 67  2  0  0  0
 40 52  1  0  0  0
 40 53  2  0  0  0
 40 58  1  0  0  0
 41106  1  0  0  0
 41107  1  0  0  0
 41108  1  0  0  0
 41 48  1  0  0  0
 42 43  1  0  0  0
 42 66  1  0  0  0
 42109  1  0  0  0
 42110  1  0  0  0
 43 44  1  0  0  0
 44111  1  0  0  0
 45 46  2  0  0  0
 45112  1  0  0  0
 46113  1  0  0  0
 47114  1  0  0  0
 47115  1  0  0  0
 48 56  1  0  0  0
 48 65  1  0  0  0
 48116  1  0  0  0
 49 50  1  0  0  0
 49 53  1  0  0  0
 49 64  1  0  0  0
 49117  1  0  0  0
 50 51  1  0  0  0
 50118  1  0  0  0
 50119  1  0  0  0
 51 52  1  0  0  0
 51120  1  0  0  0
 51121  1  0  0  0
 52122  1  0  0  0
 52123  1  0  0  0
 53 54  1  0  0  0
 54 55  2  0  0  0
 54124  1  0  0  0
 55 57  1  0  0  0
 55125  1  0  0  0
 56 69  2  0  0  0
 57 58  2  0  0  0
 57126  1  0  0  0
 58127  1  0  0  0
 59 60  1  0  0  0
 59 61  1  0  0  0
 59 62  1  0  0  0
 60128  1  0  0  0
 60129  1  0  0  0
 60130  1  0  0  0
 61131  1  0  0  0
 61132  1  0  0  0
 61133  1  0  0  0
 62134  1  0  0  0
 62135  1  0  0  0
 62136  1  0  0  0
 63 65  1  0  0  0
 63137  1  0  0  0
 63138  1  0  0  0
 63139  1  0  0  0
 64140  1  0  0  0
 65141  1  0  0  0
 68 77  1  0  0  0
 71 72  2  0  0  0
 71 82  1  0  0  0
 71142  1  0  0  0
 72 79  1  0  0  0
 72 80  1  0  0  0
 73 79  2  0  0  0
 73 81  1  0  0  0
 73 82  1  0  0  0
 74143  1  0  0  0
 74144  1  0  0  0
 74145  1  0  0  0
 74 78  1  0  0  0
 75 76  1  0  0  0
 75 77  1  0  0  0
 75146  1  0  0  0
 75147  1  0  0  0
 76 78  1  0  0  0
 76148  1  0  0  0
 76149  1  0  0  0
 77150  1  0  0  0
 77151  1  0  0  0
 78 81  1  0  0  0
 78152  1  0  0  0
 80153  1  0  0  0
 81154  1  0  0  0
M  ISO  4   1 100  68 101  77 101  80 100
M  END
> <chiral flag>
0

> <version>
0

> <s_m_source_file>
/data/baiqing/PycharmProjects/Reinvent-master-3.2/result/LINK_invent/BTK/process_docking_weight1_custom_product_contain_oxygen_bond_distance_aromatic_linkinvent_7_9_3/rearranged_h_0198.sdf

> <i_m_source_file_index>
88

> <r_mmod_Potential_Energy-OPLS-2005>
-149.563995361328

> <r_mmod_Stretch_Energy-OPLS-2005>
40.118350982666

> <r_mmod_Bend_Energy-OPLS-2005>
101.314208984375

> <r_mmod_Torsional_Energy-OPLS-2005>
200.096206665039

> <r_mmod_Improper_Torsional_Energy-OPLS-2005>
3.82573676109314

> <r_mmod_Van_der_Waal_Energy-OPLS-2005>
135.337768554688

> <r_mmod_Electrostatic_Energy-OPLS-2005>
-438.625610351562

> <r_mmod_Solvation_Energy-OPLS-2005>
-210.589141845703

> <b_mmod_Minimization_Converged-OPLS-2005>
0

> <r_mmod_RMS_Derivative-OPLS-2005>
2.6370222568512

$$$$
88
                    3D
 Structure written by MMmdl.
164172  0  0  1  0            999 V2000
  -30.7001  -14.4538   20.5920 C   0  0  0  0  0  0
  -30.4280  -12.2983   19.4195 C   0  0  0  0  0  0
  -29.4966  -12.5095   18.2067 C   0  0  0  0  0  0
  -28.0175  -12.3686   18.6193 C   0  0  0  0  0  0
  -27.6667  -13.2013   19.8810 C   0  0  2  0  0  0
  -28.7070  -12.9573   20.9987 C   0  0  0  0  0  0
  -25.2607  -13.8146   20.5665 C   0  0  0  0  0  0
  -24.1847  -13.0432   20.9163 C   0  0  0  0  0  0
  -24.6390  -11.6894   20.8729 C   0  0  0  0  0  0
  -23.9050  -10.4285   21.0396 C   0  0  0  0  0  0
  -24.3602   -9.4206   21.9175 C   0  0  0  0  0  0
  -23.6277   -8.2244   22.0754 C   0  0  0  0  0  0
  -22.4264   -8.0275   21.3540 C   0  0  0  0  0  0
  -21.9895   -9.0249   20.4643 C   0  0  0  0  0  0
  -22.7222  -10.2126   20.3049 C   0  0  0  0  0  0
  -21.6851   -6.0723   22.5271 C   0  0  0  0  0  0
  -21.4014   -6.5628   23.8203 C   0  0  0  0  0  0
  -21.3663   -5.6784   24.9166 C   0  0  0  0  0  0
  -21.6046   -4.3046   24.7222 C   0  0  0  0  0  0
  -21.8821   -3.8134   23.4342 C   0  0  0  0  0  0
  -21.9192   -4.6950   22.3396 C   0  0  0  0  0  0
  -22.7871  -13.5240   21.1830 C   0  0  0  0  0  0
  -22.1659   -4.2133   21.0974 F   0  0  0  0  0  0
  -21.5634   -3.4533   25.7738 F   0  0  0  0  0  0
  -30.0437  -13.2682   20.4560 N   0  0  0  0  0  0
  -26.3047  -12.9308   20.3380 N   0  0  0  0  0  0
  -25.9320  -11.6473   20.5768 N   0  0  0  0  0  0
  -22.0511  -12.8235   22.0392 N   0  0  0  0  0  0
  -25.4348  -15.1861   20.4062 N   0  0  0  0  0  0
  -31.8090  -14.6604   20.0874 O   0  0  0  0  0  0
  -21.6632   -6.8866   21.4231 O   0  0  0  0  0  0
  -22.3564  -14.5551   20.6687 O   0  0  0  0  0  0
  -24.6149  -31.8682   23.2129 C   0  0  0  0  0  0
  -25.9044  -32.4823   23.8421 C   0  0  1  0  0  0
  -27.2243  -27.4239   20.0938 C   0  0  0  0  0  0
  -25.5890  -33.8618   24.2341 N   0  0  0  0  0  0
  -23.4039  -30.4962   21.5533 C   0  0  2  0  0  0
  -24.8478  -28.9699   20.1109 C   0  0  0  0  0  0
  -22.7423  -29.4661   22.4973 C   0  0  0  0  0  0
  -18.0277  -28.1359   22.8487 C   0  0  0  0  0  0
  -24.1480  -36.7323   23.2632 C   0  0  0  0  0  0
  -25.9361  -30.8303   21.3699 C   0  0  0  0  0  0
  -26.0112  -29.4675   20.7117 C   0  0  0  0  0  0
  -27.2027  -28.7026   20.7017 C   0  0  0  0  0  0
  -26.0440  -26.9606   19.4628 C   0  0  0  0  0  0
  -24.8605  -27.7157   19.4828 C   0  0  0  0  0  0
  -23.6122  -29.8384   20.1649 C   0  0  0  0  0  0
  -25.4096  -36.3114   24.0337 C   0  0  1  0  0  0
  -20.5865  -28.3651   23.1306 C   0  0  2  0  0  0
  -20.6763  -26.9380   22.5419 C   0  0  0  0  0  0
  -19.5736  -26.6372   21.5212 C   0  0  0  0  0  0
  -18.1914  -26.7905   22.1622 C   0  0  0  0  0  0
  -19.1526  -28.8821   23.2890 C   0  0  0  0  0  0
  -18.9459  -30.1425   23.8894 C   0  0  0  0  0  0
  -17.6462  -30.6562   24.0567 C   0  0  0  0  0  0
  -25.9026  -34.9474   23.5141 C   0  0  0  0  0  0
  -16.5352  -29.9068   23.6321 C   0  0  0  0  0  0
  -16.7271  -28.6492   23.0336 C   0  0  0  0  0  0
  -26.4474  -31.6589   25.0740 C   0  0  0  0  0  0
  -25.3751  -31.3691   26.1497 C   0  0  0  0  0  0
  -27.0304  -30.3028   24.6112 C   0  0  0  0  0  0
  -27.6048  -32.4316   25.7496 C   0  0  0  0  0  0
  -27.5580  -37.1804   24.8448 C   0  0  0  0  0  0
  -21.4148  -29.3025   22.3717 N   0  0  0  0  0  0
  -26.4281  -37.3804   23.9408 N   0  0  0  0  0  0
  -24.6702  -31.0789   22.1035 N   0  0  0  0  0  0
  -23.4201  -28.8183   23.2995 O   0  0  0  0  0  0
  -28.3682  -26.6437   20.1457 O   0  0  0  0  0  0
  -26.5594  -34.8931   22.4706 O   0  0  0  0  0  0
  -23.5343  -32.1439   23.7512 O   0  0  0  0  0  0
  -30.8384  -18.8930   20.6208 C   0  0  0  0  0  0
  -29.6429  -19.2516   21.2070 C   0  0  0  0  0  0
  -30.0736  -16.8126   21.1642 C   0  0  0  0  0  0
  -31.6041  -21.2969   24.8904 C   0  0  0  0  0  0
  -32.7658  -21.1970   22.6555 C   0  0  0  0  0  0
  -30.3627  -22.0706   22.8203 C   0  0  0  0  0  0
  -28.7843  -22.8902   20.9482 C   0  0  0  0  0  0
  -28.1401  -25.2174   20.1416 C   0  0  0  0  0  0
  -31.4143  -21.0838   23.3799 C   0  0  0  0  0  0
  -29.7803  -21.7802   21.4116 C   0  0  2  0  0  0
  -29.2112  -24.3937   20.8960 C   0  0  1  0  0  0
  -31.0739  -17.5070   20.6055 N   0  0  0  0  0  0
  -29.0471  -20.5058   21.4068 N   0  0  0  0  0  0
  -30.0049  -15.3940   21.2560 N   0  0  0  0  0  0
  -29.2219  -24.9314   22.2090 O   0  0  0  0  0  0
  -28.7762  -17.8389   21.7643 S   0  0  0  0  0  0
  -31.4730  -12.3976   19.1189 H   0  0  0  0  0  0
  -30.3278  -11.2821   19.8046 H   0  0  0  0  0  0
  -29.7340  -11.7908   17.4211 H   0  0  0  0  0  0
  -29.6677  -13.4982   17.7780 H   0  0  0  0  0  0
  -27.8298  -11.3118   18.8121 H   0  0  0  0  0  0
  -27.3657  -12.6464   17.7904 H   0  0  0  0  0  0
  -27.7188  -14.2521   19.5962 H   0  0  0  0  0  0
  -28.6805  -11.9134   21.3155 H   0  0  0  0  0  0
  -28.4605  -13.5296   21.8942 H   0  0  0  0  0  0
  -25.2745   -9.5677   22.4751 H   0  0  0  0  0  0
  -23.9979   -7.4638   22.7484 H   0  0  0  0  0  0
  -21.0823   -8.8764   19.8953 H   0  0  0  0  0  0
  -22.3677  -10.9660   19.6159 H   0  0  0  0  0  0
  -21.2007   -7.6139   23.9699 H   0  0  0  0  0  0
  -21.1488   -6.0517   25.9069 H   0  0  0  0  0  0
  -22.0601   -2.7598   23.2849 H   0  0  0  0  0  0
  -22.4112  -11.9872   22.4743 H   0  0  0  0  0  0
  -21.1140  -13.1275   22.2624 H   0  0  0  0  0  0
  -24.6656  -15.8408   20.4987 H   0  0  0  0  0  0
  -26.2846  -15.6208   20.0700 H   0  0  0  0  0  0
  -26.7116  -32.5544   23.1188 H   0  0  0  0  0  0
  -25.0034  -33.9780   25.0481 H   0  0  0  0  0  0
  -22.6925  -31.3138   21.4192 H   0  0  0  0  0  0
  -23.3739  -35.9658   23.3293 H   0  0  0  0  0  0
  -24.3593  -36.8962   22.2051 H   0  0  0  0  0  0
  -23.7242  -37.6530   23.6662 H   0  0  0  0  0  0
  -26.0530  -31.5984   20.6042 H   0  0  0  0  0  0
  -26.8227  -30.8805   21.9902 H   0  0  0  0  0  0
  -28.0957  -29.0772   21.1830 H   0  0  0  0  0  0
  -26.0146  -26.0090   18.9512 H   0  0  0  0  0  0
  -23.9687  -27.3319   19.0067 H   0  0  0  0  0  0
  -23.7243  -30.6186   19.4114 H   0  0  0  0  0  0
  -22.7358  -29.2634   19.8634 H   0  0  0  0  0  0
  -25.1272  -36.1985   25.0831 H   0  0  0  0  0  0
  -20.9961  -28.3222   24.1426 H   0  0  0  0  0  0
  -20.5671  -26.2255   23.3608 H   0  0  0  0  0  0
  -21.6633  -26.7421   22.1212 H   0  0  0  0  0  0
  -19.6899  -25.6294   21.1211 H   0  0  0  0  0  0
  -19.6669  -27.3207   20.6757 H   0  0  0  0  0  0
  -17.4194  -26.6664   21.4010 H   0  0  0  0  0  0
  -18.0303  -26.0026   22.8995 H   0  0  0  0  0  0
  -19.7933  -30.7230   24.2264 H   0  0  0  0  0  0
  -17.5020  -31.6244   24.5165 H   0  0  0  0  0  0
  -15.5349  -30.2972   23.7634 H   0  0  0  0  0  0
  -15.8671  -28.0822   22.7022 H   0  0  0  0  0  0
  -24.5912  -30.7042   25.7855 H   0  0  0  0  0  0
  -24.8944  -32.2843   26.4965 H   0  0  0  0  0  0
  -25.8118  -30.8861   27.0245 H   0  0  0  0  0  0
  -26.2851  -29.6781   24.1171 H   0  0  0  0  0  0
  -27.4090  -29.7262   25.4564 H   0  0  0  0  0  0
  -27.8682  -30.4351   23.9259 H   0  0  0  0  0  0
  -27.2666  -33.3615   26.2081 H   0  0  0  0  0  0
  -28.3843  -32.6880   25.0310 H   0  0  0  0  0  0
  -28.0720  -31.8436   26.5406 H   0  0  0  0  0  0
  -28.2568  -38.0128   24.7552 H   0  0  0  0  0  0
  -28.1120  -36.2670   24.6216 H   0  0  0  0  0  0
  -27.2318  -37.1393   25.8857 H   0  0  0  0  0  0
  -20.9294  -29.8809   21.6997 H   0  0  0  0  0  0
  -26.0171  -38.2880   24.1446 H   0  0  0  0  0  0
  -31.5770  -19.5492   20.1831 H   0  0  0  0  0  0
  -32.3228  -20.5886   25.3044 H   0  0  0  0  0  0
  -30.6658  -21.1550   25.4289 H   0  0  0  0  0  0
  -31.9625  -22.3023   25.1126 H   0  0  0  0  0  0
  -33.4650  -20.4406   23.0149 H   0  0  0  0  0  0
  -33.2261  -22.1721   22.8176 H   0  0  0  0  0  0
  -32.6649  -21.0593   21.5805 H   0  0  0  0  0  0
  -30.8300  -23.0544   22.8148 H   0  0  0  0  0  0
  -29.5320  -22.1459   23.5235 H   0  0  0  0  0  0
  -27.8780  -22.8216   21.5528 H   0  0  0  0  0  0
  -28.4669  -22.6172   19.9397 H   0  0  0  0  0  0
  -27.1791  -24.9760   20.6021 H   0  0  0  0  0  0
  -28.0851  -24.8814   19.1043 H   0  0  0  0  0  0
  -31.0468  -20.0660   23.2643 H   0  0  0  0  0  0
  -30.5955  -21.7370   20.6881 H   0  0  0  0  0  0
  -30.1869  -24.5153   20.4235 H   0  0  0  0  0  0
  -28.1373  -20.5237   21.8594 H   0  0  0  0  0  0
  -29.1649  -15.0434   21.6878 H   0  0  0  0  0  0
  -29.2204  -25.8800   22.1139 H   0  0  0  0  0  0
  1 25  1  0  0  0
  1 30  2  0  0  0
  1 84  1  0  0  0
  2  3  1  0  0  0
  2 25  1  0  0  0
  2 87  1  0  0  0
  2 88  1  0  0  0
  3  4  1  0  0  0
  3 89  1  0  0  0
  3 90  1  0  0  0
  4  5  1  0  0  0
  4 91  1  0  0  0
  4 92  1  0  0  0
  5  6  1  0  0  0
  5 26  1  0  0  0
  5 93  1  0  0  0
  6 25  1  0  0  0
  6 94  1  0  0  0
  6 95  1  0  0  0
  7  8  2  0  0  0
  7 26  1  0  0  0
  7 29  1  0  0  0
  8  9  1  0  0  0
  8 22  1  0  0  0
  9 10  1  0  0  0
  9 27  2  0  0  0
 10 11  2  0  0  0
 10 15  1  0  0  0
 11 12  1  0  0  0
 11 96  1  0  0  0
 12 13  2  0  0  0
 12 97  1  0  0  0
 13 14  1  0  0  0
 13 31  1  0  0  0
 14 15  2  0  0  0
 14 98  1  0  0  0
 15 99  1  0  0  0
 16 17  2  0  0  0
 16 21  1  0  0  0
 16 31  1  0  0  0
 17 18  1  0  0  0
 17100  1  0  0  0
 18 19  2  0  0  0
 18101  1  0  0  0
 19 20  1  0  0  0
 19 24  1  0  0  0
 20 21  2  0  0  0
 20102  1  0  0  0
 21 23  1  0  0  0
 22 28  1  0  0  0
 22 32  2  0  0  0
 26 27  1  0  0  0
 28103  1  0  0  0
 28104  1  0  0  0
 29105  1  0  0  0
 29106  1  0  0  0
 33 34  1  0  0  0
 33 66  1  0  0  0
 33 70  2  0  0  0
 34 36  1  0  0  0
 34 59  1  0  0  0
 34107  1  0  0  0
 35 44  2  0  0  0
 35 45  1  0  0  0
 35 68  1  0  0  0
 36 56  1  0  0  0
 36108  1  0  0  0
 37 39  1  0  0  0
 37 47  1  0  0  0
 37 66  1  0  0  0
 37109  1  0  0  0
 38 43  2  0  0  0
 38 46  1  0  0  0
 38 47  1  0  0  0
 39 64  1  0  0  0
 39 67  2  0  0  0
 40 52  1  0  0  0
 40 53  2  0  0  0
 40 58  1  0  0  0
 41110  1  0  0  0
 41111  1  0  0  0
 41112  1  0  0  0
 41 48  1  0  0  0
 42 43  1  0  0  0
 42 66  1  0  0  0
 42113  1  0  0  0
 42114  1  0  0  0
 43 44  1  0  0  0
 44115  1  0  0  0
 45 46  2  0  0  0
 45116  1  0  0  0
 46117  1  0  0  0
 47118  1  0  0  0
 47119  1  0  0  0
 48 56  1  0  0  0
 48 65  1  0  0  0
 48120  1  0  0  0
 49 50  1  0  0  0
 49 53  1  0  0  0
 49 64  1  0  0  0
 49121  1  0  0  0
 50 51  1  0  0  0
 50122  1  0  0  0
 50123  1  0  0  0
 51 52  1  0  0  0
 51124  1  0  0  0
 51125  1  0  0  0
 52126  1  0  0  0
 52127  1  0  0  0
 53 54  1  0  0  0
 54 55  2  0  0  0
 54128  1  0  0  0
 55 57  1  0  0  0
 55129  1  0  0  0
 56 69  2  0  0  0
 57 58  2  0  0  0
 57130  1  0  0  0
 58131  1  0  0  0
 59 60  1  0  0  0
 59 61  1  0  0  0
 59 62  1  0  0  0
 60132  1  0  0  0
 60133  1  0  0  0
 60134  1  0  0  0
 61135  1  0  0  0
 61136  1  0  0  0
 61137  1  0  0  0
 62138  1  0  0  0
 62139  1  0  0  0
 62140  1  0  0  0
 63 65  1  0  0  0
 63141  1  0  0  0
 63142  1  0  0  0
 63143  1  0  0  0
 64144  1  0  0  0
 65145  1  0  0  0
 68 78  1  0  0  0
 71 72  2  0  0  0
 71 82  1  0  0  0
 71146  1  0  0  0
 72 83  1  0  0  0
 72 86  1  0  0  0
 73 82  2  0  0  0
 73 84  1  0  0  0
 73 86  1  0  0  0
 74147  1  0  0  0
 74148  1  0  0  0
 74149  1  0  0  0
 74 79  1  0  0  0
 75 79  1  0  0  0
 75150  1  0  0  0
 75151  1  0  0  0
 75152  1  0  0  0
 76 79  1  0  0  0
 76153  1  0  0  0
 76154  1  0  0  0
 76 80  1  0  0  0
 77 80  1  0  0  0
 77 81  1  0  0  0
 77155  1  0  0  0
 77156  1  0  0  0
 78 81  1  0  0  0
 78157  1  0  0  0
 78158  1  0  0  0
 79159  1  0  0  0
 80 83  1  0  0  0
 80160  1  0  0  0
 81 85  1  0  0  0
 81161  1  0  0  0
 83162  1  0  0  0
 84163  1  0  0  0
 85164  1  0  0  0
M  ISO  4   1 100  68 101  78 101  84 100
M  END
> <chiral flag>
0

> <version>
0

> <s_m_source_file>
/data/baiqing/PycharmProjects/Reinvent-master-3.2/result/LINK_invent/BTK/process_docking_weight1_custom_product_contain_oxygen_bond_distance_aromatic_linkinvent_7_9_3/rearranged_h_0198.sdf

> <i_m_source_file_index>
89

> <r_mmod_Potential_Energy-OPLS-2005>
-5.17634057998657

> <r_mmod_Stretch_Energy-OPLS-2005>
39.1840667724609

> <r_mmod_Bend_Energy-OPLS-2005>
120.958137512207

> <r_mmod_Torsional_Energy-OPLS-2005>
233.683654785156

> <r_mmod_Improper_Torsional_Energy-OPLS-2005>
4.24870681762695

> <r_mmod_Van_der_Waal_Energy-OPLS-2005>
135.378570556641

> <r_mmod_Electrostatic_Energy-OPLS-2005>
-313.388458251953

> <r_mmod_Solvation_Energy-OPLS-2005>
-238.926376342773

> <b_mmod_Minimization_Converged-OPLS-2005>
0

> <r_mmod_RMS_Derivative-OPLS-2005>
1.60631442070007

$$$$
89
                    3D
 Structure written by MMmdl.
151159  0  0  1  0            999 V2000
  -30.6197  -14.7624   20.4307 C   0  0  0  0  0  0
  -30.4277  -12.4585   19.4874 C   0  0  0  0  0  0
  -29.5131  -12.5128   18.2436 C   0  0  0  0  0  0
  -28.0380  -12.3394   18.6515 C   0  0  0  0  0  0
  -27.6417  -13.2396   19.8522 C   0  0  2  0  0  0
  -28.6852  -13.1883   20.9907 C   0  0  0  0  0  0
  -25.2498  -13.8213   20.5704 C   0  0  0  0  0  0
  -24.1799  -13.0445   20.9215 C   0  0  0  0  0  0
  -24.6403  -11.6927   20.8747 C   0  0  0  0  0  0
  -23.9082  -10.4295   21.0405 C   0  0  0  0  0  0
  -24.3628   -9.4210   21.9183 C   0  0  0  0  0  0
  -23.6300   -8.2245   22.0754 C   0  0  0  0  0  0
  -22.4282   -8.0282   21.3543 C   0  0  0  0  0  0
  -21.9920   -9.0259   20.4649 C   0  0  0  0  0  0
  -22.7252  -10.2138   20.3057 C   0  0  0  0  0  0
  -21.6855   -6.0738   22.5279 C   0  0  0  0  0  0
  -21.4019   -6.5643   23.8213 C   0  0  0  0  0  0
  -21.3661   -5.6795   24.9174 C   0  0  0  0  0  0
  -21.6044   -4.3058   24.7222 C   0  0  0  0  0  0
  -21.8818   -3.8148   23.4342 C   0  0  0  0  0  0
  -21.9192   -4.6966   22.3400 C   0  0  0  0  0  0
  -22.7816  -13.5219   21.1862 C   0  0  0  0  0  0
  -22.1661   -4.2152   21.0977 F   0  0  0  0  0  0
  -21.5625   -3.4543   25.7734 F   0  0  0  0  0  0
  -29.9895  -13.5330   20.4128 N   0  0  0  0  0  0
  -26.2939  -12.9440   20.3289 N   0  0  0  0  0  0
  -25.9340  -11.6574   20.5756 N   0  0  0  0  0  0
  -22.0461  -12.8216   22.0420 N   0  0  0  0  0  0
  -25.4163  -15.1941   20.4121 N   0  0  0  0  0  0
  -31.8150  -14.8129   20.1150 O   0  0  0  0  0  0
  -21.6641   -6.8883   21.4242 O   0  0  0  0  0  0
  -22.3505  -14.5524   20.6706 O   0  0  0  0  0  0
  -24.6330  -31.8544   23.1986 C   0  0  0  0  0  0
  -25.9150  -32.4751   23.8335 C   0  0  1  0  0  0
  -27.2131  -27.2411   20.1305 C   0  0  0  0  0  0
  -25.5939  -33.8555   24.2253 N   0  0  0  0  0  0
  -23.4306  -30.4784   21.5417 C   0  0  2  0  0  0
  -24.8779  -28.9280   20.1063 C   0  0  0  0  0  0
  -22.7512  -29.4597   22.4895 C   0  0  0  0  0  0
  -18.0296  -28.1388   22.8476 C   0  0  0  0  0  0
  -24.1489  -36.7285   23.2638 C   0  0  0  0  0  0
  -25.9793  -30.7598   21.3841 C   0  0  0  0  0  0
  -26.0499  -29.3820   20.7240 C   0  0  0  0  0  0
  -27.2189  -28.5504   20.7278 C   0  0  0  0  0  0
  -26.0234  -26.8766   19.4573 C   0  0  0  0  0  0
  -24.8715  -27.6848   19.4600 C   0  0  0  0  0  0
  -23.6502  -29.8169   20.1565 C   0  0  0  0  0  0
  -25.4117  -36.3069   24.0322 C   0  0  1  0  0  0
  -20.5900  -28.3705   23.1253 C   0  0  2  0  0  0
  -20.6783  -26.9420   22.5400 C   0  0  0  0  0  0
  -19.5760  -26.6381   21.5204 C   0  0  0  0  0  0
  -18.1941  -26.7928   22.1617 C   0  0  0  0  0  0
  -19.1549  -28.8864   23.2860 C   0  0  0  0  0  0
  -18.9470  -30.1460   23.8884 C   0  0  0  0  0  0
  -17.6470  -30.6587   24.0562 C   0  0  0  0  0  0
  -25.9061  -34.9439   23.5091 C   0  0  0  0  0  0
  -16.5362  -29.9085   23.6330 C   0  0  0  0  0  0
  -16.7283  -28.6504   23.0349 C   0  0  0  0  0  0
  -26.4507  -31.6581   25.0733 C   0  0  0  0  0  0
  -25.3720  -31.3736   26.1445 C   0  0  0  0  0  0
  -27.0360  -30.2994   24.6238 C   0  0  0  0  0  0
  -27.6055  -32.4325   25.7513 C   0  0  0  0  0  0
  -27.5579  -37.1799   24.8463 C   0  0  0  0  0  0
  -21.4217  -29.3050   22.3642 N   0  0  0  0  0  0
  -26.4291  -37.3768   23.9406 N   0  0  0  0  0  0
  -24.7001  -31.0491   22.0974 N   0  0  0  0  0  0
  -23.4204  -28.8132   23.2996 O   0  0  0  0  0  0
  -28.2850  -26.3116   20.2217 O   0  0  0  0  0  0
  -26.5634  -34.8916   22.4660 O   0  0  0  0  0  0
  -23.5474  -32.1379   23.7265 O   0  0  0  0  0  0
  -29.9793  -19.6043   18.6734 C   0  0  0  0  0  0
  -30.3748  -18.3890   18.1066 C   0  0  0  0  0  0
  -29.5575  -19.6070   20.0032 C   0  0  0  0  0  0
  -29.9585  -17.2272   20.0566 C   0  0  0  0  0  0
  -28.7003  -22.1153   19.9032 C   0  0  0  0  0  0
  -28.0165  -24.8405   19.9719 C   0  0  0  0  0  0
  -28.8959  -23.5935   20.5583 C   0  0  1  0  0  0
  -30.3577  -17.2298   18.7886 N   0  0  0  0  0  0
  -29.5424  -18.3893   20.6789 N   0  0  0  0  0  0
  -29.2056  -20.8680   20.6250 N   0  0  0  0  0  0
  -29.8813  -15.9243   20.6627 N   0  0  0  0  0  0
  -28.5393  -23.4191   21.9202 O   0  0  0  0  0  0
  -31.4716  -12.5643   19.1873 H   0  0  0  0  0  0
  -30.3596  -11.4848   19.9748 H   0  0  0  0  0  0
  -29.7984  -11.7403   17.5285 H   0  0  0  0  0  0
  -29.6440  -13.4669   17.7299 H   0  0  0  0  0  0
  -27.8911  -11.2907   18.9117 H   0  0  0  0  0  0
  -27.3840  -12.5368   17.8011 H   0  0  0  0  0  0
  -27.6327  -14.2599   19.4681 H   0  0  0  0  0  0
  -28.7186  -12.1971   21.4452 H   0  0  0  0  0  0
  -28.4190  -13.8819   21.7896 H   0  0  0  0  0  0
  -25.2773   -9.5690   22.4758 H   0  0  0  0  0  0
  -24.0011   -7.4641   22.7476 H   0  0  0  0  0  0
  -21.0849   -8.8785   19.8956 H   0  0  0  0  0  0
  -22.3711  -10.9678   19.6166 H   0  0  0  0  0  0
  -21.2019   -7.6154   23.9721 H   0  0  0  0  0  0
  -21.1484   -6.0522   25.9078 H   0  0  0  0  0  0
  -22.0594   -2.7610   23.2840 H   0  0  0  0  0  0
  -22.4086  -11.9892   22.4829 H   0  0  0  0  0  0
  -21.1076  -13.1239   22.2614 H   0  0  0  0  0  0
  -24.6433  -15.8420   20.5207 H   0  0  0  0  0  0
  -26.2556  -15.6366   20.0611 H   0  0  0  0  0  0
  -26.7212  -32.5390   23.1071 H   0  0  0  0  0  0
  -25.0081  -33.9689   25.0395 H   0  0  0  0  0  0
  -22.7279  -31.3014   21.3964 H   0  0  0  0  0  0
  -23.3752  -35.9615   23.3299 H   0  0  0  0  0  0
  -24.3578  -36.8914   22.2054 H   0  0  0  0  0  0
  -23.7243  -37.6483   23.6670 H   0  0  0  0  0  0
  -26.1230  -31.5195   20.6146 H   0  0  0  0  0  0
  -26.8555  -30.8066   22.0193 H   0  0  0  0  0  0
  -28.1106  -28.8891   21.2366 H   0  0  0  0  0  0
  -25.9451  -25.9379   18.9301 H   0  0  0  0  0  0
  -23.9791  -27.3375   18.9573 H   0  0  0  0  0  0
  -23.7790  -30.5956   19.4040 H   0  0  0  0  0  0
  -22.7678  -29.2534   19.8477 H   0  0  0  0  0  0
  -25.1299  -36.1915   25.0814 H   0  0  0  0  0  0
  -20.9993  -28.3289   24.1373 H   0  0  0  0  0  0
  -20.5672  -26.2321   23.3610 H   0  0  0  0  0  0
  -21.6653  -26.7435   22.1204 H   0  0  0  0  0  0
  -19.6926  -25.6287   21.1246 H   0  0  0  0  0  0
  -19.6700  -27.3179   20.6722 H   0  0  0  0  0  0
  -17.4209  -26.6663   21.4024 H   0  0  0  0  0  0
  -18.0354  -26.0074   22.9020 H   0  0  0  0  0  0
  -19.7949  -30.7275   24.2252 H   0  0  0  0  0  0
  -17.5028  -31.6264   24.5170 H   0  0  0  0  0  0
  -15.5362  -30.2986   23.7660 H   0  0  0  0  0  0
  -15.8682  -28.0820   22.7070 H   0  0  0  0  0  0
  -24.5901  -30.7081   25.7770 H   0  0  0  0  0  0
  -24.8902  -32.2905   26.4850 H   0  0  0  0  0  0
  -25.8026  -30.8926   27.0236 H   0  0  0  0  0  0
  -26.2951  -29.6734   24.1250 H   0  0  0  0  0  0
  -27.4018  -29.7266   25.4770 H   0  0  0  0  0  0
  -27.8841  -30.4262   23.9507 H   0  0  0  0  0  0
  -27.2662  -33.3631   26.2074 H   0  0  0  0  0  0
  -28.3880  -32.6875   25.0354 H   0  0  0  0  0  0
  -28.0710  -31.8460   26.5444 H   0  0  0  0  0  0
  -28.2591  -38.0101   24.7511 H   0  0  0  0  0  0
  -28.1079  -36.2630   24.6289 H   0  0  0  0  0  0
  -27.2295  -37.1449   25.8866 H   0  0  0  0  0  0
  -20.9408  -29.8783   21.6852 H   0  0  0  0  0  0
  -26.0167  -38.2841   24.1406 H   0  0  0  0  0  0
  -30.0434  -20.4971   18.0716 H   0  0  0  0  0  0
  -30.7169  -18.3431   17.0832 H   0  0  0  0  0  0
  -29.1151  -22.1572   18.8978 H   0  0  0  0  0  0
  -27.6306  -21.9603   19.7558 H   0  0  0  0  0  0
  -26.9921  -24.6170   20.2712 H   0  0  0  0  0  0
  -28.0285  -24.7379   18.8862 H   0  0  0  0  0  0
  -29.9531  -23.8568   20.5019 H   0  0  0  0  0  0
  -28.9550  -20.8342   21.6083 H   0  0  0  0  0  0
  -29.0308  -15.7743   21.1784 H   0  0  0  0  0  0
  -28.7207  -24.2423   22.3648 H   0  0  0  0  0  0
  1 25  1  0  0  0
  1 30  2  0  0  0
  1 81  1  0  0  0
  2  3  1  0  0  0
  2 25  1  0  0  0
  2 83  1  0  0  0
  2 84  1  0  0  0
  3  4  1  0  0  0
  3 85  1  0  0  0
  3 86  1  0  0  0
  4  5  1  0  0  0
  4 87  1  0  0  0
  4 88  1  0  0  0
  5  6  1  0  0  0
  5 26  1  0  0  0
  5 89  1  0  0  0
  6 25  1  0  0  0
  6 90  1  0  0  0
  6 91  1  0  0  0
  7  8  2  0  0  0
  7 26  1  0  0  0
  7 29  1  0  0  0
  8  9  1  0  0  0
  8 22  1  0  0  0
  9 10  1  0  0  0
  9 27  2  0  0  0
 10 11  2  0  0  0
 10 15  1  0  0  0
 11 12  1  0  0  0
 11 92  1  0  0  0
 12 13  2  0  0  0
 12 93  1  0  0  0
 13 14  1  0  0  0
 13 31  1  0  0  0
 14 15  2  0  0  0
 14 94  1  0  0  0
 15 95  1  0  0  0
 16 17  2  0  0  0
 16 21  1  0  0  0
 16 31  1  0  0  0
 17 18  1  0  0  0
 17 96  1  0  0  0
 18 19  2  0  0  0
 18 97  1  0  0  0
 19 20  1  0  0  0
 19 24  1  0  0  0
 20 21  2  0  0  0
 20 98  1  0  0  0
 21 23  1  0  0  0
 22 28  1  0  0  0
 22 32  2  0  0  0
 26 27  1  0  0  0
 28 99  1  0  0  0
 28100  1  0  0  0
 29101  1  0  0  0
 29102  1  0  0  0
 33 34  1  0  0  0
 33 66  1  0  0  0
 33 70  2  0  0  0
 34 36  1  0  0  0
 34 59  1  0  0  0
 34103  1  0  0  0
 35 44  2  0  0  0
 35 45  1  0  0  0
 35 68  1  0  0  0
 36 56  1  0  0  0
 36104  1  0  0  0
 37 39  1  0  0  0
 37 47  1  0  0  0
 37 66  1  0  0  0
 37105  1  0  0  0
 38 43  2  0  0  0
 38 46  1  0  0  0
 38 47  1  0  0  0
 39 64  1  0  0  0
 39 67  2  0  0  0
 40 52  1  0  0  0
 40 53  2  0  0  0
 40 58  1  0  0  0
 41106  1  0  0  0
 41107  1  0  0  0
 41108  1  0  0  0
 41 48  1  0  0  0
 42 43  1  0  0  0
 42 66  1  0  0  0
 42109  1  0  0  0
 42110  1  0  0  0
 43 44  1  0  0  0
 44111  1  0  0  0
 45 46  2  0  0  0
 45112  1  0  0  0
 46113  1  0  0  0
 47114  1  0  0  0
 47115  1  0  0  0
 48 56  1  0  0  0
 48 65  1  0  0  0
 48116  1  0  0  0
 49 50  1  0  0  0
 49 53  1  0  0  0
 49 64  1  0  0  0
 49117  1  0  0  0
 50 51  1  0  0  0
 50118  1  0  0  0
 50119  1  0  0  0
 51 52  1  0  0  0
 51120  1  0  0  0
 51121  1  0  0  0
 52122  1  0  0  0
 52123  1  0  0  0
 53 54  1  0  0  0
 54 55  2  0  0  0
 54124  1  0  0  0
 55 57  1  0  0  0
 55125  1  0  0  0
 56 69  2  0  0  0
 57 58  2  0  0  0
 57126  1  0  0  0
 58127  1  0  0  0
 59 60  1  0  0  0
 59 61  1  0  0  0
 59 62  1  0  0  0
 60128  1  0  0  0
 60129  1  0  0  0
 60130  1  0  0  0
 61131  1  0  0  0
 61132  1  0  0  0
 61133  1  0  0  0
 62134  1  0  0  0
 62135  1  0  0  0
 62136  1  0  0  0
 63 65  1  0  0  0
 63137  1  0  0  0
 63138  1  0  0  0
 63139  1  0  0  0
 64140  1  0  0  0
 65141  1  0  0  0
 68 76  1  0  0  0
 71 72  2  0  0  0
 71 73  1  0  0  0
 71142  1  0  0  0
 72 78  1  0  0  0
 72143  1  0  0  0
 73 79  2  0  0  0
 73 80  1  0  0  0
 74 78  2  0  0  0
 74 79  1  0  0  0
 74 81  1  0  0  0
 75 77  1  0  0  0
 75 80  1  0  0  0
 75144  1  0  0  0
 75145  1  0  0  0
 76 77  1  0  0  0
 76146  1  0  0  0
 76147  1  0  0  0
 77 82  1  0  0  0
 77148  1  0  0  0
 80149  1  0  0  0
 81150  1  0  0  0
 82151  1  0  0  0
M  ISO  4   1 100  68 101  76 101  81 100
M  END
> <chiral flag>
0

> <version>
0

> <s_m_source_file>
/data/baiqing/PycharmProjects/Reinvent-master-3.2/result/LINK_invent/BTK/process_docking_weight1_custom_product_contain_oxygen_bond_distance_aromatic_linkinvent_7_9_3/rearranged_h_0198.sdf

> <i_m_source_file_index>
90

> <r_mmod_Potential_Energy-OPLS-2005>
-357.510467529297

> <r_mmod_Stretch_Energy-OPLS-2005>
132.479614257812

> <r_mmod_Bend_Energy-OPLS-2005>
180.898361206055

> <r_mmod_Torsional_Energy-OPLS-2005>
253.307174682617

> <r_mmod_Improper_Torsional_Energy-OPLS-2005>
5.52607107162476

> <r_mmod_Van_der_Waal_Energy-OPLS-2005>
154.016036987305

> <r_mmod_Electrostatic_Energy-OPLS-2005>
-918.196350097656

> <r_mmod_Solvation_Energy-OPLS-2005>
-263.697723388672

> <b_mmod_Minimization_Converged-OPLS-2005>
0

> <r_mmod_RMS_Derivative-OPLS-2005>
0.625787615776062

$$$$
90
                    3D
 Structure written by MMmdl.
156164  0  0  1  0            999 V2000
  -30.7236  -14.3778   20.6663 C   0  0  0  0  0  0
  -30.4244  -12.2853   19.3941 C   0  0  0  0  0  0
  -29.4872  -12.5294   18.1940 C   0  0  0  0  0  0
  -28.0078  -12.3917   18.6063 C   0  0  0  0  0  0
  -27.6670  -13.2002   19.8856 C   0  0  2  0  0  0
  -28.7025  -12.9095   20.9934 C   0  0  0  0  0  0
  -25.2596  -13.8159   20.5685 C   0  0  0  0  0  0
  -24.1834  -13.0440   20.9176 C   0  0  0  0  0  0
  -24.6371  -11.6908   20.8731 C   0  0  0  0  0  0
  -23.9036  -10.4297   21.0396 C   0  0  0  0  0  0
  -24.3591   -9.4214   21.9173 C   0  0  0  0  0  0
  -23.6277   -8.2247   22.0741 C   0  0  0  0  0  0
  -22.4262   -8.0279   21.3533 C   0  0  0  0  0  0
  -21.9892   -9.0250   20.4638 C   0  0  0  0  0  0
  -22.7210  -10.2133   20.3046 C   0  0  0  0  0  0
  -21.6852   -6.0732   22.5281 C   0  0  0  0  0  0
  -21.4011   -6.5633   23.8211 C   0  0  0  0  0  0
  -21.3662   -5.6786   24.9173 C   0  0  0  0  0  0
  -21.6048   -4.3048   24.7229 C   0  0  0  0  0  0
  -21.8821   -3.8143   23.4347 C   0  0  0  0  0  0
  -21.9193   -4.6963   22.3403 C   0  0  0  0  0  0
  -22.7857  -13.5244   21.1856 C   0  0  0  0  0  0
  -22.1660   -4.2144   21.0984 F   0  0  0  0  0  0
  -21.5632   -3.4535   25.7740 F   0  0  0  0  0  0
  -30.0467  -13.2175   20.4658 N   0  0  0  0  0  0
  -26.3034  -12.9318   20.3398 N   0  0  0  0  0  0
  -25.9297  -11.6478   20.5753 N   0  0  0  0  0  0
  -22.0489  -12.8245   22.0418 N   0  0  0  0  0  0
  -25.4360  -15.1870   20.4088 N   0  0  0  0  0  0
  -31.7730  -14.6583   20.0765 O   0  0  0  0  0  0
  -21.6633   -6.8873   21.4236 O   0  0  0  0  0  0
  -22.3553  -14.5560   20.6719 O   0  0  0  0  0  0
  -24.6121  -31.8706   23.2137 C   0  0  0  0  0  0
  -25.9026  -32.4839   23.8415 C   0  0  1  0  0  0
  -27.2285  -27.4589   20.0776 C   0  0  0  0  0  0
  -25.5899  -33.8639   24.2349 N   0  0  0  0  0  0
  -23.3967  -30.4971   21.5542 C   0  0  2  0  0  0
  -24.8388  -28.9710   20.1120 C   0  0  0  0  0  0
  -22.7394  -29.4660   22.4996 C   0  0  0  0  0  0
  -18.0263  -28.1381   22.8489 C   0  0  0  0  0  0
  -24.1491  -36.7319   23.2639 C   0  0  0  0  0  0
  -25.9240  -30.8426   21.3636 C   0  0  0  0  0  0
  -25.9971  -29.4792   20.7103 C   0  0  0  0  0  0
  -27.1902  -28.7272   20.6966 C   0  0  0  0  0  0
  -26.0504  -26.9665   19.4656 C   0  0  0  0  0  0
  -24.8586  -27.7125   19.4904 C   0  0  0  0  0  0
  -23.6020  -29.8364   20.1653 C   0  0  0  0  0  0
  -25.4110  -36.3124   24.0342 C   0  0  1  0  0  0
  -20.5853  -28.3648   23.1337 C   0  0  2  0  0  0
  -20.6762  -26.9390   22.5426 C   0  0  0  0  0  0
  -19.5745  -26.6390   21.5218 C   0  0  0  0  0  0
  -18.1915  -26.7928   22.1619 C   0  0  0  0  0  0
  -19.1515  -28.8826   23.2912 C   0  0  0  0  0  0
  -18.9447  -30.1439   23.8912 C   0  0  0  0  0  0
  -17.6451  -30.6587   24.0563 C   0  0  0  0  0  0
  -25.9034  -34.9487   23.5140 C   0  0  0  0  0  0
  -16.5337  -29.9093   23.6328 C   0  0  0  0  0  0
  -16.7254  -28.6516   23.0333 C   0  0  0  0  0  0
  -26.4465  -31.6602   25.0725 C   0  0  0  0  0  0
  -25.3741  -31.3690   26.1477 C   0  0  0  0  0  0
  -27.0287  -30.3058   24.6061 C   0  0  0  0  0  0
  -27.6057  -32.4303   25.7476 C   0  0  0  0  0  0
  -27.5579  -37.1816   24.8467 C   0  0  0  0  0  0
  -21.4122  -29.3024   22.3747 N   0  0  0  0  0  0
  -26.4297  -37.3803   23.9408 N   0  0  0  0  0  0
  -24.6624  -31.0838   22.1026 N   0  0  0  0  0  0
  -23.4189  -28.8194   23.3012 O   0  0  0  0  0  0
  -28.4252  -26.7758   20.0998 O   0  0  0  0  0  0
  -26.5593  -34.8925   22.4700 O   0  0  0  0  0  0
  -23.5320  -32.1441   23.7554 O   0  0  0  0  0  0
  -31.2378  -17.3825   21.1300 C   0  0  0  0  0  0
  -30.2585  -16.5478   21.6237 C   0  0  0  0  0  0
  -29.8141  -18.9610   21.9388 C   0  0  0  0  0  0
  -29.0627  -24.1148   21.7732 C   0  0  0  0  0  0
  -29.2775  -20.3250   22.2188 C   0  0  0  0  0  0
  -29.5553  -24.6638   20.4266 C   0  0  0  0  0  0
  -29.9547  -21.0065   23.4237 C   0  0  0  0  0  0
  -29.5595  -22.4841   23.5961 C   0  0  0  0  0  0
  -28.4866  -25.4300   19.6267 C   0  0  0  0  0  0
  -30.9696  -18.7433   21.3068 N   0  0  0  0  0  0
  -30.1532  -15.1968   21.5638 N   0  0  0  0  0  0
  -29.8797  -23.2568   22.3953 N   0  0  0  0  0  0
  -27.9610  -24.4255   22.2319 O   0  0  0  0  0  0
  -29.0033  -17.4761   22.4097 S   0  0  0  0  0  0
  -31.4663  -12.3990   19.0892 H   0  0  0  0  0  0
  -30.3342  -11.2567   19.7468 H   0  0  0  0  0  0
  -29.7150  -11.8304   17.3881 H   0  0  0  0  0  0
  -29.6637  -13.5288   17.7914 H   0  0  0  0  0  0
  -27.8035  -11.3332   18.7721 H   0  0  0  0  0  0
  -27.3600  -12.7002   17.7852 H   0  0  0  0  0  0
  -27.7337  -14.2588   19.6315 H   0  0  0  0  0  0
  -28.6646  -11.8546   21.2689 H   0  0  0  0  0  0
  -28.4475  -13.4459   21.9080 H   0  0  0  0  0  0
  -25.2731   -9.5702   22.4744 H   0  0  0  0  0  0
  -23.9999   -7.4637   22.7452 H   0  0  0  0  0  0
  -21.0822   -8.8759   19.8938 H   0  0  0  0  0  0
  -22.3658  -10.9667   19.6157 H   0  0  0  0  0  0
  -21.1995   -7.6137   23.9718 H   0  0  0  0  0  0
  -21.1484   -6.0510   25.9075 H   0  0  0  0  0  0
  -22.0597   -2.7606   23.2849 H   0  0  0  0  0  0
  -22.4082  -11.9891   22.4805 H   0  0  0  0  0  0
  -21.1104  -13.1274   22.2610 H   0  0  0  0  0  0
  -24.6769  -15.8510   20.5163 H   0  0  0  0  0  0
  -26.2989  -15.6190   20.1017 H   0  0  0  0  0  0
  -26.7089  -32.5551   23.1169 H   0  0  0  0  0  0
  -25.0065  -33.9808   25.0505 H   0  0  0  0  0  0
  -22.6835  -31.3138   21.4205 H   0  0  0  0  0  0
  -23.3753  -35.9653   23.3326 H   0  0  0  0  0  0
  -24.3584  -36.8910   22.2051 H   0  0  0  0  0  0
  -23.7248  -37.6533   23.6631 H   0  0  0  0  0  0
  -26.0349  -31.6116   20.5975 H   0  0  0  0  0  0
  -26.8138  -30.8948   21.9792 H   0  0  0  0  0  0
  -28.0849  -29.1180   21.1605 H   0  0  0  0  0  0
  -26.0182  -26.0208   18.9479 H   0  0  0  0  0  0
  -23.9687  -27.3204   19.0179 H   0  0  0  0  0  0
  -23.7101  -30.6163   19.4104 H   0  0  0  0  0  0
  -22.7259  -29.2589   19.8654 H   0  0  0  0  0  0
  -25.1287  -36.1992   25.0836 H   0  0  0  0  0  0
  -20.9935  -28.3206   24.1463 H   0  0  0  0  0  0
  -20.5680  -26.2242   23.3597 H   0  0  0  0  0  0
  -21.6629  -26.7454   22.1201 H   0  0  0  0  0  0
  -19.6912  -25.6312   21.1223 H   0  0  0  0  0  0
  -19.6697  -27.3222   20.6768 H   0  0  0  0  0  0
  -17.4191  -26.6673   21.4018 H   0  0  0  0  0  0
  -18.0307  -26.0072   22.9015 H   0  0  0  0  0  0
  -19.7921  -30.7252   24.2284 H   0  0  0  0  0  0
  -17.5007  -31.6265   24.5170 H   0  0  0  0  0  0
  -15.5341  -30.2999   23.7654 H   0  0  0  0  0  0
  -15.8646  -28.0856   22.7019 H   0  0  0  0  0  0
  -24.5935  -30.7007   25.7820 H   0  0  0  0  0  0
  -24.8897  -32.2830   26.4919 H   0  0  0  0  0  0
  -25.8110  -30.8877   27.0236 H   0  0  0  0  0  0
  -26.2814  -29.6828   24.1130 H   0  0  0  0  0  0
  -27.4106  -29.7275   25.4483 H   0  0  0  0  0  0
  -27.8622  -30.4401   23.9166 H   0  0  0  0  0  0
  -27.2702  -33.3603   26.2074 H   0  0  0  0  0  0
  -28.3850  -32.6857   25.0287 H   0  0  0  0  0  0
  -28.0730  -31.8405   26.5369 H   0  0  0  0  0  0
  -28.2614  -38.0096   24.7511 H   0  0  0  0  0  0
  -28.1058  -36.2633   24.6301 H   0  0  0  0  0  0
  -27.2293  -37.1480   25.8868 H   0  0  0  0  0  0
  -20.9263  -29.8769   21.6998 H   0  0  0  0  0  0
  -26.0195  -38.2884   24.1413 H   0  0  0  0  0  0
  -32.1449  -17.1039   20.6127 H   0  0  0  0  0  0
  -28.2013  -20.2566   22.3847 H   0  0  0  0  0  0
  -29.4054  -20.9178   21.3133 H   0  0  0  0  0  0
  -29.8830  -23.8128   19.8285 H   0  0  0  0  0  0
  -30.4336  -25.2902   20.5832 H   0  0  0  0  0  0
  -31.0383  -20.9466   23.3126 H   0  0  0  0  0  0
  -29.7151  -20.4549   24.3344 H   0  0  0  0  0  0
  -30.0979  -22.9154   24.4407 H   0  0  0  0  0  0
  -28.4978  -22.5491   23.8425 H   0  0  0  0  0  0
  -27.5505  -24.8798   19.7125 H   0  0  0  0  0  0
  -28.7485  -25.4492   18.5683 H   0  0  0  0  0  0
  -29.3588  -14.7988   22.0424 H   0  0  0  0  0  0
  -30.7739  -23.0736   21.9586 H   0  0  0  0  0  0
  1 25  1  0  0  0
  1 30  2  0  0  0
  1 81  1  0  0  0
  2  3  1  0  0  0
  2 25  1  0  0  0
  2 85  1  0  0  0
  2 86  1  0  0  0
  3  4  1  0  0  0
  3 87  1  0  0  0
  3 88  1  0  0  0
  4  5  1  0  0  0
  4 89  1  0  0  0
  4 90  1  0  0  0
  5  6  1  0  0  0
  5 26  1  0  0  0
  5 91  1  0  0  0
  6 25  1  0  0  0
  6 92  1  0  0  0
  6 93  1  0  0  0
  7  8  2  0  0  0
  7 26  1  0  0  0
  7 29  1  0  0  0
  8  9  1  0  0  0
  8 22  1  0  0  0
  9 10  1  0  0  0
  9 27  2  0  0  0
 10 11  2  0  0  0
 10 15  1  0  0  0
 11 12  1  0  0  0
 11 94  1  0  0  0
 12 13  2  0  0  0
 12 95  1  0  0  0
 13 14  1  0  0  0
 13 31  1  0  0  0
 14 15  2  0  0  0
 14 96  1  0  0  0
 15 97  1  0  0  0
 16 17  2  0  0  0
 16 21  1  0  0  0
 16 31  1  0  0  0
 17 18  1  0  0  0
 17 98  1  0  0  0
 18 19  2  0  0  0
 18 99  1  0  0  0
 19 20  1  0  0  0
 19 24  1  0  0  0
 20 21  2  0  0  0
 20100  1  0  0  0
 21 23  1  0  0  0
 22 28  1  0  0  0
 22 32  2  0  0  0
 26 27  1  0  0  0
 28101  1  0  0  0
 28102  1  0  0  0
 29103  1  0  0  0
 29104  1  0  0  0
 33 34  1  0  0  0
 33 66  1  0  0  0
 33 70  2  0  0  0
 34 36  1  0  0  0
 34 59  1  0  0  0
 34105  1  0  0  0
 35 44  2  0  0  0
 35 45  1  0  0  0
 35 68  1  0  0  0
 36 56  1  0  0  0
 36106  1  0  0  0
 37 39  1  0  0  0
 37 47  1  0  0  0
 37 66  1  0  0  0
 37107  1  0  0  0
 38 43  2  0  0  0
 38 46  1  0  0  0
 38 47  1  0  0  0
 39 64  1  0  0  0
 39 67  2  0  0  0
 40 52  1  0  0  0
 40 53  2  0  0  0
 40 58  1  0  0  0
 41108  1  0  0  0
 41109  1  0  0  0
 41110  1  0  0  0
 41 48  1  0  0  0
 42 43  1  0  0  0
 42 66  1  0  0  0
 42111  1  0  0  0
 42112  1  0  0  0
 43 44  1  0  0  0
 44113  1  0  0  0
 45 46  2  0  0  0
 45114  1  0  0  0
 46115  1  0  0  0
 47116  1  0  0  0
 47117  1  0  0  0
 48 56  1  0  0  0
 48 65  1  0  0  0
 48118  1  0  0  0
 49 50  1  0  0  0
 49 53  1  0  0  0
 49 64  1  0  0  0
 49119  1  0  0  0
 50 51  1  0  0  0
 50120  1  0  0  0
 50121  1  0  0  0
 51 52  1  0  0  0
 51122  1  0  0  0
 51123  1  0  0  0
 52124  1  0  0  0
 52125  1  0  0  0
 53 54  1  0  0  0
 54 55  2  0  0  0
 54126  1  0  0  0
 55 57  1  0  0  0
 55127  1  0  0  0
 56 69  2  0  0  0
 57 58  2  0  0  0
 57128  1  0  0  0
 58129  1  0  0  0
 59 60  1  0  0  0
 59 61  1  0  0  0
 59 62  1  0  0  0
 60130  1  0  0  0
 60131  1  0  0  0
 60132  1  0  0  0
 61133  1  0  0  0
 61134  1  0  0  0
 61135  1  0  0  0
 62136  1  0  0  0
 62137  1  0  0  0
 62138  1  0  0  0
 63 65  1  0  0  0
 63139  1  0  0  0
 63140  1  0  0  0
 63141  1  0  0  0
 64142  1  0  0  0
 65143  1  0  0  0
 68 79  1  0  0  0
 71 72  2  0  0  0
 71 80  1  0  0  0
 71144  1  0  0  0
 72 81  1  0  0  0
 72 84  1  0  0  0
 73 75  1  0  0  0
 73 80  2  0  0  0
 73 84  1  0  0  0
 74 76  1  0  0  0
 74 82  1  0  0  0
 74 83  2  0  0  0
 75 77  1  0  0  0
 75145  1  0  0  0
 75146  1  0  0  0
 76 79  1  0  0  0
 76147  1  0  0  0
 76148  1  0  0  0
 77 78  1  0  0  0
 77149  1  0  0  0
 77150  1  0  0  0
 78 82  1  0  0  0
 78151  1  0  0  0
 78152  1  0  0  0
 79153  1  0  0  0
 79154  1  0  0  0
 81155  1  0  0  0
 82156  1  0  0  0
M  ISO  4   1 100  68 101  79 101  81 100
M  END
> <chiral flag>
0

> <version>
0

> <s_m_source_file>
/data/baiqing/PycharmProjects/Reinvent-master-3.2/result/LINK_invent/BTK/process_docking_weight1_custom_product_contain_oxygen_bond_distance_aromatic_linkinvent_7_9_3/rearranged_h_0198.sdf

> <i_m_source_file_index>
91

> <r_mmod_Potential_Energy-OPLS-2005>
-209.684051513672

> <r_mmod_Stretch_Energy-OPLS-2005>
30.874059677124

> <r_mmod_Bend_Energy-OPLS-2005>
100.307167053223

> <r_mmod_Torsional_Energy-OPLS-2005>
180.879776000977

> <r_mmod_Improper_Torsional_Energy-OPLS-2005>
3.04701709747314

> <r_mmod_Van_der_Waal_Energy-OPLS-2005>
141.096542358398

> <r_mmod_Electrostatic_Energy-OPLS-2005>
-428.730804443359

> <r_mmod_Solvation_Energy-OPLS-2005>
-245.642181396484

> <b_mmod_Minimization_Converged-OPLS-2005>
0

> <r_mmod_RMS_Derivative-OPLS-2005>
1.37890326976776

$$$$
91
                    3D
 Structure written by MMmdl.
155163  0  0  1  0            999 V2000
  -30.6423  -14.5778   20.4872 C   0  0  0  0  0  0
  -30.4220  -12.3472   19.4470 C   0  0  0  0  0  0
  -29.4970  -12.4815   18.2169 C   0  0  0  0  0  0
  -28.0179  -12.3309   18.6250 C   0  0  0  0  0  0
  -27.6419  -13.2120   19.8466 C   0  0  2  0  0  0
  -28.6810  -13.0668   20.9808 C   0  0  0  0  0  0
  -25.2500  -13.8177   20.5665 C   0  0  0  0  0  0
  -24.1768  -13.0440   20.9193 C   0  0  0  0  0  0
  -24.6323  -11.6912   20.8722 C   0  0  0  0  0  0
  -23.9009  -10.4298   21.0410 C   0  0  0  0  0  0
  -24.3578   -9.4212   21.9187 C   0  0  0  0  0  0
  -23.6266   -8.2239   22.0766 C   0  0  0  0  0  0
  -22.4255   -8.0256   21.3549 C   0  0  0  0  0  0
  -21.9865   -9.0225   20.4659 C   0  0  0  0  0  0
  -22.7182  -10.2113   20.3059 C   0  0  0  0  0  0
  -21.6842   -6.0715   22.5286 C   0  0  0  0  0  0
  -21.4005   -6.5627   23.8214 C   0  0  0  0  0  0
  -21.3665   -5.6790   24.9181 C   0  0  0  0  0  0
  -21.6041   -4.3050   24.7238 C   0  0  0  0  0  0
  -21.8815   -3.8135   23.4361 C   0  0  0  0  0  0
  -21.9187   -4.6945   22.3412 C   0  0  0  0  0  0
  -22.7786  -13.5229   21.1852 C   0  0  0  0  0  0
  -22.1656   -4.2118   21.0994 F   0  0  0  0  0  0
  -21.5633   -3.4545   25.7761 F   0  0  0  0  0  0
  -30.0039  -13.3759   20.4188 N   0  0  0  0  0  0
  -26.2895  -12.9346   20.3207 N   0  0  0  0  0  0
  -25.9239  -11.6508   20.5694 N   0  0  0  0  0  0
  -22.0427  -12.8243   22.0430 N   0  0  0  0  0  0
  -25.4204  -15.1901   20.4099 N   0  0  0  0  0  0
  -31.8163  -14.7152   20.1326 O   0  0  0  0  0  0
  -21.6626   -6.8846   21.4243 O   0  0  0  0  0  0
  -22.3479  -14.5534   20.6694 O   0  0  0  0  0  0
  -24.6167  -31.8635   23.2040 C   0  0  0  0  0  0
  -25.9057  -32.4805   23.8363 C   0  0  1  0  0  0
  -27.2392  -27.3783   20.1251 C   0  0  0  0  0  0
  -25.5906  -33.8604   24.2304 N   0  0  0  0  0  0
  -23.4103  -30.4850   21.5436 C   0  0  2  0  0  0
  -24.8592  -28.9305   20.1251 C   0  0  0  0  0  0
  -22.7399  -29.4701   22.4970 C   0  0  0  0  0  0
  -18.0256  -28.1472   22.8460 C   0  0  0  0  0  0
  -24.1489  -36.7311   23.2641 C   0  0  0  0  0  0
  -25.9414  -30.8109   21.3668 C   0  0  0  0  0  0
  -26.0204  -29.4377   20.7227 C   0  0  0  0  0  0
  -27.2136  -28.6728   20.7120 C   0  0  0  0  0  0
  -26.0619  -26.8928   19.5252 C   0  0  0  0  0  0
  -24.8769  -27.6565   19.5257 C   0  0  0  0  0  0
  -23.6246  -29.8048   20.1647 C   0  0  0  0  0  0
  -25.4118  -36.3113   24.0336 C   0  0  1  0  0  0
  -20.5829  -28.3774   23.1295 C   0  0  2  0  0  0
  -20.6702  -26.9563   22.5322 C   0  0  0  0  0  0
  -19.5708  -26.6710   21.5042 C   0  0  0  0  0  0
  -18.1914  -26.8037   22.1546 C   0  0  0  0  0  0
  -19.1493  -28.8928   23.2937 C   0  0  0  0  0  0
  -18.9407  -30.1468   23.9091 C   0  0  0  0  0  0
  -17.6397  -30.6599   24.0737 C   0  0  0  0  0  0
  -25.9041  -34.9476   23.5108 C   0  0  0  0  0  0
  -16.5313  -29.9159   23.6331 C   0  0  0  0  0  0
  -16.7237  -28.6609   23.0301 C   0  0  0  0  0  0
  -26.4481  -31.6592   25.0702 C   0  0  0  0  0  0
  -25.3727  -31.3705   26.1424 C   0  0  0  0  0  0
  -27.0331  -30.3032   24.6123 C   0  0  0  0  0  0
  -27.6063  -32.4311   25.7457 C   0  0  0  0  0  0
  -27.5589  -37.1806   24.8467 C   0  0  0  0  0  0
  -21.4122  -29.3102   22.3666 N   0  0  0  0  0  0
  -26.4309  -37.3799   23.9398 N   0  0  0  0  0  0
  -24.6741  -31.0699   22.0974 N   0  0  0  0  0  0
  -23.4126  -28.8276   23.3077 O   0  0  0  0  0  0
  -28.4190  -26.6540   20.0732 O   0  0  0  0  0  0
  -26.5618  -34.8927   22.4684 O   0  0  0  0  0  0
  -23.5356  -32.1427   23.7392 O   0  0  0  0  0  0
  -29.3235  -18.2026   20.9588 C   0  0  0  0  0  0
  -28.4255  -18.1633   22.0016 C   0  0  0  0  0  0
  -28.5253  -20.3865   20.9060 C   0  0  0  0  0  0
  -28.1495  -17.0433   22.9521 C   0  0  0  0  0  0
  -30.2817  -17.0800   20.5248 C   0  0  0  0  0  0
  -28.9291  -22.7329   19.6640 C   0  0  0  0  0  0
  -28.4777  -25.2619   20.5187 C   0  0  0  0  0  0
  -28.1685  -24.1159   19.4843 C   0  0  1  0  0  0
  -29.3667  -19.4917   20.3512 N   0  0  0  0  0  0
  -28.3413  -21.7470   20.5823 N   0  0  0  0  0  0
  -29.8633  -15.6636   20.7267 N   0  0  0  0  0  0
  -28.5987  -24.5775   18.2169 O   0  0  0  0  0  0
  -27.5843  -19.6835   22.2092 S   0  0  0  0  0  0
  -31.4696  -12.4512   19.1529 H   0  0  0  0  0  0
  -30.3372  -11.3548   19.8883 H   0  0  0  0  0  0
  -29.7534  -11.7318   17.4665 H   0  0  0  0  0  0
  -29.6469  -13.4520   17.7445 H   0  0  0  0  0  0
  -27.8463  -11.2798   18.8583 H   0  0  0  0  0  0
  -27.3659  -12.5556   17.7792 H   0  0  0  0  0  0
  -27.6589  -14.2435   19.4952 H   0  0  0  0  0  0
  -28.6664  -12.0519   21.3769 H   0  0  0  0  0  0
  -28.4345  -13.7209   21.8195 H   0  0  0  0  0  0
  -25.2718   -9.5687   22.4758 H   0  0  0  0  0  0
  -23.9970   -7.4633   22.7488 H   0  0  0  0  0  0
  -21.0792   -8.8724   19.8974 H   0  0  0  0  0  0
  -22.3628  -10.9635   19.6162 H   0  0  0  0  0  0
  -21.1998   -7.6136   23.9701 H   0  0  0  0  0  0
  -21.1492   -6.0533   25.9080 H   0  0  0  0  0  0
  -22.0590   -2.7591   23.2883 H   0  0  0  0  0  0
  -22.4032  -11.9905   22.4829 H   0  0  0  0  0  0
  -21.1048  -13.1290   22.2638 H   0  0  0  0  0  0
  -24.6467  -15.8374   20.5090 H   0  0  0  0  0  0
  -26.2580  -15.6311   20.0542 H   0  0  0  0  0  0
  -26.7130  -32.5506   23.1122 H   0  0  0  0  0  0
  -25.0048  -33.9756   25.0443 H   0  0  0  0  0  0
  -22.7050  -31.3059   21.3906 H   0  0  0  0  0  0
  -23.3755  -35.9637   23.3307 H   0  0  0  0  0  0
  -24.3585  -36.8918   22.2056 H   0  0  0  0  0  0
  -23.7218  -37.6508   23.6649 H   0  0  0  0  0  0
  -26.0587  -31.5706   20.5931 H   0  0  0  0  0  0
  -26.8266  -30.8696   21.9886 H   0  0  0  0  0  0
  -28.1144  -29.0633   21.1647 H   0  0  0  0  0  0
  -26.0616  -25.9333   19.0311 H   0  0  0  0  0  0
  -23.9903  -27.2521   19.0560 H   0  0  0  0  0  0
  -23.7430  -30.5722   19.4000 H   0  0  0  0  0  0
  -22.7483  -29.2266   19.8670 H   0  0  0  0  0  0
  -25.1286  -36.1995   25.0835 H   0  0  0  0  0  0
  -20.9972  -28.3330   24.1390 H   0  0  0  0  0  0
  -20.5507  -26.2398   23.3451 H   0  0  0  0  0  0
  -21.6614  -26.7655   22.1165 H   0  0  0  0  0  0
  -19.7003  -25.6786   21.0725 H   0  0  0  0  0  0
  -19.6531  -27.3811   20.6790 H   0  0  0  0  0  0
  -18.0460  -26.0137   22.8941 H   0  0  0  0  0  0
  -17.4146  -26.6789   21.3986 H   0  0  0  0  0  0
  -19.7840  -30.7236   24.2650 H   0  0  0  0  0  0
  -17.4971  -31.6195   24.5517 H   0  0  0  0  0  0
  -15.5314  -30.3130   23.7605 H   0  0  0  0  0  0
  -15.8663  -28.0930   22.6944 H   0  0  0  0  0  0
  -24.5907  -30.7065   25.7723 H   0  0  0  0  0  0
  -24.8906  -32.2856   26.4871 H   0  0  0  0  0  0
  -25.8039  -30.8847   27.0184 H   0  0  0  0  0  0
  -26.2892  -29.6761   24.1195 H   0  0  0  0  0  0
  -27.4108  -29.7308   25.4610 H   0  0  0  0  0  0
  -27.8724  -30.4342   23.9289 H   0  0  0  0  0  0
  -27.2716  -33.3614   26.2062 H   0  0  0  0  0  0
  -28.3854  -32.6868   25.0262 H   0  0  0  0  0  0
  -28.0767  -31.8418   26.5335 H   0  0  0  0  0  0
  -28.2615  -38.0100   24.7525 H   0  0  0  0  0  0
  -28.1079  -36.2628   24.6283 H   0  0  0  0  0  0
  -27.2307  -37.1446   25.8873 H   0  0  0  0  0  0
  -20.9333  -29.8656   21.6708 H   0  0  0  0  0  0
  -26.0203  -38.2887   24.1379 H   0  0  0  0  0  0
  -29.0711  -16.5222   23.2097 H   0  0  0  0  0  0
  -27.7287  -17.4226   23.8833 H   0  0  0  0  0  0
  -27.4502  -16.3249   22.5222 H   0  0  0  0  0  0
  -30.5321  -17.2081   19.4699 H   0  0  0  0  0  0
  -31.2181  -17.2166   21.0655 H   0  0  0  0  0  0
  -28.9749  -22.2218   18.6980 H   0  0  0  0  0  0
  -29.9685  -22.9065   19.9487 H   0  0  0  0  0  0
  -29.5049  -25.1228   20.8538 H   0  0  0  0  0  0
  -27.8733  -25.1286   21.4182 H   0  0  0  0  0  0
  -27.0913  -23.9502   19.4229 H   0  0  0  0  0  0
  -27.6463  -22.1655   21.1935 H   0  0  0  0  0  0
  -28.8946  -15.5017   20.9422 H   0  0  0  0  0  0
  -28.3001  -23.9479   17.5694 H   0  0  0  0  0  0
  1 25  1  0  0  0
  1 30  2  0  0  0
  1 81  1  0  0  0
  2  3  1  0  0  0
  2 25  1  0  0  0
  2 84  1  0  0  0
  2 85  1  0  0  0
  3  4  1  0  0  0
  3 86  1  0  0  0
  3 87  1  0  0  0
  4  5  1  0  0  0
  4 88  1  0  0  0
  4 89  1  0  0  0
  5  6  1  0  0  0
  5 26  1  0  0  0
  5 90  1  0  0  0
  6 25  1  0  0  0
  6 91  1  0  0  0
  6 92  1  0  0  0
  7  8  2  0  0  0
  7 26  1  0  0  0
  7 29  1  0  0  0
  8  9  1  0  0  0
  8 22  1  0  0  0
  9 10  1  0  0  0
  9 27  2  0  0  0
 10 11  2  0  0  0
 10 15  1  0  0  0
 11 12  1  0  0  0
 11 93  1  0  0  0
 12 13  2  0  0  0
 12 94  1  0  0  0
 13 14  1  0  0  0
 13 31  1  0  0  0
 14 15  2  0  0  0
 14 95  1  0  0  0
 15 96  1  0  0  0
 16 17  2  0  0  0
 16 21  1  0  0  0
 16 31  1  0  0  0
 17 18  1  0  0  0
 17 97  1  0  0  0
 18 19  2  0  0  0
 18 98  1  0  0  0
 19 20  1  0  0  0
 19 24  1  0  0  0
 20 21  2  0  0  0
 20 99  1  0  0  0
 21 23  1  0  0  0
 22 28  1  0  0  0
 22 32  2  0  0  0
 26 27  1  0  0  0
 28100  1  0  0  0
 28101  1  0  0  0
 29102  1  0  0  0
 29103  1  0  0  0
 33 34  1  0  0  0
 33 66  1  0  0  0
 33 70  2  0  0  0
 34 36  1  0  0  0
 34 59  1  0  0  0
 34104  1  0  0  0
 35 44  2  0  0  0
 35 45  1  0  0  0
 35 68  1  0  0  0
 36 56  1  0  0  0
 36105  1  0  0  0
 37 39  1  0  0  0
 37 47  1  0  0  0
 37 66  1  0  0  0
 37106  1  0  0  0
 38 43  2  0  0  0
 38 46  1  0  0  0
 38 47  1  0  0  0
 39 64  1  0  0  0
 39 67  2  0  0  0
 40 52  1  0  0  0
 40 53  2  0  0  0
 40 58  1  0  0  0
 41107  1  0  0  0
 41108  1  0  0  0
 41109  1  0  0  0
 41 48  1  0  0  0
 42 43  1  0  0  0
 42 66  1  0  0  0
 42110  1  0  0  0
 42111  1  0  0  0
 43 44  1  0  0  0
 44112  1  0  0  0
 45 46  2  0  0  0
 45113  1  0  0  0
 46114  1  0  0  0
 47115  1  0  0  0
 47116  1  0  0  0
 48 56  1  0  0  0
 48 65  1  0  0  0
 48117  1  0  0  0
 49 50  1  0  0  0
 49 53  1  0  0  0
 49 64  1  0  0  0
 49118  1  0  0  0
 50 51  1  0  0  0
 50119  1  0  0  0
 50120  1  0  0  0
 51 52  1  0  0  0
 51121  1  0  0  0
 51122  1  0  0  0
 52123  1  0  0  0
 52124  1  0  0  0
 53 54  1  0  0  0
 54 55  2  0  0  0
 54125  1  0  0  0
 55 57  1  0  0  0
 55126  1  0  0  0
 56 69  2  0  0  0
 57 58  2  0  0  0
 57127  1  0  0  0
 58128  1  0  0  0
 59 60  1  0  0  0
 59 61  1  0  0  0
 59 62  1  0  0  0
 60129  1  0  0  0
 60130  1  0  0  0
 60131  1  0  0  0
 61132  1  0  0  0
 61133  1  0  0  0
 61134  1  0  0  0
 62135  1  0  0  0
 62136  1  0  0  0
 62137  1  0  0  0
 63 65  1  0  0  0
 63138  1  0  0  0
 63139  1  0  0  0
 63140  1  0  0  0
 64141  1  0  0  0
 65142  1  0  0  0
 68 77  1  0  0  0
 71 72  2  0  0  0
 71 75  1  0  0  0
 71 79  1  0  0  0
 72 74  1  0  0  0
 72 83  1  0  0  0
 73 79  2  0  0  0
 73 80  1  0  0  0
 73 83  1  0  0  0
 74143  1  0  0  0
 74144  1  0  0  0
 74145  1  0  0  0
 75 81  1  0  0  0
 75146  1  0  0  0
 75147  1  0  0  0
 76 78  1  0  0  0
 76 80  1  0  0  0
 76148  1  0  0  0
 76149  1  0  0  0
 77 78  1  0  0  0
 77150  1  0  0  0
 77151  1  0  0  0
 78 82  1  0  0  0
 78152  1  0  0  0
 80153  1  0  0  0
 81154  1  0  0  0
 82155  1  0  0  0
M  ISO  4   1 100  68 101  77 101  81 100
M  END
> <chiral flag>
0

> <version>
0

> <s_m_source_file>
/data/baiqing/PycharmProjects/Reinvent-master-3.2/result/LINK_invent/BTK/process_docking_weight1_custom_product_contain_oxygen_bond_distance_aromatic_linkinvent_7_9_3/rearranged_h_0198.sdf

> <i_m_source_file_index>
92

> <r_mmod_Potential_Energy-OPLS-2005>
-174.035659790039

> <r_mmod_Stretch_Energy-OPLS-2005>
52.121410369873

> <r_mmod_Bend_Energy-OPLS-2005>
123.017753601074

> <r_mmod_Torsional_Energy-OPLS-2005>
237.652969360352

> <r_mmod_Improper_Torsional_Energy-OPLS-2005>
6.39590787887573

> <r_mmod_Van_der_Waal_Energy-OPLS-2005>
113.567100524902

> <r_mmod_Electrostatic_Energy-OPLS-2005>
-483.815490722656

> <r_mmod_Solvation_Energy-OPLS-2005>
-251.834533691406

> <b_mmod_Minimization_Converged-OPLS-2005>
0

> <r_mmod_RMS_Derivative-OPLS-2005>
4.35505294799805

$$$$
92
                    3D
 Structure written by MMmdl.
154162  0  0  1  0            999 V2000
  -30.6148  -14.6365   20.4626 C   0  0  0  0  0  0
  -30.4306  -12.3759   19.4575 C   0  0  0  0  0  0
  -29.5051  -12.5017   18.2259 C   0  0  0  0  0  0
  -28.0220  -12.3629   18.6291 C   0  0  0  0  0  0
  -27.6487  -13.2256   19.8626 C   0  0  2  0  0  0
  -28.6949  -13.0879   20.9880 C   0  0  0  0  0  0
  -25.2546  -13.8199   20.5731 C   0  0  0  0  0  0
  -24.1826  -13.0439   20.9203 C   0  0  0  0  0  0
  -24.6428  -11.6916   20.8771 C   0  0  0  0  0  0
  -23.9111  -10.4302   21.0441 C   0  0  0  0  0  0
  -24.3650   -9.4206   21.9212 C   0  0  0  0  0  0
  -23.6328   -8.2238   22.0763 C   0  0  0  0  0  0
  -22.4310   -8.0284   21.3543 C   0  0  0  0  0  0
  -21.9965   -9.0273   20.4641 C   0  0  0  0  0  0
  -22.7299  -10.2150   20.3071 C   0  0  0  0  0  0
  -21.6856   -6.0761   22.5293 C   0  0  0  0  0  0
  -21.4025   -6.5667   23.8227 C   0  0  0  0  0  0
  -21.3653   -5.6807   24.9182 C   0  0  0  0  0  0
  -21.6034   -4.3066   24.7230 C   0  0  0  0  0  0
  -21.8814   -3.8171   23.4349 C   0  0  0  0  0  0
  -21.9208   -4.6995   22.3415 C   0  0  0  0  0  0
  -22.7834  -13.5199   21.1872 C   0  0  0  0  0  0
  -22.1658   -4.2187   21.0987 F   0  0  0  0  0  0
  -21.5628   -3.4535   25.7741 F   0  0  0  0  0  0
  -30.0125  -13.4066   20.4266 N   0  0  0  0  0  0
  -26.2985  -12.9399   20.3355 N   0  0  0  0  0  0
  -25.9361  -11.6546   20.5808 N   0  0  0  0  0  0
  -22.0504  -12.8156   22.0411 N   0  0  0  0  0  0
  -25.4266  -15.1920   20.4120 N   0  0  0  0  0  0
  -31.8056  -14.7553   20.1549 O   0  0  0  0  0  0
  -21.6634   -6.8898   21.4255 O   0  0  0  0  0  0
  -22.3518  -14.5539   20.6774 O   0  0  0  0  0  0
  -24.6186  -31.8607   23.2045 C   0  0  0  0  0  0
  -25.9039  -32.4779   23.8386 C   0  0  1  0  0  0
  -27.2270  -27.3344   20.0922 C   0  0  0  0  0  0
  -25.5877  -33.8602   24.2262 N   0  0  0  0  0  0
  -23.4118  -30.4835   21.5478 C   0  0  2  0  0  0
  -24.8558  -28.9406   20.1127 C   0  0  0  0  0  0
  -22.7414  -29.4621   22.4963 C   0  0  0  0  0  0
  -18.0261  -28.1326   22.8510 C   0  0  0  0  0  0
  -24.1490  -36.7331   23.2639 C   0  0  0  0  0  0
  -25.9535  -30.7924   21.3777 C   0  0  0  0  0  0
  -26.0249  -29.4248   20.7103 C   0  0  0  0  0  0
  -27.2099  -28.6321   20.6902 C   0  0  0  0  0  0
  -26.0233  -26.8881   19.4998 C   0  0  0  0  0  0
  -24.8553  -27.6766   19.5043 C   0  0  0  0  0  0
  -23.6200  -29.8153   20.1641 C   0  0  0  0  0  0
  -25.4123  -36.3109   24.0298 C   0  0  1  0  0  0
  -20.5852  -28.3639   23.1285 C   0  0  2  0  0  0
  -20.6742  -26.9373   22.5411 C   0  0  0  0  0  0
  -19.5741  -26.6334   21.5208 C   0  0  0  0  0  0
  -18.1907  -26.7883   22.1610 C   0  0  0  0  0  0
  -19.1509  -28.8801   23.2892 C   0  0  0  0  0  0
  -18.9450  -30.1411   23.8904 C   0  0  0  0  0  0
  -17.6447  -30.6562   24.0551 C   0  0  0  0  0  0
  -25.9035  -34.9461   23.5091 C   0  0  0  0  0  0
  -16.5331  -29.9049   23.6338 C   0  0  0  0  0  0
  -16.7245  -28.6443   23.0397 C   0  0  0  0  0  0
  -26.4441  -31.6618   25.0774 C   0  0  0  0  0  0
  -25.3684  -31.3732   26.1502 C   0  0  0  0  0  0
  -27.0293  -30.3032   24.6277 C   0  0  0  0  0  0
  -27.5968  -32.4408   25.7545 C   0  0  0  0  0  0
  -27.5589  -37.1821   24.8442 C   0  0  0  0  0  0
  -21.4133  -29.3008   22.3689 N   0  0  0  0  0  0
  -26.4307  -37.3799   23.9376 N   0  0  0  0  0  0
  -24.6797  -31.0614   22.0987 N   0  0  0  0  0  0
  -23.4154  -28.8141   23.3026 O   0  0  0  0  0  0
  -28.3871  -26.5475   20.1314 O   0  0  0  0  0  0
  -26.5648  -34.8902   22.4673 O   0  0  0  0  0  0
  -23.5351  -32.1418   23.7351 O   0  0  0  0  0  0
  -29.1539  -20.2980   18.9817 C   0  0  0  0  0  0
  -29.3167  -20.8328   21.2669 C   0  0  0  0  0  0
  -29.0405  -21.3174   19.9618 C   0  0  0  0  0  0
  -29.8241  -18.6894   20.4996 C   0  0  0  0  0  0
  -27.3547  -23.8133   21.3173 C   0  0  0  0  0  0
  -30.5476  -17.3214   20.7403 C   0  0  0  0  0  0
  -29.7562  -15.9561   20.6190 C   0  0  0  0  0  0
  -28.4839  -25.2214   19.4918 C   0  0  0  0  0  0
  -28.5681  -23.9008   20.3866 C   0  0  2  0  0  0
  -29.5445  -19.0240   19.2428 N   0  0  0  0  0  0
  -29.6990  -19.5460   21.5211 N   0  0  0  0  0  0
  -28.6863  -22.6564   19.5683 N   0  0  0  0  0  0
  -31.4767  -12.4828   19.1629 H   0  0  0  0  0  0
  -30.3434  -11.3818   19.8976 H   0  0  0  0  0  0
  -29.7567  -11.7411   17.4857 H   0  0  0  0  0  0
  -29.6612  -13.4667   17.7411 H   0  0  0  0  0  0
  -27.8291  -11.3109   18.8409 H   0  0  0  0  0  0
  -27.3798  -12.6262   17.7879 H   0  0  0  0  0  0
  -27.6601  -14.2598   19.5240 H   0  0  0  0  0  0
  -28.6946  -12.0721   21.3867 H   0  0  0  0  0  0
  -28.4550  -13.7360   21.8311 H   0  0  0  0  0  0
  -25.2800   -9.5668   22.4776 H   0  0  0  0  0  0
  -24.0037   -7.4626   22.7470 H   0  0  0  0  0  0
  -21.0909   -8.8798   19.8930 H   0  0  0  0  0  0
  -22.3790  -10.9683   19.6165 H   0  0  0  0  0  0
  -21.2005   -7.6168   23.9743 H   0  0  0  0  0  0
  -21.1469   -6.0532   25.9088 H   0  0  0  0  0  0
  -22.0605   -2.7637   23.2839 H   0  0  0  0  0  0
  -22.4147  -11.9782   22.4716 H   0  0  0  0  0  0
  -21.1125  -13.1142   22.2662 H   0  0  0  0  0  0
  -24.6682  -15.8558   20.5276 H   0  0  0  0  0  0
  -26.2852  -15.6241   20.0962 H   0  0  0  0  0  0
  -26.7076  -32.5440   23.1120 H   0  0  0  0  0  0
  -25.0003  -33.9774   25.0383 H   0  0  0  0  0  0
  -22.7064  -31.3045   21.4063 H   0  0  0  0  0  0
  -23.3746  -35.9673   23.3314 H   0  0  0  0  0  0
  -24.3576  -36.8978   22.2055 H   0  0  0  0  0  0
  -23.7241  -37.6520   23.6685 H   0  0  0  0  0  0
  -26.0951  -31.5636   20.6206 H   0  0  0  0  0  0
  -26.8248  -30.8263   22.0201 H   0  0  0  0  0  0
  -28.1130  -29.0035   21.1523 H   0  0  0  0  0  0
  -25.9311  -25.9147   19.0448 H   0  0  0  0  0  0
  -23.9530  -27.2915   19.0479 H   0  0  0  0  0  0
  -23.7259  -30.5887   19.4048 H   0  0  0  0  0  0
  -22.7401  -29.2373   19.8751 H   0  0  0  0  0  0
  -25.1305  -36.1997   25.0794 H   0  0  0  0  0  0
  -20.9952  -28.3225   24.1404 H   0  0  0  0  0  0
  -20.5617  -26.2273   23.3604 H   0  0  0  0  0  0
  -21.6610  -26.7393   22.1231 H   0  0  0  0  0  0
  -19.6918  -25.6238   21.1253 H   0  0  0  0  0  0
  -19.6666  -27.3126   20.6723 H   0  0  0  0  0  0
  -17.4171  -26.6640   21.3999 H   0  0  0  0  0  0
  -18.0308  -25.9995   22.8978 H   0  0  0  0  0  0
  -19.7921  -30.7221   24.2281 H   0  0  0  0  0  0
  -17.5001  -31.6263   24.5122 H   0  0  0  0  0  0
  -15.5325  -30.2948   23.7662 H   0  0  0  0  0  0
  -15.8646  -28.0733   22.7165 H   0  0  0  0  0  0
  -24.5833  -30.7113   25.7835 H   0  0  0  0  0  0
  -24.8886  -32.2869   26.5011 H   0  0  0  0  0  0
  -25.8000  -30.8854   27.0252 H   0  0  0  0  0  0
  -26.2878  -29.6789   24.1270 H   0  0  0  0  0  0
  -27.3906  -29.7300   25.4834 H   0  0  0  0  0  0
  -27.8792  -30.4301   23.9569 H   0  0  0  0  0  0
  -27.2531  -33.3702   26.2119 H   0  0  0  0  0  0
  -28.3765  -32.7017   25.0376 H   0  0  0  0  0  0
  -28.0676  -31.8588   26.5488 H   0  0  0  0  0  0
  -28.2577  -38.0152   24.7529 H   0  0  0  0  0  0
  -28.1114  -36.2672   24.6228 H   0  0  0  0  0  0
  -27.2305  -37.1433   25.8847 H   0  0  0  0  0  0
  -20.9285  -29.8784   21.6956 H   0  0  0  0  0  0
  -26.0193  -38.2877   24.1394 H   0  0  0  0  0  0
  -28.9601  -20.5185   17.9406 H   0  0  0  0  0  0
  -29.2564  -21.4867   22.1257 H   0  0  0  0  0  0
  -27.2941  -24.6942   21.9567 H   0  0  0  0  0  0
  -27.4009  -22.9451   21.9719 H   0  0  0  0  0  0
  -26.4237  -23.7575   20.7544 H   0  0  0  0  0  0
  -30.9986  -17.3550   21.7321 H   0  0  0  0  0  0
  -31.3933  -17.3033   20.0529 H   0  0  0  0  0  0
  -29.1603  -16.0224   19.7077 H   0  0  0  0  0  0
  -29.0494  -15.8737   21.4430 H   0  0  0  0  0  0
  -27.7461  -25.0830   18.7064 H   0  0  0  0  0  0
  -29.4175  -25.2679   18.9279 H   0  0  0  0  0  0
  -29.4632  -23.9744   21.0060 H   0  0  0  0  0  0
  -28.5191  -22.7906   18.5708 H   0  0  0  0  0  0
  1 25  1  0  0  0
  1 30  2  0  0  0
  1 77  1  0  0  0
  2  3  1  0  0  0
  2 25  1  0  0  0
  2 83  1  0  0  0
  2 84  1  0  0  0
  3  4  1  0  0  0
  3 85  1  0  0  0
  3 86  1  0  0  0
  4  5  1  0  0  0
  4 87  1  0  0  0
  4 88  1  0  0  0
  5  6  1  0  0  0
  5 26  1  0  0  0
  5 89  1  0  0  0
  6 25  1  0  0  0
  6 90  1  0  0  0
  6 91  1  0  0  0
  7  8  2  0  0  0
  7 26  1  0  0  0
  7 29  1  0  0  0
  8  9  1  0  0  0
  8 22  1  0  0  0
  9 10  1  0  0  0
  9 27  2  0  0  0
 10 11  2  0  0  0
 10 15  1  0  0  0
 11 12  1  0  0  0
 11 92  1  0  0  0
 12 13  2  0  0  0
 12 93  1  0  0  0
 13 14  1  0  0  0
 13 31  1  0  0  0
 14 15  2  0  0  0
 14 94  1  0  0  0
 15 95  1  0  0  0
 16 17  2  0  0  0
 16 21  1  0  0  0
 16 31  1  0  0  0
 17 18  1  0  0  0
 17 96  1  0  0  0
 18 19  2  0  0  0
 18 97  1  0  0  0
 19 20  1  0  0  0
 19 24  1  0  0  0
 20 21  2  0  0  0
 20 98  1  0  0  0
 21 23  1  0  0  0
 22 28  1  0  0  0
 22 32  2  0  0  0
 26 27  1  0  0  0
 28 99  1  0  0  0
 28100  1  0  0  0
 29101  1  0  0  0
 29102  1  0  0  0
 33 34  1  0  0  0
 33 66  1  0  0  0
 33 70  2  0  0  0
 34 36  1  0  0  0
 34 59  1  0  0  0
 34103  1  0  0  0
 35 44  2  0  0  0
 35 45  1  0  0  0
 35 68  1  0  0  0
 36 56  1  0  0  0
 36104  1  0  0  0
 37 39  1  0  0  0
 37 47  1  0  0  0
 37 66  1  0  0  0
 37105  1  0  0  0
 38 43  2  0  0  0
 38 46  1  0  0  0
 38 47  1  0  0  0
 39 64  1  0  0  0
 39 67  2  0  0  0
 40 52  1  0  0  0
 40 53  2  0  0  0
 40 58  1  0  0  0
 41106  1  0  0  0
 41107  1  0  0  0
 41108  1  0  0  0
 41 48  1  0  0  0
 42 43  1  0  0  0
 42 66  1  0  0  0
 42109  1  0  0  0
 42110  1  0  0  0
 43 44  1  0  0  0
 44111  1  0  0  0
 45 46  2  0  0  0
 45112  1  0  0  0
 46113  1  0  0  0
 47114  1  0  0  0
 47115  1  0  0  0
 48 56  1  0  0  0
 48 65  1  0  0  0
 48116  1  0  0  0
 49 50  1  0  0  0
 49 53  1  0  0  0
 49 64  1  0  0  0
 49117  1  0  0  0
 50 51  1  0  0  0
 50118  1  0  0  0
 50119  1  0  0  0
 51 52  1  0  0  0
 51120  1  0  0  0
 51121  1  0  0  0
 52122  1  0  0  0
 52123  1  0  0  0
 53 54  1  0  0  0
 54 55  2  0  0  0
 54124  1  0  0  0
 55 57  1  0  0  0
 55125  1  0  0  0
 56 69  2  0  0  0
 57 58  2  0  0  0
 57126  1  0  0  0
 58127  1  0  0  0
 59 60  1  0  0  0
 59 61  1  0  0  0
 59 62  1  0  0  0
 60128  1  0  0  0
 60129  1  0  0  0
 60130  1  0  0  0
 61131  1  0  0  0
 61132  1  0  0  0
 61133  1  0  0  0
 62134  1  0  0  0
 62135  1  0  0  0
 62136  1  0  0  0
 63 65  1  0  0  0
 63137  1  0  0  0
 63138  1  0  0  0
 63139  1  0  0  0
 64140  1  0  0  0
 65141  1  0  0  0
 68 78  1  0  0  0
 71 73  2  0  0  0
 71 80  1  0  0  0
 71142  1  0  0  0
 72 73  1  0  0  0
 72 81  2  0  0  0
 72143  1  0  0  0
 73 82  1  0  0  0
 74 76  1  0  0  0
 74 80  2  0  0  0
 74 81  1  0  0  0
 75144  1  0  0  0
 75145  1  0  0  0
 75146  1  0  0  0
 75 79  1  0  0  0
 76 77  1  0  0  0
 76147  1  0  0  0
 76148  1  0  0  0
 77149  1  0  0  0
 77150  1  0  0  0
 78 79  1  0  0  0
 78151  1  0  0  0
 78152  1  0  0  0
 79 82  1  0  0  0
 79153  1  0  0  0
 82154  1  0  0  0
M  ISO  4   1 100  68 101  77 100  78 101
M  END
> <chiral flag>
0

> <version>
0

> <s_m_source_file>
/data/baiqing/PycharmProjects/Reinvent-master-3.2/result/LINK_invent/BTK/process_docking_weight1_custom_product_contain_oxygen_bond_distance_aromatic_linkinvent_7_9_3/rearranged_h_0198.sdf

> <i_m_source_file_index>
93

> <r_mmod_Potential_Energy-OPLS-2005>
-350.240020751953

> <r_mmod_Stretch_Energy-OPLS-2005>
71.9559097290039

> <r_mmod_Bend_Energy-OPLS-2005>
162.333862304688

> <r_mmod_Torsional_Energy-OPLS-2005>
160.357620239258

> <r_mmod_Improper_Torsional_Energy-OPLS-2005>
6.91052913665771

> <r_mmod_Van_der_Waal_Energy-OPLS-2005>
145.770767211914

> <r_mmod_Electrostatic_Energy-OPLS-2005>
-713.215881347656

> <r_mmod_Solvation_Energy-OPLS-2005>
-227.733779907227

> <b_mmod_Minimization_Converged-OPLS-2005>
0

> <r_mmod_RMS_Derivative-OPLS-2005>
3.32898378372192

$$$$
93
                    3D
 Structure written by MMmdl.
157165  0  0  1  0            999 V2000
  -30.6141  -14.7351   20.5074 C   0  0  0  0  0  0
  -30.4303  -12.4538   19.5181 C   0  0  0  0  0  0
  -29.5341  -12.5555   18.2648 C   0  0  0  0  0  0
  -28.0500  -12.3832   18.6425 C   0  0  0  0  0  0
  -27.6457  -13.2474   19.8674 C   0  0  2  0  0  0
  -28.6728  -13.1563   21.0175 C   0  0  0  0  0  0
  -25.2446  -13.8204   20.5646 C   0  0  0  0  0  0
  -24.1758  -13.0438   20.9171 C   0  0  0  0  0  0
  -24.6384  -11.6928   20.8699 C   0  0  0  0  0  0
  -23.9063  -10.4301   21.0374 C   0  0  0  0  0  0
  -24.3621   -9.4213   21.9176 C   0  0  0  0  0  0
  -23.6293   -8.2244   22.0742 C   0  0  0  0  0  0
  -22.4247   -8.0283   21.3539 C   0  0  0  0  0  0
  -21.9911   -9.0246   20.4650 C   0  0  0  0  0  0
  -22.7229  -10.2129   20.3043 C   0  0  0  0  0  0
  -21.6862   -6.0745   22.5290 C   0  0  0  0  0  0
  -21.4027   -6.5641   23.8217 C   0  0  0  0  0  0
  -21.3664   -5.6780   24.9180 C   0  0  0  0  0  0
  -21.6039   -4.3043   24.7221 C   0  0  0  0  0  0
  -21.8815   -3.8150   23.4329 C   0  0  0  0  0  0
  -21.9198   -4.6970   22.3398 C   0  0  0  0  0  0
  -22.7775  -13.5215   21.1841 C   0  0  0  0  0  0
  -22.1654   -4.2175   21.0973 F   0  0  0  0  0  0
  -21.5635   -3.4523   25.7721 F   0  0  0  0  0  0
  -29.9934  -13.5041   20.4725 N   0  0  0  0  0  0
  -26.2930  -12.9474   20.3257 N   0  0  0  0  0  0
  -25.9321  -11.6589   20.5665 N   0  0  0  0  0  0
  -22.0410  -12.8213   22.0421 N   0  0  0  0  0  0
  -25.4055  -15.1948   20.4090 N   0  0  0  0  0  0
  -31.7623  -14.8483   20.0655 O   0  0  0  0  0  0
  -21.6623   -6.8872   21.4241 O   0  0  0  0  0  0
  -22.3457  -14.5527   20.6709 O   0  0  0  0  0  0
  -24.6347  -31.8540   23.1974 C   0  0  0  0  0  0
  -25.9135  -32.4776   23.8329 C   0  0  1  0  0  0
  -27.1996  -27.2302   20.1439 C   0  0  0  0  0  0
  -25.5917  -33.8578   24.2269 N   0  0  0  0  0  0
  -23.4337  -30.4752   21.5442 C   0  0  2  0  0  0
  -24.8759  -28.9271   20.1036 C   0  0  0  0  0  0
  -22.7555  -29.4576   22.4949 C   0  0  0  0  0  0
  -18.0292  -28.1409   22.8497 C   0  0  0  0  0  0
  -24.1451  -36.7286   23.2644 C   0  0  0  0  0  0
  -25.9787  -30.7622   21.3733 C   0  0  0  0  0  0
  -26.0472  -29.3795   20.7227 C   0  0  0  0  0  0
  -27.2133  -28.5458   20.7293 C   0  0  0  0  0  0
  -26.0107  -26.8664   19.4675 C   0  0  0  0  0  0
  -24.8670  -27.6860   19.4546 C   0  0  0  0  0  0
  -23.6488  -29.8151   20.1576 C   0  0  0  0  0  0
  -25.4088  -36.3096   24.0330 C   0  0  1  0  0  0
  -20.5904  -28.3701   23.1308 C   0  0  2  0  0  0
  -20.6759  -26.9419   22.5448 C   0  0  0  0  0  0
  -19.5738  -26.6403   21.5238 C   0  0  0  0  0  0
  -18.1914  -26.7952   22.1637 C   0  0  0  0  0  0
  -19.1548  -28.8880   23.2883 C   0  0  0  0  0  0
  -18.9456  -30.1479   23.8905 C   0  0  0  0  0  0
  -17.6456  -30.6599   24.0583 C   0  0  0  0  0  0
  -25.9037  -34.9457   23.5102 C   0  0  0  0  0  0
  -16.5352  -29.9107   23.6334 C   0  0  0  0  0  0
  -16.7276  -28.6524   23.0353 C   0  0  0  0  0  0
  -26.4476  -31.6613   25.0730 C   0  0  0  0  0  0
  -25.3683  -31.3789   26.1461 C   0  0  0  0  0  0
  -27.0304  -30.3039   24.6175 C   0  0  0  0  0  0
  -27.6035  -32.4344   25.7514 C   0  0  0  0  0  0
  -27.5567  -37.1809   24.8468 C   0  0  0  0  0  0
  -21.4261  -29.3024   22.3703 N   0  0  0  0  0  0
  -26.4277  -37.3799   23.9422 N   0  0  0  0  0  0
  -24.7031  -31.0478   22.0958 N   0  0  0  0  0  0
  -23.4229  -28.8096   23.3052 O   0  0  0  0  0  0
  -28.2591  -26.2928   20.2522 O   0  0  0  0  0  0
  -26.5651  -34.8929   22.4696 O   0  0  0  0  0  0
  -23.5477  -32.1382   23.7243 O   0  0  0  0  0  0
  -30.0603  -17.2636   18.9231 C   0  0  0  0  0  0
  -29.8808  -17.2115   20.3271 C   0  0  0  0  0  0
  -29.5206  -19.6256   20.2602 C   0  0  0  0  0  0
  -29.7375  -19.5672   18.8553 C   0  0  0  0  0  0
  -26.9949  -21.7935   21.0210 C   0  0  0  0  0  0
  -29.3527  -20.6063   16.7418 C   0  0  0  0  0  0
  -28.8335  -23.5942   20.7062 C   0  0  0  0  0  0
  -27.9665  -24.8173   20.0622 C   0  0  0  0  0  0
  -28.3990  -22.0370   20.4367 C   0  0  1  0  0  0
  -29.9898  -18.4029   18.2027 N   0  0  0  0  0  0
  -29.5978  -18.4251   20.9777 N   0  0  0  0  0  0
  -29.9070  -15.8564   20.9271 N   0  0  0  0  0  0
  -29.3003  -20.9040   20.9254 N   0  0  0  0  0  0
  -29.7672  -20.7160   18.0983 O   0  0  0  0  0  0
  -31.4819  -12.5618   19.2440 H   0  0  0  0  0  0
  -30.3425  -11.4666   19.9770 H   0  0  0  0  0  0
  -29.8327  -11.8126   17.5246 H   0  0  0  0  0  0
  -29.6841  -13.5292   17.7975 H   0  0  0  0  0  0
  -27.8730  -11.3285   18.8493 H   0  0  0  0  0  0
  -27.4254  -12.6379   17.7857 H   0  0  0  0  0  0
  -27.6479  -14.2788   19.5139 H   0  0  0  0  0  0
  -28.6879  -12.1513   21.4421 H   0  0  0  0  0  0
  -28.3866  -13.8227   21.8320 H   0  0  0  0  0  0
  -25.2768   -9.5717   22.4738 H   0  0  0  0  0  0
  -24.0028   -7.4643   22.7441 H   0  0  0  0  0  0
  -21.0849   -8.8761   19.8945 H   0  0  0  0  0  0
  -22.3677  -10.9665   19.6143 H   0  0  0  0  0  0
  -21.2008   -7.6142   23.9736 H   0  0  0  0  0  0
  -21.1498   -6.0502   25.9086 H   0  0  0  0  0  0
  -22.0589   -2.7616   23.2816 H   0  0  0  0  0  0
  -22.4007  -11.9894   22.4867 H   0  0  0  0  0  0
  -21.1035  -13.1271   22.2594 H   0  0  0  0  0  0
  -24.6204  -15.8301   20.4896 H   0  0  0  0  0  0
  -26.2464  -15.6514   20.0838 H   0  0  0  0  0  0
  -26.7222  -32.5416   23.1086 H   0  0  0  0  0  0
  -25.0017  -33.9703   25.0386 H   0  0  0  0  0  0
  -22.7277  -31.2960   21.4039 H   0  0  0  0  0  0
  -23.3721  -35.9616   23.3344 H   0  0  0  0  0  0
  -24.3530  -36.8882   22.2056 H   0  0  0  0  0  0
  -23.7186  -37.6482   23.6649 H   0  0  0  0  0  0
  -26.0962  -31.5087   20.5857 H   0  0  0  0  0  0
  -26.8659  -30.8350   21.9905 H   0  0  0  0  0  0
  -28.1103  -28.8777   21.2311 H   0  0  0  0  0  0
  -25.9256  -25.9188   18.9559 H   0  0  0  0  0  0
  -23.9761  -27.3497   18.9400 H   0  0  0  0  0  0
  -23.7702  -30.5905   19.4027 H   0  0  0  0  0  0
  -22.7674  -29.2478   19.8584 H   0  0  0  0  0  0
  -25.1257  -36.1958   25.0827 H   0  0  0  0  0  0
  -20.9968  -28.3251   24.1443 H   0  0  0  0  0  0
  -20.5639  -26.2306   23.3645 H   0  0  0  0  0  0
  -21.6630  -26.7421   22.1268 H   0  0  0  0  0  0
  -19.6878  -25.6310   21.1271 H   0  0  0  0  0  0
  -19.6670  -27.3208   20.6759 H   0  0  0  0  0  0
  -17.4194  -26.6748   21.4022 H   0  0  0  0  0  0
  -18.0269  -26.0093   22.9025 H   0  0  0  0  0  0
  -19.7925  -30.7313   24.2271 H   0  0  0  0  0  0
  -17.4998  -31.6266   24.5210 H   0  0  0  0  0  0
  -15.5347  -30.3006   23.7642 H   0  0  0  0  0  0
  -15.8683  -28.0845   22.7058 H   0  0  0  0  0  0
  -24.5852  -30.7132   25.7823 H   0  0  0  0  0  0
  -24.8861  -32.2969   26.4843 H   0  0  0  0  0  0
  -25.7987  -30.9022   27.0283 H   0  0  0  0  0  0
  -26.2880  -29.6844   24.1140 H   0  0  0  0  0  0
  -27.3960  -29.7244   25.4663 H   0  0  0  0  0  0
  -27.8762  -30.4356   23.9422 H   0  0  0  0  0  0
  -27.2665  -33.3689   26.2026 H   0  0  0  0  0  0
  -28.3883  -32.6850   25.0359 H   0  0  0  0  0  0
  -28.0656  -31.8505   26.5492 H   0  0  0  0  0  0
  -28.2611  -38.0076   24.7502 H   0  0  0  0  0  0
  -28.1025  -36.2620   24.6291 H   0  0  0  0  0  0
  -27.2310  -37.1481   25.8877 H   0  0  0  0  0  0
  -20.9463  -29.8773   21.6929 H   0  0  0  0  0  0
  -26.0150  -38.2876   24.1422 H   0  0  0  0  0  0
  -30.2286  -16.3693   18.3418 H   0  0  0  0  0  0
  -26.2543  -22.4738   20.6031 H   0  0  0  0  0  0
  -26.9797  -21.9297   22.1039 H   0  0  0  0  0  0
  -26.6376  -20.7842   20.8116 H   0  0  0  0  0  0
  -29.3347  -21.5969   16.2897 H   0  0  0  0  0  0
  -28.3397  -20.2038   16.6949 H   0  0  0  0  0  0
  -30.0125  -19.9753   16.1434 H   0  0  0  0  0  0
  -28.8309  -23.7532   21.7841 H   0  0  0  0  0  0
  -29.8690  -23.7256   20.3972 H   0  0  0  0  0  0
  -26.9494  -24.6393   20.4084 H   0  0  0  0  0  0
  -27.9409  -24.6547   18.9840 H   0  0  0  0  0  0
  -28.2897  -21.9348   19.3615 H   0  0  0  0  0  0
  -29.1657  -15.6746   21.5866 H   0  0  0  0  0  0
  -29.3914  -20.8488   21.9326 H   0  0  0  0  0  0
  1 25  1  0  0  0
  1 30  2  0  0  0
  1 82  1  0  0  0
  2  3  1  0  0  0
  2 25  1  0  0  0
  2 85  1  0  0  0
  2 86  1  0  0  0
  3  4  1  0  0  0
  3 87  1  0  0  0
  3 88  1  0  0  0
  4  5  1  0  0  0
  4 89  1  0  0  0
  4 90  1  0  0  0
  5  6  1  0  0  0
  5 26  1  0  0  0
  5 91  1  0  0  0
  6 25  1  0  0  0
  6 92  1  0  0  0
  6 93  1  0  0  0
  7  8  2  0  0  0
  7 26  1  0  0  0
  7 29  1  0  0  0
  8  9  1  0  0  0
  8 22  1  0  0  0
  9 10  1  0  0  0
  9 27  2  0  0  0
 10 11  2  0  0  0
 10 15  1  0  0  0
 11 12  1  0  0  0
 11 94  1  0  0  0
 12 13  2  0  0  0
 12 95  1  0  0  0
 13 14  1  0  0  0
 13 31  1  0  0  0
 14 15  2  0  0  0
 14 96  1  0  0  0
 15 97  1  0  0  0
 16 17  2  0  0  0
 16 21  1  0  0  0
 16 31  1  0  0  0
 17 18  1  0  0  0
 17 98  1  0  0  0
 18 19  2  0  0  0
 18 99  1  0  0  0
 19 20  1  0  0  0
 19 24  1  0  0  0
 20 21  2  0  0  0
 20100  1  0  0  0
 21 23  1  0  0  0
 22 28  1  0  0  0
 22 32  2  0  0  0
 26 27  1  0  0  0
 28101  1  0  0  0
 28102  1  0  0  0
 29103  1  0  0  0
 29104  1  0  0  0
 33 34  1  0  0  0
 33 66  1  0  0  0
 33 70  2  0  0  0
 34 36  1  0  0  0
 34 59  1  0  0  0
 34105  1  0  0  0
 35 44  2  0  0  0
 35 45  1  0  0  0
 35 68  1  0  0  0
 36 56  1  0  0  0
 36106  1  0  0  0
 37 39  1  0  0  0
 37 47  1  0  0  0
 37 66  1  0  0  0
 37107  1  0  0  0
 38 43  2  0  0  0
 38 46  1  0  0  0
 38 47  1  0  0  0
 39 64  1  0  0  0
 39 67  2  0  0  0
 40 52  1  0  0  0
 40 53  2  0  0  0
 40 58  1  0  0  0
 41108  1  0  0  0
 41109  1  0  0  0
 41110  1  0  0  0
 41 48  1  0  0  0
 42 43  1  0  0  0
 42 66  1  0  0  0
 42111  1  0  0  0
 42112  1  0  0  0
 43 44  1  0  0  0
 44113  1  0  0  0
 45 46  2  0  0  0
 45114  1  0  0  0
 46115  1  0  0  0
 47116  1  0  0  0
 47117  1  0  0  0
 48 56  1  0  0  0
 48 65  1  0  0  0
 48118  1  0  0  0
 49 50  1  0  0  0
 49 53  1  0  0  0
 49 64  1  0  0  0
 49119  1  0  0  0
 50 51  1  0  0  0
 50120  1  0  0  0
 50121  1  0  0  0
 51 52  1  0  0  0
 51122  1  0  0  0
 51123  1  0  0  0
 52124  1  0  0  0
 52125  1  0  0  0
 53 54  1  0  0  0
 54 55  2  0  0  0
 54126  1  0  0  0
 55 57  1  0  0  0
 55127  1  0  0  0
 56 69  2  0  0  0
 57 58  2  0  0  0
 57128  1  0  0  0
 58129  1  0  0  0
 59 60  1  0  0  0
 59 61  1  0  0  0
 59 62  1  0  0  0
 60130  1  0  0  0
 60131  1  0  0  0
 60132  1  0  0  0
 61133  1  0  0  0
 61134  1  0  0  0
 61135  1  0  0  0
 62136  1  0  0  0
 62137  1  0  0  0
 62138  1  0  0  0
 63 65  1  0  0  0
 63139  1  0  0  0
 63140  1  0  0  0
 63141  1  0  0  0
 64142  1  0  0  0
 65143  1  0  0  0
 68 78  1  0  0  0
 71 72  2  0  0  0
 71 80  1  0  0  0
 71144  1  0  0  0
 72 81  1  0  0  0
 72 82  1  0  0  0
 73 74  1  0  0  0
 73 81  2  0  0  0
 73 83  1  0  0  0
 74 80  2  0  0  0
 74 84  1  0  0  0
 75145  1  0  0  0
 75146  1  0  0  0
 75147  1  0  0  0
 75 79  1  0  0  0
 76 84  1  0  0  0
 76148  1  0  0  0
 76149  1  0  0  0
 76150  1  0  0  0
 77 78  1  0  0  0
 77 79  1  0  0  0
 77151  1  0  0  0
 77152  1  0  0  0
 78153  1  0  0  0
 78154  1  0  0  0
 79 83  1  0  0  0
 79155  1  0  0  0
 82156  1  0  0  0
 83157  1  0  0  0
M  ISO  4   1 100  68 101  78 101  82 100
M  END
> <chiral flag>
0

> <version>
0

> <s_m_source_file>
/data/baiqing/PycharmProjects/Reinvent-master-3.2/result/LINK_invent/BTK/process_docking_weight1_custom_product_contain_oxygen_bond_distance_aromatic_linkinvent_7_9_3/rearranged_h_0198.sdf

> <i_m_source_file_index>
94

> <r_mmod_Potential_Energy-OPLS-2005>
219.050186157227

> <r_mmod_Stretch_Energy-OPLS-2005>
140.463623046875

> <r_mmod_Bend_Energy-OPLS-2005>
177.673965454102

> <r_mmod_Torsional_Energy-OPLS-2005>
235.756011962891

> <r_mmod_Improper_Torsional_Energy-OPLS-2005>
6.290771484375

> <r_mmod_Van_der_Waal_Energy-OPLS-2005>
155.05632019043

> <r_mmod_Electrostatic_Energy-OPLS-2005>
-366.593231201172

> <r_mmod_Solvation_Energy-OPLS-2005>
-225.953460693359

> <b_mmod_Minimization_Converged-OPLS-2005>
0

> <r_mmod_RMS_Derivative-OPLS-2005>
5.19309282302856

$$$$
