0
                    3D
 Structure written by MMmdl.
169177  0  0  1  0            999 V2000
  -30.7261  -14.4632   20.6176 C   0  0  0  0  0  0
  -30.4322  -12.3191   19.4232 C   0  0  0  0  0  0
  -29.5076  -12.5230   18.2043 C   0  0  0  0  0  0
  -28.0292  -12.3621   18.6170 C   0  0  0  0  0  0
  -27.6648  -13.2046   19.8678 C   0  0  2  0  0  0
  -28.7020  -12.9931   20.9948 C   0  0  0  0  0  0
  -25.2603  -13.8164   20.5657 C   0  0  0  0  0  0
  -24.1842  -13.0447   20.9156 C   0  0  0  0  0  0
  -24.6396  -11.6917   20.8694 C   0  0  0  0  0  0
  -23.9067  -10.4298   21.0377 C   0  0  0  0  0  0
  -24.3623   -9.4216   21.9172 C   0  0  0  0  0  0
  -23.6291   -8.2257   22.0778 C   0  0  0  0  0  0
  -22.4248   -8.0302   21.3579 C   0  0  0  0  0  0
  -21.9865   -9.0271   20.4669 C   0  0  0  0  0  0
  -22.7227  -10.2148   20.3040 C   0  0  0  0  0  0
  -21.6829   -6.0733   22.5292 C   0  0  0  0  0  0
  -21.4019   -6.5634   23.8231 C   0  0  0  0  0  0
  -21.3656   -5.6785   24.9189 C   0  0  0  0  0  0
  -21.6009   -4.3049   24.7234 C   0  0  0  0  0  0
  -21.8819   -3.8153   23.4352 C   0  0  0  0  0  0
  -21.9194   -4.6957   22.3417 C   0  0  0  0  0  0
  -22.7858  -13.5260   21.1814 C   0  0  0  0  0  0
  -22.1657   -4.2157   21.0991 F   0  0  0  0  0  0
  -21.5628   -3.4533   25.7748 F   0  0  0  0  0  0
  -30.0375  -13.2974   20.4502 N   0  0  0  0  0  0
  -26.3022  -12.9332   20.3259 N   0  0  0  0  0  0
  -25.9301  -11.6501   20.5659 N   0  0  0  0  0  0
  -22.0451  -12.8320   22.0380 N   0  0  0  0  0  0
  -25.4324  -15.1878   20.4051 N   0  0  0  0  0  0
  -31.8387  -14.6471   20.1175 O   0  0  0  0  0  0
  -21.6628   -6.8891   21.4268 O   0  0  0  0  0  0
  -22.3564  -14.5558   20.6643 O   0  0  0  0  0  0
  -24.6180  -31.8700   23.2085 C   0  0  0  0  0  0
  -25.9092  -32.4795   23.8376 C   0  0  1  0  0  0
  -27.2107  -27.3962   20.0742 C   0  0  0  0  0  0
  -25.5944  -33.8596   24.2325 N   0  0  0  0  0  0
  -23.4021  -30.5009   21.5501 C   0  0  2  0  0  0
  -24.8377  -28.9599   20.1155 C   0  0  0  0  0  0
  -22.7411  -29.4724   22.4934 C   0  0  0  0  0  0
  -18.0275  -28.1381   22.8482 C   0  0  0  0  0  0
  -24.1509  -36.7321   23.2632 C   0  0  0  0  0  0
  -25.9399  -30.8181   21.3703 C   0  0  0  0  0  0
  -26.0054  -29.4530   20.7071 C   0  0  0  0  0  0
  -27.1934  -28.6798   20.6816 C   0  0  0  0  0  0
  -26.0091  -26.9160   19.5031 C   0  0  0  0  0  0
  -24.8340  -27.6933   19.5155 C   0  0  0  0  0  0
  -23.6082  -29.8406   20.1627 C   0  0  0  0  0  0
  -25.4122  -36.3084   24.0329 C   0  0  1  0  0  0
  -20.5882  -28.3701   23.1291 C   0  0  2  0  0  0
  -20.6791  -26.9424   22.5417 C   0  0  0  0  0  0
  -19.5767  -26.6396   21.5208 C   0  0  0  0  0  0
  -18.1935  -26.7936   22.1608 C   0  0  0  0  0  0
  -19.1539  -28.8846   23.2896 C   0  0  0  0  0  0
  -18.9457  -30.1441   23.8927 C   0  0  0  0  0  0
  -17.6470  -30.6575   24.0572 C   0  0  0  0  0  0
  -25.9058  -34.9452   23.5119 C   0  0  0  0  0  0
  -16.5360  -29.9089   23.6314 C   0  0  0  0  0  0
  -16.7281  -28.6507   23.0337 C   0  0  0  0  0  0
  -26.4502  -31.6570   25.0716 C   0  0  0  0  0  0
  -25.3768  -31.3711   26.1462 C   0  0  0  0  0  0
  -27.0301  -30.2975   24.6154 C   0  0  0  0  0  0
  -27.6096  -32.4283   25.7446 C   0  0  0  0  0  0
  -27.5592  -37.1822   24.8460 C   0  0  0  0  0  0
  -21.4153  -29.3064   22.3691 N   0  0  0  0  0  0
  -26.4301  -37.3789   23.9399 N   0  0  0  0  0  0
  -24.6707  -31.0788   22.0992 N   0  0  0  0  0  0
  -23.4215  -28.8240   23.2958 O   0  0  0  0  0  0
  -28.3954  -26.6761   20.0299 O   0  0  0  0  0  0
  -26.5596  -34.8915   22.4671 O   0  0  0  0  0  0
  -23.5375  -32.1438   23.7514 O   0  0  0  0  0  0
  -29.5505  -17.8522   21.2022 C   0  0  0  0  0  0
  -31.5574  -18.6191   21.5743 C   0  0  0  0  0  0
  -30.4317  -16.8065   21.3781 C   0  0  0  0  0  0
  -32.8155  -22.9997   16.2913 C   0  0  0  0  0  0
  -30.1575  -21.1778   16.4600 C   0  0  0  0  0  0
  -32.1919  -22.2446   17.4772 C   0  0  0  0  0  0
  -30.3873  -20.7299   19.5034 C   0  0  0  0  0  0
  -30.2192  -23.2745   19.8647 C   0  0  0  0  0  0
  -29.8868  -20.3631   20.9145 C   0  0  0  0  0  0
  -28.3838  -25.2342   19.8435 C   0  0  0  0  0  0
  -30.6394  -22.2488   17.4647 C   0  0  2  0  0  0
  -29.9563  -22.0911   18.8719 C   0  0  1  0  0  0
  -29.8313  -24.7531   19.5272 C   0  0  1  0  0  0
  -31.7037  -17.2979   21.6718 N   0  0  0  0  0  0
  -30.3190  -19.0114   21.2374 N   0  0  0  0  0  0
  -30.0545  -15.4410   21.2605 N   0  0  0  0  0  0
  -30.6373  -25.5452   20.3844 O   0  0  0  0  0  0
  -31.4784  -12.4240   19.1312 H   0  0  0  0  0  0
  -30.3382  -11.3066   19.8202 H   0  0  0  0  0  0
  -29.7580  -11.8073   17.4189 H   0  0  0  0  0  0
  -29.6674  -13.5164   17.7769 H   0  0  0  0  0  0
  -27.8579  -11.3069   18.8249 H   0  0  0  0  0  0
  -27.3770  -12.6195   17.7838 H   0  0  0  0  0  0
  -27.7130  -14.2500   19.5619 H   0  0  0  0  0  0
  -28.6777  -11.9575   21.3378 H   0  0  0  0  0  0
  -28.4490  -13.5918   21.8713 H   0  0  0  0  0  0
  -25.2777   -9.5677   22.4749 H   0  0  0  0  0  0
  -23.9988   -7.4618   22.7471 H   0  0  0  0  0  0
  -21.0803   -8.8795   19.8951 H   0  0  0  0  0  0
  -22.3699  -10.9687   19.6136 H   0  0  0  0  0  0
  -21.2035   -7.6149   23.9755 H   0  0  0  0  0  0
  -21.1446   -6.0500   25.9092 H   0  0  0  0  0  0
  -22.0596   -2.7609   23.2846 H   0  0  0  0  0  0
  -22.3985  -12.0026   22.4908 H   0  0  0  0  0  0
  -21.1056  -13.1404   22.2470 H   0  0  0  0  0  0
  -24.6670  -15.8426   20.5179 H   0  0  0  0  0  0
  -26.2800  -15.6247   20.0687 H   0  0  0  0  0  0
  -26.7151  -32.5475   23.1110 H   0  0  0  0  0  0
  -25.0065  -33.9754   25.0447 H   0  0  0  0  0  0
  -22.6881  -31.3179   21.4149 H   0  0  0  0  0  0
  -23.3734  -35.9700   23.3326 H   0  0  0  0  0  0
  -24.3596  -36.8914   22.2040 H   0  0  0  0  0  0
  -23.7321  -37.6565   23.6630 H   0  0  0  0  0  0
  -26.0769  -31.5903   20.6109 H   0  0  0  0  0  0
  -26.8172  -30.8521   22.0049 H   0  0  0  0  0  0
  -28.0962  -29.0626   21.1355 H   0  0  0  0  0  0
  -25.9445  -25.9486   19.0348 H   0  0  0  0  0  0
  -23.9267  -27.3114   19.0687 H   0  0  0  0  0  0
  -23.7283  -30.6158   19.4041 H   0  0  0  0  0  0
  -22.7282  -29.2714   19.8642 H   0  0  0  0  0  0
  -25.1303  -36.1934   25.0824 H   0  0  0  0  0  0
  -20.9990  -28.3274   24.1411 H   0  0  0  0  0  0
  -20.5696  -26.2299   23.3610 H   0  0  0  0  0  0
  -21.6661  -26.7470   22.1209 H   0  0  0  0  0  0
  -19.6941  -25.6311   21.1218 H   0  0  0  0  0  0
  -19.6695  -27.3222   20.6743 H   0  0  0  0  0  0
  -17.4219  -26.6702   21.3990 H   0  0  0  0  0  0
  -18.0315  -26.0061   22.8979 H   0  0  0  0  0  0
  -19.7939  -30.7244   24.2328 H   0  0  0  0  0  0
  -17.5026  -31.6261   24.5165 H   0  0  0  0  0  0
  -15.5372  -30.3013   23.7616 H   0  0  0  0  0  0
  -15.8677  -28.0844   22.7046 H   0  0  0  0  0  0
  -24.5943  -30.7049   25.7824 H   0  0  0  0  0  0
  -24.8942  -32.2875   26.4882 H   0  0  0  0  0  0
  -25.8117  -30.8910   27.0239 H   0  0  0  0  0  0
  -26.2840  -29.6719   24.1242 H   0  0  0  0  0  0
  -27.4039  -29.7241   25.4648 H   0  0  0  0  0  0
  -27.8715  -30.4209   23.9326 H   0  0  0  0  0  0
  -27.2736  -33.3575   26.2061 H   0  0  0  0  0  0
  -28.3864  -32.6866   25.0237 H   0  0  0  0  0  0
  -28.0812  -31.8385   26.5313 H   0  0  0  0  0  0
  -28.2625  -38.0102   24.7453 H   0  0  0  0  0  0
  -28.1068  -36.2627   24.6329 H   0  0  0  0  0  0
  -27.2308  -37.1542   25.8868 H   0  0  0  0  0  0
  -20.9295  -29.8793   21.6917 H   0  0  0  0  0  0
  -26.0173  -38.2877   24.1374 H   0  0  0  0  0  0
  -28.4941  -17.8729   20.9727 H   0  0  0  0  0  0
  -32.3786  -19.3124   21.7036 H   0  0  0  0  0  0
  -33.9007  -22.9052   16.2919 H   0  0  0  0  0  0
  -32.5782  -24.0620   16.3444 H   0  0  0  0  0  0
  -32.4606  -22.6234   15.3330 H   0  0  0  0  0  0
  -30.5100  -21.3825   15.4485 H   0  0  0  0  0  0
  -29.0727  -21.1202   16.4183 H   0  0  0  0  0  0
  -30.5310  -20.1847   16.7147 H   0  0  0  0  0  0
  -32.5885  -22.6800   18.3926 H   0  0  0  0  0  0
  -32.5598  -21.2163   17.4678 H   0  0  0  0  0  0
  -30.0649  -19.9173   18.8521 H   0  0  0  0  0  0
  -31.4754  -20.6758   19.5246 H   0  0  0  0  0  0
  -31.2892  -23.2477   20.0670 H   0  0  0  0  0  0
  -29.7521  -23.0438   20.8228 H   0  0  0  0  0  0
  -28.7983  -20.4140   20.9616 H   0  0  0  0  0  0
  -30.2914  -21.0369   21.6697 H   0  0  0  0  0  0
  -27.9925  -24.7517   20.7426 H   0  0  0  0  0  0
  -27.7539  -24.9209   19.0118 H   0  0  0  0  0  0
  -30.3152  -23.2083   17.0653 H   0  0  0  0  0  0
  -28.8766  -22.0495   18.7055 H   0  0  0  0  0  0
  -30.0764  -24.9917   18.4921 H   0  0  0  0  0  0
  -29.1078  -15.2145   21.5159 H   0  0  0  0  0  0
  -30.1446  -26.3570   20.5051 H   0  0  0  0  0  0
  1 25  1  0  0  0
  1 30  2  0  0  0
  1 86  1  0  0  0
  2  3  1  0  0  0
  2 25  1  0  0  0
  2 88  1  0  0  0
  2 89  1  0  0  0
  3  4  1  0  0  0
  3 90  1  0  0  0
  3 91  1  0  0  0
  4  5  1  0  0  0
  4 92  1  0  0  0
  4 93  1  0  0  0
  5  6  1  0  0  0
  5 26  1  0  0  0
  5 94  1  0  0  0
  6 25  1  0  0  0
  6 95  1  0  0  0
  6 96  1  0  0  0
  7  8  2  0  0  0
  7 26  1  0  0  0
  7 29  1  0  0  0
  8  9  1  0  0  0
  8 22  1  0  0  0
  9 10  1  0  0  0
  9 27  2  0  0  0
 10 11  2  0  0  0
 10 15  1  0  0  0
 11 12  1  0  0  0
 11 97  1  0  0  0
 12 13  2  0  0  0
 12 98  1  0  0  0
 13 14  1  0  0  0
 13 31  1  0  0  0
 14 15  2  0  0  0
 14 99  1  0  0  0
 15100  1  0  0  0
 16 17  2  0  0  0
 16 21  1  0  0  0
 16 31  1  0  0  0
 17 18  1  0  0  0
 17101  1  0  0  0
 18 19  2  0  0  0
 18102  1  0  0  0
 19 20  1  0  0  0
 19 24  1  0  0  0
 20 21  2  0  0  0
 20103  1  0  0  0
 21 23  1  0  0  0
 22 28  1  0  0  0
 22 32  2  0  0  0
 26 27  1  0  0  0
 28104  1  0  0  0
 28105  1  0  0  0
 29106  1  0  0  0
 29107  1  0  0  0
 33 34  1  0  0  0
 33 66  1  0  0  0
 33 70  2  0  0  0
 34 36  1  0  0  0
 34 59  1  0  0  0
 34108  1  0  0  0
 35 44  2  0  0  0
 35 45  1  0  0  0
 35 68  1  0  0  0
 36 56  1  0  0  0
 36109  1  0  0  0
 37 39  1  0  0  0
 37 47  1  0  0  0
 37 66  1  0  0  0
 37110  1  0  0  0
 38 43  2  0  0  0
 38 46  1  0  0  0
 38 47  1  0  0  0
 39 64  1  0  0  0
 39 67  2  0  0  0
 40 52  1  0  0  0
 40 53  2  0  0  0
 40 58  1  0  0  0
 41111  1  0  0  0
 41112  1  0  0  0
 41113  1  0  0  0
 41 48  1  0  0  0
 42 43  1  0  0  0
 42 66  1  0  0  0
 42114  1  0  0  0
 42115  1  0  0  0
 43 44  1  0  0  0
 44116  1  0  0  0
 45 46  2  0  0  0
 45117  1  0  0  0
 46118  1  0  0  0
 47119  1  0  0  0
 47120  1  0  0  0
 48 56  1  0  0  0
 48 65  1  0  0  0
 48121  1  0  0  0
 49 50  1  0  0  0
 49 53  1  0  0  0
 49 64  1  0  0  0
 49122  1  0  0  0
 50 51  1  0  0  0
 50123  1  0  0  0
 50124  1  0  0  0
 51 52  1  0  0  0
 51125  1  0  0  0
 51126  1  0  0  0
 52127  1  0  0  0
 52128  1  0  0  0
 53 54  1  0  0  0
 54 55  2  0  0  0
 54129  1  0  0  0
 55 57  1  0  0  0
 55130  1  0  0  0
 56 69  2  0  0  0
 57 58  2  0  0  0
 57131  1  0  0  0
 58132  1  0  0  0
 59 60  1  0  0  0
 59 61  1  0  0  0
 59 62  1  0  0  0
 60133  1  0  0  0
 60134  1  0  0  0
 60135  1  0  0  0
 61136  1  0  0  0
 61137  1  0  0  0
 61138  1  0  0  0
 62139  1  0  0  0
 62140  1  0  0  0
 62141  1  0  0  0
 63 65  1  0  0  0
 63142  1  0  0  0
 63143  1  0  0  0
 63144  1  0  0  0
 64145  1  0  0  0
 65146  1  0  0  0
 68 80  1  0  0  0
 71 73  2  0  0  0
 71 85  1  0  0  0
 71147  1  0  0  0
 72 84  2  0  0  0
 72 85  1  0  0  0
 72148  1  0  0  0
 73 84  1  0  0  0
 73 86  1  0  0  0
 74 76  1  0  0  0
 74149  1  0  0  0
 74150  1  0  0  0
 74151  1  0  0  0
 75152  1  0  0  0
 75153  1  0  0  0
 75154  1  0  0  0
 75 81  1  0  0  0
 76 81  1  0  0  0
 76155  1  0  0  0
 76156  1  0  0  0
 77 79  1  0  0  0
 77157  1  0  0  0
 77158  1  0  0  0
 77 82  1  0  0  0
 78 82  1  0  0  0
 78 83  1  0  0  0
 78159  1  0  0  0
 78160  1  0  0  0
 79 85  1  0  0  0
 79161  1  0  0  0
 79162  1  0  0  0
 80 83  1  0  0  0
 80163  1  0  0  0
 80164  1  0  0  0
 81 82  1  0  0  0
 81165  1  0  0  0
 82166  1  0  0  0
 83 87  1  0  0  0
 83167  1  0  0  0
 86168  1  0  0  0
 87169  1  0  0  0
M  ISO  4   1 100  68 101  80 101  86 100
M  END
> <chiral flag>
0

> <version>
0

> <s_m_source_file>
/data/baiqing/PycharmProjects/Reinvent-master-3.2/result/LINK_invent/BTK/process_docking_weight1_custom_product_contain_oxygen_bond_distance_aromatic_linkinvent_7_9_3/rearranged_h_0192.sdf

> <i_m_source_file_index>
1

> <r_mmod_Potential_Energy-OPLS-2005>
-0.0394812561571598

> <r_mmod_Stretch_Energy-OPLS-2005>
45.2399749755859

> <r_mmod_Bend_Energy-OPLS-2005>
137.959197998047

> <r_mmod_Torsional_Energy-OPLS-2005>
271.735626220703

> <r_mmod_Improper_Torsional_Energy-OPLS-2005>
3.46271347999573

> <r_mmod_Van_der_Waal_Energy-OPLS-2005>
138.144348144531

> <r_mmod_Electrostatic_Energy-OPLS-2005>
-365.500091552734

> <r_mmod_Solvation_Energy-OPLS-2005>
-245.960479736328

> <b_mmod_Minimization_Converged-OPLS-2005>
0

> <r_mmod_RMS_Derivative-OPLS-2005>
5.9891939163208

$$$$
1
                    3D
 Structure written by MMmdl.
155163  0  0  1  0            999 V2000
  -30.6130  -14.7889   20.4631 C   0  0  0  0  0  0
  -30.4311  -12.4881   19.4800 C   0  0  0  0  0  0
  -29.5071  -12.5173   18.2423 C   0  0  0  0  0  0
  -28.0345  -12.3385   18.6588 C   0  0  0  0  0  0
  -27.6363  -13.2447   19.8549 C   0  0  2  0  0  0
  -28.6849  -13.2018   20.9871 C   0  0  0  0  0  0
  -25.2371  -13.8134   20.5595 C   0  0  0  0  0  0
  -24.1724  -13.0364   20.9166 C   0  0  0  0  0  0
  -24.6399  -11.6879   20.8769 C   0  0  0  0  0  0
  -23.9097  -10.4255   21.0412 C   0  0  0  0  0  0
  -24.3636   -9.4170   21.9188 C   0  0  0  0  0  0
  -23.6302   -8.2212   22.0747 C   0  0  0  0  0  0
  -22.4287   -8.0263   21.3528 C   0  0  0  0  0  0
  -21.9930   -9.0244   20.4630 C   0  0  0  0  0  0
  -22.7276  -10.2112   20.3047 C   0  0  0  0  0  0
  -21.6855   -6.0732   22.5274 C   0  0  0  0  0  0
  -21.4024   -6.5634   23.8209 C   0  0  0  0  0  0
  -21.3659   -5.6781   24.9169 C   0  0  0  0  0  0
  -21.6042   -4.3047   24.7218 C   0  0  0  0  0  0
  -21.8829   -3.8140   23.4341 C   0  0  0  0  0  0
  -21.9199   -4.6957   22.3399 C   0  0  0  0  0  0
  -22.7747  -13.5133   21.1848 C   0  0  0  0  0  0
  -22.1664   -4.2142   21.0977 F   0  0  0  0  0  0
  -21.5625   -3.4532   25.7734 F   0  0  0  0  0  0
  -29.9790  -13.5636   20.3955 N   0  0  0  0  0  0
  -26.2914  -12.9440   20.3359 N   0  0  0  0  0  0
  -25.9355  -11.6561   20.5841 N   0  0  0  0  0  0
  -22.0437  -12.8137   22.0445 N   0  0  0  0  0  0
  -25.3758  -15.1831   20.3864 N   0  0  0  0  0  0
  -31.8093  -14.8650   20.1711 O   0  0  0  0  0  0
  -21.6638   -6.8871   21.4232 O   0  0  0  0  0  0
  -22.3412  -14.5442   20.6714 O   0  0  0  0  0  0
  -24.6318  -31.8521   23.1937 C   0  0  0  0  0  0
  -25.9134  -32.4740   23.8298 C   0  0  1  0  0  0
  -27.2259  -27.2423   20.1497 C   0  0  0  0  0  0
  -25.5925  -33.8544   24.2227 N   0  0  0  0  0  0
  -23.4303  -30.4721   21.5366 C   0  0  2  0  0  0
  -24.8801  -28.9057   20.1176 C   0  0  0  0  0  0
  -22.7506  -29.4590   22.4891 C   0  0  0  0  0  0
  -18.0295  -28.1391   22.8480 C   0  0  0  0  0  0
  -24.1493  -36.7283   23.2644 C   0  0  0  0  0  0
  -25.9760  -30.7614   21.3743 C   0  0  0  0  0  0
  -26.0515  -29.3784   20.7241 C   0  0  0  0  0  0
  -27.2292  -28.5614   20.7219 C   0  0  0  0  0  0
  -26.0316  -26.8316   19.5244 C   0  0  0  0  0  0
  -24.8752  -27.6399   19.5077 C   0  0  0  0  0  0
  -23.6519  -29.7973   20.1565 C   0  0  0  0  0  0
  -25.4120  -36.3063   24.0324 C   0  0  1  0  0  0
  -20.5899  -28.3704   23.1260 C   0  0  2  0  0  0
  -20.6786  -26.9419   22.5405 C   0  0  0  0  0  0
  -19.5767  -26.6381   21.5211 C   0  0  0  0  0  0
  -18.1944  -26.7928   22.1619 C   0  0  0  0  0  0
  -19.1549  -28.8861   23.2861 C   0  0  0  0  0  0
  -18.9473  -30.1461   23.8886 C   0  0  0  0  0  0
  -17.6474  -30.6590   24.0564 C   0  0  0  0  0  0
  -25.9058  -34.9435   23.5081 C   0  0  0  0  0  0
  -16.5363  -29.9091   23.6337 C   0  0  0  0  0  0
  -16.7283  -28.6507   23.0353 C   0  0  0  0  0  0
  -26.4497  -31.6576   25.0699 C   0  0  0  0  0  0
  -25.3717  -31.3737   26.1417 C   0  0  0  0  0  0
  -27.0348  -30.2991   24.6195 C   0  0  0  0  0  0
  -27.6040  -32.4318   25.7486 C   0  0  0  0  0  0
  -27.5575  -37.1801   24.8468 C   0  0  0  0  0  0
  -21.4209  -29.3046   22.3641 N   0  0  0  0  0  0
  -26.4291  -37.3767   23.9405 N   0  0  0  0  0  0
  -24.6986  -31.0471   22.0916 N   0  0  0  0  0  0
  -23.4195  -28.8139   23.3004 O   0  0  0  0  0  0
  -28.3335  -26.3620   20.1285 O   0  0  0  0  0  0
  -26.5643  -34.8920   22.4657 O   0  0  0  0  0  0
  -23.5465  -32.1346   23.7224 O   0  0  0  0  0  0
  -27.0443  -19.5844   20.6011 C   0  0  0  0  0  0
  -27.8806  -18.4546   20.7581 C   0  0  0  0  0  0
  -29.2733  -18.6555   20.6131 C   0  0  0  0  0  0
  -28.8084  -21.0121   20.4222 C   0  0  0  0  0  0
  -29.1317  -25.0346   21.9522 C   0  0  0  0  0  0
  -30.3089  -17.4216   20.6258 C   0  0  0  0  0  0
  -28.5894  -23.6313   19.8231 C   0  0  0  0  0  0
  -28.2424  -24.9657   20.7040 C   0  0  2  0  0  0
  -27.5025  -20.8398   20.4267 N   0  0  0  0  0  0
  -29.7043  -19.9780   20.4858 N   0  0  0  0  0  0
  -27.3164  -17.2279   21.1223 N   0  0  0  0  0  0
  -29.2277  -22.3828   20.4398 N   0  0  0  0  0  0
  -29.8678  -15.9466   20.6513 N   0  0  0  0  0  0
  -31.4701  -12.6185   19.1729 H   0  0  0  0  0  0
  -30.3843  -11.5182   19.9783 H   0  0  0  0  0  0
  -29.7944  -11.7366   17.5370 H   0  0  0  0  0  0
  -29.6248  -13.4662   17.7165 H   0  0  0  0  0  0
  -27.8954  -11.2916   18.9305 H   0  0  0  0  0  0
  -27.3750  -12.5233   17.8102 H   0  0  0  0  0  0
  -27.6182  -14.2652   19.4704 H   0  0  0  0  0  0
  -28.7308  -12.2115   21.4432 H   0  0  0  0  0  0
  -28.4162  -13.8961   21.7846 H   0  0  0  0  0  0
  -25.2780   -9.5642   22.4769 H   0  0  0  0  0  0
  -24.0004   -7.4605   22.7472 H   0  0  0  0  0  0
  -21.0862   -8.8788   19.8931 H   0  0  0  0  0  0
  -22.3757  -10.9661   19.6155 H   0  0  0  0  0  0
  -21.2027   -7.6143   23.9715 H   0  0  0  0  0  0
  -21.1463   -6.0506   25.9071 H   0  0  0  0  0  0
  -22.0612   -2.7602   23.2844 H   0  0  0  0  0  0
  -22.4078  -11.9801   22.4817 H   0  0  0  0  0  0
  -21.1057  -13.1147   22.2673 H   0  0  0  0  0  0
  -24.5814  -15.8042   20.4843 H   0  0  0  0  0  0
  -26.2538  -15.6834   20.2508 H   0  0  0  0  0  0
  -26.7198  -32.5394   23.1037 H   0  0  0  0  0  0
  -25.0061  -33.9678   25.0366 H   0  0  0  0  0  0
  -22.7285  -31.2947   21.3839 H   0  0  0  0  0  0
  -23.3756  -35.9616   23.3305 H   0  0  0  0  0  0
  -24.3579  -36.8909   22.2058 H   0  0  0  0  0  0
  -23.7247  -37.6484   23.6672 H   0  0  0  0  0  0
  -26.1130  -31.5175   20.5997 H   0  0  0  0  0  0
  -26.8539  -30.8159   22.0065 H   0  0  0  0  0  0
  -28.1308  -28.9226   21.1963 H   0  0  0  0  0  0
  -25.9900  -25.8608   19.0506 H   0  0  0  0  0  0
  -23.9778  -27.2701   19.0314 H   0  0  0  0  0  0
  -23.7833  -30.5688   19.3968 H   0  0  0  0  0  0
  -22.7692  -29.2323   19.8512 H   0  0  0  0  0  0
  -25.1308  -36.1900   25.0818 H   0  0  0  0  0  0
  -21.0000  -28.3286   24.1376 H   0  0  0  0  0  0
  -20.5685  -26.2316   23.3612 H   0  0  0  0  0  0
  -21.6655  -26.7443   22.1205 H   0  0  0  0  0  0
  -19.6932  -25.6288   21.1248 H   0  0  0  0  0  0
  -19.6704  -27.3189   20.6736 H   0  0  0  0  0  0
  -17.4213  -26.6672   21.4022 H   0  0  0  0  0  0
  -18.0343  -26.0077   22.9020 H   0  0  0  0  0  0
  -19.7952  -30.7277   24.2250 H   0  0  0  0  0  0
  -17.5034  -31.6272   24.5166 H   0  0  0  0  0  0
  -15.5368  -30.2995   23.7660 H   0  0  0  0  0  0
  -15.8681  -28.0827   22.7071 H   0  0  0  0  0  0
  -24.5894  -30.7082   25.7750 H   0  0  0  0  0  0
  -24.8911  -32.2915   26.4819 H   0  0  0  0  0  0
  -25.8026  -30.8932   27.0208 H   0  0  0  0  0  0
  -26.2937  -29.6736   24.1206 H   0  0  0  0  0  0
  -27.4022  -29.7257   25.4716 H   0  0  0  0  0  0
  -27.8816  -30.4269   23.9450 H   0  0  0  0  0  0
  -27.2636  -33.3620   26.2048 H   0  0  0  0  0  0
  -28.3868  -32.6870   25.0331 H   0  0  0  0  0  0
  -28.0692  -31.8451   26.5422 H   0  0  0  0  0  0
  -28.2599  -38.0092   24.7501 H   0  0  0  0  0  0
  -28.1065  -36.2620   24.6313 H   0  0  0  0  0  0
  -27.2292  -37.1479   25.8872 H   0  0  0  0  0  0
  -20.9391  -29.8765   21.6846 H   0  0  0  0  0  0
  -26.0167  -38.2840   24.1401 H   0  0  0  0  0  0
  -25.9714  -19.4853   20.6791 H   0  0  0  0  0  0
  -29.0420  -24.1329   22.5583 H   0  0  0  0  0  0
  -30.1804  -25.1520   21.6797 H   0  0  0  0  0  0
  -28.8512  -25.8777   22.5846 H   0  0  0  0  0  0
  -30.9573  -17.5712   21.4887 H   0  0  0  0  0  0
  -30.9522  -17.5482   19.7545 H   0  0  0  0  0  0
  -27.6900  -23.3278   19.2856 H   0  0  0  0  0  0
  -29.2819  -23.9433   19.0416 H   0  0  0  0  0  0
  -27.2241  -24.8256   21.0695 H   0  0  0  0  0  0
  -26.3162  -17.2754   21.3093 H   0  0  0  0  0  0
  -27.7579  -16.8025   21.9334 H   0  0  0  0  0  0
  -30.2274  -22.4791   20.5669 H   0  0  0  0  0  0
  -28.8648  -15.8498   20.7503 H   0  0  0  0  0  0
  1 25  1  0  0  0
  1 30  2  0  0  0
  1 83  1  0  0  0
  2  3  1  0  0  0
  2 25  1  0  0  0
  2 84  1  0  0  0
  2 85  1  0  0  0
  3  4  1  0  0  0
  3 86  1  0  0  0
  3 87  1  0  0  0
  4  5  1  0  0  0
  4 88  1  0  0  0
  4 89  1  0  0  0
  5  6  1  0  0  0
  5 26  1  0  0  0
  5 90  1  0  0  0
  6 25  1  0  0  0
  6 91  1  0  0  0
  6 92  1  0  0  0
  7  8  2  0  0  0
  7 26  1  0  0  0
  7 29  1  0  0  0
  8  9  1  0  0  0
  8 22  1  0  0  0
  9 10  1  0  0  0
  9 27  2  0  0  0
 10 11  2  0  0  0
 10 15  1  0  0  0
 11 12  1  0  0  0
 11 93  1  0  0  0
 12 13  2  0  0  0
 12 94  1  0  0  0
 13 14  1  0  0  0
 13 31  1  0  0  0
 14 15  2  0  0  0
 14 95  1  0  0  0
 15 96  1  0  0  0
 16 17  2  0  0  0
 16 21  1  0  0  0
 16 31  1  0  0  0
 17 18  1  0  0  0
 17 97  1  0  0  0
 18 19  2  0  0  0
 18 98  1  0  0  0
 19 20  1  0  0  0
 19 24  1  0  0  0
 20 21  2  0  0  0
 20 99  1  0  0  0
 21 23  1  0  0  0
 22 28  1  0  0  0
 22 32  2  0  0  0
 26 27  1  0  0  0
 28100  1  0  0  0
 28101  1  0  0  0
 29102  1  0  0  0
 29103  1  0  0  0
 33 34  1  0  0  0
 33 66  1  0  0  0
 33 70  2  0  0  0
 34 36  1  0  0  0
 34 59  1  0  0  0
 34104  1  0  0  0
 35 44  2  0  0  0
 35 45  1  0  0  0
 35 68  1  0  0  0
 36 56  1  0  0  0
 36105  1  0  0  0
 37 39  1  0  0  0
 37 47  1  0  0  0
 37 66  1  0  0  0
 37106  1  0  0  0
 38 43  2  0  0  0
 38 46  1  0  0  0
 38 47  1  0  0  0
 39 64  1  0  0  0
 39 67  2  0  0  0
 40 52  1  0  0  0
 40 53  2  0  0  0
 40 58  1  0  0  0
 41107  1  0  0  0
 41108  1  0  0  0
 41109  1  0  0  0
 41 48  1  0  0  0
 42 43  1  0  0  0
 42 66  1  0  0  0
 42110  1  0  0  0
 42111  1  0  0  0
 43 44  1  0  0  0
 44112  1  0  0  0
 45 46  2  0  0  0
 45113  1  0  0  0
 46114  1  0  0  0
 47115  1  0  0  0
 47116  1  0  0  0
 48 56  1  0  0  0
 48 65  1  0  0  0
 48117  1  0  0  0
 49 50  1  0  0  0
 49 53  1  0  0  0
 49 64  1  0  0  0
 49118  1  0  0  0
 50 51  1  0  0  0
 50119  1  0  0  0
 50120  1  0  0  0
 51 52  1  0  0  0
 51121  1  0  0  0
 51122  1  0  0  0
 52123  1  0  0  0
 52124  1  0  0  0
 53 54  1  0  0  0
 54 55  2  0  0  0
 54125  1  0  0  0
 55 57  1  0  0  0
 55126  1  0  0  0
 56 69  2  0  0  0
 57 58  2  0  0  0
 57127  1  0  0  0
 58128  1  0  0  0
 59 60  1  0  0  0
 59 61  1  0  0  0
 59 62  1  0  0  0
 60129  1  0  0  0
 60130  1  0  0  0
 60131  1  0  0  0
 61132  1  0  0  0
 61133  1  0  0  0
 61134  1  0  0  0
 62135  1  0  0  0
 62136  1  0  0  0
 62137  1  0  0  0
 63 65  1  0  0  0
 63138  1  0  0  0
 63139  1  0  0  0
 63140  1  0  0  0
 64141  1  0  0  0
 65142  1  0  0  0
 68 78  1  0  0  0
 71 72  2  0  0  0
 71 79  1  0  0  0
 71143  1  0  0  0
 72 73  1  0  0  0
 72 81  1  0  0  0
 73 76  1  0  0  0
 73 80  2  0  0  0
 74 79  2  0  0  0
 74 80  1  0  0  0
 74 82  1  0  0  0
 75144  1  0  0  0
 75145  1  0  0  0
 75146  1  0  0  0
 75 78  1  0  0  0
 76 83  1  0  0  0
 76147  1  0  0  0
 76148  1  0  0  0
 77 78  1  0  0  0
 77 82  1  0  0  0
 77149  1  0  0  0
 77150  1  0  0  0
 78151  1  0  0  0
 81152  1  0  0  0
 81153  1  0  0  0
 82154  1  0  0  0
 83155  1  0  0  0
M  ISO  4   1 100  68 101  78 101  83 100
M  END
> <chiral flag>
0

> <version>
0

> <s_m_source_file>
/data/baiqing/PycharmProjects/Reinvent-master-3.2/result/LINK_invent/BTK/process_docking_weight1_custom_product_contain_oxygen_bond_distance_aromatic_linkinvent_7_9_3/rearranged_h_0192.sdf

> <i_m_source_file_index>
2

> <r_mmod_Potential_Energy-OPLS-2005>
-412.086822509766

> <r_mmod_Stretch_Energy-OPLS-2005>
132.329818725586

> <r_mmod_Bend_Energy-OPLS-2005>
185.812271118164

> <r_mmod_Torsional_Energy-OPLS-2005>
245.818054199219

> <r_mmod_Improper_Torsional_Energy-OPLS-2005>
12.2033500671387

> <r_mmod_Van_der_Waal_Energy-OPLS-2005>
147.299362182617

> <r_mmod_Electrostatic_Energy-OPLS-2005>
-994.349304199219

> <r_mmod_Solvation_Energy-OPLS-2005>
-240.054626464844

> <b_mmod_Minimization_Converged-OPLS-2005>
0

> <r_mmod_RMS_Derivative-OPLS-2005>
1.2088451385498

$$$$
2
                    3D
 Structure written by MMmdl.
159167  0  0  1  0            999 V2000
  -30.6978  -14.4688   20.5635 C   0  0  0  0  0  0
  -30.4200  -12.2997   19.4336 C   0  0  0  0  0  0
  -29.5003  -12.5101   18.2130 C   0  0  0  0  0  0
  -28.0186  -12.3737   18.6186 C   0  0  0  0  0  0
  -27.6622  -13.2090   19.8775 C   0  0  2  0  0  0
  -28.6992  -12.9866   21.0019 C   0  0  0  0  0  0
  -25.2592  -13.8164   20.5671 C   0  0  0  0  0  0
  -24.1848  -13.0447   20.9166 C   0  0  0  0  0  0
  -24.6404  -11.6908   20.8731 C   0  0  0  0  0  0
  -23.9065  -10.4293   21.0405 C   0  0  0  0  0  0
  -24.3617   -9.4207   21.9182 C   0  0  0  0  0  0
  -23.6289   -8.2245   22.0760 C   0  0  0  0  0  0
  -22.4267   -8.0286   21.3549 C   0  0  0  0  0  0
  -21.9900   -9.0258   20.4647 C   0  0  0  0  0  0
  -22.7233  -10.2135   20.3054 C   0  0  0  0  0  0
  -21.6861   -6.0731   22.5280 C   0  0  0  0  0  0
  -21.4017   -6.5635   23.8214 C   0  0  0  0  0  0
  -21.3661   -5.6793   24.9180 C   0  0  0  0  0  0
  -21.6052   -4.3058   24.7231 C   0  0  0  0  0  0
  -21.8820   -3.8147   23.4355 C   0  0  0  0  0  0
  -21.9194   -4.6957   22.3409 C   0  0  0  0  0  0
  -22.7878  -13.5246   21.1835 C   0  0  0  0  0  0
  -22.1661   -4.2151   21.0988 F   0  0  0  0  0  0
  -21.5627   -3.4538   25.7740 F   0  0  0  0  0  0
  -30.0355  -13.2846   20.4572 N   0  0  0  0  0  0
  -26.3025  -12.9334   20.3349 N   0  0  0  0  0  0
  -25.9328  -11.6492   20.5757 N   0  0  0  0  0  0
  -22.0516  -12.8241   22.0387 N   0  0  0  0  0  0
  -25.4354  -15.1885   20.4088 N   0  0  0  0  0  0
  -31.8258  -14.6365   20.0869 O   0  0  0  0  0  0
  -21.6646   -6.8881   21.4242 O   0  0  0  0  0  0
  -22.3559  -14.5555   20.6681 O   0  0  0  0  0  0
  -24.6168  -31.8693   23.2112 C   0  0  0  0  0  0
  -25.9059  -32.4837   23.8407 C   0  0  1  0  0  0
  -27.2207  -27.4237   20.1134 C   0  0  0  0  0  0
  -25.5915  -33.8636   24.2354 N   0  0  0  0  0  0
  -23.4047  -30.4941   21.5521 C   0  0  2  0  0  0
  -24.8510  -28.9696   20.1059 C   0  0  0  0  0  0
  -22.7449  -29.4658   22.4996 C   0  0  0  0  0  0
  -18.0285  -28.1378   22.8523 C   0  0  0  0  0  0
  -24.1489  -36.7318   23.2640 C   0  0  0  0  0  0
  -25.9343  -30.8360   21.3651 C   0  0  0  0  0  0
  -26.0119  -29.4724   20.7084 C   0  0  0  0  0  0
  -27.2036  -28.7087   20.7070 C   0  0  0  0  0  0
  -26.0498  -26.9491   19.4828 C   0  0  0  0  0  0
  -24.8682  -27.7112   19.4816 C   0  0  0  0  0  0
  -23.6124  -29.8360   20.1621 C   0  0  0  0  0  0
  -25.4108  -36.3126   24.0350 C   0  0  1  0  0  0
  -20.5889  -28.3667   23.1337 C   0  0  2  0  0  0
  -20.6789  -26.9405   22.5438 C   0  0  0  0  0  0
  -19.5745  -26.6392   21.5260 C   0  0  0  0  0  0
  -18.1924  -26.7928   22.1657 C   0  0  0  0  0  0
  -19.1536  -28.8844   23.2921 C   0  0  0  0  0  0
  -18.9450  -30.1456   23.8923 C   0  0  0  0  0  0
  -17.6446  -30.6581   24.0575 C   0  0  0  0  0  0
  -25.9039  -34.9485   23.5146 C   0  0  0  0  0  0
  -16.5343  -29.9083   23.6325 C   0  0  0  0  0  0
  -16.7276  -28.6503   23.0353 C   0  0  0  0  0  0
  -26.4476  -31.6594   25.0735 C   0  0  0  0  0  0
  -25.3724  -31.3704   26.1473 C   0  0  0  0  0  0
  -27.0315  -30.3032   24.6115 C   0  0  0  0  0  0
  -27.6069  -32.4304   25.7479 C   0  0  0  0  0  0
  -27.5590  -37.1817   24.8465 C   0  0  0  0  0  0
  -21.4177  -29.3019   22.3733 N   0  0  0  0  0  0
  -26.4296  -37.3808   23.9420 N   0  0  0  0  0  0
  -24.6696  -31.0800   22.1007 N   0  0  0  0  0  0
  -23.4222  -28.8200   23.3035 O   0  0  0  0  0  0
  -28.3435  -26.6213   20.1714 O   0  0  0  0  0  0
  -26.5596  -34.8935   22.4703 O   0  0  0  0  0  0
  -23.5359  -32.1433   23.7523 O   0  0  0  0  0  0
  -29.3889  -17.7681   21.6943 C   0  0  0  0  0  0
  -30.0879  -16.8693   20.8420 C   0  0  0  0  0  0
  -30.0021  -19.5794   20.3984 C   0  0  0  0  0  0
  -30.7109  -18.6927   19.5444 C   0  0  0  0  0  0
  -30.7082  -21.9816   22.2180 C   0  0  0  0  0  0
  -29.8786  -23.4358   20.3012 C   0  0  0  0  0  0
  -28.0966  -25.3119   20.7483 C   0  0  0  0  0  0
  -29.7394  -22.0517   21.0221 C   0  0  1  0  0  0
  -28.5540  -24.1202   19.8589 C   0  0  1  0  0  0
  -29.3407  -19.1134   21.4844 N   0  0  0  0  0  0
  -30.7485  -17.3621   19.7573 N   0  0  0  0  0  0
  -31.4198  -19.1537   18.4397 N   0  0  0  0  0  0
  -30.0100  -15.4728   21.1440 N   0  0  0  0  0  0
  -29.9795  -20.9501   20.0795 N   0  0  0  0  0  0
  -28.6575  -24.5895   18.5238 O   0  0  0  0  0  0
  -31.4668  -12.3875   19.1374 H   0  0  0  0  0  0
  -30.3092  -11.2885   19.8261 H   0  0  0  0  0  0
  -29.7413  -11.7873   17.4323 H   0  0  0  0  0  0
  -29.6767  -13.4983   17.7834 H   0  0  0  0  0  0
  -27.8240  -11.3178   18.8071 H   0  0  0  0  0  0
  -27.3755  -12.6575   17.7856 H   0  0  0  0  0  0
  -27.7074  -14.2587   19.5869 H   0  0  0  0  0  0
  -28.6693  -11.9524   21.3461 H   0  0  0  0  0  0
  -28.4596  -13.5882   21.8797 H   0  0  0  0  0  0
  -25.2769   -9.5684   22.4744 H   0  0  0  0  0  0
  -24.0009   -7.4642   22.7470 H   0  0  0  0  0  0
  -21.0837   -8.8772   19.8949 H   0  0  0  0  0  0
  -22.3699  -10.9670   19.6159 H   0  0  0  0  0  0
  -21.2006   -7.6145   23.9717 H   0  0  0  0  0  0
  -21.1482   -6.0525   25.9081 H   0  0  0  0  0  0
  -22.0595   -2.7605   23.2860 H   0  0  0  0  0  0
  -22.4118  -11.9900   22.4786 H   0  0  0  0  0  0
  -21.1135  -13.1278   22.2589 H   0  0  0  0  0  0
  -24.6703  -15.8477   20.5063 H   0  0  0  0  0  0
  -26.2900  -15.6207   20.0813 H   0  0  0  0  0  0
  -26.7150  -32.5548   23.1182 H   0  0  0  0  0  0
  -25.0098  -33.9779   25.0525 H   0  0  0  0  0  0
  -22.6925  -31.3108   21.4211 H   0  0  0  0  0  0
  -23.3760  -35.9636   23.3296 H   0  0  0  0  0  0
  -24.3591  -36.8935   22.2053 H   0  0  0  0  0  0
  -23.7217  -37.6519   23.6642 H   0  0  0  0  0  0
  -26.0497  -31.6089   20.6034 H   0  0  0  0  0  0
  -26.8189  -30.8837   21.9874 H   0  0  0  0  0  0
  -28.0929  -29.0855   21.1927 H   0  0  0  0  0  0
  -26.0455  -25.9770   19.0079 H   0  0  0  0  0  0
  -23.9796  -27.3228   19.0032 H   0  0  0  0  0  0
  -23.7141  -30.6164   19.4063 H   0  0  0  0  0  0
  -22.7370  -29.2555   19.8663 H   0  0  0  0  0  0
  -25.1276  -36.2007   25.0842 H   0  0  0  0  0  0
  -20.9978  -28.3242   24.1457 H   0  0  0  0  0  0
  -20.5769  -26.2276   23.3630 H   0  0  0  0  0  0
  -21.6644  -26.7497   22.1174 H   0  0  0  0  0  0
  -19.6897  -25.6316   21.1261 H   0  0  0  0  0  0
  -19.6656  -27.3238   20.6818 H   0  0  0  0  0  0
  -17.4213  -26.6738   21.4031 H   0  0  0  0  0  0
  -18.0257  -26.0046   22.9020 H   0  0  0  0  0  0
  -19.7916  -30.7281   24.2299 H   0  0  0  0  0  0
  -17.4986  -31.6259   24.5173 H   0  0  0  0  0  0
  -15.5339  -30.2978   23.7622 H   0  0  0  0  0  0
  -15.8692  -28.0825   22.7038 H   0  0  0  0  0  0
  -24.5889  -30.7070   25.7784 H   0  0  0  0  0  0
  -24.8916  -32.2866   26.4918 H   0  0  0  0  0  0
  -25.8047  -30.8851   27.0236 H   0  0  0  0  0  0
  -26.2864  -29.6781   24.1180 H   0  0  0  0  0  0
  -27.4104  -29.7285   25.4583 H   0  0  0  0  0  0
  -27.8691  -30.4360   23.9259 H   0  0  0  0  0  0
  -27.2717  -33.3618   26.2053 H   0  0  0  0  0  0
  -28.3855  -32.6841   25.0269 H   0  0  0  0  0  0
  -28.0752  -31.8421   26.5380 H   0  0  0  0  0  0
  -28.2612  -38.0117   24.7549 H   0  0  0  0  0  0
  -28.1091  -36.2662   24.6244 H   0  0  0  0  0  0
  -27.2323  -37.1412   25.8871 H   0  0  0  0  0  0
  -20.9365  -29.8718   21.6914 H   0  0  0  0  0  0
  -26.0204  -38.2898   24.1400 H   0  0  0  0  0  0
  -28.8538  -17.4023   22.5589 H   0  0  0  0  0  0
  -30.5291  -22.8050   22.9107 H   0  0  0  0  0  0
  -31.7477  -22.0433   21.8962 H   0  0  0  0  0  0
  -30.5909  -21.0672   22.7985 H   0  0  0  0  0  0
  -30.5490  -23.3242   19.4475 H   0  0  0  0  0  0
  -30.4119  -24.1364   20.9463 H   0  0  0  0  0  0
  -28.5966  -25.2717   21.7170 H   0  0  0  0  0  0
  -27.0457  -25.1596   21.0047 H   0  0  0  0  0  0
  -28.7258  -21.9520   21.4153 H   0  0  0  0  0  0
  -27.7664  -23.3635   19.8620 H   0  0  0  0  0  0
  -31.7461  -20.1096   18.4913 H   0  0  0  0  0  0
  -32.1207  -18.5237   18.0710 H   0  0  0  0  0  0
  -29.2116  -15.1902   21.6915 H   0  0  0  0  0  0
  -30.3744  -21.1697   19.1717 H   0  0  0  0  0  0
  -28.9861  -25.4839   18.5844 H   0  0  0  0  0  0
  1 25  1  0  0  0
  1 30  2  0  0  0
  1 83  1  0  0  0
  2  3  1  0  0  0
  2 25  1  0  0  0
  2 86  1  0  0  0
  2 87  1  0  0  0
  3  4  1  0  0  0
  3 88  1  0  0  0
  3 89  1  0  0  0
  4  5  1  0  0  0
  4 90  1  0  0  0
  4 91  1  0  0  0
  5  6  1  0  0  0
  5 26  1  0  0  0
  5 92  1  0  0  0
  6 25  1  0  0  0
  6 93  1  0  0  0
  6 94  1  0  0  0
  7  8  2  0  0  0
  7 26  1  0  0  0
  7 29  1  0  0  0
  8  9  1  0  0  0
  8 22  1  0  0  0
  9 10  1  0  0  0
  9 27  2  0  0  0
 10 11  2  0  0  0
 10 15  1  0  0  0
 11 12  1  0  0  0
 11 95  1  0  0  0
 12 13  2  0  0  0
 12 96  1  0  0  0
 13 14  1  0  0  0
 13 31  1  0  0  0
 14 15  2  0  0  0
 14 97  1  0  0  0
 15 98  1  0  0  0
 16 17  2  0  0  0
 16 21  1  0  0  0
 16 31  1  0  0  0
 17 18  1  0  0  0
 17 99  1  0  0  0
 18 19  2  0  0  0
 18100  1  0  0  0
 19 20  1  0  0  0
 19 24  1  0  0  0
 20 21  2  0  0  0
 20101  1  0  0  0
 21 23  1  0  0  0
 22 28  1  0  0  0
 22 32  2  0  0  0
 26 27  1  0  0  0
 28102  1  0  0  0
 28103  1  0  0  0
 29104  1  0  0  0
 29105  1  0  0  0
 33 34  1  0  0  0
 33 66  1  0  0  0
 33 70  2  0  0  0
 34 36  1  0  0  0
 34 59  1  0  0  0
 34106  1  0  0  0
 35 44  2  0  0  0
 35 45  1  0  0  0
 35 68  1  0  0  0
 36 56  1  0  0  0
 36107  1  0  0  0
 37 39  1  0  0  0
 37 47  1  0  0  0
 37 66  1  0  0  0
 37108  1  0  0  0
 38 43  2  0  0  0
 38 46  1  0  0  0
 38 47  1  0  0  0
 39 64  1  0  0  0
 39 67  2  0  0  0
 40 52  1  0  0  0
 40 53  2  0  0  0
 40 58  1  0  0  0
 41109  1  0  0  0
 41110  1  0  0  0
 41111  1  0  0  0
 41 48  1  0  0  0
 42 43  1  0  0  0
 42 66  1  0  0  0
 42112  1  0  0  0
 42113  1  0  0  0
 43 44  1  0  0  0
 44114  1  0  0  0
 45 46  2  0  0  0
 45115  1  0  0  0
 46116  1  0  0  0
 47117  1  0  0  0
 47118  1  0  0  0
 48 56  1  0  0  0
 48 65  1  0  0  0
 48119  1  0  0  0
 49 50  1  0  0  0
 49 53  1  0  0  0
 49 64  1  0  0  0
 49120  1  0  0  0
 50 51  1  0  0  0
 50121  1  0  0  0
 50122  1  0  0  0
 51 52  1  0  0  0
 51123  1  0  0  0
 51124  1  0  0  0
 52125  1  0  0  0
 52126  1  0  0  0
 53 54  1  0  0  0
 54 55  2  0  0  0
 54127  1  0  0  0
 55 57  1  0  0  0
 55128  1  0  0  0
 56 69  2  0  0  0
 57 58  2  0  0  0
 57129  1  0  0  0
 58130  1  0  0  0
 59 60  1  0  0  0
 59 61  1  0  0  0
 59 62  1  0  0  0
 60131  1  0  0  0
 60132  1  0  0  0
 60133  1  0  0  0
 61134  1  0  0  0
 61135  1  0  0  0
 61136  1  0  0  0
 62137  1  0  0  0
 62138  1  0  0  0
 62139  1  0  0  0
 63 65  1  0  0  0
 63140  1  0  0  0
 63141  1  0  0  0
 63142  1  0  0  0
 64143  1  0  0  0
 65144  1  0  0  0
 68 77  1  0  0  0
 71 72  2  0  0  0
 71 80  1  0  0  0
 71145  1  0  0  0
 72 81  1  0  0  0
 72 83  1  0  0  0
 73 74  1  0  0  0
 73 80  2  0  0  0
 73 84  1  0  0  0
 74 81  2  0  0  0
 74 82  1  0  0  0
 75146  1  0  0  0
 75147  1  0  0  0
 75148  1  0  0  0
 75 78  1  0  0  0
 76 78  1  0  0  0
 76 79  1  0  0  0
 76149  1  0  0  0
 76150  1  0  0  0
 77 79  1  0  0  0
 77151  1  0  0  0
 77152  1  0  0  0
 78 84  1  0  0  0
 78153  1  0  0  0
 79 85  1  0  0  0
 79154  1  0  0  0
 82155  1  0  0  0
 82156  1  0  0  0
 83157  1  0  0  0
 84158  1  0  0  0
 85159  1  0  0  0
M  ISO  4   1 100  68 101  77 101  83 100
M  END
> <chiral flag>
0

> <version>
0

> <s_m_source_file>
/data/baiqing/PycharmProjects/Reinvent-master-3.2/result/LINK_invent/BTK/process_docking_weight1_custom_product_contain_oxygen_bond_distance_aromatic_linkinvent_7_9_3/rearranged_h_0192.sdf

> <i_m_source_file_index>
3

> <r_mmod_Potential_Energy-OPLS-2005>
-82.6576232910156

> <r_mmod_Stretch_Energy-OPLS-2005>
43.509937286377

> <r_mmod_Bend_Energy-OPLS-2005>
114.257255554199

> <r_mmod_Torsional_Energy-OPLS-2005>
287.442810058594

> <r_mmod_Improper_Torsional_Energy-OPLS-2005>
7.96437788009644

> <r_mmod_Van_der_Waal_Energy-OPLS-2005>
169.546432495117

> <r_mmod_Electrostatic_Energy-OPLS-2005>
-466.67138671875

> <r_mmod_Solvation_Energy-OPLS-2005>
-254.851531982422

> <b_mmod_Minimization_Converged-OPLS-2005>
0

> <r_mmod_RMS_Derivative-OPLS-2005>
2.31662559509277

$$$$
3
                    3D
 Structure written by MMmdl.
154162  0  0  1  0            999 V2000
  -30.6511  -14.5669   20.5077 C   0  0  0  0  0  0
  -30.4041  -12.3412   19.4315 C   0  0  0  0  0  0
  -29.4832  -12.5357   18.2029 C   0  0  0  0  0  0
  -28.0050  -12.3734   18.6087 C   0  0  0  0  0  0
  -27.6477  -13.2064   19.8653 C   0  0  2  0  0  0
  -28.6949  -13.0303   20.9898 C   0  0  0  0  0  0
  -25.2560  -13.8155   20.5668 C   0  0  0  0  0  0
  -24.1829  -13.0430   20.9154 C   0  0  0  0  0  0
  -24.6387  -11.6898   20.8714 C   0  0  0  0  0  0
  -23.9065  -10.4275   21.0381 C   0  0  0  0  0  0
  -24.3616   -9.4187   21.9163 C   0  0  0  0  0  0
  -23.6298   -8.2220   22.0739 C   0  0  0  0  0  0
  -22.4277   -8.0263   21.3543 C   0  0  0  0  0  0
  -21.9912   -9.0232   20.4632 C   0  0  0  0  0  0
  -22.7234  -10.2115   20.3036 C   0  0  0  0  0  0
  -21.6859   -6.0725   22.5269 C   0  0  0  0  0  0
  -21.4010   -6.5627   23.8201 C   0  0  0  0  0  0
  -21.3673   -5.6786   24.9166 C   0  0  0  0  0  0
  -21.6058   -4.3054   24.7214 C   0  0  0  0  0  0
  -21.8828   -3.8137   23.4345 C   0  0  0  0  0  0
  -21.9187   -4.6951   22.3388 C   0  0  0  0  0  0
  -22.7850  -13.5213   21.1867 C   0  0  0  0  0  0
  -22.1663   -4.2144   21.0967 F   0  0  0  0  0  0
  -21.5638   -3.4529   25.7719 F   0  0  0  0  0  0
  -30.0212  -13.3523   20.4357 N   0  0  0  0  0  0
  -26.2948  -12.9307   20.3334 N   0  0  0  0  0  0
  -25.9305  -11.6479   20.5748 N   0  0  0  0  0  0
  -22.0540  -12.8138   22.0410 N   0  0  0  0  0  0
  -25.4378  -15.1859   20.4043 N   0  0  0  0  0  0
  -31.7913  -14.7323   20.0572 O   0  0  0  0  0  0
  -21.6659   -6.8864   21.4235 O   0  0  0  0  0  0
  -22.3476  -14.5515   20.6745 O   0  0  0  0  0  0
  -24.6147  -31.8672   23.2105 C   0  0  0  0  0  0
  -25.9023  -32.4827   23.8425 C   0  0  1  0  0  0
  -27.2333  -27.3773   20.1079 C   0  0  0  0  0  0
  -25.5889  -33.8627   24.2337 N   0  0  0  0  0  0
  -23.4057  -30.4859   21.5533 C   0  0  2  0  0  0
  -24.8538  -28.9527   20.1095 C   0  0  0  0  0  0
  -22.7436  -29.4611   22.5009 C   0  0  0  0  0  0
  -18.0262  -28.1303   22.8508 C   0  0  0  0  0  0
  -24.1482  -36.7297   23.2634 C   0  0  0  0  0  0
  -25.9399  -30.8125   21.3762 C   0  0  0  0  0  0
  -26.0131  -29.4462   20.7170 C   0  0  0  0  0  0
  -27.1981  -28.6629   20.7145 C   0  0  0  0  0  0
  -26.0439  -26.9132   19.4943 C   0  0  0  0  0  0
  -24.8684  -27.6901   19.4930 C   0  0  0  0  0  0
  -23.6173  -29.8273   20.1639 C   0  0  0  0  0  0
  -25.4114  -36.3122   24.0334 C   0  0  1  0  0  0
  -20.5862  -28.3587   23.1343 C   0  0  2  0  0  0
  -20.6737  -26.9316   22.5433 C   0  0  0  0  0  0
  -19.5721  -26.6325   21.5216 C   0  0  0  0  0  0
  -18.1898  -26.7850   22.1629 C   0  0  0  0  0  0
  -19.1511  -28.8780   23.2909 C   0  0  0  0  0  0
  -18.9424  -30.1390   23.8897 C   0  0  0  0  0  0
  -17.6420  -30.6530   24.0529 C   0  0  0  0  0  0
  -25.9036  -34.9485   23.5140 C   0  0  0  0  0  0
  -16.5319  -29.9010   23.6312 C   0  0  0  0  0  0
  -16.7249  -28.6430   23.0348 C   0  0  0  0  0  0
  -26.4448  -31.6600   25.0746 C   0  0  0  0  0  0
  -25.3705  -31.3694   26.1475 C   0  0  0  0  0  0
  -27.0248  -30.3034   24.6120 C   0  0  0  0  0  0
  -27.6012  -32.4333   25.7506 C   0  0  0  0  0  0
  -27.5592  -37.1805   24.8465 C   0  0  0  0  0  0
  -21.4156  -29.2961   22.3764 N   0  0  0  0  0  0
  -26.4310  -37.3806   23.9401 N   0  0  0  0  0  0
  -24.6712  -31.0738   22.1041 N   0  0  0  0  0  0
  -23.4228  -28.8165   23.3043 O   0  0  0  0  0  0
  -28.4218  -26.6463   20.1644 O   0  0  0  0  0  0
  -26.5603  -34.8926   22.4694 O   0  0  0  0  0  0
  -23.5333  -32.1450   23.7482 O   0  0  0  0  0  0
  -27.9398  -17.8273   19.1552 C   0  0  0  0  0  0
  -28.4520  -19.0940   19.4582 C   0  0  0  0  0  0
  -29.5718  -19.1275   20.3059 C   0  0  0  0  0  0
  -29.5534  -16.7888   20.4151 C   0  0  0  0  0  0
  -29.4367  -22.8136   20.1158 C   0  0  0  0  0  0
  -29.3717  -21.5526   21.0623 C   0  0  0  0  0  0
  -28.5968  -25.3050   19.6190 C   0  0  0  0  0  0
  -28.9257  -24.2012   20.6944 C   0  0  2  0  0  0
  -28.4677  -16.6914   19.6544 N   0  0  0  0  0  0
  -30.1211  -17.9664   20.7760 N   0  0  0  0  0  0
  -30.1753  -20.3618   20.6637 N   0  0  0  0  0  0
  -29.9205  -15.5905   21.0244 N   0  0  0  0  0  0
  -29.9728  -24.7217   21.5034 O   0  0  0  0  0  0
  -27.8982  -20.2153   18.9324 F   0  0  0  0  0  0
  -31.4545  -12.4085   19.1414 H   0  0  0  0  0  0
  -30.2678  -11.3380   19.8393 H   0  0  0  0  0  0
  -29.7276  -11.8244   17.4140 H   0  0  0  0  0  0
  -29.6371  -13.5279   17.7767 H   0  0  0  0  0  0
  -27.8181  -11.3149   18.7919 H   0  0  0  0  0  0
  -27.3575  -12.6568   17.7774 H   0  0  0  0  0  0
  -27.6684  -14.2436   19.5420 H   0  0  0  0  0  0
  -28.6840  -12.0030   21.3602 H   0  0  0  0  0  0
  -28.4434  -13.6496   21.8492 H   0  0  0  0  0  0
  -25.2773   -9.5648   22.4711 H   0  0  0  0  0  0
  -24.0028   -7.4590   22.7420 H   0  0  0  0  0  0
  -21.0867   -8.8740   19.8890 H   0  0  0  0  0  0
  -22.3720  -10.9651   19.6116 H   0  0  0  0  0  0
  -21.2014   -7.6137   23.9701 H   0  0  0  0  0  0
  -21.1494   -6.0518   25.9074 H   0  0  0  0  0  0
  -22.0598   -2.7601   23.2833 H   0  0  0  0  0  0
  -22.4265  -11.9826   22.4759 H   0  0  0  0  0  0
  -21.1128  -13.1059   22.2654 H   0  0  0  0  0  0
  -24.6749  -15.8507   20.4722 H   0  0  0  0  0  0
  -26.3128  -15.6038   20.1066 H   0  0  0  0  0  0
  -26.7084  -32.5540   23.1172 H   0  0  0  0  0  0
  -25.0053  -33.9823   25.0498 H   0  0  0  0  0  0
  -22.6909  -31.3014   21.4199 H   0  0  0  0  0  0
  -23.3785  -35.9592   23.3302 H   0  0  0  0  0  0
  -24.3590  -36.8904   22.2052 H   0  0  0  0  0  0
  -23.7189  -37.6472   23.6658 H   0  0  0  0  0  0
  -26.0682  -31.5885   20.6209 H   0  0  0  0  0  0
  -26.8189  -30.8578   22.0078 H   0  0  0  0  0  0
  -28.0899  -29.0364   21.1962 H   0  0  0  0  0  0
  -25.9790  -25.9523   19.0136 H   0  0  0  0  0  0
  -23.9713  -27.3147   19.0191 H   0  0  0  0  0  0
  -23.7272  -30.6103   19.4116 H   0  0  0  0  0  0
  -22.7372  -29.2535   19.8682 H   0  0  0  0  0  0
  -25.1291  -36.2002   25.0837 H   0  0  0  0  0  0
  -20.9933  -28.3084   24.1476 H   0  0  0  0  0  0
  -20.5620  -26.2156   23.3591 H   0  0  0  0  0  0
  -21.6591  -26.7323   22.1225 H   0  0  0  0  0  0
  -19.6856  -25.6255   21.1197 H   0  0  0  0  0  0
  -19.6647  -27.3175   20.6784 H   0  0  0  0  0  0
  -17.4166  -26.6616   21.4034 H   0  0  0  0  0  0
  -18.0278  -25.9981   22.9017 H   0  0  0  0  0  0
  -19.7895  -30.7208   24.2264 H   0  0  0  0  0  0
  -17.4957  -31.6218   24.5085 H   0  0  0  0  0  0
  -15.5311  -30.2886   23.7620 H   0  0  0  0  0  0
  -15.8658  -28.0728   22.7059 H   0  0  0  0  0  0
  -24.5893  -30.7023   25.7809 H   0  0  0  0  0  0
  -24.8875  -32.2834   26.4945 H   0  0  0  0  0  0
  -25.8050  -30.8855   27.0229 H   0  0  0  0  0  0
  -26.2778  -29.6858   24.1107 H   0  0  0  0  0  0
  -27.3911  -29.7214   25.4587 H   0  0  0  0  0  0
  -27.8691  -30.4333   23.9339 H   0  0  0  0  0  0
  -27.2607  -33.3631   26.2084 H   0  0  0  0  0  0
  -28.3808  -32.6893   25.0318 H   0  0  0  0  0  0
  -28.0681  -31.8457   26.5416 H   0  0  0  0  0  0
  -28.2591  -38.0122   24.7555 H   0  0  0  0  0  0
  -28.1100  -36.2650   24.6250 H   0  0  0  0  0  0
  -27.2309  -37.1404   25.8867 H   0  0  0  0  0  0
  -20.9294  -29.8731   21.7037 H   0  0  0  0  0  0
  -26.0200  -38.2883   24.1419 H   0  0  0  0  0  0
  -27.0752  -17.7214   18.5194 H   0  0  0  0  0  0
  -28.8643  -22.5776   19.2172 H   0  0  0  0  0  0
  -30.4652  -22.9425   19.7692 H   0  0  0  0  0  0
  -28.3299  -21.2650   21.2127 H   0  0  0  0  0  0
  -29.7330  -21.8474   22.0483 H   0  0  0  0  0  0
  -27.7626  -24.9671   19.0093 H   0  0  0  0  0  0
  -29.4310  -25.3703   18.9180 H   0  0  0  0  0  0
  -28.0416  -24.0496   21.3152 H   0  0  0  0  0  0
  -31.0330  -20.2444   21.1925 H   0  0  0  0  0  0
  -29.1298  -15.1829   21.4934 H   0  0  0  0  0  0
  -29.7573  -25.6360   21.6838 H   0  0  0  0  0  0
  1 25  1  0  0  0
  1 30  2  0  0  0
  1 82  1  0  0  0
  2  3  1  0  0  0
  2 25  1  0  0  0
  2 85  1  0  0  0
  2 86  1  0  0  0
  3  4  1  0  0  0
  3 87  1  0  0  0
  3 88  1  0  0  0
  4  5  1  0  0  0
  4 89  1  0  0  0
  4 90  1  0  0  0
  5  6  1  0  0  0
  5 26  1  0  0  0
  5 91  1  0  0  0
  6 25  1  0  0  0
  6 92  1  0  0  0
  6 93  1  0  0  0
  7  8  2  0  0  0
  7 26  1  0  0  0
  7 29  1  0  0  0
  8  9  1  0  0  0
  8 22  1  0  0  0
  9 10  1  0  0  0
  9 27  2  0  0  0
 10 11  2  0  0  0
 10 15  1  0  0  0
 11 12  1  0  0  0
 11 94  1  0  0  0
 12 13  2  0  0  0
 12 95  1  0  0  0
 13 14  1  0  0  0
 13 31  1  0  0  0
 14 15  2  0  0  0
 14 96  1  0  0  0
 15 97  1  0  0  0
 16 17  2  0  0  0
 16 21  1  0  0  0
 16 31  1  0  0  0
 17 18  1  0  0  0
 17 98  1  0  0  0
 18 19  2  0  0  0
 18 99  1  0  0  0
 19 20  1  0  0  0
 19 24  1  0  0  0
 20 21  2  0  0  0
 20100  1  0  0  0
 21 23  1  0  0  0
 22 28  1  0  0  0
 22 32  2  0  0  0
 26 27  1  0  0  0
 28101  1  0  0  0
 28102  1  0  0  0
 29103  1  0  0  0
 29104  1  0  0  0
 33 34  1  0  0  0
 33 66  1  0  0  0
 33 70  2  0  0  0
 34 36  1  0  0  0
 34 59  1  0  0  0
 34105  1  0  0  0
 35 44  2  0  0  0
 35 45  1  0  0  0
 35 68  1  0  0  0
 36 56  1  0  0  0
 36106  1  0  0  0
 37 39  1  0  0  0
 37 47  1  0  0  0
 37 66  1  0  0  0
 37107  1  0  0  0
 38 43  2  0  0  0
 38 46  1  0  0  0
 38 47  1  0  0  0
 39 64  1  0  0  0
 39 67  2  0  0  0
 40 52  1  0  0  0
 40 53  2  0  0  0
 40 58  1  0  0  0
 41108  1  0  0  0
 41109  1  0  0  0
 41110  1  0  0  0
 41 48  1  0  0  0
 42 43  1  0  0  0
 42 66  1  0  0  0
 42111  1  0  0  0
 42112  1  0  0  0
 43 44  1  0  0  0
 44113  1  0  0  0
 45 46  2  0  0  0
 45114  1  0  0  0
 46115  1  0  0  0
 47116  1  0  0  0
 47117  1  0  0  0
 48 56  1  0  0  0
 48 65  1  0  0  0
 48118  1  0  0  0
 49 50  1  0  0  0
 49 53  1  0  0  0
 49 64  1  0  0  0
 49119  1  0  0  0
 50 51  1  0  0  0
 50120  1  0  0  0
 50121  1  0  0  0
 51 52  1  0  0  0
 51122  1  0  0  0
 51123  1  0  0  0
 52124  1  0  0  0
 52125  1  0  0  0
 53 54  1  0  0  0
 54 55  2  0  0  0
 54126  1  0  0  0
 55 57  1  0  0  0
 55127  1  0  0  0
 56 69  2  0  0  0
 57 58  2  0  0  0
 57128  1  0  0  0
 58129  1  0  0  0
 59 60  1  0  0  0
 59 61  1  0  0  0
 59 62  1  0  0  0
 60130  1  0  0  0
 60131  1  0  0  0
 60132  1  0  0  0
 61133  1  0  0  0
 61134  1  0  0  0
 61135  1  0  0  0
 62136  1  0  0  0
 62137  1  0  0  0
 62138  1  0  0  0
 63 65  1  0  0  0
 63139  1  0  0  0
 63140  1  0  0  0
 63141  1  0  0  0
 64142  1  0  0  0
 65143  1  0  0  0
 68 77  1  0  0  0
 71 72  2  0  0  0
 71 79  1  0  0  0
 71144  1  0  0  0
 72 73  1  0  0  0
 72 84  1  0  0  0
 73 80  2  0  0  0
 73 81  1  0  0  0
 74 79  2  0  0  0
 74 80  1  0  0  0
 74 82  1  0  0  0
 75 76  1  0  0  0
 75 78  1  0  0  0
 75145  1  0  0  0
 75146  1  0  0  0
 76 81  1  0  0  0
 76147  1  0  0  0
 76148  1  0  0  0
 77 78  1  0  0  0
 77149  1  0  0  0
 77150  1  0  0  0
 78 83  1  0  0  0
 78151  1  0  0  0
 81152  1  0  0  0
 82153  1  0  0  0
 83154  1  0  0  0
M  ISO  4   1 100  68 101  77 101  82 100
M  END
> <chiral flag>
0

> <version>
0

> <s_m_source_file>
/data/baiqing/PycharmProjects/Reinvent-master-3.2/result/LINK_invent/BTK/process_docking_weight1_custom_product_contain_oxygen_bond_distance_aromatic_linkinvent_7_9_3/rearranged_h_0192.sdf

> <i_m_source_file_index>
4

> <r_mmod_Potential_Energy-OPLS-2005>
-330.505432128906

> <r_mmod_Stretch_Energy-OPLS-2005>
58.7471122741699

> <r_mmod_Bend_Energy-OPLS-2005>
144.131622314453

> <r_mmod_Torsional_Energy-OPLS-2005>
259.36669921875

> <r_mmod_Improper_Torsional_Energy-OPLS-2005>
11.1544198989868

> <r_mmod_Van_der_Waal_Energy-OPLS-2005>
148.045455932617

> <r_mmod_Electrostatic_Energy-OPLS-2005>
-735.444763183594

> <r_mmod_Solvation_Energy-OPLS-2005>
-242.268295288086

> <b_mmod_Minimization_Converged-OPLS-2005>
0

> <r_mmod_RMS_Derivative-OPLS-2005>
4.52232646942139

$$$$
4
                    3D
 Structure written by MMmdl.
154162  0  0  1  0            999 V2000
  -30.6180  -14.7860   20.4368 C   0  0  0  0  0  0
  -30.4232  -12.4740   19.4964 C   0  0  0  0  0  0
  -29.5093  -12.5056   18.2521 C   0  0  0  0  0  0
  -28.0440  -12.2964   18.6715 C   0  0  0  0  0  0
  -27.6351  -13.2317   19.8391 C   0  0  2  0  0  0
  -28.6735  -13.2258   20.9818 C   0  0  0  0  0  0
  -25.2558  -13.8210   20.5734 C   0  0  0  0  0  0
  -24.1838  -13.0484   20.9194 C   0  0  0  0  0  0
  -24.6399  -11.6949   20.8781 C   0  0  0  0  0  0
  -23.9064  -10.4315   21.0426 C   0  0  0  0  0  0
  -24.3598   -9.4216   21.9198 C   0  0  0  0  0  0
  -23.6271   -8.2262   22.0741 C   0  0  0  0  0  0
  -22.4244   -8.0292   21.3557 C   0  0  0  0  0  0
  -21.9904   -9.0268   20.4656 C   0  0  0  0  0  0
  -22.7238  -10.2146   20.3076 C   0  0  0  0  0  0
  -21.6840   -6.0752   22.5312 C   0  0  0  0  0  0
  -21.4029   -6.5668   23.8244 C   0  0  0  0  0  0
  -21.3666   -5.6822   24.9199 C   0  0  0  0  0  0
  -21.6012   -4.3085   24.7258 C   0  0  0  0  0  0
  -21.8819   -3.8170   23.4393 C   0  0  0  0  0  0
  -21.9198   -4.6983   22.3436 C   0  0  0  0  0  0
  -22.7865  -13.5272   21.1863 C   0  0  0  0  0  0
  -22.1660   -4.2184   21.1010 F   0  0  0  0  0  0
  -21.5574   -3.4549   25.7762 F   0  0  0  0  0  0
  -29.9800  -13.5612   20.4008 N   0  0  0  0  0  0
  -26.2938  -12.9418   20.3265 N   0  0  0  0  0  0
  -25.9325  -11.6561   20.5767 N   0  0  0  0  0  0
  -22.0492  -12.8265   22.0404 N   0  0  0  0  0  0
  -25.4382  -15.1913   20.4191 N   0  0  0  0  0  0
  -31.8076  -14.8578   20.1237 O   0  0  0  0  0  0
  -21.6614   -6.8886   21.4256 O   0  0  0  0  0  0
  -22.3577  -14.5582   20.6691 O   0  0  0  0  0  0
  -24.6361  -31.8511   23.1937 C   0  0  0  0  0  0
  -25.9177  -32.4725   23.8262 C   0  0  1  0  0  0
  -27.1920  -27.2128   20.1111 C   0  0  0  0  0  0
  -25.5959  -33.8509   24.2186 N   0  0  0  0  0  0
  -23.4329  -30.4739   21.5397 C   0  0  2  0  0  0
  -24.8702  -28.9084   20.1106 C   0  0  0  0  0  0
  -22.7479  -29.4589   22.4884 C   0  0  0  0  0  0
  -18.0257  -28.1423   22.8459 C   0  0  0  0  0  0
  -24.1498  -36.7278   23.2637 C   0  0  0  0  0  0
  -25.9845  -30.7425   21.3841 C   0  0  0  0  0  0
  -26.0480  -29.3615   20.7209 C   0  0  0  0  0  0
  -27.2168  -28.5257   20.7028 C   0  0  0  0  0  0
  -25.9912  -26.8289   19.4873 C   0  0  0  0  0  0
  -24.8466  -27.6515   19.4856 C   0  0  0  0  0  0
  -23.6516  -29.8120   20.1545 C   0  0  0  0  0  0
  -25.4134  -36.3042   24.0301 C   0  0  1  0  0  0
  -20.5852  -28.3744   23.1249 C   0  0  2  0  0  0
  -20.6759  -26.9474   22.5397 C   0  0  0  0  0  0
  -19.5764  -26.6433   21.5197 C   0  0  0  0  0  0
  -18.1938  -26.7958   22.1599 C   0  0  0  0  0  0
  -19.1518  -28.8884   23.2853 C   0  0  0  0  0  0
  -18.9457  -30.1482   23.8896 C   0  0  0  0  0  0
  -17.6453  -30.6617   24.0579 C   0  0  0  0  0  0
  -25.9088  -34.9410   23.5052 C   0  0  0  0  0  0
  -16.5350  -29.9129   23.6307 C   0  0  0  0  0  0
  -16.7240  -28.6518   23.0370 C   0  0  0  0  0  0
  -26.4530  -31.6559   25.0660 C   0  0  0  0  0  0
  -25.3731  -31.3721   26.1367 C   0  0  0  0  0  0
  -27.0389  -30.2952   24.6188 C   0  0  0  0  0  0
  -27.6074  -32.4323   25.7456 C   0  0  0  0  0  0
  -27.5576  -37.1798   24.8458 C   0  0  0  0  0  0
  -21.4168  -29.3096   22.3642 N   0  0  0  0  0  0
  -26.4290  -37.3769   23.9394 N   0  0  0  0  0  0
  -24.7041  -31.0413   22.0953 N   0  0  0  0  0  0
  -23.4140  -28.8123   23.3002 O   0  0  0  0  0  0
  -28.2797  -26.3049   20.0675 O   0  0  0  0  0  0
  -26.5684  -34.8925   22.4626 O   0  0  0  0  0  0
  -23.5501  -32.1357   23.7219 O   0  0  0  0  0  0
  -29.2653  -18.6130   20.5221 C   0  0  0  0  0  0
  -27.2116  -19.2724   21.0309 C   0  0  0  0  0  0
  -28.6405  -20.8493   20.3816 C   0  0  0  0  0  0
  -28.4772  -23.7260   18.2162 C   0  0  0  0  0  0
  -30.3017  -17.4054   20.3869 C   0  0  0  0  0  0
  -28.1573  -24.8716   20.5680 C   0  0  0  0  0  0
  -28.1380  -23.4624   19.7016 C   0  0  2  0  0  0
  -28.0541  -18.2570   20.9328 N   0  0  0  0  0  0
  -29.6219  -19.9113   20.2448 N   0  0  0  0  0  0
  -27.4046  -20.5642   20.7738 N   0  0  0  0  0  0
  -25.9590  -18.9100   21.4261 N   0  0  0  0  0  0
  -28.9561  -22.2497   20.1850 N   0  0  0  0  0  0
  -29.8747  -15.9479   20.6122 N   0  0  0  0  0  0
  -31.4665  -12.5833   19.1974 H   0  0  0  0  0  0
  -30.3544  -11.5081   20.0026 H   0  0  0  0  0  0
  -29.8102  -11.7396   17.5347 H   0  0  0  0  0  0
  -29.6087  -13.4642   17.7409 H   0  0  0  0  0  0
  -27.9334  -11.2542   18.9752 H   0  0  0  0  0  0
  -27.3795  -12.4311   17.8154 H   0  0  0  0  0  0
  -27.6171  -14.2392   19.4200 H   0  0  0  0  0  0
  -28.7035  -12.2577   21.4876 H   0  0  0  0  0  0
  -28.3892  -13.9581   21.7391 H   0  0  0  0  0  0
  -25.2734   -9.5699   22.4788 H   0  0  0  0  0  0
  -24.0008   -7.4652   22.7462 H   0  0  0  0  0  0
  -21.0838   -8.8797   19.8953 H   0  0  0  0  0  0
  -22.3696  -10.9684   19.6201 H   0  0  0  0  0  0
  -21.2027   -7.6181   23.9774 H   0  0  0  0  0  0
  -21.1463   -6.0537   25.9108 H   0  0  0  0  0  0
  -22.0574   -2.7639   23.2892 H   0  0  0  0  0  0
  -22.4088  -11.9877   22.4747 H   0  0  0  0  0  0
  -21.1154  -13.1362   22.2641 H   0  0  0  0  0  0
  -24.6807  -15.8601   20.4878 H   0  0  0  0  0  0
  -26.3117  -15.6144   20.1286 H   0  0  0  0  0  0
  -26.7216  -32.5321   23.0973 H   0  0  0  0  0  0
  -25.0091  -33.9636   25.0315 H   0  0  0  0  0  0
  -22.7335  -31.2995   21.3903 H   0  0  0  0  0  0
  -23.3765  -35.9612   23.3312 H   0  0  0  0  0  0
  -24.3582  -36.8901   22.2052 H   0  0  0  0  0  0
  -23.7272  -37.6467   23.6685 H   0  0  0  0  0  0
  -26.1378  -31.5056   20.6216 H   0  0  0  0  0  0
  -26.8624  -30.7824   22.0186 H   0  0  0  0  0  0
  -28.1284  -28.8627   21.1765 H   0  0  0  0  0  0
  -25.9342  -25.8709   18.9871 H   0  0  0  0  0  0
  -23.9434  -27.3051   19.0015 H   0  0  0  0  0  0
  -23.7961  -30.5947   19.4098 H   0  0  0  0  0  0
  -22.7655  -29.2593   19.8359 H   0  0  0  0  0  0
  -25.1325  -36.1866   25.0796 H   0  0  0  0  0  0
  -20.9911  -28.3378   24.1395 H   0  0  0  0  0  0
  -20.5683  -26.2359   23.3585 H   0  0  0  0  0  0
  -21.6616  -26.7536   22.1159 H   0  0  0  0  0  0
  -19.6967  -25.6342   21.1252 H   0  0  0  0  0  0
  -19.6742  -27.3225   20.6726 H   0  0  0  0  0  0
  -17.4205  -26.6663   21.4023 H   0  0  0  0  0  0
  -18.0403  -26.0102   22.9010 H   0  0  0  0  0  0
  -19.7934  -30.7234   24.2298 H   0  0  0  0  0  0
  -17.5029  -31.6300   24.5175 H   0  0  0  0  0  0
  -15.5364  -30.3036   23.7623 H   0  0  0  0  0  0
  -15.8636  -28.0812   22.7107 H   0  0  0  0  0  0
  -24.5926  -30.7068   25.7660 H   0  0  0  0  0  0
  -24.8917  -32.2897   26.4742 H   0  0  0  0  0  0
  -25.8026  -30.8898   27.0153 H   0  0  0  0  0  0
  -26.2950  -29.6684   24.1257 H   0  0  0  0  0  0
  -27.4078  -29.7231   25.4701 H   0  0  0  0  0  0
  -27.8837  -30.4178   23.9425 H   0  0  0  0  0  0
  -27.2655  -33.3631   26.2009 H   0  0  0  0  0  0
  -28.3920  -32.6890   25.0319 H   0  0  0  0  0  0
  -28.0733  -31.8468   26.5395 H   0  0  0  0  0  0
  -28.2599  -38.0099   24.7512 H   0  0  0  0  0  0
  -28.1079  -36.2612   24.6290 H   0  0  0  0  0  0
  -27.2289  -37.1456   25.8868 H   0  0  0  0  0  0
  -20.9330  -29.8810   21.6852 H   0  0  0  0  0  0
  -26.0153  -38.2826   24.1423 H   0  0  0  0  0  0
  -28.3549  -22.8198   17.6209 H   0  0  0  0  0  0
  -29.5092  -24.0638   18.0866 H   0  0  0  0  0  0
  -27.8287  -24.4841   17.7662 H   0  0  0  0  0  0
  -30.7226  -17.4650   19.3806 H   0  0  0  0  0  0
  -31.1323  -17.6270   21.0626 H   0  0  0  0  0  0
  -29.0130  -24.7809   21.2329 H   0  0  0  0  0  0
  -27.3060  -24.8436   21.2489 H   0  0  0  0  0  0
  -27.0979  -23.1267   19.7078 H   0  0  0  0  0  0
  -25.3551  -19.6380   21.7856 H   0  0  0  0  0  0
  -25.8635  -18.0121   21.8822 H   0  0  0  0  0  0
  -29.9381  -22.3544   19.9683 H   0  0  0  0  0  0
  -28.8987  -15.8543   20.8492 H   0  0  0  0  0  0
  1 25  1  0  0  0
  1 30  2  0  0  0
  1 83  1  0  0  0
  2  3  1  0  0  0
  2 25  1  0  0  0
  2 84  1  0  0  0
  2 85  1  0  0  0
  3  4  1  0  0  0
  3 86  1  0  0  0
  3 87  1  0  0  0
  4  5  1  0  0  0
  4 88  1  0  0  0
  4 89  1  0  0  0
  5  6  1  0  0  0
  5 26  1  0  0  0
  5 90  1  0  0  0
  6 25  1  0  0  0
  6 91  1  0  0  0
  6 92  1  0  0  0
  7  8  2  0  0  0
  7 26  1  0  0  0
  7 29  1  0  0  0
  8  9  1  0  0  0
  8 22  1  0  0  0
  9 10  1  0  0  0
  9 27  2  0  0  0
 10 11  2  0  0  0
 10 15  1  0  0  0
 11 12  1  0  0  0
 11 93  1  0  0  0
 12 13  2  0  0  0
 12 94  1  0  0  0
 13 14  1  0  0  0
 13 31  1  0  0  0
 14 15  2  0  0  0
 14 95  1  0  0  0
 15 96  1  0  0  0
 16 17  2  0  0  0
 16 21  1  0  0  0
 16 31  1  0  0  0
 17 18  1  0  0  0
 17 97  1  0  0  0
 18 19  2  0  0  0
 18 98  1  0  0  0
 19 20  1  0  0  0
 19 24  1  0  0  0
 20 21  2  0  0  0
 20 99  1  0  0  0
 21 23  1  0  0  0
 22 28  1  0  0  0
 22 32  2  0  0  0
 26 27  1  0  0  0
 28100  1  0  0  0
 28101  1  0  0  0
 29102  1  0  0  0
 29103  1  0  0  0
 33 34  1  0  0  0
 33 66  1  0  0  0
 33 70  2  0  0  0
 34 36  1  0  0  0
 34 59  1  0  0  0
 34104  1  0  0  0
 35 44  2  0  0  0
 35 45  1  0  0  0
 35 68  1  0  0  0
 36 56  1  0  0  0
 36105  1  0  0  0
 37 39  1  0  0  0
 37 47  1  0  0  0
 37 66  1  0  0  0
 37106  1  0  0  0
 38 43  2  0  0  0
 38 46  1  0  0  0
 38 47  1  0  0  0
 39 64  1  0  0  0
 39 67  2  0  0  0
 40 52  1  0  0  0
 40 53  2  0  0  0
 40 58  1  0  0  0
 41107  1  0  0  0
 41108  1  0  0  0
 41109  1  0  0  0
 41 48  1  0  0  0
 42 43  1  0  0  0
 42 66  1  0  0  0
 42110  1  0  0  0
 42111  1  0  0  0
 43 44  1  0  0  0
 44112  1  0  0  0
 45 46  2  0  0  0
 45113  1  0  0  0
 46114  1  0  0  0
 47115  1  0  0  0
 47116  1  0  0  0
 48 56  1  0  0  0
 48 65  1  0  0  0
 48117  1  0  0  0
 49 50  1  0  0  0
 49 53  1  0  0  0
 49 64  1  0  0  0
 49118  1  0  0  0
 50 51  1  0  0  0
 50119  1  0  0  0
 50120  1  0  0  0
 51 52  1  0  0  0
 51121  1  0  0  0
 51122  1  0  0  0
 52123  1  0  0  0
 52124  1  0  0  0
 53 54  1  0  0  0
 54 55  2  0  0  0
 54125  1  0  0  0
 55 57  1  0  0  0
 55126  1  0  0  0
 56 69  2  0  0  0
 57 58  2  0  0  0
 57127  1  0  0  0
 58128  1  0  0  0
 59 60  1  0  0  0
 59 61  1  0  0  0
 59 62  1  0  0  0
 60129  1  0  0  0
 60130  1  0  0  0
 60131  1  0  0  0
 61132  1  0  0  0
 61133  1  0  0  0
 61134  1  0  0  0
 62135  1  0  0  0
 62136  1  0  0  0
 62137  1  0  0  0
 63 65  1  0  0  0
 63138  1  0  0  0
 63139  1  0  0  0
 63140  1  0  0  0
 64141  1  0  0  0
 65142  1  0  0  0
 68 76  1  0  0  0
 71 75  1  0  0  0
 71 78  1  0  0  0
 71 79  2  0  0  0
 72 78  2  0  0  0
 72 80  1  0  0  0
 72 81  1  0  0  0
 73 79  1  0  0  0
 73 80  2  0  0  0
 73 82  1  0  0  0
 74143  1  0  0  0
 74144  1  0  0  0
 74145  1  0  0  0
 74 77  1  0  0  0
 75 83  1  0  0  0
 75146  1  0  0  0
 75147  1  0  0  0
 76 77  1  0  0  0
 76148  1  0  0  0
 76149  1  0  0  0
 77 82  1  0  0  0
 77150  1  0  0  0
 81151  1  0  0  0
 81152  1  0  0  0
 82153  1  0  0  0
 83154  1  0  0  0
M  ISO  4   1 100  68 101  76 101  83 100
M  END
> <chiral flag>
0

> <version>
0

> <s_m_source_file>
/data/baiqing/PycharmProjects/Reinvent-master-3.2/result/LINK_invent/BTK/process_docking_weight1_custom_product_contain_oxygen_bond_distance_aromatic_linkinvent_7_9_3/rearranged_h_0192.sdf

> <i_m_source_file_index>
5

> <r_mmod_Potential_Energy-OPLS-2005>
-887.424560546875

> <r_mmod_Stretch_Energy-OPLS-2005>
139.992568969727

> <r_mmod_Bend_Energy-OPLS-2005>
198.147796630859

> <r_mmod_Torsional_Energy-OPLS-2005>
234.474914550781

> <r_mmod_Improper_Torsional_Energy-OPLS-2005>
9.71615505218506

> <r_mmod_Van_der_Waal_Energy-OPLS-2005>
143.857513427734

> <r_mmod_Electrostatic_Energy-OPLS-2005>
-1484.69543457031

> <r_mmod_Solvation_Energy-OPLS-2005>
-239.072204589844

> <b_mmod_Minimization_Converged-OPLS-2005>
0

> <r_mmod_RMS_Derivative-OPLS-2005>
6.60506629943848

$$$$
5
                    3D
 Structure written by MMmdl.
152160  0  0  1  0            999 V2000
  -30.6712  -14.5388   20.5146 C   0  0  0  0  0  0
  -30.4183  -12.3283   19.4483 C   0  0  0  0  0  0
  -29.4973  -12.4891   18.2200 C   0  0  0  0  0  0
  -28.0188  -12.3417   18.6322 C   0  0  0  0  0  0
  -27.6519  -13.2106   19.8657 C   0  0  2  0  0  0
  -28.6935  -13.0465   20.9963 C   0  0  0  0  0  0
  -25.2549  -13.8183   20.5681 C   0  0  0  0  0  0
  -24.1810  -13.0443   20.9193 C   0  0  0  0  0  0
  -24.6370  -11.6918   20.8738 C   0  0  0  0  0  0
  -23.9044  -10.4293   21.0404 C   0  0  0  0  0  0
  -24.3604   -9.4203   21.9175 C   0  0  0  0  0  0
  -23.6282   -8.2240   22.0744 C   0  0  0  0  0  0
  -22.4262   -8.0271   21.3542 C   0  0  0  0  0  0
  -21.9893   -9.0242   20.4644 C   0  0  0  0  0  0
  -22.7222  -10.2122   20.3050 C   0  0  0  0  0  0
  -21.6847   -6.0720   22.5279 C   0  0  0  0  0  0
  -21.4019   -6.5631   23.8210 C   0  0  0  0  0  0
  -21.3662   -5.6789   24.9177 C   0  0  0  0  0  0
  -21.6041   -4.3048   24.7231 C   0  0  0  0  0  0
  -21.8828   -3.8134   23.4355 C   0  0  0  0  0  0
  -21.9197   -4.6949   22.3408 C   0  0  0  0  0  0
  -22.7835  -13.5230   21.1865 C   0  0  0  0  0  0
  -22.1659   -4.2130   21.0985 F   0  0  0  0  0  0
  -21.5632   -3.4538   25.7750 F   0  0  0  0  0  0
  -30.0156  -13.3482   20.4322 N   0  0  0  0  0  0
  -26.2961  -12.9343   20.3343 N   0  0  0  0  0  0
  -25.9291  -11.6498   20.5768 N   0  0  0  0  0  0
  -22.0490  -12.8198   22.0426 N   0  0  0  0  0  0
  -25.4270  -15.1902   20.4091 N   0  0  0  0  0  0
  -31.8343  -14.6711   20.1241 O   0  0  0  0  0  0
  -21.6639   -6.8858   21.4236 O   0  0  0  0  0  0
  -22.3513  -14.5539   20.6719 O   0  0  0  0  0  0
  -24.6169  -31.8639   23.2060 C   0  0  0  0  0  0
  -25.9053  -32.4789   23.8371 C   0  0  1  0  0  0
  -27.2338  -27.3787   20.1046 C   0  0  0  0  0  0
  -25.5894  -33.8592   24.2301 N   0  0  0  0  0  0
  -23.4083  -30.4867   21.5453 C   0  0  2  0  0  0
  -24.8570  -28.9444   20.1084 C   0  0  0  0  0  0
  -22.7411  -29.4654   22.4943 C   0  0  0  0  0  0
  -18.0277  -28.1382   22.8503 C   0  0  0  0  0  0
  -24.1487  -36.7306   23.2641 C   0  0  0  0  0  0
  -25.9422  -30.8092   21.3710 C   0  0  0  0  0  0
  -26.0172  -29.4407   20.7139 C   0  0  0  0  0  0
  -27.2036  -28.6640   20.7094 C   0  0  0  0  0  0
  -26.0510  -26.9093   19.4882 C   0  0  0  0  0  0
  -24.8731  -27.6829   19.4889 C   0  0  0  0  0  0
  -23.6195  -29.8158   20.1599 C   0  0  0  0  0  0
  -25.4110  -36.3098   24.0332 C   0  0  1  0  0  0
  -20.5865  -28.3699   23.1296 C   0  0  2  0  0  0
  -20.6769  -26.9416   22.5458 C   0  0  0  0  0  0
  -19.5745  -26.6353   21.5279 C   0  0  0  0  0  0
  -18.1919  -26.7913   22.1673 C   0  0  0  0  0  0
  -19.1525  -28.8868   23.2881 C   0  0  0  0  0  0
  -18.9443  -30.1474   23.8882 C   0  0  0  0  0  0
  -17.6438  -30.6600   24.0547 C   0  0  0  0  0  0
  -25.9043  -34.9461   23.5119 C   0  0  0  0  0  0
  -16.5336  -29.9088   23.6332 C   0  0  0  0  0  0
  -16.7266  -28.6494   23.0369 C   0  0  0  0  0  0
  -26.4471  -31.6597   25.0723 C   0  0  0  0  0  0
  -25.3720  -31.3718   26.1460 C   0  0  0  0  0  0
  -27.0313  -30.3026   24.6163 C   0  0  0  0  0  0
  -27.6041  -32.4327   25.7474 C   0  0  0  0  0  0
  -27.5580  -37.1810   24.8463 C   0  0  0  0  0  0
  -21.4134  -29.3045   22.3670 N   0  0  0  0  0  0
  -26.4299  -37.3781   23.9396 N   0  0  0  0  0  0
  -24.6733  -31.0696   22.0980 N   0  0  0  0  0  0
  -23.4162  -28.8217   23.3019 O   0  0  0  0  0  0
  -28.4027  -26.6281   20.1659 O   0  0  0  0  0  0
  -26.5611  -34.8915   22.4686 O   0  0  0  0  0  0
  -23.5347  -32.1422   23.7427 O   0  0  0  0  0  0
  -28.3063  -18.2211   21.5655 C   0  0  0  0  0  0
  -29.4662  -18.1899   20.8284 C   0  0  0  0  0  0
  -28.9551  -20.4533   20.7042 C   0  0  0  0  0  0
  -30.4024  -17.0112   20.5533 C   0  0  0  0  0  0
  -28.7286  -23.0848   21.0438 C   0  0  0  0  0  0
  -28.5191  -25.3266   19.5277 C   0  0  0  0  0  0
  -27.8391  -24.0810   20.2139 C   0  0  1  0  0  0
  -29.7918  -19.4739   20.3234 N   0  0  0  0  0  0
  -29.1098  -21.8133   20.3708 N   0  0  0  0  0  0
  -29.9286  -15.6302   20.8206 N   0  0  0  0  0  0
  -27.2618  -23.2406   19.2380 O   0  0  0  0  0  0
  -27.6474  -19.8424   21.7122 S   0  0  0  0  0  0
  -31.4653  -12.4165   19.1526 H   0  0  0  0  0  0
  -30.3118  -11.3317   19.8808 H   0  0  0  0  0  0
  -29.7486  -11.7495   17.4589 H   0  0  0  0  0  0
  -29.6586  -13.4666   17.7619 H   0  0  0  0  0  0
  -27.8461  -11.2887   18.8591 H   0  0  0  0  0  0
  -27.3655  -12.5790   17.7915 H   0  0  0  0  0  0
  -27.6792  -14.2476   19.5321 H   0  0  0  0  0  0
  -28.6803  -12.0270   21.3857 H   0  0  0  0  0  0
  -28.4592  -13.6940   21.8424 H   0  0  0  0  0  0
  -25.2752   -9.5684   22.4738 H   0  0  0  0  0  0
  -23.9993   -7.4639   22.7459 H   0  0  0  0  0  0
  -21.0827   -8.8760   19.8954 H   0  0  0  0  0  0
  -22.3677  -10.9652   19.6157 H   0  0  0  0  0  0
  -21.2009   -7.6138   23.9712 H   0  0  0  0  0  0
  -21.1476   -6.0517   25.9082 H   0  0  0  0  0  0
  -22.0604   -2.7591   23.2872 H   0  0  0  0  0  0
  -22.4101  -11.9845   22.4779 H   0  0  0  0  0  0
  -21.1120  -13.1224   22.2677 H   0  0  0  0  0  0
  -24.6553  -15.8418   20.4992 H   0  0  0  0  0  0
  -26.2719  -15.6261   20.0627 H   0  0  0  0  0  0
  -26.7108  -32.5490   23.1116 H   0  0  0  0  0  0
  -25.0023  -33.9753   25.0432 H   0  0  0  0  0  0
  -22.7008  -31.3065   21.4030 H   0  0  0  0  0  0
  -23.3748  -35.9643   23.3315 H   0  0  0  0  0  0
  -24.3585  -36.8919   22.2057 H   0  0  0  0  0  0
  -23.7251  -37.6516   23.6653 H   0  0  0  0  0  0
  -26.0705  -31.5763   20.6061 H   0  0  0  0  0  0
  -26.8241  -30.8557   21.9985 H   0  0  0  0  0  0
  -28.0979  -29.0384   21.1880 H   0  0  0  0  0  0
  -26.0136  -25.9400   19.0139 H   0  0  0  0  0  0
  -23.9819  -27.2996   19.0122 H   0  0  0  0  0  0
  -23.7221  -30.5885   19.3971 H   0  0  0  0  0  0
  -22.7430  -29.2330   19.8690 H   0  0  0  0  0  0
  -25.1298  -36.1970   25.0827 H   0  0  0  0  0  0
  -20.9970  -28.3304   24.1421 H   0  0  0  0  0  0
  -20.5696  -26.2333   23.3688 H   0  0  0  0  0  0
  -21.6631  -26.7441   22.1243 H   0  0  0  0  0  0
  -19.6913  -25.6245   21.1358 H   0  0  0  0  0  0
  -19.6698  -27.3138   20.6778 H   0  0  0  0  0  0
  -17.4184  -26.6601   21.4083 H   0  0  0  0  0  0
  -18.0337  -26.0090   22.9114 H   0  0  0  0  0  0
  -19.7918  -30.7319   24.2208 H   0  0  0  0  0  0
  -17.4971  -31.6298   24.5108 H   0  0  0  0  0  0
  -15.5323  -30.2969   23.7629 H   0  0  0  0  0  0
  -15.8673  -28.0792   22.7101 H   0  0  0  0  0  0
  -24.5895  -30.7071   25.7784 H   0  0  0  0  0  0
  -24.8905  -32.2870   26.4900 H   0  0  0  0  0  0
  -25.8052  -30.8882   27.0225 H   0  0  0  0  0  0
  -26.2874  -29.6763   24.1224 H   0  0  0  0  0  0
  -27.4058  -29.7298   25.4663 H   0  0  0  0  0  0
  -27.8718  -30.4313   23.9340 H   0  0  0  0  0  0
  -27.2662  -33.3616   26.2071 H   0  0  0  0  0  0
  -28.3821  -32.6913   25.0283 H   0  0  0  0  0  0
  -28.0740  -31.8454   26.5374 H   0  0  0  0  0  0
  -28.2611  -38.0095   24.7504 H   0  0  0  0  0  0
  -28.1068  -36.2634   24.6302 H   0  0  0  0  0  0
  -27.2296  -37.1469   25.8866 H   0  0  0  0  0  0
  -20.9301  -29.8734   21.6859 H   0  0  0  0  0  0
  -26.0195  -38.2864   24.1389 H   0  0  0  0  0  0
  -27.8097  -17.4000   22.0657 H   0  0  0  0  0  0
  -31.3212  -17.1621   21.1224 H   0  0  0  0  0  0
  -30.7072  -17.0477   19.5052 H   0  0  0  0  0  0
  -28.1819  -22.8167   21.9499 H   0  0  0  0  0  0
  -29.6274  -23.5931   21.3966 H   0  0  0  0  0  0
  -28.1680  -25.4342   18.5011 H   0  0  0  0  0  0
  -29.5831  -25.1135   19.4166 H   0  0  0  0  0  0
  -27.0337  -24.4505   20.8515 H   0  0  0  0  0  0
  -29.9292  -21.9398   19.7832 H   0  0  0  0  0  0
  -28.9662  -15.4983   21.0898 H   0  0  0  0  0  0
  -27.8104  -22.4533   19.3038 H   0  0  0  0  0  0
  1 25  1  0  0  0
  1 30  2  0  0  0
  1 80  1  0  0  0
  2  3  1  0  0  0
  2 25  1  0  0  0
  2 83  1  0  0  0
  2 84  1  0  0  0
  3  4  1  0  0  0
  3 85  1  0  0  0
  3 86  1  0  0  0
  4  5  1  0  0  0
  4 87  1  0  0  0
  4 88  1  0  0  0
  5  6  1  0  0  0
  5 26  1  0  0  0
  5 89  1  0  0  0
  6 25  1  0  0  0
  6 90  1  0  0  0
  6 91  1  0  0  0
  7  8  2  0  0  0
  7 26  1  0  0  0
  7 29  1  0  0  0
  8  9  1  0  0  0
  8 22  1  0  0  0
  9 10  1  0  0  0
  9 27  2  0  0  0
 10 11  2  0  0  0
 10 15  1  0  0  0
 11 12  1  0  0  0
 11 92  1  0  0  0
 12 13  2  0  0  0
 12 93  1  0  0  0
 13 14  1  0  0  0
 13 31  1  0  0  0
 14 15  2  0  0  0
 14 94  1  0  0  0
 15 95  1  0  0  0
 16 17  2  0  0  0
 16 21  1  0  0  0
 16 31  1  0  0  0
 17 18  1  0  0  0
 17 96  1  0  0  0
 18 19  2  0  0  0
 18 97  1  0  0  0
 19 20  1  0  0  0
 19 24  1  0  0  0
 20 21  2  0  0  0
 20 98  1  0  0  0
 21 23  1  0  0  0
 22 28  1  0  0  0
 22 32  2  0  0  0
 26 27  1  0  0  0
 28 99  1  0  0  0
 28100  1  0  0  0
 29101  1  0  0  0
 29102  1  0  0  0
 33 34  1  0  0  0
 33 66  1  0  0  0
 33 70  2  0  0  0
 34 36  1  0  0  0
 34 59  1  0  0  0
 34103  1  0  0  0
 35 44  2  0  0  0
 35 45  1  0  0  0
 35 68  1  0  0  0
 36 56  1  0  0  0
 36104  1  0  0  0
 37 39  1  0  0  0
 37 47  1  0  0  0
 37 66  1  0  0  0
 37105  1  0  0  0
 38 43  2  0  0  0
 38 46  1  0  0  0
 38 47  1  0  0  0
 39 64  1  0  0  0
 39 67  2  0  0  0
 40 52  1  0  0  0
 40 53  2  0  0  0
 40 58  1  0  0  0
 41106  1  0  0  0
 41107  1  0  0  0
 41108  1  0  0  0
 41 48  1  0  0  0
 42 43  1  0  0  0
 42 66  1  0  0  0
 42109  1  0  0  0
 42110  1  0  0  0
 43 44  1  0  0  0
 44111  1  0  0  0
 45 46  2  0  0  0
 45112  1  0  0  0
 46113  1  0  0  0
 47114  1  0  0  0
 47115  1  0  0  0
 48 56  1  0  0  0
 48 65  1  0  0  0
 48116  1  0  0  0
 49 50  1  0  0  0
 49 53  1  0  0  0
 49 64  1  0  0  0
 49117  1  0  0  0
 50 51  1  0  0  0
 50118  1  0  0  0
 50119  1  0  0  0
 51 52  1  0  0  0
 51120  1  0  0  0
 51121  1  0  0  0
 52122  1  0  0  0
 52123  1  0  0  0
 53 54  1  0  0  0
 54 55  2  0  0  0
 54124  1  0  0  0
 55 57  1  0  0  0
 55125  1  0  0  0
 56 69  2  0  0  0
 57 58  2  0  0  0
 57126  1  0  0  0
 58127  1  0  0  0
 59 60  1  0  0  0
 59 61  1  0  0  0
 59 62  1  0  0  0
 60128  1  0  0  0
 60129  1  0  0  0
 60130  1  0  0  0
 61131  1  0  0  0
 61132  1  0  0  0
 61133  1  0  0  0
 62134  1  0  0  0
 62135  1  0  0  0
 62136  1  0  0  0
 63 65  1  0  0  0
 63137  1  0  0  0
 63138  1  0  0  0
 63139  1  0  0  0
 64140  1  0  0  0
 65141  1  0  0  0
 68 76  1  0  0  0
 71 72  2  0  0  0
 71 82  1  0  0  0
 71142  1  0  0  0
 72 74  1  0  0  0
 72 78  1  0  0  0
 73 78  2  0  0  0
 73 79  1  0  0  0
 73 82  1  0  0  0
 74 80  1  0  0  0
 74143  1  0  0  0
 74144  1  0  0  0
 75 77  1  0  0  0
 75 79  1  0  0  0
 75145  1  0  0  0
 75146  1  0  0  0
 76 77  1  0  0  0
 76147  1  0  0  0
 76148  1  0  0  0
 77 81  1  0  0  0
 77149  1  0  0  0
 79150  1  0  0  0
 80151  1  0  0  0
 81152  1  0  0  0
M  ISO  4   1 100  68 101  76 101  80 100
M  END
> <chiral flag>
0

> <version>
0

> <s_m_source_file>
/data/baiqing/PycharmProjects/Reinvent-master-3.2/result/LINK_invent/BTK/process_docking_weight1_custom_product_contain_oxygen_bond_distance_aromatic_linkinvent_7_9_3/rearranged_h_0192.sdf

> <i_m_source_file_index>
6

> <r_mmod_Potential_Energy-OPLS-2005>
-256.595001220703

> <r_mmod_Stretch_Energy-OPLS-2005>
48.977783203125

> <r_mmod_Bend_Energy-OPLS-2005>
123.672454833984

> <r_mmod_Torsional_Energy-OPLS-2005>
239.216522216797

> <r_mmod_Improper_Torsional_Energy-OPLS-2005>
7.51880645751953

> <r_mmod_Van_der_Waal_Energy-OPLS-2005>
133.392349243164

> <r_mmod_Electrostatic_Energy-OPLS-2005>
-595.460571289062

> <r_mmod_Solvation_Energy-OPLS-2005>
-239.425247192383

> <b_mmod_Minimization_Converged-OPLS-2005>
0

> <r_mmod_RMS_Derivative-OPLS-2005>
2.39066386222839

$$$$
6
                    3D
 Structure written by MMmdl.
161169  0  0  1  0            999 V2000
  -30.4895  -14.9676   20.4349 C   0  0  0  0  0  0
  -30.4566  -12.6035   19.5118 C   0  0  0  0  0  0
  -29.5396  -12.5398   18.2656 C   0  0  0  0  0  0
  -28.0691  -12.3137   18.6715 C   0  0  0  0  0  0
  -27.6298  -13.2443   19.8324 C   0  0  2  0  0  0
  -28.6613  -13.2543   20.9786 C   0  0  0  0  0  0
  -25.2455  -13.8223   20.5691 C   0  0  0  0  0  0
  -24.1767  -13.0439   20.9200 C   0  0  0  0  0  0
  -24.6393  -11.6922   20.8728 C   0  0  0  0  0  0
  -23.9099  -10.4285   21.0413 C   0  0  0  0  0  0
  -24.3629   -9.4200   21.9197 C   0  0  0  0  0  0
  -23.6301   -8.2246   22.0776 C   0  0  0  0  0  0
  -22.4279   -8.0294   21.3561 C   0  0  0  0  0  0
  -21.9921   -9.0278   20.4658 C   0  0  0  0  0  0
  -22.7281  -10.2134   20.3066 C   0  0  0  0  0  0
  -21.6837   -6.0741   22.5280 C   0  0  0  0  0  0
  -21.4020   -6.5632   23.8225 C   0  0  0  0  0  0
  -21.3668   -5.6774   24.9177 C   0  0  0  0  0  0
  -21.6046   -4.3035   24.7212 C   0  0  0  0  0  0
  -21.8811   -3.8140   23.4325 C   0  0  0  0  0  0
  -21.9182   -4.6967   22.3391 C   0  0  0  0  0  0
  -22.7787  -13.5219   21.1832 C   0  0  0  0  0  0
  -22.1648   -4.2181   21.0963 F   0  0  0  0  0  0
  -21.5629   -3.4506   25.7705 F   0  0  0  0  0  0
  -29.9435  -13.6821   20.3987 N   0  0  0  0  0  0
  -26.2843  -12.9446   20.3092 N   0  0  0  0  0  0
  -25.9297  -11.6584   20.5621 N   0  0  0  0  0  0
  -22.0387  -12.8257   22.0390 N   0  0  0  0  0  0
  -25.4099  -15.1974   20.4235 N   0  0  0  0  0  0
  -31.6888  -15.0761   20.1417 O   0  0  0  0  0  0
  -21.6625   -6.8902   21.4264 O   0  0  0  0  0  0
  -22.3487  -14.5536   20.6657 O   0  0  0  0  0  0
  -24.6427  -31.8465   23.1922 C   0  0  0  0  0  0
  -25.9171  -32.4722   23.8334 C   0  0  1  0  0  0
  -27.1952  -27.1539   20.1522 C   0  0  0  0  0  0
  -25.5901  -33.8535   24.2249 N   0  0  0  0  0  0
  -23.4453  -30.4701   21.5364 C   0  0  2  0  0  0
  -24.8914  -28.9096   20.1005 C   0  0  0  0  0  0
  -22.7610  -29.4533   22.4873 C   0  0  0  0  0  0
  -18.0300  -28.1353   22.8496 C   0  0  0  0  0  0
  -24.1476  -36.7308   23.2646 C   0  0  0  0  0  0
  -26.0003  -30.7327   21.3816 C   0  0  0  0  0  0
  -26.0664  -29.3440   20.7277 C   0  0  0  0  0  0
  -27.2231  -28.4812   20.7348 C   0  0  0  0  0  0
  -25.9992  -26.8236   19.4781 C   0  0  0  0  0  0
  -24.8739  -27.6689   19.4524 C   0  0  0  0  0  0
  -23.6675  -29.8079   20.1505 C   0  0  0  0  0  0
  -25.4093  -36.3090   24.0348 C   0  0  1  0  0  0
  -20.5921  -28.3676   23.1239 C   0  0  2  0  0  0
  -20.6737  -26.9376   22.5398 C   0  0  0  0  0  0
  -19.5689  -26.6365   21.5206 C   0  0  0  0  0  0
  -18.1900  -26.7886   22.1654 C   0  0  0  0  0  0
  -19.1559  -28.8839   23.2852 C   0  0  0  0  0  0
  -18.9452  -30.1423   23.8883 C   0  0  0  0  0  0
  -17.6447  -30.6546   24.0553 C   0  0  0  0  0  0
  -25.9038  -34.9446   23.5120 C   0  0  0  0  0  0
  -16.5352  -29.9046   23.6299 C   0  0  0  0  0  0
  -16.7289  -28.6461   23.0353 C   0  0  0  0  0  0
  -26.4470  -31.6550   25.0758 C   0  0  0  0  0  0
  -25.3656  -31.3763   26.1465 C   0  0  0  0  0  0
  -27.0270  -30.2940   24.6267 C   0  0  0  0  0  0
  -27.6036  -32.4281   25.7516 C   0  0  0  0  0  0
  -27.5599  -37.1807   24.8477 C   0  0  0  0  0  0
  -21.4294  -29.3038   22.3666 N   0  0  0  0  0  0
  -26.4286  -37.3780   23.9434 N   0  0  0  0  0  0
  -24.7175  -31.0369   22.0947 N   0  0  0  0  0  0
  -23.4269  -28.8053   23.2975 O   0  0  0  0  0  0
  -28.2421  -26.1682   20.2179 O   0  0  0  0  0  0
  -26.5665  -34.8948   22.4737 O   0  0  0  0  0  0
  -23.5539  -32.1319   23.7150 O   0  0  0  0  0  0
  -28.4290  -18.2157   21.2537 C   0  0  0  0  0  0
  -28.1849  -19.6373   21.2540 C   0  0  0  0  0  0
  -29.5513  -17.6050   20.5989 C   0  0  0  0  0  0
  -29.0339  -20.5350   20.5369 C   0  0  0  0  0  0
  -31.5605  -23.4508   19.7452 C   0  0  0  0  0  0
  -30.6608  -23.2637   22.1228 C   0  0  0  0  0  0
  -27.1305  -24.4134   21.6193 C   0  0  0  0  0  0
  -30.4097  -23.7927   20.7024 C   0  0  0  0  0  0
  -29.0361  -23.3917   20.1137 C   0  0  2  0  0  0
  -27.9347  -24.6468   20.3186 C   0  0  2  0  0  0
  -30.3599  -18.5511   19.9649 N   0  0  0  0  0  0
  -30.1152  -19.9268   19.9246 N   0  0  0  0  0  0
  -27.0912  -20.1788   21.9570 N   0  0  0  0  0  0
  -29.6146  -16.0666   20.6412 N   0  0  0  0  0  0
  -28.5993  -21.9533   20.5151 N   0  0  0  0  0  0
  -31.4900  -12.7847   19.2088 H   0  0  0  0  0  0
  -30.4692  -11.6518   20.0444 H   0  0  0  0  0  0
  -29.8790  -11.7537   17.5874 H   0  0  0  0  0  0
  -29.6179  -13.4762   17.7109 H   0  0  0  0  0  0
  -27.9631  -11.2705   18.9704 H   0  0  0  0  0  0
  -27.4230  -12.4455   17.8039 H   0  0  0  0  0  0
  -27.6014  -14.2514   19.4147 H   0  0  0  0  0  0
  -28.7328  -12.2687   21.4408 H   0  0  0  0  0  0
  -28.3438  -13.9309   21.7725 H   0  0  0  0  0  0
  -25.2796   -9.5656   22.4757 H   0  0  0  0  0  0
  -23.9994   -7.4633   22.7490 H   0  0  0  0  0  0
  -21.0859   -8.8830   19.8960 H   0  0  0  0  0  0
  -22.3801  -10.9675   19.6143 H   0  0  0  0  0  0
  -21.2043   -7.6137   23.9750 H   0  0  0  0  0  0
  -21.1496   -6.0480   25.9086 H   0  0  0  0  0  0
  -22.0591   -2.7607   23.2779 H   0  0  0  0  0  0
  -22.3923  -11.9954   22.4899 H   0  0  0  0  0  0
  -21.1023  -13.1392   22.2541 H   0  0  0  0  0  0
  -24.6347  -15.8369   20.5623 H   0  0  0  0  0  0
  -26.2224  -15.6478   20.0266 H   0  0  0  0  0  0
  -26.7278  -32.5323   23.1106 H   0  0  0  0  0  0
  -24.9964  -33.9636   25.0339 H   0  0  0  0  0  0
  -22.7427  -31.2938   21.3885 H   0  0  0  0  0  0
  -23.3747  -35.9629   23.3259 H   0  0  0  0  0  0
  -24.3599  -36.8984   22.2079 H   0  0  0  0  0  0
  -23.7203  -37.6497   23.6680 H   0  0  0  0  0  0
  -26.1383  -31.4820   20.5992 H   0  0  0  0  0  0
  -26.8809  -30.7984   22.0112 H   0  0  0  0  0  0
  -28.1193  -28.8084   21.2415 H   0  0  0  0  0  0
  -25.8956  -25.8814   18.9663 H   0  0  0  0  0  0
  -23.9870  -27.3447   18.9236 H   0  0  0  0  0  0
  -23.7988  -30.5844   19.3964 H   0  0  0  0  0  0
  -22.7838  -29.2470   19.8395 H   0  0  0  0  0  0
  -25.1243  -36.1973   25.0836 H   0  0  0  0  0  0
  -20.9993  -28.3237   24.1362 H   0  0  0  0  0  0
  -20.5570  -26.2312   23.3627 H   0  0  0  0  0  0
  -21.6600  -26.7329   22.1222 H   0  0  0  0  0  0
  -19.6821  -25.6276   21.1228 H   0  0  0  0  0  0
  -19.6566  -27.3181   20.6727 H   0  0  0  0  0  0
  -17.4149  -26.6671   21.4077 H   0  0  0  0  0  0
  -18.0273  -26.0012   22.9032 H   0  0  0  0  0  0
  -19.7921  -30.7249   24.2266 H   0  0  0  0  0  0
  -17.4980  -31.6215   24.5157 H   0  0  0  0  0  0
  -15.5331  -30.2935   23.7552 H   0  0  0  0  0  0
  -15.8713  -28.0750   22.7046 H   0  0  0  0  0  0
  -24.5837  -30.7072   25.7840 H   0  0  0  0  0  0
  -24.8803  -32.2938   26.4805 H   0  0  0  0  0  0
  -25.7924  -30.9040   27.0315 H   0  0  0  0  0  0
  -26.2826  -29.6734   24.1253 H   0  0  0  0  0  0
  -27.3879  -29.7169   25.4791 H   0  0  0  0  0  0
  -27.8757  -30.4194   23.9539 H   0  0  0  0  0  0
  -27.2654  -33.3621   26.2019 H   0  0  0  0  0  0
  -28.3850  -32.6760   25.0319 H   0  0  0  0  0  0
  -28.0664  -31.8436   26.5483 H   0  0  0  0  0  0
  -28.2583  -38.0138   24.7534 H   0  0  0  0  0  0
  -28.1114  -36.2664   24.6214 H   0  0  0  0  0  0
  -27.2356  -37.1387   25.8895 H   0  0  0  0  0  0
  -20.9493  -29.8895   21.6981 H   0  0  0  0  0  0
  -26.0183  -38.2887   24.1353 H   0  0  0  0  0  0
  -27.7191  -17.5846   21.7633 H   0  0  0  0  0  0
  -32.5269  -23.5349   20.2434 H   0  0  0  0  0  0
  -31.5606  -24.1503   18.9070 H   0  0  0  0  0  0
  -31.4730  -22.4440   19.3352 H   0  0  0  0  0  0
  -31.5498  -23.7148   22.5678 H   0  0  0  0  0  0
  -30.8024  -22.1837   22.1239 H   0  0  0  0  0  0
  -29.8182  -23.4869   22.7750 H   0  0  0  0  0  0
  -26.2893  -25.0976   21.7166 H   0  0  0  0  0  0
  -27.7487  -24.5291   22.5095 H   0  0  0  0  0  0
  -26.6926  -23.4147   21.6384 H   0  0  0  0  0  0
  -30.4236  -24.8818   20.7684 H   0  0  0  0  0  0
  -29.1817  -23.3558   19.0313 H   0  0  0  0  0  0
  -27.2437  -24.4415   19.5064 H   0  0  0  0  0  0
  -26.6353  -19.5953   22.6496 H   0  0  0  0  0  0
  -27.2569  -21.1040   22.3404 H   0  0  0  0  0  0
  -28.7053  -15.6975   20.8646 H   0  0  0  0  0  0
  -27.6639  -21.9527   20.9040 H   0  0  0  0  0  0
  1 25  1  0  0  0
  1 30  2  0  0  0
  1 84  1  0  0  0
  2  3  1  0  0  0
  2 25  1  0  0  0
  2 86  1  0  0  0
  2 87  1  0  0  0
  3  4  1  0  0  0
  3 88  1  0  0  0
  3 89  1  0  0  0
  4  5  1  0  0  0
  4 90  1  0  0  0
  4 91  1  0  0  0
  5  6  1  0  0  0
  5 26  1  0  0  0
  5 92  1  0  0  0
  6 25  1  0  0  0
  6 93  1  0  0  0
  6 94  1  0  0  0
  7  8  2  0  0  0
  7 26  1  0  0  0
  7 29  1  0  0  0
  8  9  1  0  0  0
  8 22  1  0  0  0
  9 10  1  0  0  0
  9 27  2  0  0  0
 10 11  2  0  0  0
 10 15  1  0  0  0
 11 12  1  0  0  0
 11 95  1  0  0  0
 12 13  2  0  0  0
 12 96  1  0  0  0
 13 14  1  0  0  0
 13 31  1  0  0  0
 14 15  2  0  0  0
 14 97  1  0  0  0
 15 98  1  0  0  0
 16 17  2  0  0  0
 16 21  1  0  0  0
 16 31  1  0  0  0
 17 18  1  0  0  0
 17 99  1  0  0  0
 18 19  2  0  0  0
 18100  1  0  0  0
 19 20  1  0  0  0
 19 24  1  0  0  0
 20 21  2  0  0  0
 20101  1  0  0  0
 21 23  1  0  0  0
 22 28  1  0  0  0
 22 32  2  0  0  0
 26 27  1  0  0  0
 28102  1  0  0  0
 28103  1  0  0  0
 29104  1  0  0  0
 29105  1  0  0  0
 33 34  1  0  0  0
 33 66  1  0  0  0
 33 70  2  0  0  0
 34 36  1  0  0  0
 34 59  1  0  0  0
 34106  1  0  0  0
 35 44  2  0  0  0
 35 45  1  0  0  0
 35 68  1  0  0  0
 36 56  1  0  0  0
 36107  1  0  0  0
 37 39  1  0  0  0
 37 47  1  0  0  0
 37 66  1  0  0  0
 37108  1  0  0  0
 38 43  2  0  0  0
 38 46  1  0  0  0
 38 47  1  0  0  0
 39 64  1  0  0  0
 39 67  2  0  0  0
 40 52  1  0  0  0
 40 53  2  0  0  0
 40 58  1  0  0  0
 41109  1  0  0  0
 41110  1  0  0  0
 41111  1  0  0  0
 41 48  1  0  0  0
 42 43  1  0  0  0
 42 66  1  0  0  0
 42112  1  0  0  0
 42113  1  0  0  0
 43 44  1  0  0  0
 44114  1  0  0  0
 45 46  2  0  0  0
 45115  1  0  0  0
 46116  1  0  0  0
 47117  1  0  0  0
 47118  1  0  0  0
 48 56  1  0  0  0
 48 65  1  0  0  0
 48119  1  0  0  0
 49 50  1  0  0  0
 49 53  1  0  0  0
 49 64  1  0  0  0
 49120  1  0  0  0
 50 51  1  0  0  0
 50121  1  0  0  0
 50122  1  0  0  0
 51 52  1  0  0  0
 51123  1  0  0  0
 51124  1  0  0  0
 52125  1  0  0  0
 52126  1  0  0  0
 53 54  1  0  0  0
 54 55  2  0  0  0
 54127  1  0  0  0
 55 57  1  0  0  0
 55128  1  0  0  0
 56 69  2  0  0  0
 57 58  2  0  0  0
 57129  1  0  0  0
 58130  1  0  0  0
 59 60  1  0  0  0
 59 61  1  0  0  0
 59 62  1  0  0  0
 60131  1  0  0  0
 60132  1  0  0  0
 60133  1  0  0  0
 61134  1  0  0  0
 61135  1  0  0  0
 61136  1  0  0  0
 62137  1  0  0  0
 62138  1  0  0  0
 62139  1  0  0  0
 63 65  1  0  0  0
 63140  1  0  0  0
 63141  1  0  0  0
 63142  1  0  0  0
 64143  1  0  0  0
 65144  1  0  0  0
 68 80  1  0  0  0
 71 72  2  0  0  0
 71 73  1  0  0  0
 71145  1  0  0  0
 72 74  1  0  0  0
 72 83  1  0  0  0
 73 81  2  0  0  0
 73 84  1  0  0  0
 74 82  2  0  0  0
 74 85  1  0  0  0
 75146  1  0  0  0
 75147  1  0  0  0
 75148  1  0  0  0
 75 78  1  0  0  0
 76 78  1  0  0  0
 76149  1  0  0  0
 76150  1  0  0  0
 76151  1  0  0  0
 77152  1  0  0  0
 77153  1  0  0  0
 77154  1  0  0  0
 77 80  1  0  0  0
 78 79  1  0  0  0
 78155  1  0  0  0
 79 80  1  0  0  0
 79 85  1  0  0  0
 79156  1  0  0  0
 80157  1  0  0  0
 81 82  1  0  0  0
 83158  1  0  0  0
 83159  1  0  0  0
 84160  1  0  0  0
 85161  1  0  0  0
M  ISO  4   1 100  68 101  80 101  84 100
M  END
> <chiral flag>
0

> <version>
0

> <s_m_source_file>
/data/baiqing/PycharmProjects/Reinvent-master-3.2/result/LINK_invent/BTK/process_docking_weight1_custom_product_contain_oxygen_bond_distance_aromatic_linkinvent_7_9_3/rearranged_h_0192.sdf

> <i_m_source_file_index>
7

> <r_mmod_Potential_Energy-OPLS-2005>
398.490478515625

> <r_mmod_Stretch_Energy-OPLS-2005>
224.968551635742

> <r_mmod_Bend_Energy-OPLS-2005>
330.823150634766

> <r_mmod_Torsional_Energy-OPLS-2005>
250.177841186523

> <r_mmod_Improper_Torsional_Energy-OPLS-2005>
8.63962173461914

> <r_mmod_Van_der_Waal_Energy-OPLS-2005>
136.864883422852

> <r_mmod_Electrostatic_Energy-OPLS-2005>
-500.114227294922

> <r_mmod_Solvation_Energy-OPLS-2005>
-249.498779296875

> <b_mmod_Minimization_Converged-OPLS-2005>
0

> <r_mmod_RMS_Derivative-OPLS-2005>
6.17305994033813

$$$$
7
                    3D
 Structure written by MMmdl.
166174  0  0  1  0            999 V2000
  -30.7078  -14.4588   20.4875 C   0  0  0  0  0  0
  -30.4103  -12.2740   19.4387 C   0  0  0  0  0  0
  -29.4930  -12.4723   18.2141 C   0  0  0  0  0  0
  -28.0125  -12.3409   18.6216 C   0  0  0  0  0  0
  -27.6553  -13.2009   19.8653 C   0  0  2  0  0  0
  -28.6972  -13.0272   20.9959 C   0  0  0  0  0  0
  -25.2565  -13.8132   20.5665 C   0  0  0  0  0  0
  -24.1823  -13.0416   20.9180 C   0  0  0  0  0  0
  -24.6377  -11.6872   20.8746 C   0  0  0  0  0  0
  -23.9061  -10.4265   21.0416 C   0  0  0  0  0  0
  -24.3616   -9.4188   21.9204 C   0  0  0  0  0  0
  -23.6288   -8.2229   22.0773 C   0  0  0  0  0  0
  -22.4271   -8.0280   21.3558 C   0  0  0  0  0  0
  -21.9901   -9.0254   20.4662 C   0  0  0  0  0  0
  -22.7225  -10.2127   20.3072 C   0  0  0  0  0  0
  -21.6861   -6.0729   22.5285 C   0  0  0  0  0  0
  -21.4012   -6.5641   23.8217 C   0  0  0  0  0  0
  -21.3661   -5.6805   24.9184 C   0  0  0  0  0  0
  -21.6049   -4.3067   24.7240 C   0  0  0  0  0  0
  -21.8815   -3.8147   23.4364 C   0  0  0  0  0  0
  -21.9183   -4.6955   22.3409 C   0  0  0  0  0  0
  -22.7852  -13.5224   21.1851 C   0  0  0  0  0  0
  -22.1658   -4.2132   21.0993 F   0  0  0  0  0  0
  -21.5625   -3.4556   25.7760 F   0  0  0  0  0  0
  -30.0316  -13.2859   20.4349 N   0  0  0  0  0  0
  -26.2993  -12.9298   20.3325 N   0  0  0  0  0  0
  -25.9297  -11.6465   20.5774 N   0  0  0  0  0  0
  -22.0525  -12.8220   22.0421 N   0  0  0  0  0  0
  -25.4250  -15.1858   20.4049 N   0  0  0  0  0  0
  -31.8938  -14.5659   20.1712 O   0  0  0  0  0  0
  -21.6646   -6.8867   21.4244 O   0  0  0  0  0  0
  -22.3542  -14.5537   20.6708 O   0  0  0  0  0  0
  -24.6125  -31.8678   23.2160 C   0  0  0  0  0  0
  -25.9031  -32.4823   23.8444 C   0  0  1  0  0  0
  -27.2467  -27.4526   20.1121 C   0  0  0  0  0  0
  -25.5911  -33.8625   24.2386 N   0  0  0  0  0  0
  -23.4033  -30.4888   21.5520 C   0  0  2  0  0  0
  -24.8584  -28.9567   20.1238 C   0  0  0  0  0  0
  -22.7411  -29.4643   22.5010 C   0  0  0  0  0  0
  -18.0270  -28.1362   22.8482 C   0  0  0  0  0  0
  -24.1500  -36.7314   23.2636 C   0  0  0  0  0  0
  -25.9303  -30.8334   21.3769 C   0  0  0  0  0  0
  -26.0105  -29.4645   20.7390 C   0  0  0  0  0  0
  -27.2053  -28.7117   20.7512 C   0  0  0  0  0  0
  -26.0920  -26.9748   19.4617 C   0  0  0  0  0  0
  -24.8907  -27.7051   19.4868 C   0  0  0  0  0  0
  -23.6173  -29.8163   20.1681 C   0  0  0  0  0  0
  -25.4118  -36.3122   24.0348 C   0  0  1  0  0  0
  -20.5862  -28.3639   23.1327 C   0  0  2  0  0  0
  -20.6765  -26.9382   22.5415 C   0  0  0  0  0  0
  -19.5755  -26.6382   21.5200 C   0  0  0  0  0  0
  -18.1930  -26.7910   22.1614 C   0  0  0  0  0  0
  -19.1515  -28.8823   23.2900 C   0  0  0  0  0  0
  -18.9439  -30.1430   23.8909 C   0  0  0  0  0  0
  -17.6435  -30.6564   24.0559 C   0  0  0  0  0  0
  -25.9038  -34.9474   23.5166 C   0  0  0  0  0  0
  -16.5330  -29.9069   23.6309 C   0  0  0  0  0  0
  -16.7259  -28.6492   23.0328 C   0  0  0  0  0  0
  -26.4496  -31.6584   25.0749 C   0  0  0  0  0  0
  -25.3798  -31.3600   26.1504 C   0  0  0  0  0  0
  -27.0331  -30.3043   24.6099 C   0  0  0  0  0  0
  -27.6125  -32.4268   25.7462 C   0  0  0  0  0  0
  -27.5595  -37.1823   24.8466 C   0  0  0  0  0  0
  -21.4146  -29.3009   22.3736 N   0  0  0  0  0  0
  -26.4318  -37.3800   23.9399 N   0  0  0  0  0  0
  -24.6656  -31.0793   22.1056 N   0  0  0  0  0  0
  -23.4176  -28.8181   23.3060 O   0  0  0  0  0  0
  -28.3943  -26.7035   20.0173 O   0  0  0  0  0  0
  -26.5575  -34.8904   22.4710 O   0  0  0  0  0  0
  -23.5323  -32.1418   23.7561 O   0  0  0  0  0  0
  -30.9226  -18.8271   20.5863 C   0  0  0  0  0  0
  -29.9208  -18.0600   19.9411 C   0  0  0  0  0  0
  -29.8711  -20.7768   19.9162 C   0  0  0  0  0  0
  -28.8177  -19.9901   19.3759 C   0  0  0  0  0  0
  -30.4214  -23.2304   19.9825 C   0  0  0  0  0  0
  -27.4775  -24.1320   20.6406 C   0  0  0  0  0  0
  -27.3424  -25.1978   22.8721 C   0  0  0  0  0  0
  -30.1613  -16.6161   19.5278 C   0  0  0  0  0  0
  -30.6237  -23.3991   21.4925 C   0  0  0  0  0  0
  -29.3713  -23.8475   22.3099 C   0  0  0  0  0  0
  -28.9673  -26.1871   21.2226 C   0  0  0  0  0  0
  -28.3181  -24.8517   21.7259 C   0  0  0  0  0  0
  -30.8982  -20.1868   20.5797 N   0  0  0  0  0  0
  -28.8287  -18.6428   19.3941 N   0  0  0  0  0  0
  -27.7556  -20.5667   18.6910 N   0  0  0  0  0  0
  -29.8958  -22.1152   19.4593 N   0  0  0  0  0  0
  -29.9242  -15.5482   20.5090 N   0  0  0  0  0  0
  -30.7403  -24.1601   19.2399 O   0  0  0  0  0  0
  -31.4576  -12.3476   19.1401 H   0  0  0  0  0  0
  -30.2913  -11.2726   19.8551 H   0  0  0  0  0  0
  -29.7330  -11.7379   17.4430 H   0  0  0  0  0  0
  -29.6654  -13.4536   17.7702 H   0  0  0  0  0  0
  -27.8236  -11.2870   18.8336 H   0  0  0  0  0  0
  -27.3648  -12.5993   17.7827 H   0  0  0  0  0  0
  -27.6832  -14.2381   19.5372 H   0  0  0  0  0  0
  -28.6598  -12.0160   21.4024 H   0  0  0  0  0  0
  -28.4774  -13.6948   21.8324 H   0  0  0  0  0  0
  -25.2768   -9.5675   22.4764 H   0  0  0  0  0  0
  -24.0001   -7.4632   22.7492 H   0  0  0  0  0  0
  -21.0834   -8.8773   19.8977 H   0  0  0  0  0  0
  -22.3692  -10.9675   19.6182 H   0  0  0  0  0  0
  -21.2015   -7.6154   23.9710 H   0  0  0  0  0  0
  -21.1491   -6.0547   25.9088 H   0  0  0  0  0  0
  -22.0587   -2.7605   23.2883 H   0  0  0  0  0  0
  -22.4163  -11.9857   22.4750 H   0  0  0  0  0  0
  -21.1165  -13.1240   22.2680 H   0  0  0  0  0  0
  -24.6493  -15.8299   20.5174 H   0  0  0  0  0  0
  -26.2623  -15.6380   20.0591 H   0  0  0  0  0  0
  -26.7101  -32.5551   23.1210 H   0  0  0  0  0  0
  -25.0117  -33.9790   25.0566 H   0  0  0  0  0  0
  -22.6922  -31.3044   21.4087 H   0  0  0  0  0  0
  -23.3765  -35.9647   23.3317 H   0  0  0  0  0  0
  -24.3600  -36.8900   22.2050 H   0  0  0  0  0  0
  -23.7252  -37.6529   23.6621 H   0  0  0  0  0  0
  -26.0475  -31.5952   20.6049 H   0  0  0  0  0  0
  -26.8173  -30.8891   21.9961 H   0  0  0  0  0  0
  -28.0943  -29.1076   21.2224 H   0  0  0  0  0  0
  -26.1266  -26.0383   18.9244 H   0  0  0  0  0  0
  -24.0128  -27.3134   18.9926 H   0  0  0  0  0  0
  -23.7190  -30.5828   19.3992 H   0  0  0  0  0  0
  -22.7489  -29.2216   19.8790 H   0  0  0  0  0  0
  -25.1304  -36.2015   25.0849 H   0  0  0  0  0  0
  -20.9938  -28.3188   24.1454 H   0  0  0  0  0  0
  -20.5652  -26.2246   23.3591 H   0  0  0  0  0  0
  -21.6644  -26.7418   22.1221 H   0  0  0  0  0  0
  -19.6911  -25.6304   21.1212 H   0  0  0  0  0  0
  -19.6698  -27.3214   20.6750 H   0  0  0  0  0  0
  -17.4201  -26.6634   21.4016 H   0  0  0  0  0  0
  -18.0338  -26.0046   22.9013 H   0  0  0  0  0  0
  -19.7908  -30.7244   24.2291 H   0  0  0  0  0  0
  -17.4983  -31.6245   24.5168 H   0  0  0  0  0  0
  -15.5333  -30.2971   23.7626 H   0  0  0  0  0  0
  -15.8660  -28.0820   22.7021 H   0  0  0  0  0  0
  -24.5977  -30.6966   25.7785 H   0  0  0  0  0  0
  -24.8981  -32.2705   26.5078 H   0  0  0  0  0  0
  -25.8183  -30.8650   27.0183 H   0  0  0  0  0  0
  -26.2859  -29.6772   24.1222 H   0  0  0  0  0  0
  -27.4194  -29.7298   25.4532 H   0  0  0  0  0  0
  -27.8661  -30.4376   23.9193 H   0  0  0  0  0  0
  -27.2822  -33.3539   26.2145 H   0  0  0  0  0  0
  -28.3857  -32.6866   25.0221 H   0  0  0  0  0  0
  -28.0893  -31.8323   26.5266 H   0  0  0  0  0  0
  -28.2642  -38.0096   24.7522 H   0  0  0  0  0  0
  -28.1074  -36.2643   24.6306 H   0  0  0  0  0  0
  -27.2305  -37.1487   25.8865 H   0  0  0  0  0  0
  -20.9320  -29.8728   21.6950 H   0  0  0  0  0  0
  -26.0216  -38.2888   24.1380 H   0  0  0  0  0  0
  -31.8071  -18.3573   20.9921 H   0  0  0  0  0  0
  -26.4825  -24.5598   20.5541 H   0  0  0  0  0  0
  -27.3328  -23.0802   20.8848 H   0  0  0  0  0  0
  -27.9258  -24.1863   19.6492 H   0  0  0  0  0  0
  -26.8263  -24.3094   23.2378 H   0  0  0  0  0  0
  -26.5754  -25.9052   22.5524 H   0  0  0  0  0  0
  -27.8575  -25.6444   23.7244 H   0  0  0  0  0  0
  -31.1724  -16.5936   19.1167 H   0  0  0  0  0  0
  -29.5173  -16.3953   18.6743 H   0  0  0  0  0  0
  -31.4054  -24.1497   21.6215 H   0  0  0  0  0  0
  -31.0430  -22.4920   21.9232 H   0  0  0  0  0  0
  -29.7572  -24.2685   23.2391 H   0  0  0  0  0  0
  -28.8425  -22.9459   22.6240 H   0  0  0  0  0  0
  -30.0162  -26.0191   20.9881 H   0  0  0  0  0  0
  -28.9905  -26.9452   22.0092 H   0  0  0  0  0  0
  -26.9696  -19.9675   18.4706 H   0  0  0  0  0  0
  -27.4799  -21.4922   18.9991 H   0  0  0  0  0  0
  -29.5368  -22.2030   18.5199 H   0  0  0  0  0  0
  -28.9652  -15.4004   20.7794 H   0  0  0  0  0  0
  1 25  1  0  0  0
  1 30  2  0  0  0
  1 87  1  0  0  0
  2  3  1  0  0  0
  2 25  1  0  0  0
  2 89  1  0  0  0
  2 90  1  0  0  0
  3  4  1  0  0  0
  3 91  1  0  0  0
  3 92  1  0  0  0
  4  5  1  0  0  0
  4 93  1  0  0  0
  4 94  1  0  0  0
  5  6  1  0  0  0
  5 26  1  0  0  0
  5 95  1  0  0  0
  6 25  1  0  0  0
  6 96  1  0  0  0
  6 97  1  0  0  0
  7  8  2  0  0  0
  7 26  1  0  0  0
  7 29  1  0  0  0
  8  9  1  0  0  0
  8 22  1  0  0  0
  9 10  1  0  0  0
  9 27  2  0  0  0
 10 11  2  0  0  0
 10 15  1  0  0  0
 11 12  1  0  0  0
 11 98  1  0  0  0
 12 13  2  0  0  0
 12 99  1  0  0  0
 13 14  1  0  0  0
 13 31  1  0  0  0
 14 15  2  0  0  0
 14100  1  0  0  0
 15101  1  0  0  0
 16 17  2  0  0  0
 16 21  1  0  0  0
 16 31  1  0  0  0
 17 18  1  0  0  0
 17102  1  0  0  0
 18 19  2  0  0  0
 18103  1  0  0  0
 19 20  1  0  0  0
 19 24  1  0  0  0
 20 21  2  0  0  0
 20104  1  0  0  0
 21 23  1  0  0  0
 22 28  1  0  0  0
 22 32  2  0  0  0
 26 27  1  0  0  0
 28105  1  0  0  0
 28106  1  0  0  0
 29107  1  0  0  0
 29108  1  0  0  0
 33 34  1  0  0  0
 33 66  1  0  0  0
 33 70  2  0  0  0
 34 36  1  0  0  0
 34 59  1  0  0  0
 34109  1  0  0  0
 35 44  2  0  0  0
 35 45  1  0  0  0
 35 68  1  0  0  0
 36 56  1  0  0  0
 36110  1  0  0  0
 37 39  1  0  0  0
 37 47  1  0  0  0
 37 66  1  0  0  0
 37111  1  0  0  0
 38 43  2  0  0  0
 38 46  1  0  0  0
 38 47  1  0  0  0
 39 64  1  0  0  0
 39 67  2  0  0  0
 40 52  1  0  0  0
 40 53  2  0  0  0
 40 58  1  0  0  0
 41112  1  0  0  0
 41113  1  0  0  0
 41114  1  0  0  0
 41 48  1  0  0  0
 42 43  1  0  0  0
 42 66  1  0  0  0
 42115  1  0  0  0
 42116  1  0  0  0
 43 44  1  0  0  0
 44117  1  0  0  0
 45 46  2  0  0  0
 45118  1  0  0  0
 46119  1  0  0  0
 47120  1  0  0  0
 47121  1  0  0  0
 48 56  1  0  0  0
 48 65  1  0  0  0
 48122  1  0  0  0
 49 50  1  0  0  0
 49 53  1  0  0  0
 49 64  1  0  0  0
 49123  1  0  0  0
 50 51  1  0  0  0
 50124  1  0  0  0
 50125  1  0  0  0
 51 52  1  0  0  0
 51126  1  0  0  0
 51127  1  0  0  0
 52128  1  0  0  0
 52129  1  0  0  0
 53 54  1  0  0  0
 54 55  2  0  0  0
 54130  1  0  0  0
 55 57  1  0  0  0
 55131  1  0  0  0
 56 69  2  0  0  0
 57 58  2  0  0  0
 57132  1  0  0  0
 58133  1  0  0  0
 59 60  1  0  0  0
 59 61  1  0  0  0
 59 62  1  0  0  0
 60134  1  0  0  0
 60135  1  0  0  0
 60136  1  0  0  0
 61137  1  0  0  0
 61138  1  0  0  0
 61139  1  0  0  0
 62140  1  0  0  0
 62141  1  0  0  0
 62142  1  0  0  0
 63 65  1  0  0  0
 63143  1  0  0  0
 63144  1  0  0  0
 63145  1  0  0  0
 64146  1  0  0  0
 65147  1  0  0  0
 68 81  1  0  0  0
 71 72  2  0  0  0
 71 83  1  0  0  0
 71148  1  0  0  0
 72 78  1  0  0  0
 72 84  1  0  0  0
 73 74  1  0  0  0
 73 83  2  0  0  0
 73 86  1  0  0  0
 74 84  2  0  0  0
 74 85  1  0  0  0
 75 79  1  0  0  0
 75 86  1  0  0  0
 75 88  2  0  0  0
 76149  1  0  0  0
 76150  1  0  0  0
 76151  1  0  0  0
 76 82  1  0  0  0
 77 82  1  0  0  0
 77152  1  0  0  0
 77153  1  0  0  0
 77154  1  0  0  0
 78 87  1  0  0  0
 78155  1  0  0  0
 78156  1  0  0  0
 79 80  1  0  0  0
 79157  1  0  0  0
 79158  1  0  0  0
 80 82  1  0  0  0
 80159  1  0  0  0
 80160  1  0  0  0
 81 82  1  0  0  0
 81161  1  0  0  0
 81162  1  0  0  0
 85163  1  0  0  0
 85164  1  0  0  0
 86165  1  0  0  0
 87166  1  0  0  0
M  ISO  4   1 100  68 101  81 101  87 100
M  END
> <chiral flag>
0

> <version>
0

> <s_m_source_file>
/data/baiqing/PycharmProjects/Reinvent-master-3.2/result/LINK_invent/BTK/process_docking_weight1_custom_product_contain_oxygen_bond_distance_aromatic_linkinvent_7_9_3/rearranged_h_0192.sdf

> <i_m_source_file_index>
8

> <r_mmod_Potential_Energy-OPLS-2005>
-142.731750488281

> <r_mmod_Stretch_Energy-OPLS-2005>
39.0632705688477

> <r_mmod_Bend_Energy-OPLS-2005>
136.306015014648

> <r_mmod_Torsional_Energy-OPLS-2005>
320.065460205078

> <r_mmod_Improper_Torsional_Energy-OPLS-2005>
22.1807765960693

> <r_mmod_Van_der_Waal_Energy-OPLS-2005>
164.081771850586

> <r_mmod_Electrostatic_Energy-OPLS-2005>
-602.630249023438

> <r_mmod_Solvation_Energy-OPLS-2005>
-238.784957885742

> <b_mmod_Minimization_Converged-OPLS-2005>
0

> <r_mmod_RMS_Derivative-OPLS-2005>
2.89598393440247

$$$$
8
                    3D
 Structure written by MMmdl.
158166  0  0  1  0            999 V2000
  -30.6499  -14.5319   20.5527 C   0  0  0  0  0  0
  -30.4287  -12.3396   19.4229 C   0  0  0  0  0  0
  -29.4991  -12.5352   18.2043 C   0  0  0  0  0  0
  -28.0189  -12.3856   18.6127 C   0  0  0  0  0  0
  -27.6611  -13.2131   19.8767 C   0  0  2  0  0  0
  -28.7040  -12.9829   20.9936 C   0  0  0  0  0  0
  -25.2565  -13.8179   20.5697 C   0  0  0  0  0  0
  -24.1814  -13.0432   20.9177 C   0  0  0  0  0  0
  -24.6390  -11.6914   20.8749 C   0  0  0  0  0  0
  -23.9070  -10.4286   21.0419 C   0  0  0  0  0  0
  -24.3630   -9.4201   21.9192 C   0  0  0  0  0  0
  -23.6305   -8.2237   22.0751 C   0  0  0  0  0  0
  -22.4285   -8.0274   21.3552 C   0  0  0  0  0  0
  -21.9918   -9.0242   20.4653 C   0  0  0  0  0  0
  -22.7248  -10.2120   20.3063 C   0  0  0  0  0  0
  -21.6847   -6.0733   22.5287 C   0  0  0  0  0  0
  -21.4015   -6.5641   23.8222 C   0  0  0  0  0  0
  -21.3669   -5.6792   24.9187 C   0  0  0  0  0  0
  -21.6047   -4.3055   24.7245 C   0  0  0  0  0  0
  -21.8816   -3.8144   23.4367 C   0  0  0  0  0  0
  -21.9197   -4.6958   22.3417 C   0  0  0  0  0  0
  -22.7835  -13.5224   21.1868 C   0  0  0  0  0  0
  -22.1667   -4.2138   21.1000 F   0  0  0  0  0  0
  -21.5636   -3.4545   25.7763 F   0  0  0  0  0  0
  -30.0335  -13.3182   20.4505 N   0  0  0  0  0  0
  -26.3014  -12.9366   20.3372 N   0  0  0  0  0  0
  -25.9320  -11.6522   20.5754 N   0  0  0  0  0  0
  -22.0484  -12.8192   22.0427 N   0  0  0  0  0  0
  -25.4275  -15.1898   20.4140 N   0  0  0  0  0  0
  -31.7675  -14.7513   20.0735 O   0  0  0  0  0  0
  -21.6637   -6.8887   21.4252 O   0  0  0  0  0  0
  -22.3507  -14.5526   20.6733 O   0  0  0  0  0  0
  -24.6178  -31.8659   23.2065 C   0  0  0  0  0  0
  -25.9043  -32.4832   23.8382 C   0  0  1  0  0  0
  -27.2339  -27.3833   20.1035 C   0  0  0  0  0  0
  -25.5891  -33.8633   24.2310 N   0  0  0  0  0  0
  -23.4100  -30.4868   21.5509 C   0  0  2  0  0  0
  -24.8564  -28.9497   20.1137 C   0  0  0  0  0  0
  -22.7439  -29.4627   22.4999 C   0  0  0  0  0  0
  -18.0275  -28.1373   22.8497 C   0  0  0  0  0  0
  -24.1492  -36.7300   23.2643 C   0  0  0  0  0  0
  -25.9447  -30.8198   21.3644 C   0  0  0  0  0  0
  -26.0231  -29.4512   20.7043 C   0  0  0  0  0  0
  -27.2159  -28.6808   20.6835 C   0  0  0  0  0  0
  -26.0435  -26.9129   19.5026 C   0  0  0  0  0  0
  -24.8649  -27.6830   19.5067 C   0  0  0  0  0  0
  -23.6193  -29.8204   20.1664 C   0  0  0  0  0  0
  -25.4124  -36.3122   24.0338 C   0  0  1  0  0  0
  -20.5865  -28.3653   23.1329 C   0  0  2  0  0  0
  -20.6758  -26.9388   22.5428 C   0  0  0  0  0  0
  -19.5737  -26.6368   21.5223 C   0  0  0  0  0  0
  -18.1914  -26.7921   22.1630 C   0  0  0  0  0  0
  -19.1524  -28.8833   23.2902 C   0  0  0  0  0  0
  -18.9450  -30.1443   23.8900 C   0  0  0  0  0  0
  -17.6453  -30.6580   24.0556 C   0  0  0  0  0  0
  -25.9051  -34.9492   23.5125 C   0  0  0  0  0  0
  -16.5344  -29.9077   23.6328 C   0  0  0  0  0  0
  -16.7264  -28.6495   23.0351 C   0  0  0  0  0  0
  -26.4444  -31.6631   25.0730 C   0  0  0  0  0  0
  -25.3690  -31.3730   26.1460 C   0  0  0  0  0  0
  -27.0283  -30.3080   24.6121 C   0  0  0  0  0  0
  -27.6021  -32.4348   25.7484 C   0  0  0  0  0  0
  -27.5587  -37.1812   24.8468 C   0  0  0  0  0  0
  -21.4162  -29.3015   22.3734 N   0  0  0  0  0  0
  -26.4308  -37.3804   23.9406 N   0  0  0  0  0  0
  -24.6766  -31.0712   22.0991 N   0  0  0  0  0  0
  -23.4195  -28.8183   23.3063 O   0  0  0  0  0  0
  -28.3856  -26.6016   20.1293 O   0  0  0  0  0  0
  -26.5621  -34.8929   22.4690 O   0  0  0  0  0  0
  -23.5351  -32.1435   23.7413 O   0  0  0  0  0  0
  -29.7906  -19.3110   20.1376 C   0  0  0  0  0  0
  -28.7937  -18.9552   21.0254 C   0  0  0  0  0  0
  -29.8242  -16.9010   20.8889 C   0  0  0  0  0  0
  -30.0441  -20.3304   17.8628 C   0  0  0  0  0  0
  -29.1766  -21.9106   19.6099 C   0  0  0  0  0  0
  -29.4954  -22.8446   20.8175 C   0  0  0  0  0  0
  -28.2167  -25.1519   20.1890 C   0  0  0  0  0  0
  -30.0675  -20.6221   19.3773 C   0  0  1  0  0  0
  -29.5367  -24.4032   20.5638 C   0  0  1  0  0  0
  -28.8306  -17.6128   21.4371 N   0  0  0  0  0  0
  -27.7758  -19.7747   21.5034 N   0  0  0  0  0  0
  -29.9027  -15.4904   21.1460 N   0  0  0  0  0  0
  -29.9559  -24.9772   21.7881 O   0  0  0  0  0  0
  -30.8466  -17.9077   19.8562 S   0  0  0  0  0  0
  -31.4746  -12.4442   19.1264 H   0  0  0  0  0  0
  -30.3300  -11.3255   19.8126 H   0  0  0  0  0  0
  -29.7414  -11.8210   17.4156 H   0  0  0  0  0  0
  -29.6623  -13.5264   17.7768 H   0  0  0  0  0  0
  -27.8308  -11.3271   18.7977 H   0  0  0  0  0  0
  -27.3696  -12.6696   17.7855 H   0  0  0  0  0  0
  -27.7040  -14.2644   19.5892 H   0  0  0  0  0  0
  -28.6909  -11.9390   21.3075 H   0  0  0  0  0  0
  -28.4531  -13.5508   21.8919 H   0  0  0  0  0  0
  -25.2783   -9.5670   22.4743 H   0  0  0  0  0  0
  -24.0026   -7.4618   22.7452 H   0  0  0  0  0  0
  -21.0854   -8.8772   19.8942 H   0  0  0  0  0  0
  -22.3737  -10.9657   19.6158 H   0  0  0  0  0  0
  -21.2001   -7.6142   23.9739 H   0  0  0  0  0  0
  -21.1498   -6.0522   25.9102 H   0  0  0  0  0  0
  -22.0588   -2.7600   23.2881 H   0  0  0  0  0  0
  -22.4111  -11.9843   22.4794 H   0  0  0  0  0  0
  -21.1103  -13.1203   22.2663 H   0  0  0  0  0  0
  -24.6560  -15.8403   20.5085 H   0  0  0  0  0  0
  -26.2908  -15.6385   20.1308 H   0  0  0  0  0  0
  -26.7123  -32.5528   23.1154 H   0  0  0  0  0  0
  -25.0032  -33.9812   25.0447 H   0  0  0  0  0  0
  -22.6990  -31.3040   21.4129 H   0  0  0  0  0  0
  -23.3771  -35.9609   23.3320 H   0  0  0  0  0  0
  -24.3570  -36.8903   22.2050 H   0  0  0  0  0  0
  -23.7217  -37.6495   23.6654 H   0  0  0  0  0  0
  -26.0633  -31.5914   20.6013 H   0  0  0  0  0  0
  -26.8289  -30.8698   21.9896 H   0  0  0  0  0  0
  -28.1184  -29.0693   21.1334 H   0  0  0  0  0  0
  -26.0027  -25.9452   19.0245 H   0  0  0  0  0  0
  -23.9688  -27.2908   19.0440 H   0  0  0  0  0  0
  -23.7232  -30.5973   19.4079 H   0  0  0  0  0  0
  -22.7419  -29.2415   19.8731 H   0  0  0  0  0  0
  -25.1301  -36.1989   25.0830 H   0  0  0  0  0  0
  -20.9949  -28.3202   24.1449 H   0  0  0  0  0  0
  -20.5658  -26.2253   23.3610 H   0  0  0  0  0  0
  -21.6630  -26.7425   22.1221 H   0  0  0  0  0  0
  -19.6892  -25.6278   21.1252 H   0  0  0  0  0  0
  -19.6679  -27.3179   20.6751 H   0  0  0  0  0  0
  -17.4185  -26.6670   21.4028 H   0  0  0  0  0  0
  -18.0307  -26.0066   22.9029 H   0  0  0  0  0  0
  -19.7921  -30.7266   24.2269 H   0  0  0  0  0  0
  -17.5001  -31.6264   24.5148 H   0  0  0  0  0  0
  -15.5341  -30.2982   23.7650 H   0  0  0  0  0  0
  -15.8659  -28.0822   22.7061 H   0  0  0  0  0  0
  -24.5851  -30.7112   25.7755 H   0  0  0  0  0  0
  -24.8890  -32.2889   26.4926 H   0  0  0  0  0  0
  -25.8009  -30.8855   27.0214 H   0  0  0  0  0  0
  -26.2843  -29.6859   24.1136 H   0  0  0  0  0  0
  -27.4014  -29.7296   25.4584 H   0  0  0  0  0  0
  -27.8688  -30.4406   23.9305 H   0  0  0  0  0  0
  -27.2655  -33.3645   26.2079 H   0  0  0  0  0  0
  -28.3806  -32.6922   25.0291 H   0  0  0  0  0  0
  -28.0724  -31.8473   26.5382 H   0  0  0  0  0  0
  -28.2616  -38.0101   24.7532 H   0  0  0  0  0  0
  -28.1083  -36.2639   24.6294 H   0  0  0  0  0  0
  -27.2308  -37.1452   25.8871 H   0  0  0  0  0  0
  -20.9322  -29.8736   21.6955 H   0  0  0  0  0  0
  -26.0204  -38.2882   24.1407 H   0  0  0  0  0  0
  -30.7588  -19.5590   17.5792 H   0  0  0  0  0  0
  -30.3007  -21.2112   17.2738 H   0  0  0  0  0  0
  -29.0545  -19.9960   17.5472 H   0  0  0  0  0  0
  -29.3194  -22.5536   18.7404 H   0  0  0  0  0  0
  -28.1152  -21.6670   19.5727 H   0  0  0  0  0  0
  -30.4808  -22.5557   21.1868 H   0  0  0  0  0  0
  -28.8156  -22.6133   21.6396 H   0  0  0  0  0  0
  -27.4356  -24.8914   20.9057 H   0  0  0  0  0  0
  -27.8902  -24.7889   19.2133 H   0  0  0  0  0  0
  -31.0922  -20.9118   19.6114 H   0  0  0  0  0  0
  -30.2933  -24.6211   19.8075 H   0  0  0  0  0  0
  -27.6800  -20.7327   21.1917 H   0  0  0  0  0  0
  -27.0523  -19.4302   22.1252 H   0  0  0  0  0  0
  -29.1088  -15.1207   21.6410 H   0  0  0  0  0  0
  -29.9317  -25.9224   21.6603 H   0  0  0  0  0  0
  1 25  1  0  0  0
  1 30  2  0  0  0
  1 82  1  0  0  0
  2  3  1  0  0  0
  2 25  1  0  0  0
  2 85  1  0  0  0
  2 86  1  0  0  0
  3  4  1  0  0  0
  3 87  1  0  0  0
  3 88  1  0  0  0
  4  5  1  0  0  0
  4 89  1  0  0  0
  4 90  1  0  0  0
  5  6  1  0  0  0
  5 26  1  0  0  0
  5 91  1  0  0  0
  6 25  1  0  0  0
  6 92  1  0  0  0
  6 93  1  0  0  0
  7  8  2  0  0  0
  7 26  1  0  0  0
  7 29  1  0  0  0
  8  9  1  0  0  0
  8 22  1  0  0  0
  9 10  1  0  0  0
  9 27  2  0  0  0
 10 11  2  0  0  0
 10 15  1  0  0  0
 11 12  1  0  0  0
 11 94  1  0  0  0
 12 13  2  0  0  0
 12 95  1  0  0  0
 13 14  1  0  0  0
 13 31  1  0  0  0
 14 15  2  0  0  0
 14 96  1  0  0  0
 15 97  1  0  0  0
 16 17  2  0  0  0
 16 21  1  0  0  0
 16 31  1  0  0  0
 17 18  1  0  0  0
 17 98  1  0  0  0
 18 19  2  0  0  0
 18 99  1  0  0  0
 19 20  1  0  0  0
 19 24  1  0  0  0
 20 21  2  0  0  0
 20100  1  0  0  0
 21 23  1  0  0  0
 22 28  1  0  0  0
 22 32  2  0  0  0
 26 27  1  0  0  0
 28101  1  0  0  0
 28102  1  0  0  0
 29103  1  0  0  0
 29104  1  0  0  0
 33 34  1  0  0  0
 33 66  1  0  0  0
 33 70  2  0  0  0
 34 36  1  0  0  0
 34 59  1  0  0  0
 34105  1  0  0  0
 35 44  2  0  0  0
 35 45  1  0  0  0
 35 68  1  0  0  0
 36 56  1  0  0  0
 36106  1  0  0  0
 37 39  1  0  0  0
 37 47  1  0  0  0
 37 66  1  0  0  0
 37107  1  0  0  0
 38 43  2  0  0  0
 38 46  1  0  0  0
 38 47  1  0  0  0
 39 64  1  0  0  0
 39 67  2  0  0  0
 40 52  1  0  0  0
 40 53  2  0  0  0
 40 58  1  0  0  0
 41108  1  0  0  0
 41109  1  0  0  0
 41110  1  0  0  0
 41 48  1  0  0  0
 42 43  1  0  0  0
 42 66  1  0  0  0
 42111  1  0  0  0
 42112  1  0  0  0
 43 44  1  0  0  0
 44113  1  0  0  0
 45 46  2  0  0  0
 45114  1  0  0  0
 46115  1  0  0  0
 47116  1  0  0  0
 47117  1  0  0  0
 48 56  1  0  0  0
 48 65  1  0  0  0
 48118  1  0  0  0
 49 50  1  0  0  0
 49 53  1  0  0  0
 49 64  1  0  0  0
 49119  1  0  0  0
 50 51  1  0  0  0
 50120  1  0  0  0
 50121  1  0  0  0
 51 52  1  0  0  0
 51122  1  0  0  0
 51123  1  0  0  0
 52124  1  0  0  0
 52125  1  0  0  0
 53 54  1  0  0  0
 54 55  2  0  0  0
 54126  1  0  0  0
 55 57  1  0  0  0
 55127  1  0  0  0
 56 69  2  0  0  0
 57 58  2  0  0  0
 57128  1  0  0  0
 58129  1  0  0  0
 59 60  1  0  0  0
 59 61  1  0  0  0
 59 62  1  0  0  0
 60130  1  0  0  0
 60131  1  0  0  0
 60132  1  0  0  0
 61133  1  0  0  0
 61134  1  0  0  0
 61135  1  0  0  0
 62136  1  0  0  0
 62137  1  0  0  0
 62138  1  0  0  0
 63 65  1  0  0  0
 63139  1  0  0  0
 63140  1  0  0  0
 63141  1  0  0  0
 64142  1  0  0  0
 65143  1  0  0  0
 68 77  1  0  0  0
 71 72  2  0  0  0
 71 78  1  0  0  0
 71 84  1  0  0  0
 72 80  1  0  0  0
 72 81  1  0  0  0
 73 80  2  0  0  0
 73 82  1  0  0  0
 73 84  1  0  0  0
 74144  1  0  0  0
 74145  1  0  0  0
 74146  1  0  0  0
 74 78  1  0  0  0
 75 76  1  0  0  0
 75 78  1  0  0  0
 75147  1  0  0  0
 75148  1  0  0  0
 76 79  1  0  0  0
 76149  1  0  0  0
 76150  1  0  0  0
 77 79  1  0  0  0
 77151  1  0  0  0
 77152  1  0  0  0
 78153  1  0  0  0
 79 83  1  0  0  0
 79154  1  0  0  0
 81155  1  0  0  0
 81156  1  0  0  0
 82157  1  0  0  0
 83158  1  0  0  0
M  ISO  4   1 100  68 101  77 101  82 100
M  END
> <chiral flag>
0

> <version>
0

> <s_m_source_file>
/data/baiqing/PycharmProjects/Reinvent-master-3.2/result/LINK_invent/BTK/process_docking_weight1_custom_product_contain_oxygen_bond_distance_aromatic_linkinvent_7_9_3/rearranged_h_0192.sdf

> <i_m_source_file_index>
9

> <r_mmod_Potential_Energy-OPLS-2005>
-140.478942871094

> <r_mmod_Stretch_Energy-OPLS-2005>
53.0122947692871

> <r_mmod_Bend_Energy-OPLS-2005>
141.061614990234

> <r_mmod_Torsional_Energy-OPLS-2005>
222.93733215332

> <r_mmod_Improper_Torsional_Energy-OPLS-2005>
3.64964723587036

> <r_mmod_Van_der_Waal_Energy-OPLS-2005>
125.330146789551

> <r_mmod_Electrostatic_Energy-OPLS-2005>
-484.326629638672

> <r_mmod_Solvation_Energy-OPLS-2005>
-223.70344543457

> <b_mmod_Minimization_Converged-OPLS-2005>
0

> <r_mmod_RMS_Derivative-OPLS-2005>
2.94997978210449

$$$$
9
                    3D
 Structure written by MMmdl.
155162  0  0  1  0            999 V2000
  -30.3419  -15.5444   20.3563 C   0  0  0  0  0  0
  -30.4270  -13.0136   19.5502 C   0  0  0  0  0  0
  -29.5496  -12.6435   18.3213 C   0  0  0  0  0  0
  -28.1128  -12.3088   18.7540 C   0  0  0  0  0  0
  -27.6007  -13.3033   19.8220 C   0  0  2  0  0  0
  -28.6182  -13.5959   20.9500 C   0  0  0  0  0  0
  -25.2340  -13.8286   20.5780 C   0  0  0  0  0  0
  -24.1714  -13.0435   20.9265 C   0  0  0  0  0  0
  -24.6404  -11.6953   20.8747 C   0  0  0  0  0  0
  -23.9102  -10.4296   21.0378 C   0  0  0  0  0  0
  -24.3652   -9.4206   21.9154 C   0  0  0  0  0  0
  -23.6322   -8.2243   22.0737 C   0  0  0  0  0  0
  -22.4293   -8.0286   21.3541 C   0  0  0  0  0  0
  -21.9935   -9.0245   20.4623 C   0  0  0  0  0  0
  -22.7273  -10.2120   20.3024 C   0  0  0  0  0  0
  -21.6864   -6.0739   22.5277 C   0  0  0  0  0  0
  -21.4028   -6.5635   23.8214 C   0  0  0  0  0  0
  -21.3661   -5.6782   24.9172 C   0  0  0  0  0  0
  -21.6041   -4.3045   24.7220 C   0  0  0  0  0  0
  -21.8824   -3.8143   23.4343 C   0  0  0  0  0  0
  -21.9192   -4.6963   22.3400 C   0  0  0  0  0  0
  -22.7732  -13.5165   21.1922 C   0  0  0  0  0  0
  -22.1666   -4.2147   21.0983 F   0  0  0  0  0  0
  -21.5630   -3.4533   25.7734 F   0  0  0  0  0  0
  -29.8104  -14.1897   20.3087 N   0  0  0  0  0  0
  -26.2783  -12.9599   20.3252 N   0  0  0  0  0  0
  -25.9345  -11.6672   20.5697 N   0  0  0  0  0  0
  -22.0407  -12.8111   22.0472 N   0  0  0  0  0  0
  -25.3930  -15.2026   20.4219 N   0  0  0  0  0  0
  -31.5683  -15.4967   20.1498 O   0  0  0  0  0  0
  -21.6655   -6.8885   21.4239 O   0  0  0  0  0  0
  -22.3398  -14.5463   20.6772 O   0  0  0  0  0  0
  -24.6761  -31.8083   23.1564 C   0  0  0  0  0  0
  -25.9364  -32.4513   23.8077 C   0  0  1  0  0  0
  -27.2032  -26.7234   20.2313 C   0  0  0  0  0  0
  -25.5992  -33.8339   24.2005 N   0  0  0  0  0  0
  -23.4992  -30.4138   21.5091 C   0  0  2  0  0  0
  -24.9544  -28.7643   20.1241 C   0  0  0  0  0  0
  -22.7718  -29.4380   22.4730 C   0  0  0  0  0  0
  -18.0329  -28.1427   22.8485 C   0  0  0  0  0  0
  -24.1501  -36.7157   23.2651 C   0  0  0  0  0  0
  -26.0798  -30.5475   21.4197 C   0  0  0  0  0  0
  -26.1401  -29.1125   20.7790 C   0  0  0  0  0  0
  -27.2515  -28.1193   20.8048 C   0  0  0  0  0  0
  -25.9997  -26.6047   19.4877 C   0  0  0  0  0  0
  -24.9215  -27.5331   19.4546 C   0  0  0  0  0  0
  -23.7511  -29.7157   20.1427 C   0  0  0  0  0  0
  -25.4161  -36.2947   24.0304 C   0  0  1  0  0  0
  -20.5967  -28.3790   23.1176 C   0  0  2  0  0  0
  -20.6809  -26.9455   22.5419 C   0  0  0  0  0  0
  -19.5783  -26.6389   21.5241 C   0  0  0  0  0  0
  -18.1960  -26.7960   22.1627 C   0  0  0  0  0  0
  -19.1594  -28.8924   23.2822 C   0  0  0  0  0  0
  -18.9500  -30.1502   23.8883 C   0  0  0  0  0  0
  -17.6496  -30.6633   24.0551 C   0  0  0  0  0  0
  -25.9122  -34.9323   23.5006 C   0  0  0  0  0  0
  -16.5386  -29.9111   23.6348 C   0  0  0  0  0  0
  -16.7302  -28.6509   23.0418 C   0  0  0  0  0  0
  -26.4561  -31.6495   25.0656 C   0  0  0  0  0  0
  -25.3652  -31.3770   26.1284 C   0  0  0  0  0  0
  -27.0447  -30.2848   24.6458 C   0  0  0  0  0  0
  -27.6047  -32.4280   25.7492 C   0  0  0  0  0  0
  -27.5589  -37.1771   24.8489 C   0  0  0  0  0  0
  -21.4368  -29.3045   22.3488 N   0  0  0  0  0  0
  -26.4304  -37.3696   23.9409 N   0  0  0  0  0  0
  -24.7745  -30.9568   22.0798 N   0  0  0  0  0  0
  -23.4202  -28.7977   23.3045 O   0  0  0  0  0  0
  -28.1756  -25.5153   20.2643 O   0  0  0  0  0  0
  -26.5732  -34.8879   22.4594 O   0  0  0  0  0  0
  -23.5799  -32.1122   23.6549 O   0  0  0  0  0  0
  -29.2599  -20.3718   23.1009 C   0  0  0  0  0  0
  -26.7043  -23.4191   19.7201 C   0  0  0  0  0  0
  -27.6509  -23.8233   21.9817 C   0  0  0  0  0  0
  -28.2524  -20.0515   21.9832 C   0  0  0  0  0  0
  -28.9902  -22.1465   20.3005 C   0  0  0  0  0  0
  -29.7982  -18.6313   20.2735 C   0  0  0  0  0  0
  -28.7998  -20.2436   20.5571 C   0  0  1  0  0  0
  -27.9849  -23.7810   20.4820 C   0  0  0  0  0  0
  -29.5897  -16.8917   20.4440 N   0  0  0  0  0  0
  -31.4298  -13.2572   19.1982 H   0  0  0  0  0  0
  -30.5584  -12.1499   20.2048 H   0  0  0  0  0  0
  -29.9828  -11.8034   17.7768 H   0  0  0  0  0  0
  -29.5326  -13.4846   17.6270 H   0  0  0  0  0  0
  -28.1129  -11.2990   19.1666 H   0  0  0  0  0  0
  -27.4443  -12.2894   17.8922 H   0  0  0  0  0  0
  -27.4777  -14.2404   19.2779 H   0  0  0  0  0  0
  -28.8510  -12.7009   21.5291 H   0  0  0  0  0  0
  -28.1985  -14.3165   21.6541 H   0  0  0  0  0  0
  -25.2789   -9.5690   22.4734 H   0  0  0  0  0  0
  -24.0022   -7.4641   22.7463 H   0  0  0  0  0  0
  -21.0872   -8.8768   19.8931 H   0  0  0  0  0  0
  -22.3728  -10.9658   19.6140 H   0  0  0  0  0  0
  -21.2027   -7.6145   23.9716 H   0  0  0  0  0  0
  -21.1482   -6.0515   25.9076 H   0  0  0  0  0  0
  -22.0596   -2.7604   23.2840 H   0  0  0  0  0  0
  -22.4082  -11.9795   22.4863 H   0  0  0  0  0  0
  -21.1001  -13.1076   22.2677 H   0  0  0  0  0  0
  -24.6202  -15.8502   20.5357 H   0  0  0  0  0  0
  -26.2294  -15.6412   20.0598 H   0  0  0  0  0  0
  -26.7420  -32.5010   23.0763 H   0  0  0  0  0  0
  -25.0098  -33.9398   25.0133 H   0  0  0  0  0  0
  -22.8195  -31.2499   21.3294 H   0  0  0  0  0  0
  -23.3801  -35.9449   23.3299 H   0  0  0  0  0  0
  -24.3576  -36.8790   22.2065 H   0  0  0  0  0  0
  -23.7214  -37.6334   23.6688 H   0  0  0  0  0  0
  -26.2777  -31.2713   20.6272 H   0  0  0  0  0  0
  -26.9318  -30.6201   22.0818 H   0  0  0  0  0  0
  -28.1453  -28.3916   21.3480 H   0  0  0  0  0  0
  -25.8432  -25.7125   18.9075 H   0  0  0  0  0  0
  -24.0370  -27.2670   18.8931 H   0  0  0  0  0  0
  -23.9197  -30.4755   19.3791 H   0  0  0  0  0  0
  -22.8549  -29.1815   19.8204 H   0  0  0  0  0  0
  -25.1362  -36.1754   25.0798 H   0  0  0  0  0  0
  -21.0057  -28.3398   24.1309 H   0  0  0  0  0  0
  -20.5711  -26.2393   23.3663 H   0  0  0  0  0  0
  -21.6667  -26.7436   22.1215 H   0  0  0  0  0  0
  -19.6928  -25.6278   21.1310 H   0  0  0  0  0  0
  -19.6729  -27.3154   20.6734 H   0  0  0  0  0  0
  -17.4234  -26.6725   21.4023 H   0  0  0  0  0  0
  -18.0338  -26.0112   22.9027 H   0  0  0  0  0  0
  -19.7975  -30.7320   24.2267 H   0  0  0  0  0  0
  -17.5050  -31.6323   24.5133 H   0  0  0  0  0  0
  -15.5388  -30.3022   23.7694 H   0  0  0  0  0  0
  -15.8696  -28.0800   22.7224 H   0  0  0  0  0  0
  -24.5874  -30.7073   25.7585 H   0  0  0  0  0  0
  -24.8777  -32.2969   26.4513 H   0  0  0  0  0  0
  -25.7857  -30.9067   27.0178 H   0  0  0  0  0  0
  -26.3122  -29.6532   24.1422 H   0  0  0  0  0  0
  -27.3897  -29.7206   25.5122 H   0  0  0  0  0  0
  -27.9099  -30.4001   23.9934 H   0  0  0  0  0  0
  -27.2630  -33.3609   26.1976 H   0  0  0  0  0  0
  -28.3956  -32.6761   25.0408 H   0  0  0  0  0  0
  -28.0595  -31.8425   26.5492 H   0  0  0  0  0  0
  -28.2635  -38.0044   24.7523 H   0  0  0  0  0  0
  -28.1068  -36.2581   24.6362 H   0  0  0  0  0  0
  -27.2284  -37.1454   25.8884 H   0  0  0  0  0  0
  -20.9633  -29.8666   21.6552 H   0  0  0  0  0  0
  -26.0150  -38.2763   24.1368 H   0  0  0  0  0  0
  -28.8294  -20.1486   24.0779 H   0  0  0  0  0  0
  -29.5468  -21.4238   23.1073 H   0  0  0  0  0  0
  -30.1705  -19.7793   23.0073 H   0  0  0  0  0  0
  -25.8327  -23.9534   20.0920 H   0  0  0  0  0  0
  -26.4688  -22.3614   19.8468 H   0  0  0  0  0  0
  -26.8137  -23.6021   18.6514 H   0  0  0  0  0  0
  -26.8436  -24.5255   22.1941 H   0  0  0  0  0  0
  -27.3335  -22.8538   22.3591 H   0  0  0  0  0  0
  -28.5178  -24.1353   22.5653 H   0  0  0  0  0  0
  -27.3538  -20.6520   22.1193 H   0  0  0  0  0  0
  -27.9215  -19.0174   22.0939 H   0  0  0  0  0  0
  -29.8977  -22.3702   20.8625 H   0  0  0  0  0  0
  -29.3261  -22.1968   19.2651 H   0  0  0  0  0  0
  -30.0957  -18.7119   19.2269 H   0  0  0  0  0  0
  -30.7349  -18.7980   20.8087 H   0  0  0  0  0  0
  -27.9461  -20.0507   19.9072 H   0  0  0  0  0  0
  -28.6136  -16.6871   20.6037 H   0  0  0  0  0  0
  1 25  1  0  0  0
  1 30  2  0  0  0
  1 79  1  0  0  0
  2  3  1  0  0  0
  2 25  1  0  0  0
  2 80  1  0  0  0
  2 81  1  0  0  0
  3  4  1  0  0  0
  3 82  1  0  0  0
  3 83  1  0  0  0
  4  5  1  0  0  0
  4 84  1  0  0  0
  4 85  1  0  0  0
  5  6  1  0  0  0
  5 26  1  0  0  0
  5 86  1  0  0  0
  6 25  1  0  0  0
  6 87  1  0  0  0
  6 88  1  0  0  0
  7  8  2  0  0  0
  7 26  1  0  0  0
  7 29  1  0  0  0
  8  9  1  0  0  0
  8 22  1  0  0  0
  9 10  1  0  0  0
  9 27  2  0  0  0
 10 11  2  0  0  0
 10 15  1  0  0  0
 11 12  1  0  0  0
 11 89  1  0  0  0
 12 13  2  0  0  0
 12 90  1  0  0  0
 13 14  1  0  0  0
 13 31  1  0  0  0
 14 15  2  0  0  0
 14 91  1  0  0  0
 15 92  1  0  0  0
 16 17  2  0  0  0
 16 21  1  0  0  0
 16 31  1  0  0  0
 17 18  1  0  0  0
 17 93  1  0  0  0
 18 19  2  0  0  0
 18 94  1  0  0  0
 19 20  1  0  0  0
 19 24  1  0  0  0
 20 21  2  0  0  0
 20 95  1  0  0  0
 21 23  1  0  0  0
 22 28  1  0  0  0
 22 32  2  0  0  0
 26 27  1  0  0  0
 28 96  1  0  0  0
 28 97  1  0  0  0
 29 98  1  0  0  0
 29 99  1  0  0  0
 33 34  1  0  0  0
 33 66  1  0  0  0
 33 70  2  0  0  0
 34 36  1  0  0  0
 34 59  1  0  0  0
 34100  1  0  0  0
 35 44  2  0  0  0
 35 45  1  0  0  0
 35 68  1  0  0  0
 36 56  1  0  0  0
 36101  1  0  0  0
 37 39  1  0  0  0
 37 47  1  0  0  0
 37 66  1  0  0  0
 37102  1  0  0  0
 38 43  2  0  0  0
 38 46  1  0  0  0
 38 47  1  0  0  0
 39 64  1  0  0  0
 39 67  2  0  0  0
 40 52  1  0  0  0
 40 53  2  0  0  0
 40 58  1  0  0  0
 41103  1  0  0  0
 41104  1  0  0  0
 41105  1  0  0  0
 41 48  1  0  0  0
 42 43  1  0  0  0
 42 66  1  0  0  0
 42106  1  0  0  0
 42107  1  0  0  0
 43 44  1  0  0  0
 44108  1  0  0  0
 45 46  2  0  0  0
 45109  1  0  0  0
 46110  1  0  0  0
 47111  1  0  0  0
 47112  1  0  0  0
 48 56  1  0  0  0
 48 65  1  0  0  0
 48113  1  0  0  0
 49 50  1  0  0  0
 49 53  1  0  0  0
 49 64  1  0  0  0
 49114  1  0  0  0
 50 51  1  0  0  0
 50115  1  0  0  0
 50116  1  0  0  0
 51 52  1  0  0  0
 51117  1  0  0  0
 51118  1  0  0  0
 52119  1  0  0  0
 52120  1  0  0  0
 53 54  1  0  0  0
 54 55  2  0  0  0
 54121  1  0  0  0
 55 57  1  0  0  0
 55122  1  0  0  0
 56 69  2  0  0  0
 57 58  2  0  0  0
 57123  1  0  0  0
 58124  1  0  0  0
 59 60  1  0  0  0
 59 61  1  0  0  0
 59 62  1  0  0  0
 60125  1  0  0  0
 60126  1  0  0  0
 60127  1  0  0  0
 61128  1  0  0  0
 61129  1  0  0  0
 61130  1  0  0  0
 62131  1  0  0  0
 62132  1  0  0  0
 62133  1  0  0  0
 63 65  1  0  0  0
 63134  1  0  0  0
 63135  1  0  0  0
 63136  1  0  0  0
 64137  1  0  0  0
 65138  1  0  0  0
 68 78  1  0  0  0
 71 74  1  0  0  0
 71139  1  0  0  0
 71140  1  0  0  0
 71141  1  0  0  0
 72142  1  0  0  0
 72143  1  0  0  0
 72144  1  0  0  0
 72 78  1  0  0  0
 73 78  1  0  0  0
 73145  1  0  0  0
 73146  1  0  0  0
 73147  1  0  0  0
 74148  1  0  0  0
 74149  1  0  0  0
 74 77  1  0  0  0
 75 77  1  0  0  0
 75 78  1  0  0  0
 75150  1  0  0  0
 75151  1  0  0  0
 76 77  1  0  0  0
 76 79  1  0  0  0
 76152  1  0  0  0
 76153  1  0  0  0
 77154  1  0  0  0
 79155  1  0  0  0
M  ISO  4   1 100  68 101  78 101  79 100
M  END
> <chiral flag>
0

> <version>
0

> <s_m_source_file>
/data/baiqing/PycharmProjects/Reinvent-master-3.2/result/LINK_invent/BTK/process_docking_weight1_custom_product_contain_oxygen_bond_distance_aromatic_linkinvent_7_9_3/rearranged_h_0192.sdf

> <i_m_source_file_index>
10

> <r_mmod_Potential_Energy-OPLS-2005>
2276.50708007812

> <r_mmod_Stretch_Energy-OPLS-2005>
1106.29016113281

> <r_mmod_Bend_Energy-OPLS-2005>
617.183227539062

> <r_mmod_Torsional_Energy-OPLS-2005>
234.087585449219

> <r_mmod_Improper_Torsional_Energy-OPLS-2005>
3.64948415756226

> <r_mmod_Van_der_Waal_Energy-OPLS-2005>
109.316886901855

> <r_mmod_Electrostatic_Energy-OPLS-2005>
-388.551300048828

> <r_mmod_Solvation_Energy-OPLS-2005>
-202.969421386719

> <b_mmod_Minimization_Converged-OPLS-2005>
0

> <r_mmod_RMS_Derivative-OPLS-2005>
3.02414989471436

$$$$
10
                    3D
 Structure written by MMmdl.
161169  0  0  1  0            999 V2000
  -30.6478  -14.5066   20.5634 C   0  0  0  0  0  0
  -30.4401  -12.3203   19.4422 C   0  0  0  0  0  0
  -29.5118  -12.4980   18.2202 C   0  0  0  0  0  0
  -28.0292  -12.3589   18.6243 C   0  0  0  0  0  0
  -27.6676  -13.1981   19.8794 C   0  0  2  0  0  0
  -28.7035  -12.9689   21.0051 C   0  0  0  0  0  0
  -25.2671  -13.8172   20.5628 C   0  0  0  0  0  0
  -24.1890  -13.0461   20.9136 C   0  0  0  0  0  0
  -24.6406  -11.6917   20.8701 C   0  0  0  0  0  0
  -23.9048  -10.4295   21.0373 C   0  0  0  0  0  0
  -24.3590   -9.4212   21.9154 C   0  0  0  0  0  0
  -23.6274   -8.2246   22.0760 C   0  0  0  0  0  0
  -22.4274   -8.0273   21.3544 C   0  0  0  0  0  0
  -21.9879   -9.0248   20.4662 C   0  0  0  0  0  0
  -22.7203  -10.2132   20.3049 C   0  0  0  0  0  0
  -21.6870   -6.0718   22.5265 C   0  0  0  0  0  0
  -21.4016   -6.5624   23.8195 C   0  0  0  0  0  0
  -21.3645   -5.6795   24.9156 C   0  0  0  0  0  0
  -21.6036   -4.3055   24.7228 C   0  0  0  0  0  0
  -21.8818   -3.8139   23.4346 C   0  0  0  0  0  0
  -21.9203   -4.6938   22.3405 C   0  0  0  0  0  0
  -22.7923  -13.5273   21.1798 C   0  0  0  0  0  0
  -22.1685   -4.2128   21.0987 F   0  0  0  0  0  0
  -21.5609   -3.4545   25.7742 F   0  0  0  0  0  0
  -30.0356  -13.2949   20.4695 N   0  0  0  0  0  0
  -26.3068  -12.9289   20.3333 N   0  0  0  0  0  0
  -25.9333  -11.6454   20.5729 N   0  0  0  0  0  0
  -22.0572  -12.8308   22.0392 N   0  0  0  0  0  0
  -25.4482  -15.1876   20.4015 N   0  0  0  0  0  0
  -31.7496  -14.7373   20.0499 O   0  0  0  0  0  0
  -21.6655   -6.8863   21.4235 O   0  0  0  0  0  0
  -22.3620  -14.5576   20.6641 O   0  0  0  0  0  0
  -24.6189  -31.8588   23.2138 C   0  0  0  0  0  0
  -25.9072  -32.4764   23.8400 C   0  0  1  0  0  0
  -27.2301  -27.4033   20.0941 C   0  0  0  0  0  0
  -25.5920  -33.8573   24.2311 N   0  0  0  0  0  0
  -23.4061  -30.4892   21.5533 C   0  0  2  0  0  0
  -24.8524  -28.9575   20.1140 C   0  0  0  0  0  0
  -22.7407  -29.4635   22.4977 C   0  0  0  0  0  0
  -18.0259  -28.1352   22.8496 C   0  0  0  0  0  0
  -24.1467  -36.7323   23.2640 C   0  0  0  0  0  0
  -25.9395  -30.8162   21.3731 C   0  0  0  0  0  0
  -26.0170  -29.4527   20.7152 C   0  0  0  0  0  0
  -27.2092  -28.6846   20.7045 C   0  0  0  0  0  0
  -26.0468  -26.9462   19.4670 C   0  0  0  0  0  0
  -24.8664  -27.7063   19.4836 C   0  0  0  0  0  0
  -23.6138  -29.8232   20.1678 C   0  0  0  0  0  0
  -25.4079  -36.3089   24.0337 C   0  0  1  0  0  0
  -20.5857  -28.3646   23.1304 C   0  0  2  0  0  0
  -20.6756  -26.9374   22.5410 C   0  0  0  0  0  0
  -19.5746  -26.6376   21.5187 C   0  0  0  0  0  0
  -18.1923  -26.7896   22.1615 C   0  0  0  0  0  0
  -19.1513  -28.8808   23.2904 C   0  0  0  0  0  0
  -18.9443  -30.1416   23.8918 C   0  0  0  0  0  0
  -17.6453  -30.6575   24.0555 C   0  0  0  0  0  0
  -25.9014  -34.9449   23.5103 C   0  0  0  0  0  0
  -16.5338  -29.9061   23.6355 C   0  0  0  0  0  0
  -16.7249  -28.6480   23.0359 C   0  0  0  0  0  0
  -26.4500  -31.6575   25.0747 C   0  0  0  0  0  0
  -25.3825  -31.3661   26.1563 C   0  0  0  0  0  0
  -27.0311  -30.3018   24.6130 C   0  0  0  0  0  0
  -27.6065  -32.4284   25.7541 C   0  0  0  0  0  0
  -27.5549  -37.1816   24.8456 C   0  0  0  0  0  0
  -21.4138  -29.3005   22.3694 N   0  0  0  0  0  0
  -26.4254  -37.3799   23.9418 N   0  0  0  0  0  0
  -24.6739  -31.0675   22.1053 N   0  0  0  0  0  0
  -23.4138  -28.8152   23.3025 O   0  0  0  0  0  0
  -28.3701  -26.6126   20.1255 O   0  0  0  0  0  0
  -26.5541  -34.8921   22.4647 O   0  0  0  0  0  0
  -23.5387  -32.1319   23.7547 O   0  0  0  0  0  0
  -29.5418  -17.0970   19.3462 C   0  0  0  0  0  0
  -29.0221  -18.4202   19.1352 C   0  0  0  0  0  0
  -29.6571  -16.7233   20.6636 C   0  0  0  0  0  0
  -28.8913  -19.1533   20.3024 C   0  0  0  0  0  0
  -28.6578  -18.8494   17.7933 C   0  0  0  0  0  0
  -27.1867  -19.2067   17.5958 C   0  0  0  0  0  0
  -28.3638  -22.1501   18.7281 C   0  0  0  0  0  0
  -28.9777  -22.8561   21.1002 C   0  0  0  0  0  0
  -28.1136  -25.2022   20.3417 C   0  0  0  0  0  0
  -29.0509  -21.7112   20.0354 C   0  0  1  0  0  0
  -29.3554  -24.3302   20.6927 C   0  0  1  0  0  0
  -29.9378  -15.4814   21.1738 N   0  0  0  0  0  0
  -28.4510  -20.4729   20.5870 N   0  0  0  0  0  0
  -29.4058  -18.8318   16.8103 O   0  0  0  0  0  0
  -29.9494  -24.9640   21.8158 O   0  0  0  0  0  0
  -29.2160  -18.0953   21.6727 S   0  0  0  0  0  0
  -31.4866  -12.4396   19.1459 H   0  0  0  0  0  0
  -30.3620  -11.3082   19.8396 H   0  0  0  0  0  0
  -29.7629  -11.7586   17.4576 H   0  0  0  0  0  0
  -29.6772  -13.4753   17.7648 H   0  0  0  0  0  0
  -27.8389  -11.3019   18.8230 H   0  0  0  0  0  0
  -27.3884  -12.6314   17.7862 H   0  0  0  0  0  0
  -27.7162  -14.2473   19.5859 H   0  0  0  0  0  0
  -28.6930  -11.9243   21.3190 H   0  0  0  0  0  0
  -28.4578  -13.5461   21.8975 H   0  0  0  0  0  0
  -25.2716   -9.5712   22.4727 H   0  0  0  0  0  0
  -23.9978   -7.4646   22.7496 H   0  0  0  0  0  0
  -21.0792   -8.8760   19.8990 H   0  0  0  0  0  0
  -22.3627  -10.9670   19.6173 H   0  0  0  0  0  0
  -21.2028   -7.6141   23.9700 H   0  0  0  0  0  0
  -21.1450   -6.0522   25.9060 H   0  0  0  0  0  0
  -22.0614   -2.7595   23.2860 H   0  0  0  0  0  0
  -22.4163  -11.9933   22.4739 H   0  0  0  0  0  0
  -21.1194  -13.1358   22.2593 H   0  0  0  0  0  0
  -24.6940  -15.8542   20.5166 H   0  0  0  0  0  0
  -26.3055  -15.6169   20.0777 H   0  0  0  0  0  0
  -26.7115  -32.5463   23.1118 H   0  0  0  0  0  0
  -25.0145  -33.9701   25.0513 H   0  0  0  0  0  0
  -22.6980  -31.3102   21.4137 H   0  0  0  0  0  0
  -23.3703  -35.9681   23.3295 H   0  0  0  0  0  0
  -24.3575  -36.8937   22.2058 H   0  0  0  0  0  0
  -23.7245  -37.6544   23.6641 H   0  0  0  0  0  0
  -26.0489  -31.5826   20.6054 H   0  0  0  0  0  0
  -26.8251  -30.8639   21.9954 H   0  0  0  0  0  0
  -28.1038  -29.0579   21.1857 H   0  0  0  0  0  0
  -26.0065  -26.0005   18.9492 H   0  0  0  0  0  0
  -23.9772  -27.3286   19.0000 H   0  0  0  0  0  0
  -23.7174  -30.5929   19.4025 H   0  0  0  0  0  0
  -22.7353  -29.2437   19.8792 H   0  0  0  0  0  0
  -25.1256  -36.1959   25.0830 H   0  0  0  0  0  0
  -20.9950  -28.3212   24.1429 H   0  0  0  0  0  0
  -20.5658  -26.2237   23.3586 H   0  0  0  0  0  0
  -21.6618  -26.7415   22.1192 H   0  0  0  0  0  0
  -19.6924  -25.6295   21.1188 H   0  0  0  0  0  0
  -19.6690  -27.3217   20.6734 H   0  0  0  0  0  0
  -17.4186  -26.6613   21.4034 H   0  0  0  0  0  0
  -18.0369  -26.0012   22.9001 H   0  0  0  0  0  0
  -19.7921  -30.7217   24.2297 H   0  0  0  0  0  0
  -17.5016  -31.6292   24.5091 H   0  0  0  0  0  0
  -15.5342  -30.2958   23.7710 H   0  0  0  0  0  0
  -15.8641  -28.0828   22.7041 H   0  0  0  0  0  0
  -24.5996  -30.6950   25.8008 H   0  0  0  0  0  0
  -24.9021  -32.2787   26.5109 H   0  0  0  0  0  0
  -25.8306  -30.8852   27.0276 H   0  0  0  0  0  0
  -26.2834  -29.6813   24.1169 H   0  0  0  0  0  0
  -27.4036  -29.7249   25.4608 H   0  0  0  0  0  0
  -27.8710  -30.4310   23.9293 H   0  0  0  0  0  0
  -27.2644  -33.3555   26.2167 H   0  0  0  0  0  0
  -28.3901  -32.6878   25.0398 H   0  0  0  0  0  0
  -28.0695  -31.8364   26.5446 H   0  0  0  0  0  0
  -28.2583  -38.0103   24.7491 H   0  0  0  0  0  0
  -28.1015  -36.2636   24.6268 H   0  0  0  0  0  0
  -27.2266  -37.1474   25.8860 H   0  0  0  0  0  0
  -20.9293  -29.8718   21.6919 H   0  0  0  0  0  0
  -26.0129  -38.2867   24.1458 H   0  0  0  0  0  0
  -29.7158  -16.4268   18.5141 H   0  0  0  0  0  0
  -26.6956  -19.4114   18.5465 H   0  0  0  0  0  0
  -26.6703  -18.3762   17.1143 H   0  0  0  0  0  0
  -27.0909  -20.0902   16.9671 H   0  0  0  0  0  0
  -28.6907  -23.1377   18.4103 H   0  0  0  0  0  0
  -27.2769  -22.1705   18.8191 H   0  0  0  0  0  0
  -28.6315  -21.5125   17.8931 H   0  0  0  0  0  0
  -29.6272  -22.5482   21.9217 H   0  0  0  0  0  0
  -27.9691  -22.8696   21.5175 H   0  0  0  0  0  0
  -27.3916  -25.1117   21.1557 H   0  0  0  0  0  0
  -27.6467  -24.7868   19.4496 H   0  0  0  0  0  0
  -30.1058  -21.5271   19.8207 H   0  0  0  0  0  0
  -30.0849  -24.3273   19.8818 H   0  0  0  0  0  0
  -29.2687  -15.1412   21.8498 H   0  0  0  0  0  0
  -28.2057  -20.5694   21.5701 H   0  0  0  0  0  0
  -30.1277  -25.8658   21.5557 H   0  0  0  0  0  0
  1 25  1  0  0  0
  1 30  2  0  0  0
  1 82  1  0  0  0
  2  3  1  0  0  0
  2 25  1  0  0  0
  2 87  1  0  0  0
  2 88  1  0  0  0
  3  4  1  0  0  0
  3 89  1  0  0  0
  3 90  1  0  0  0
  4  5  1  0  0  0
  4 91  1  0  0  0
  4 92  1  0  0  0
  5  6  1  0  0  0
  5 26  1  0  0  0
  5 93  1  0  0  0
  6 25  1  0  0  0
  6 94  1  0  0  0
  6 95  1  0  0  0
  7  8  2  0  0  0
  7 26  1  0  0  0
  7 29  1  0  0  0
  8  9  1  0  0  0
  8 22  1  0  0  0
  9 10  1  0  0  0
  9 27  2  0  0  0
 10 11  2  0  0  0
 10 15  1  0  0  0
 11 12  1  0  0  0
 11 96  1  0  0  0
 12 13  2  0  0  0
 12 97  1  0  0  0
 13 14  1  0  0  0
 13 31  1  0  0  0
 14 15  2  0  0  0
 14 98  1  0  0  0
 15 99  1  0  0  0
 16 17  2  0  0  0
 16 21  1  0  0  0
 16 31  1  0  0  0
 17 18  1  0  0  0
 17100  1  0  0  0
 18 19  2  0  0  0
 18101  1  0  0  0
 19 20  1  0  0  0
 19 24  1  0  0  0
 20 21  2  0  0  0
 20102  1  0  0  0
 21 23  1  0  0  0
 22 28  1  0  0  0
 22 32  2  0  0  0
 26 27  1  0  0  0
 28103  1  0  0  0
 28104  1  0  0  0
 29105  1  0  0  0
 29106  1  0  0  0
 33 34  1  0  0  0
 33 66  1  0  0  0
 33 70  2  0  0  0
 34 36  1  0  0  0
 34 59  1  0  0  0
 34107  1  0  0  0
 35 44  2  0  0  0
 35 45  1  0  0  0
 35 68  1  0  0  0
 36 56  1  0  0  0
 36108  1  0  0  0
 37 39  1  0  0  0
 37 47  1  0  0  0
 37 66  1  0  0  0
 37109  1  0  0  0
 38 43  2  0  0  0
 38 46  1  0  0  0
 38 47  1  0  0  0
 39 64  1  0  0  0
 39 67  2  0  0  0
 40 52  1  0  0  0
 40 53  2  0  0  0
 40 58  1  0  0  0
 41110  1  0  0  0
 41111  1  0  0  0
 41112  1  0  0  0
 41 48  1  0  0  0
 42 43  1  0  0  0
 42 66  1  0  0  0
 42113  1  0  0  0
 42114  1  0  0  0
 43 44  1  0  0  0
 44115  1  0  0  0
 45 46  2  0  0  0
 45116  1  0  0  0
 46117  1  0  0  0
 47118  1  0  0  0
 47119  1  0  0  0
 48 56  1  0  0  0
 48 65  1  0  0  0
 48120  1  0  0  0
 49 50  1  0  0  0
 49 53  1  0  0  0
 49 64  1  0  0  0
 49121  1  0  0  0
 50 51  1  0  0  0
 50122  1  0  0  0
 50123  1  0  0  0
 51 52  1  0  0  0
 51124  1  0  0  0
 51125  1  0  0  0
 52126  1  0  0  0
 52127  1  0  0  0
 53 54  1  0  0  0
 54 55  2  0  0  0
 54128  1  0  0  0
 55 57  1  0  0  0
 55129  1  0  0  0
 56 69  2  0  0  0
 57 58  2  0  0  0
 57130  1  0  0  0
 58131  1  0  0  0
 59 60  1  0  0  0
 59 61  1  0  0  0
 59 62  1  0  0  0
 60132  1  0  0  0
 60133  1  0  0  0
 60134  1  0  0  0
 61135  1  0  0  0
 61136  1  0  0  0
 61137  1  0  0  0
 62138  1  0  0  0
 62139  1  0  0  0
 62140  1  0  0  0
 63 65  1  0  0  0
 63141  1  0  0  0
 63142  1  0  0  0
 63143  1  0  0  0
 64144  1  0  0  0
 65145  1  0  0  0
 68 79  1  0  0  0
 71 72  1  0  0  0
 71 73  2  0  0  0
 71146  1  0  0  0
 72 74  2  0  0  0
 72 75  1  0  0  0
 73 82  1  0  0  0
 73 86  1  0  0  0
 74 83  1  0  0  0
 74 86  1  0  0  0
 75 76  1  0  0  0
 75 84  2  0  0  0
 76147  1  0  0  0
 76148  1  0  0  0
 76149  1  0  0  0
 77150  1  0  0  0
 77151  1  0  0  0
 77152  1  0  0  0
 77 80  1  0  0  0
 78 80  1  0  0  0
 78 81  1  0  0  0
 78153  1  0  0  0
 78154  1  0  0  0
 79 81  1  0  0  0
 79155  1  0  0  0
 79156  1  0  0  0
 80 83  1  0  0  0
 80157  1  0  0  0
 81 85  1  0  0  0
 81158  1  0  0  0
 82159  1  0  0  0
 83160  1  0  0  0
 85161  1  0  0  0
M  ISO  4   1 100  68 101  79 101  82 100
M  END
> <chiral flag>
0

> <version>
0

> <s_m_source_file>
/data/baiqing/PycharmProjects/Reinvent-master-3.2/result/LINK_invent/BTK/process_docking_weight1_custom_product_contain_oxygen_bond_distance_aromatic_linkinvent_7_9_3/rearranged_h_0192.sdf

> <i_m_source_file_index>
11

> <r_mmod_Potential_Energy-OPLS-2005>
86.7898025512695

> <r_mmod_Stretch_Energy-OPLS-2005>
46.1405792236328

> <r_mmod_Bend_Energy-OPLS-2005>
118.47484588623

> <r_mmod_Torsional_Energy-OPLS-2005>
325.532104492188

> <r_mmod_Improper_Torsional_Energy-OPLS-2005>
9.69879913330078

> <r_mmod_Van_der_Waal_Energy-OPLS-2005>
129.478927612305

> <r_mmod_Electrostatic_Energy-OPLS-2005>
-319.195983886719

> <r_mmod_Solvation_Energy-OPLS-2005>
-242.433868408203

> <b_mmod_Minimization_Converged-OPLS-2005>
0

> <r_mmod_RMS_Derivative-OPLS-2005>
4.85172271728516

$$$$
11
                    3D
 Structure written by MMmdl.
143150  0  0  1  0            999 V2000
  -30.1640  -16.0036   20.2898 C   0  0  0  0  0  0
  -30.3923  -13.3526   19.5628 C   0  0  0  0  0  0
  -29.5651  -12.7616   18.3725 C   0  0  0  0  0  0
  -28.1687  -12.3226   18.8265 C   0  0  0  0  0  0
  -27.5855  -13.3502   19.8161 C   0  0  2  0  0  0
  -28.5706  -13.8335   20.9191 C   0  0  0  0  0  0
  -25.2257  -13.8350   20.5849 C   0  0  0  0  0  0
  -24.1687  -13.0444   20.9308 C   0  0  0  0  0  0
  -24.6446  -11.6972   20.8758 C   0  0  0  0  0  0
  -23.9156  -10.4301   21.0381 C   0  0  0  0  0  0
  -24.3678   -9.4213   21.9170 C   0  0  0  0  0  0
  -23.6330   -8.2258   22.0750 C   0  0  0  0  0  0
  -22.4308   -8.0298   21.3544 C   0  0  0  0  0  0
  -21.9962   -9.0273   20.4640 C   0  0  0  0  0  0
  -22.7314  -10.2141   20.3040 C   0  0  0  0  0  0
  -21.6865   -6.0748   22.5278 C   0  0  0  0  0  0
  -21.4024   -6.5647   23.8212 C   0  0  0  0  0  0
  -21.3663   -5.6797   24.9172 C   0  0  0  0  0  0
  -21.6045   -4.3059   24.7221 C   0  0  0  0  0  0
  -21.8818   -3.8153   23.4341 C   0  0  0  0  0  0
  -21.9197   -4.6973   22.3399 C   0  0  0  0  0  0
  -22.7689  -13.5140   21.1931 C   0  0  0  0  0  0
  -22.1664   -4.2158   21.0976 F   0  0  0  0  0  0
  -21.5626   -3.4541   25.7733 F   0  0  0  0  0  0
  -29.6928  -14.5675   20.2542 N   0  0  0  0  0  0
  -26.2757  -12.9763   20.3305 N   0  0  0  0  0  0
  -25.9411  -11.6785   20.5688 N   0  0  0  0  0  0
  -22.0368  -12.8104   22.0483 N   0  0  0  0  0  0
  -25.3797  -15.2099   20.4295 N   0  0  0  0  0  0
  -31.3979  -15.8838   20.0962 O   0  0  0  0  0  0
  -21.6659   -6.8900   21.4244 O   0  0  0  0  0  0
  -22.3351  -14.5434   20.6768 O   0  0  0  0  0  0
  -24.7075  -31.7691   23.1293 C   0  0  0  0  0  0
  -25.9534  -32.4313   23.7937 C   0  0  1  0  0  0
  -27.2414  -26.4435   20.2360 C   0  0  0  0  0  0
  -25.6008  -33.8155   24.1796 N   0  0  0  0  0  0
  -23.5463  -30.3579   21.4882 C   0  0  2  0  0  0
  -25.0090  -28.6452   20.1193 C   0  0  0  0  0  0
  -22.7877  -29.4145   22.4631 C   0  0  0  0  0  0
  -18.0355  -28.1433   22.8442 C   0  0  0  0  0  0
  -24.1497  -36.7087   23.2658 C   0  0  0  0  0  0
  -26.1359  -30.4146   21.4352 C   0  0  0  0  0  0
  -26.1982  -28.9510   20.7891 C   0  0  0  0  0  0
  -27.2813  -27.8840   20.8131 C   0  0  0  0  0  0
  -26.0223  -26.4167   19.4915 C   0  0  0  0  0  0
  -24.9761  -27.4078   19.4456 C   0  0  0  0  0  0
  -23.8151  -29.6302   20.1340 C   0  0  0  0  0  0
  -25.4157  -36.2807   24.0261 C   0  0  1  0  0  0
  -20.6001  -28.3805   23.1093 C   0  0  2  0  0  0
  -20.6805  -26.9439   22.5409 C   0  0  0  0  0  0
  -19.5786  -26.6360   21.5219 C   0  0  0  0  0  0
  -18.1969  -26.7955   22.1615 C   0  0  0  0  0  0
  -19.1627  -28.8950   23.2740 C   0  0  0  0  0  0
  -18.9528  -30.1527   23.8796 C   0  0  0  0  0  0
  -17.6515  -30.6609   24.0544 C   0  0  0  0  0  0
  -25.9154  -34.9203   23.4887 C   0  0  0  0  0  0
  -16.5403  -29.9085   23.6357 C   0  0  0  0  0  0
  -16.7333  -28.6509   23.0373 C   0  0  0  0  0  0
  -26.4633  -31.6463   25.0670 C   0  0  0  0  0  0
  -25.3629  -31.3854   26.1235 C   0  0  0  0  0  0
  -27.0611  -30.2773   24.6766 C   0  0  0  0  0  0
  -27.6030  -32.4392   25.7501 C   0  0  0  0  0  0
  -27.5558  -37.1696   24.8464 C   0  0  0  0  0  0
  -21.4500  -29.2997   22.3381 N   0  0  0  0  0  0
  -26.4259  -37.3599   23.9410 N   0  0  0  0  0  0
  -24.8228  -30.8874   22.0691 N   0  0  0  0  0  0
  -23.4199  -28.7794   23.3101 O   0  0  0  0  0  0
  -28.1673  -25.1091   20.3722 O   0  0  0  0  0  0
  -26.5834  -34.8833   22.4532 O   0  0  0  0  0  0
  -23.6039  -32.0891   23.6080 O   0  0  0  0  0  0
  -29.0485  -19.3496   18.4949 C   0  0  0  0  0  0
  -28.7144  -21.2637   20.5492 C   0  0  0  0  0  0
  -28.2754  -23.2522   19.9855 C   0  0  0  0  0  0
  -29.3848  -19.3459   19.9902 C   0  0  1  0  0  0
  -29.4135  -17.4701   20.3667 N   0  0  0  0  0  0
  -31.3613  -13.6551   19.1652 H   0  0  0  0  0  0
  -30.6322  -12.5718   20.2869 H   0  0  0  0  0  0
  -30.0942  -11.9250   17.9141 H   0  0  0  0  0  0
  -29.4679  -13.5245   17.5987 H   0  0  0  0  0  0
  -28.2600  -11.3545   19.3204 H   0  0  0  0  0  0
  -27.5075  -12.1774   17.9712 H   0  0  0  0  0  0
  -27.4025  -14.2239   19.1885 H   0  0  0  0  0  0
  -28.9056  -13.0128   21.5554 H   0  0  0  0  0  0
  -28.0636  -14.5352   21.5828 H   0  0  0  0  0  0
  -25.2815   -9.5685   22.4759 H   0  0  0  0  0  0
  -24.0026   -7.4653   22.7481 H   0  0  0  0  0  0
  -21.0889   -8.8806   19.8948 H   0  0  0  0  0  0
  -22.3772  -10.9681   19.6152 H   0  0  0  0  0  0
  -21.2021   -7.6156   23.9718 H   0  0  0  0  0  0
  -21.1485   -6.0527   25.9076 H   0  0  0  0  0  0
  -22.0592   -2.7615   23.2839 H   0  0  0  0  0  0
  -22.4027  -11.9788   22.4878 H   0  0  0  0  0  0
  -21.0969  -13.1079   22.2681 H   0  0  0  0  0  0
  -24.6054  -15.8559   20.5387 H   0  0  0  0  0  0
  -26.2214  -15.6540   20.0868 H   0  0  0  0  0  0
  -26.7642  -32.4721   23.0662 H   0  0  0  0  0  0
  -25.0021  -33.9149   24.9861 H   0  0  0  0  0  0
  -22.8864  -31.2015   21.2755 H   0  0  0  0  0  0
  -23.3786  -35.9386   23.3243 H   0  0  0  0  0  0
  -24.3556  -36.8845   22.2089 H   0  0  0  0  0  0
  -23.7231  -37.6223   23.6809 H   0  0  0  0  0  0
  -26.3667  -31.1217   20.6374 H   0  0  0  0  0  0
  -26.9765  -30.4913   22.1116 H   0  0  0  0  0  0
  -28.1632  -28.1298   21.3876 H   0  0  0  0  0  0
  -25.8156  -25.4961   18.9641 H   0  0  0  0  0  0
  -24.0872  -27.1612   18.8812 H   0  0  0  0  0  0
  -24.0083  -30.3792   19.3653 H   0  0  0  0  0  0
  -22.9153  -29.1072   19.8056 H   0  0  0  0  0  0
  -25.1378  -36.1529   25.0749 H   0  0  0  0  0  0
  -21.0075  -28.3451   24.1223 H   0  0  0  0  0  0
  -20.5643  -26.2437   23.3696 H   0  0  0  0  0  0
  -21.6665  -26.7339   22.1244 H   0  0  0  0  0  0
  -19.6938  -25.6245   21.1314 H   0  0  0  0  0  0
  -19.6737  -27.3116   20.6706 H   0  0  0  0  0  0
  -17.4241  -26.6700   21.4017 H   0  0  0  0  0  0
  -18.0348  -26.0120   22.9032 H   0  0  0  0  0  0
  -19.8004  -30.7367   24.2123 H   0  0  0  0  0  0
  -17.5064  -31.6279   24.5166 H   0  0  0  0  0  0
  -15.5399  -30.2957   23.7737 H   0  0  0  0  0  0
  -15.8734  -28.0793   22.7148 H   0  0  0  0  0  0
  -24.5856  -30.7165   25.7522 H   0  0  0  0  0  0
  -24.8776  -32.3097   26.4376 H   0  0  0  0  0  0
  -25.7743  -30.9198   27.0200 H   0  0  0  0  0  0
  -26.3380  -29.6302   24.1794 H   0  0  0  0  0  0
  -27.3967  -29.7331   25.5604 H   0  0  0  0  0  0
  -27.9385  -30.3839   24.0386 H   0  0  0  0  0  0
  -27.2533  -33.3792   26.1781 H   0  0  0  0  0  0
  -28.3985  -32.6798   25.0436 H   0  0  0  0  0  0
  -28.0541  -31.8730   26.5659 H   0  0  0  0  0  0
  -28.2517  -38.0044   24.7530 H   0  0  0  0  0  0
  -28.1112  -36.2564   24.6268 H   0  0  0  0  0  0
  -27.2275  -37.1296   25.8864 H   0  0  0  0  0  0
  -20.9868  -29.8610   21.6369 H   0  0  0  0  0  0
  -26.0061  -38.2631   24.1440 H   0  0  0  0  0  0
  -29.3023  -20.3074   18.0395 H   0  0  0  0  0  0
  -27.9836  -19.1799   18.3338 H   0  0  0  0  0  0
  -29.5980  -18.5769   17.9561 H   0  0  0  0  0  0
  -27.7852  -21.0066   21.0577 H   0  0  0  0  0  0
  -29.3931  -21.4550   21.3804 H   0  0  0  0  0  0
  -27.3066  -23.1182   19.5040 H   0  0  0  0  0  0
  -28.9576  -23.3382   19.1399 H   0  0  0  0  0  0
  -30.4613  -19.5173   20.0331 H   0  0  0  0  0  0
  -28.4680  -17.2311   20.6352 H   0  0  0  0  0  0
  1 25  1  0  0  0
  1 30  2  0  0  0
  1 75  1  0  0  0
  2  3  1  0  0  0
  2 25  1  0  0  0
  2 76  1  0  0  0
  2 77  1  0  0  0
  3  4  1  0  0  0
  3 78  1  0  0  0
  3 79  1  0  0  0
  4  5  1  0  0  0
  4 80  1  0  0  0
  4 81  1  0  0  0
  5  6  1  0  0  0
  5 26  1  0  0  0
  5 82  1  0  0  0
  6 25  1  0  0  0
  6 83  1  0  0  0
  6 84  1  0  0  0
  7  8  2  0  0  0
  7 26  1  0  0  0
  7 29  1  0  0  0
  8  9  1  0  0  0
  8 22  1  0  0  0
  9 10  1  0  0  0
  9 27  2  0  0  0
 10 11  2  0  0  0
 10 15  1  0  0  0
 11 12  1  0  0  0
 11 85  1  0  0  0
 12 13  2  0  0  0
 12 86  1  0  0  0
 13 14  1  0  0  0
 13 31  1  0  0  0
 14 15  2  0  0  0
 14 87  1  0  0  0
 15 88  1  0  0  0
 16 17  2  0  0  0
 16 21  1  0  0  0
 16 31  1  0  0  0
 17 18  1  0  0  0
 17 89  1  0  0  0
 18 19  2  0  0  0
 18 90  1  0  0  0
 19 20  1  0  0  0
 19 24  1  0  0  0
 20 21  2  0  0  0
 20 91  1  0  0  0
 21 23  1  0  0  0
 22 28  1  0  0  0
 22 32  2  0  0  0
 26 27  1  0  0  0
 28 92  1  0  0  0
 28 93  1  0  0  0
 29 94  1  0  0  0
 29 95  1  0  0  0
 33 34  1  0  0  0
 33 66  1  0  0  0
 33 70  2  0  0  0
 34 36  1  0  0  0
 34 59  1  0  0  0
 34 96  1  0  0  0
 35 44  2  0  0  0
 35 45  1  0  0  0
 35 68  1  0  0  0
 36 56  1  0  0  0
 36 97  1  0  0  0
 37 39  1  0  0  0
 37 47  1  0  0  0
 37 66  1  0  0  0
 37 98  1  0  0  0
 38 43  2  0  0  0
 38 46  1  0  0  0
 38 47  1  0  0  0
 39 64  1  0  0  0
 39 67  2  0  0  0
 40 52  1  0  0  0
 40 53  2  0  0  0
 40 58  1  0  0  0
 41 99  1  0  0  0
 41100  1  0  0  0
 41101  1  0  0  0
 41 48  1  0  0  0
 42 43  1  0  0  0
 42 66  1  0  0  0
 42102  1  0  0  0
 42103  1  0  0  0
 43 44  1  0  0  0
 44104  1  0  0  0
 45 46  2  0  0  0
 45105  1  0  0  0
 46106  1  0  0  0
 47107  1  0  0  0
 47108  1  0  0  0
 48 56  1  0  0  0
 48 65  1  0  0  0
 48109  1  0  0  0
 49 50  1  0  0  0
 49 53  1  0  0  0
 49 64  1  0  0  0
 49110  1  0  0  0
 50 51  1  0  0  0
 50111  1  0  0  0
 50112  1  0  0  0
 51 52  1  0  0  0
 51113  1  0  0  0
 51114  1  0  0  0
 52115  1  0  0  0
 52116  1  0  0  0
 53 54  1  0  0  0
 54 55  2  0  0  0
 54117  1  0  0  0
 55 57  1  0  0  0
 55118  1  0  0  0
 56 69  2  0  0  0
 57 58  2  0  0  0
 57119  1  0  0  0
 58120  1  0  0  0
 59 60  1  0  0  0
 59 61  1  0  0  0
 59 62  1  0  0  0
 60121  1  0  0  0
 60122  1  0  0  0
 60123  1  0  0  0
 61124  1  0  0  0
 61125  1  0  0  0
 61126  1  0  0  0
 62127  1  0  0  0
 62128  1  0  0  0
 62129  1  0  0  0
 63 65  1  0  0  0
 63130  1  0  0  0
 63131  1  0  0  0
 63132  1  0  0  0
 64133  1  0  0  0
 65134  1  0  0  0
 68 73  1  0  0  0
 71135  1  0  0  0
 71136  1  0  0  0
 71137  1  0  0  0
 71 74  1  0  0  0
 72 73  1  0  0  0
 72 74  1  0  0  0
 72138  1  0  0  0
 72139  1  0  0  0
 73140  1  0  0  0
 73141  1  0  0  0
 74 75  1  0  0  0
 74142  1  0  0  0
 75143  1  0  0  0
M  ISO  4   1 100  68 101  73 101  75 100
M  END
> <chiral flag>
0

> <version>
0

> <s_m_source_file>
/data/baiqing/PycharmProjects/Reinvent-master-3.2/result/LINK_invent/BTK/process_docking_weight1_custom_product_contain_oxygen_bond_distance_aromatic_linkinvent_7_9_3/rearranged_h_0192.sdf

> <i_m_source_file_index>
12

> <r_mmod_Potential_Energy-OPLS-2005>
4160.39990234375

> <r_mmod_Stretch_Energy-OPLS-2005>
1938.98266601562

> <r_mmod_Bend_Energy-OPLS-2005>
891.2353515625

> <r_mmod_Torsional_Energy-OPLS-2005>
225.909072875977

> <r_mmod_Improper_Torsional_Energy-OPLS-2005>
4.00446653366089

> <r_mmod_Van_der_Waal_Energy-OPLS-2005>
112.343627929688

> <r_mmod_Electrostatic_Energy-OPLS-2005>
-332.167144775391

> <r_mmod_Solvation_Energy-OPLS-2005>
-217.999374389648

> <b_mmod_Minimization_Converged-OPLS-2005>
0

> <r_mmod_RMS_Derivative-OPLS-2005>
0.210489928722382

$$$$
12
                    3D
 Structure written by MMmdl.
165173  0  0  1  0            999 V2000
  -30.6991  -14.4664   20.6461 C   0  0  0  0  0  0
  -30.4332  -12.3305   19.4096 C   0  0  0  0  0  0
  -29.4938  -12.5346   18.2018 C   0  0  0  0  0  0
  -28.0159  -12.3844   18.6145 C   0  0  0  0  0  0
  -27.6669  -13.2075   19.8816 C   0  0  2  0  0  0
  -28.7073  -12.9544   20.9961 C   0  0  0  0  0  0
  -25.2577  -13.8138   20.5633 C   0  0  0  0  0  0
  -24.1837  -13.0429   20.9179 C   0  0  0  0  0  0
  -24.6393  -11.6899   20.8749 C   0  0  0  0  0  0
  -23.9050  -10.4293   21.0416 C   0  0  0  0  0  0
  -24.3596   -9.4207   21.9199 C   0  0  0  0  0  0
  -23.6278   -8.2238   22.0755 C   0  0  0  0  0  0
  -22.4266   -8.0275   21.3540 C   0  0  0  0  0  0
  -21.9897   -9.0253   20.4643 C   0  0  0  0  0  0
  -22.7221  -10.2134   20.3060 C   0  0  0  0  0  0
  -21.6850   -6.0726   22.5286 C   0  0  0  0  0  0
  -21.4010   -6.5634   23.8219 C   0  0  0  0  0  0
  -21.3656   -5.6786   24.9179 C   0  0  0  0  0  0
  -21.6037   -4.3048   24.7227 C   0  0  0  0  0  0
  -21.8820   -3.8137   23.4351 C   0  0  0  0  0  0
  -21.9191   -4.6955   22.3404 C   0  0  0  0  0  0
  -22.7864  -13.5249   21.1835 C   0  0  0  0  0  0
  -22.1663   -4.2140   21.0982 F   0  0  0  0  0  0
  -21.5626   -3.4530   25.7740 F   0  0  0  0  0  0
  -30.0488  -13.2797   20.4690 N   0  0  0  0  0  0
  -26.3048  -12.9331   20.3383 N   0  0  0  0  0  0
  -25.9332  -11.6489   20.5785 N   0  0  0  0  0  0
  -22.0464  -12.8275   22.0381 N   0  0  0  0  0  0
  -25.4197  -15.1839   20.3919 N   0  0  0  0  0  0
  -31.7209  -14.7729   20.0223 O   0  0  0  0  0  0
  -21.6627   -6.8876   21.4247 O   0  0  0  0  0  0
  -22.3580  -14.5565   20.6675 O   0  0  0  0  0  0
  -24.6159  -31.8661   23.2095 C   0  0  0  0  0  0
  -25.9050  -32.4810   23.8393 C   0  0  1  0  0  0
  -27.2340  -27.4095   20.0988 C   0  0  0  0  0  0
  -25.5906  -33.8610   24.2324 N   0  0  0  0  0  0
  -23.4045  -30.4896   21.5507 C   0  0  2  0  0  0
  -24.8503  -28.9511   20.1170 C   0  0  0  0  0  0
  -22.7416  -29.4649   22.4993 C   0  0  0  0  0  0
  -18.0269  -28.1372   22.8488 C   0  0  0  0  0  0
  -24.1486  -36.7311   23.2640 C   0  0  0  0  0  0
  -25.9363  -30.8224   21.3674 C   0  0  0  0  0  0
  -26.0119  -29.4550   20.7141 C   0  0  0  0  0  0
  -27.2055  -28.6927   20.6990 C   0  0  0  0  0  0
  -26.0539  -26.9323   19.4828 C   0  0  0  0  0  0
  -24.8668  -27.6900   19.4980 C   0  0  0  0  0  0
  -23.6135  -29.8209   20.1660 C   0  0  0  0  0  0
  -25.4106  -36.3106   24.0341 C   0  0  1  0  0  0
  -20.5860  -28.3656   23.1319 C   0  0  2  0  0  0
  -20.6757  -26.9392   22.5418 C   0  0  0  0  0  0
  -19.5739  -26.6379   21.5209 C   0  0  0  0  0  0
  -18.1916  -26.7921   22.1614 C   0  0  0  0  0  0
  -19.1517  -28.8832   23.2897 C   0  0  0  0  0  0
  -18.9449  -30.1440   23.8902 C   0  0  0  0  0  0
  -17.6452  -30.6581   24.0555 C   0  0  0  0  0  0
  -25.9036  -34.9469   23.5129 C   0  0  0  0  0  0
  -16.5340  -29.9079   23.6328 C   0  0  0  0  0  0
  -16.7256  -28.6495   23.0350 C   0  0  0  0  0  0
  -26.4472  -31.6596   25.0729 C   0  0  0  0  0  0
  -25.3740  -31.3721   26.1485 C   0  0  0  0  0  0
  -27.0293  -30.3027   24.6132 C   0  0  0  0  0  0
  -27.6058  -32.4308   25.7481 C   0  0  0  0  0  0
  -27.5583  -37.1805   24.8464 C   0  0  0  0  0  0
  -21.4142  -29.3023   22.3730 N   0  0  0  0  0  0
  -26.4290  -37.3793   23.9414 N   0  0  0  0  0  0
  -24.6706  -31.0744   22.1005 N   0  0  0  0  0  0
  -23.4182  -28.8188   23.3035 O   0  0  0  0  0  0
  -28.4112  -26.6781   20.0950 O   0  0  0  0  0  0
  -26.5597  -34.8922   22.4689 O   0  0  0  0  0  0
  -23.5347  -32.1428   23.7477 O   0  0  0  0  0  0
  -27.8267  -18.2654   21.6872 C   0  0  0  0  0  0
  -28.9853  -18.6687   21.0521 C   0  0  0  0  0  0
  -29.4992  -16.4697   21.5007 C   0  0  0  0  0  0
  -26.5918  -19.0073   21.9825 C   0  0  0  0  0  0
  -25.4638  -18.3319   22.7558 C   0  0  0  0  0  0
  -28.9888  -24.8883   17.8251 C   0  0  0  0  0  0
  -31.2223  -20.5127   21.8881 C   0  0  0  0  0  0
  -29.3240  -22.9384   19.4087 C   0  0  0  0  0  0
  -29.9843  -22.3561   20.6843 C   0  0  0  0  0  0
  -28.3486  -25.2384   20.2503 C   0  0  0  0  0  0
  -29.3123  -24.5000   19.2789 C   0  0  2  0  0  0
  -30.3670  -20.8383   20.6505 C   0  0  2  0  0  0
  -29.9371  -17.6196   20.9417 N   0  0  0  0  0  0
  -29.1751  -19.9911   20.5616 N   0  0  0  0  0  0
  -30.2034  -15.2363   21.6307 N   0  0  0  0  0  0
  -26.4322  -20.1769   21.6203 O   0  0  0  0  0  0
  -27.9198  -16.6123   22.2375 S   0  0  0  0  0  0
  -31.4741  -12.4543   19.1051 H   0  0  0  0  0  0
  -30.3545  -11.3081   19.7820 H   0  0  0  0  0  0
  -29.7336  -11.8185   17.4150 H   0  0  0  0  0  0
  -29.6552  -13.5246   17.7724 H   0  0  0  0  0  0
  -27.8261  -11.3263   18.7963 H   0  0  0  0  0  0
  -27.3620  -12.6721   17.7894 H   0  0  0  0  0  0
  -27.7199  -14.2610   19.6064 H   0  0  0  0  0  0
  -28.6828  -11.9054   21.2943 H   0  0  0  0  0  0
  -28.4416  -13.5092   21.8958 H   0  0  0  0  0  0
  -25.2736   -9.5686   22.4780 H   0  0  0  0  0  0
  -23.9970   -7.4625   22.7478 H   0  0  0  0  0  0
  -21.0817   -8.8779   19.8969 H   0  0  0  0  0  0
  -22.3675  -10.9673   19.6171 H   0  0  0  0  0  0
  -21.2004   -7.6144   23.9724 H   0  0  0  0  0  0
  -21.1478   -6.0510   25.9083 H   0  0  0  0  0  0
  -22.0602   -2.7601   23.2844 H   0  0  0  0  0  0
  -22.4025  -11.9939   22.4817 H   0  0  0  0  0  0
  -21.1092  -13.1364   22.2552 H   0  0  0  0  0  0
  -24.6278  -15.8137   20.4474 H   0  0  0  0  0  0
  -26.2466  -15.6149   20.0025 H   0  0  0  0  0  0
  -26.7114  -32.5510   23.1148 H   0  0  0  0  0  0
  -25.0059  -33.9765   25.0473 H   0  0  0  0  0  0
  -22.6935  -31.3067   21.4115 H   0  0  0  0  0  0
  -23.3746  -35.9647   23.3306 H   0  0  0  0  0  0
  -24.3582  -36.8919   22.2054 H   0  0  0  0  0  0
  -23.7236  -37.6519   23.6644 H   0  0  0  0  0  0
  -26.0546  -31.5879   20.5992 H   0  0  0  0  0  0
  -26.8219  -30.8721   21.9890 H   0  0  0  0  0  0
  -28.1024  -29.0800   21.1617 H   0  0  0  0  0  0
  -26.0368  -25.9833   18.9679 H   0  0  0  0  0  0
  -23.9763  -27.3013   19.0232 H   0  0  0  0  0  0
  -23.7217  -30.5949   19.4054 H   0  0  0  0  0  0
  -22.7371  -29.2412   19.8715 H   0  0  0  0  0  0
  -25.1278  -36.1972   25.0835 H   0  0  0  0  0  0
  -20.9944  -28.3214   24.1442 H   0  0  0  0  0  0
  -20.5649  -26.2263   23.3603 H   0  0  0  0  0  0
  -21.6628  -26.7426   22.1217 H   0  0  0  0  0  0
  -19.6899  -25.6291   21.1231 H   0  0  0  0  0  0
  -19.6687  -27.3193   20.6744 H   0  0  0  0  0  0
  -17.4193  -26.6674   21.4010 H   0  0  0  0  0  0
  -18.0307  -26.0054   22.8999 H   0  0  0  0  0  0
  -19.7928  -30.7250   24.2275 H   0  0  0  0  0  0
  -17.5010  -31.6265   24.5147 H   0  0  0  0  0  0
  -15.5340  -30.2982   23.7659 H   0  0  0  0  0  0
  -15.8653  -28.0818   22.7062 H   0  0  0  0  0  0
  -24.5920  -30.7047   25.7845 H   0  0  0  0  0  0
  -24.8916  -32.2876   26.4918 H   0  0  0  0  0  0
  -25.8100  -30.8920   27.0254 H   0  0  0  0  0  0
  -26.2837  -29.6792   24.1183 H   0  0  0  0  0  0
  -27.4034  -29.7266   25.4606 H   0  0  0  0  0  0
  -27.8690  -30.4321   23.9301 H   0  0  0  0  0  0
  -27.2696  -33.3608   26.2075 H   0  0  0  0  0  0
  -28.3859  -32.6863   25.0298 H   0  0  0  0  0  0
  -28.0735  -31.8418   26.5380 H   0  0  0  0  0  0
  -28.2610  -38.0095   24.7505 H   0  0  0  0  0  0
  -28.1066  -36.2626   24.6285 H   0  0  0  0  0  0
  -27.2304  -37.1457   25.8868 H   0  0  0  0  0  0
  -20.9307  -29.8756   21.6962 H   0  0  0  0  0  0
  -26.0182  -38.2874   24.1410 H   0  0  0  0  0  0
  -25.1323  -17.4332   22.2370 H   0  0  0  0  0  0
  -24.6132  -19.0063   22.8515 H   0  0  0  0  0  0
  -25.7977  -18.0608   23.7566 H   0  0  0  0  0  0
  -29.7175  -24.4685   17.1306 H   0  0  0  0  0  0
  -29.0025  -25.9701   17.6866 H   0  0  0  0  0  0
  -28.0019  -24.5315   17.5298 H   0  0  0  0  0  0
  -32.0900  -21.1706   21.9445 H   0  0  0  0  0  0
  -31.6120  -19.4957   21.8636 H   0  0  0  0  0  0
  -30.6594  -20.6373   22.8143 H   0  0  0  0  0  0
  -28.3094  -22.5505   19.3098 H   0  0  0  0  0  0
  -29.8721  -22.5345   18.5565 H   0  0  0  0  0  0
  -29.3450  -22.5613   21.5447 H   0  0  0  0  0  0
  -30.8980  -22.9250   20.8627 H   0  0  0  0  0  0
  -28.6431  -25.0175   21.2764 H   0  0  0  0  0  0
  -27.3480  -24.8220   20.1532 H   0  0  0  0  0  0
  -30.3218  -24.8594   19.4848 H   0  0  0  0  0  0
  -30.9726  -20.6525   19.7621 H   0  0  0  0  0  0
  -28.3152  -20.5346   20.6138 H   0  0  0  0  0  0
  -29.7297  -14.6384   22.2896 H   0  0  0  0  0  0
  1 25  1  0  0  0
  1 30  2  0  0  0
  1 85  1  0  0  0
  2  3  1  0  0  0
  2 25  1  0  0  0
  2 88  1  0  0  0
  2 89  1  0  0  0
  3  4  1  0  0  0
  3 90  1  0  0  0
  3 91  1  0  0  0
  4  5  1  0  0  0
  4 92  1  0  0  0
  4 93  1  0  0  0
  5  6  1  0  0  0
  5 26  1  0  0  0
  5 94  1  0  0  0
  6 25  1  0  0  0
  6 95  1  0  0  0
  6 96  1  0  0  0
  7  8  2  0  0  0
  7 26  1  0  0  0
  7 29  1  0  0  0
  8  9  1  0  0  0
  8 22  1  0  0  0
  9 10  1  0  0  0
  9 27  2  0  0  0
 10 11  2  0  0  0
 10 15  1  0  0  0
 11 12  1  0  0  0
 11 97  1  0  0  0
 12 13  2  0  0  0
 12 98  1  0  0  0
 13 14  1  0  0  0
 13 31  1  0  0  0
 14 15  2  0  0  0
 14 99  1  0  0  0
 15100  1  0  0  0
 16 17  2  0  0  0
 16 21  1  0  0  0
 16 31  1  0  0  0
 17 18  1  0  0  0
 17101  1  0  0  0
 18 19  2  0  0  0
 18102  1  0  0  0
 19 20  1  0  0  0
 19 24  1  0  0  0
 20 21  2  0  0  0
 20103  1  0  0  0
 21 23  1  0  0  0
 22 28  1  0  0  0
 22 32  2  0  0  0
 26 27  1  0  0  0
 28104  1  0  0  0
 28105  1  0  0  0
 29106  1  0  0  0
 29107  1  0  0  0
 33 34  1  0  0  0
 33 66  1  0  0  0
 33 70  2  0  0  0
 34 36  1  0  0  0
 34 59  1  0  0  0
 34108  1  0  0  0
 35 44  2  0  0  0
 35 45  1  0  0  0
 35 68  1  0  0  0
 36 56  1  0  0  0
 36109  1  0  0  0
 37 39  1  0  0  0
 37 47  1  0  0  0
 37 66  1  0  0  0
 37110  1  0  0  0
 38 43  2  0  0  0
 38 46  1  0  0  0
 38 47  1  0  0  0
 39 64  1  0  0  0
 39 67  2  0  0  0
 40 52  1  0  0  0
 40 53  2  0  0  0
 40 58  1  0  0  0
 41111  1  0  0  0
 41112  1  0  0  0
 41113  1  0  0  0
 41 48  1  0  0  0
 42 43  1  0  0  0
 42 66  1  0  0  0
 42114  1  0  0  0
 42115  1  0  0  0
 43 44  1  0  0  0
 44116  1  0  0  0
 45 46  2  0  0  0
 45117  1  0  0  0
 46118  1  0  0  0
 47119  1  0  0  0
 47120  1  0  0  0
 48 56  1  0  0  0
 48 65  1  0  0  0
 48121  1  0  0  0
 49 50  1  0  0  0
 49 53  1  0  0  0
 49 64  1  0  0  0
 49122  1  0  0  0
 50 51  1  0  0  0
 50123  1  0  0  0
 50124  1  0  0  0
 51 52  1  0  0  0
 51125  1  0  0  0
 51126  1  0  0  0
 52127  1  0  0  0
 52128  1  0  0  0
 53 54  1  0  0  0
 54 55  2  0  0  0
 54129  1  0  0  0
 55 57  1  0  0  0
 55130  1  0  0  0
 56 69  2  0  0  0
 57 58  2  0  0  0
 57131  1  0  0  0
 58132  1  0  0  0
 59 60  1  0  0  0
 59 61  1  0  0  0
 59 62  1  0  0  0
 60133  1  0  0  0
 60134  1  0  0  0
 60135  1  0  0  0
 61136  1  0  0  0
 61137  1  0  0  0
 61138  1  0  0  0
 62139  1  0  0  0
 62140  1  0  0  0
 62141  1  0  0  0
 63 65  1  0  0  0
 63142  1  0  0  0
 63143  1  0  0  0
 63144  1  0  0  0
 64145  1  0  0  0
 65146  1  0  0  0
 68 80  1  0  0  0
 71 72  2  0  0  0
 71 74  1  0  0  0
 71 87  1  0  0  0
 72 83  1  0  0  0
 72 84  1  0  0  0
 73 83  2  0  0  0
 73 85  1  0  0  0
 73 87  1  0  0  0
 74 75  1  0  0  0
 74 86  2  0  0  0
 75147  1  0  0  0
 75148  1  0  0  0
 75149  1  0  0  0
 76150  1  0  0  0
 76151  1  0  0  0
 76152  1  0  0  0
 76 81  1  0  0  0
 77153  1  0  0  0
 77154  1  0  0  0
 77155  1  0  0  0
 77 82  1  0  0  0
 78 79  1  0  0  0
 78 81  1  0  0  0
 78156  1  0  0  0
 78157  1  0  0  0
 79 82  1  0  0  0
 79158  1  0  0  0
 79159  1  0  0  0
 80 81  1  0  0  0
 80160  1  0  0  0
 80161  1  0  0  0
 81162  1  0  0  0
 82 84  1  0  0  0
 82163  1  0  0  0
 84164  1  0  0  0
 85165  1  0  0  0
M  ISO  4   1 100  68 101  80 101  85 100
M  END
> <chiral flag>
0

> <version>
0

> <s_m_source_file>
/data/baiqing/PycharmProjects/Reinvent-master-3.2/result/LINK_invent/BTK/process_docking_weight1_custom_product_contain_oxygen_bond_distance_aromatic_linkinvent_7_9_3/rearranged_h_0192.sdf

> <i_m_source_file_index>
13

> <r_mmod_Potential_Energy-OPLS-2005>
-104.509567260742

> <r_mmod_Stretch_Energy-OPLS-2005>
43.9277954101562

> <r_mmod_Bend_Energy-OPLS-2005>
130.677734375

> <r_mmod_Torsional_Energy-OPLS-2005>
250.058853149414

> <r_mmod_Improper_Torsional_Energy-OPLS-2005>
10.195216178894

> <r_mmod_Van_der_Waal_Energy-OPLS-2005>
118.049995422363

> <r_mmod_Electrostatic_Energy-OPLS-2005>
-442.634368896484

> <r_mmod_Solvation_Energy-OPLS-2005>
-228.558090209961

> <b_mmod_Minimization_Converged-OPLS-2005>
0

> <r_mmod_RMS_Derivative-OPLS-2005>
1.22414791584015

$$$$
13
                    3D
 Structure written by MMmdl.
163171  0  0  1  0            999 V2000
  -30.7442  -14.4377   20.5507 C   0  0  0  0  0  0
  -30.4124  -12.2620   19.4524 C   0  0  0  0  0  0
  -29.5026  -12.4586   18.2221 C   0  0  0  0  0  0
  -28.0241  -12.3244   18.6318 C   0  0  0  0  0  0
  -27.6619  -13.2033   19.8613 C   0  0  2  0  0  0
  -28.7011  -13.0257   20.9931 C   0  0  0  0  0  0
  -25.2652  -13.8167   20.5670 C   0  0  0  0  0  0
  -24.1885  -13.0446   20.9178 C   0  0  0  0  0  0
  -24.6448  -11.6915   20.8788 C   0  0  0  0  0  0
  -23.9091  -10.4318   21.0411 C   0  0  0  0  0  0
  -24.3639   -9.4216   21.9193 C   0  0  0  0  0  0
  -23.6290   -8.2268   22.0784 C   0  0  0  0  0  0
  -22.4258   -8.0329   21.3581 C   0  0  0  0  0  0
  -21.9920   -9.0305   20.4669 C   0  0  0  0  0  0
  -22.7275  -10.2157   20.3054 C   0  0  0  0  0  0
  -21.6836   -6.0767   22.5286 C   0  0  0  0  0  0
  -21.4010   -6.5665   23.8235 C   0  0  0  0  0  0
  -21.3652   -5.6810   24.9177 C   0  0  0  0  0  0
  -21.6027   -4.3073   24.7222 C   0  0  0  0  0  0
  -21.8828   -3.8178   23.4340 C   0  0  0  0  0  0
  -21.9195   -4.7002   22.3397 C   0  0  0  0  0  0
  -22.7924  -13.5291   21.1800 C   0  0  0  0  0  0
  -22.1668   -4.2195   21.0975 F   0  0  0  0  0  0
  -21.5586   -3.4552   25.7727 F   0  0  0  0  0  0
  -30.0384  -13.2836   20.4418 N   0  0  0  0  0  0
  -26.3050  -12.9304   20.3320 N   0  0  0  0  0  0
  -25.9359  -11.6493   20.5830 N   0  0  0  0  0  0
  -22.0562  -12.8280   22.0314 N   0  0  0  0  0  0
  -25.4455  -15.1862   20.4055 N   0  0  0  0  0  0
  -31.8724  -14.5737   20.0695 O   0  0  0  0  0  0
  -21.6626   -6.8924   21.4263 O   0  0  0  0  0  0
  -22.3652  -14.5629   20.6657 O   0  0  0  0  0  0
  -24.6117  -31.8700   23.2148 C   0  0  0  0  0  0
  -25.9017  -32.4843   23.8422 C   0  0  1  0  0  0
  -27.2301  -27.4242   20.1124 C   0  0  0  0  0  0
  -25.5877  -33.8645   24.2337 N   0  0  0  0  0  0
  -23.3980  -30.4981   21.5552 C   0  0  2  0  0  0
  -24.8431  -28.9606   20.1214 C   0  0  0  0  0  0
  -22.7339  -29.4714   22.4998 C   0  0  0  0  0  0
  -18.0259  -28.1305   22.8531 C   0  0  0  0  0  0
  -24.1459  -36.7312   23.2646 C   0  0  0  0  0  0
  -25.9269  -30.8362   21.3673 C   0  0  0  0  0  0
  -26.0011  -29.4679   20.7203 C   0  0  0  0  0  0
  -27.1937  -28.7092   20.7080 C   0  0  0  0  0  0
  -26.0501  -26.9373   19.5071 C   0  0  0  0  0  0
  -24.8609  -27.6932   19.5115 C   0  0  0  0  0  0
  -23.6064  -29.8299   20.1695 C   0  0  0  0  0  0
  -25.4084  -36.3123   24.0339 C   0  0  1  0  0  0
  -20.5846  -28.3680   23.1345 C   0  0  2  0  0  0
  -20.6781  -26.9418   22.5485 C   0  0  0  0  0  0
  -19.5740  -26.6315   21.5289 C   0  0  0  0  0  0
  -18.1904  -26.7822   22.1691 C   0  0  0  0  0  0
  -19.1498  -28.8782   23.2950 C   0  0  0  0  0  0
  -18.9432  -30.1365   23.8948 C   0  0  0  0  0  0
  -17.6452  -30.6555   24.0520 C   0  0  0  0  0  0
  -25.9021  -34.9487   23.5143 C   0  0  0  0  0  0
  -16.5356  -29.9055   23.6311 C   0  0  0  0  0  0
  -16.7259  -28.6439   23.0358 C   0  0  0  0  0  0
  -26.4432  -31.6632   25.0750 C   0  0  0  0  0  0
  -25.3678  -31.3797   26.1497 C   0  0  0  0  0  0
  -27.0281  -30.3064   24.6154 C   0  0  0  0  0  0
  -27.6012  -32.4357   25.7505 C   0  0  0  0  0  0
  -27.5569  -37.1824   24.8473 C   0  0  0  0  0  0
  -21.4084  -29.3042   22.3709 N   0  0  0  0  0  0
  -26.4286  -37.3799   23.9408 N   0  0  0  0  0  0
  -24.6646  -31.0805   22.1062 N   0  0  0  0  0  0
  -23.4094  -28.8246   23.3054 O   0  0  0  0  0  0
  -28.4429  -26.7562   20.1029 O   0  0  0  0  0  0
  -26.5601  -34.8948   22.4705 O   0  0  0  0  0  0
  -23.5314  -32.1459   23.7555 O   0  0  0  0  0  0
  -29.9003  -18.2301   22.9907 C   0  0  0  0  0  0
  -29.9535  -17.9603   21.6442 C   0  0  0  0  0  0
  -29.0524  -19.8965   21.9219 C   0  0  0  0  0  0
  -25.9487  -23.8108   21.2154 C   0  0  0  0  0  0
  -26.6669  -21.1880   20.2525 C   0  0  0  0  0  0
  -28.2132  -24.6835   18.6414 C   0  0  0  0  0  0
  -30.6727  -16.8495   20.9296 C   0  0  0  0  0  0
  -28.4493  -24.5181   21.3053 C   0  0  0  0  0  0
  -27.4055  -23.3679   21.4683 C   0  0  2  0  0  0
  -27.8383  -21.9933   20.8461 C   0  0  1  0  0  0
  -28.6166  -25.3291   19.9772 C   0  0  2  0  0  0
  -29.3462  -19.0176   20.9657 N   0  0  0  0  0  0
  -28.5275  -21.1776   21.8495 N   0  0  0  0  0  0
  -30.1069  -15.5023   21.0648 N   0  0  0  0  0  0
  -29.3479  -19.4724   23.1769 O   0  0  0  0  0  0
  -31.4653  -12.3008   19.1700 H   0  0  0  0  0  0
  -30.2716  -11.2684   19.8844 H   0  0  0  0  0  0
  -29.7458  -11.7165   17.4612 H   0  0  0  0  0  0
  -29.6890  -13.4345   17.7695 H   0  0  0  0  0  0
  -27.8567  -11.2729   18.8769 H   0  0  0  0  0  0
  -27.3629  -12.5375   17.7902 H   0  0  0  0  0  0
  -27.6969  -14.2364   19.5141 H   0  0  0  0  0  0
  -28.6580  -12.0119   21.3958 H   0  0  0  0  0  0
  -28.4861  -13.6843   21.8350 H   0  0  0  0  0  0
  -25.2778   -9.5653   22.4777 H   0  0  0  0  0  0
  -23.9980   -7.4660   22.7494 H   0  0  0  0  0  0
  -21.0853   -8.8824   19.8997 H   0  0  0  0  0  0
  -22.3747  -10.9695   19.6166 H   0  0  0  0  0  0
  -21.2029   -7.6179   23.9743 H   0  0  0  0  0  0
  -21.1434   -6.0535   25.9082 H   0  0  0  0  0  0
  -22.0608   -2.7651   23.2814 H   0  0  0  0  0  0
  -22.4143  -11.9904   22.4644 H   0  0  0  0  0  0
  -21.1260  -13.1446   22.2598 H   0  0  0  0  0  0
  -24.6941  -15.8578   20.5207 H   0  0  0  0  0  0
  -26.3002  -15.6122   20.0676 H   0  0  0  0  0  0
  -26.7098  -32.5540   23.1204 H   0  0  0  0  0  0
  -24.9990  -33.9854   25.0452 H   0  0  0  0  0  0
  -22.6881  -31.3137   21.4148 H   0  0  0  0  0  0
  -23.3723  -35.9654   23.3352 H   0  0  0  0  0  0
  -24.3556  -36.8886   22.2063 H   0  0  0  0  0  0
  -23.7240  -37.6535   23.6628 H   0  0  0  0  0  0
  -26.0310  -31.6077   20.6025 H   0  0  0  0  0  0
  -26.8201  -30.8915   21.9783 H   0  0  0  0  0  0
  -28.0888  -29.1140   21.1606 H   0  0  0  0  0  0
  -26.0219  -25.9925   18.9983 H   0  0  0  0  0  0
  -23.9740  -27.3041   19.0299 H   0  0  0  0  0  0
  -23.7089  -30.6084   19.4112 H   0  0  0  0  0  0
  -22.7295  -29.2488   19.8768 H   0  0  0  0  0  0
  -25.1266  -36.1993   25.0838 H   0  0  0  0  0  0
  -20.9978  -28.3336   24.1466 H   0  0  0  0  0  0
  -20.5638  -26.2344   23.3709 H   0  0  0  0  0  0
  -21.6723  -26.7506   22.1399 H   0  0  0  0  0  0
  -19.6993  -25.6246   21.1289 H   0  0  0  0  0  0
  -19.6537  -27.3095   20.6775 H   0  0  0  0  0  0
  -17.4229  -26.6597   21.4022 H   0  0  0  0  0  0
  -18.0230  -25.9967   22.9086 H   0  0  0  0  0  0
  -19.7884  -30.7168   24.2359 H   0  0  0  0  0  0
  -17.5011  -31.6289   24.5035 H   0  0  0  0  0  0
  -15.5341  -30.2946   23.7607 H   0  0  0  0  0  0
  -15.8651  -28.0780   22.7059 H   0  0  0  0  0  0
  -24.5803  -30.7210   25.7838 H   0  0  0  0  0  0
  -24.8924  -32.2990   26.4914 H   0  0  0  0  0  0
  -25.7956  -30.8970   27.0287 H   0  0  0  0  0  0
  -26.2889  -29.6862   24.1071 H   0  0  0  0  0  0
  -27.3916  -29.7257   25.4652 H   0  0  0  0  0  0
  -27.8756  -30.4399   23.9424 H   0  0  0  0  0  0
  -27.2601  -33.3627   26.2116 H   0  0  0  0  0  0
  -28.3756  -32.6974   25.0288 H   0  0  0  0  0  0
  -28.0724  -31.8467   26.5387 H   0  0  0  0  0  0
  -28.2606  -38.0096   24.7467 H   0  0  0  0  0  0
  -28.1027  -36.2631   24.6315 H   0  0  0  0  0  0
  -27.2298  -37.1501   25.8881 H   0  0  0  0  0  0
  -20.9209  -29.8788   21.6981 H   0  0  0  0  0  0
  -26.0164  -38.2883   24.1372 H   0  0  0  0  0  0
  -30.2673  -17.7200   23.8732 H   0  0  0  0  0  0
  -25.7034  -23.9106   20.1635 H   0  0  0  0  0  0
  -25.7483  -24.7700   21.6929 H   0  0  0  0  0  0
  -25.2445  -23.0938   21.6451 H   0  0  0  0  0  0
  -27.0149  -20.2582   19.8017 H   0  0  0  0  0  0
  -26.1524  -21.7439   19.4695 H   0  0  0  0  0  0
  -25.9336  -20.9178   21.0170 H   0  0  0  0  0  0
  -28.8458  -23.8255   18.4224 H   0  0  0  0  0  0
  -28.3426  -25.3884   17.8194 H   0  0  0  0  0  0
  -27.1895  -24.3268   18.6237 H   0  0  0  0  0  0
  -31.7004  -16.8215   21.2940 H   0  0  0  0  0  0
  -30.7510  -17.0806   19.8645 H   0  0  0  0  0  0
  -29.4281  -24.0865   21.5384 H   0  0  0  0  0  0
  -28.2757  -25.2361   22.1075 H   0  0  0  0  0  0
  -27.3799  -23.1899   22.5452 H   0  0  0  0  0  0
  -28.5461  -22.1720   20.0335 H   0  0  0  0  0  0
  -29.7001  -25.3380   19.8583 H   0  0  0  0  0  0
  -28.6089  -21.6404   22.7466 H   0  0  0  0  0  0
  -29.1679  -15.4008   21.4174 H   0  0  0  0  0  0
  1 25  1  0  0  0
  1 30  2  0  0  0
  1 84  1  0  0  0
  2  3  1  0  0  0
  2 25  1  0  0  0
  2 86  1  0  0  0
  2 87  1  0  0  0
  3  4  1  0  0  0
  3 88  1  0  0  0
  3 89  1  0  0  0
  4  5  1  0  0  0
  4 90  1  0  0  0
  4 91  1  0  0  0
  5  6  1  0  0  0
  5 26  1  0  0  0
  5 92  1  0  0  0
  6 25  1  0  0  0
  6 93  1  0  0  0
  6 94  1  0  0  0
  7  8  2  0  0  0
  7 26  1  0  0  0
  7 29  1  0  0  0
  8  9  1  0  0  0
  8 22  1  0  0  0
  9 10  1  0  0  0
  9 27  2  0  0  0
 10 11  2  0  0  0
 10 15  1  0  0  0
 11 12  1  0  0  0
 11 95  1  0  0  0
 12 13  2  0  0  0
 12 96  1  0  0  0
 13 14  1  0  0  0
 13 31  1  0  0  0
 14 15  2  0  0  0
 14 97  1  0  0  0
 15 98  1  0  0  0
 16 17  2  0  0  0
 16 21  1  0  0  0
 16 31  1  0  0  0
 17 18  1  0  0  0
 17 99  1  0  0  0
 18 19  2  0  0  0
 18100  1  0  0  0
 19 20  1  0  0  0
 19 24  1  0  0  0
 20 21  2  0  0  0
 20101  1  0  0  0
 21 23  1  0  0  0
 22 28  1  0  0  0
 22 32  2  0  0  0
 26 27  1  0  0  0
 28102  1  0  0  0
 28103  1  0  0  0
 29104  1  0  0  0
 29105  1  0  0  0
 33 34  1  0  0  0
 33 66  1  0  0  0
 33 70  2  0  0  0
 34 36  1  0  0  0
 34 59  1  0  0  0
 34106  1  0  0  0
 35 44  2  0  0  0
 35 45  1  0  0  0
 35 68  1  0  0  0
 36 56  1  0  0  0
 36107  1  0  0  0
 37 39  1  0  0  0
 37 47  1  0  0  0
 37 66  1  0  0  0
 37108  1  0  0  0
 38 43  2  0  0  0
 38 46  1  0  0  0
 38 47  1  0  0  0
 39 64  1  0  0  0
 39 67  2  0  0  0
 40 52  1  0  0  0
 40 53  2  0  0  0
 40 58  1  0  0  0
 41109  1  0  0  0
 41110  1  0  0  0
 41111  1  0  0  0
 41 48  1  0  0  0
 42 43  1  0  0  0
 42 66  1  0  0  0
 42112  1  0  0  0
 42113  1  0  0  0
 43 44  1  0  0  0
 44114  1  0  0  0
 45 46  2  0  0  0
 45115  1  0  0  0
 46116  1  0  0  0
 47117  1  0  0  0
 47118  1  0  0  0
 48 56  1  0  0  0
 48 65  1  0  0  0
 48119  1  0  0  0
 49 50  1  0  0  0
 49 53  1  0  0  0
 49 64  1  0  0  0
 49120  1  0  0  0
 50 51  1  0  0  0
 50121  1  0  0  0
 50122  1  0  0  0
 51 52  1  0  0  0
 51123  1  0  0  0
 51124  1  0  0  0
 52125  1  0  0  0
 52126  1  0  0  0
 53 54  1  0  0  0
 54 55  2  0  0  0
 54127  1  0  0  0
 55 57  1  0  0  0
 55128  1  0  0  0
 56 69  2  0  0  0
 57 58  2  0  0  0
 57129  1  0  0  0
 58130  1  0  0  0
 59 60  1  0  0  0
 59 61  1  0  0  0
 59 62  1  0  0  0
 60131  1  0  0  0
 60132  1  0  0  0
 60133  1  0  0  0
 61134  1  0  0  0
 61135  1  0  0  0
 61136  1  0  0  0
 62137  1  0  0  0
 62138  1  0  0  0
 62139  1  0  0  0
 63 65  1  0  0  0
 63140  1  0  0  0
 63141  1  0  0  0
 63142  1  0  0  0
 64143  1  0  0  0
 65144  1  0  0  0
 68 81  1  0  0  0
 71 72  2  0  0  0
 71 85  1  0  0  0
 71145  1  0  0  0
 72 77  1  0  0  0
 72 82  1  0  0  0
 73 82  2  0  0  0
 73 83  1  0  0  0
 73 85  1  0  0  0
 74146  1  0  0  0
 74147  1  0  0  0
 74148  1  0  0  0
 74 79  1  0  0  0
 75149  1  0  0  0
 75150  1  0  0  0
 75151  1  0  0  0
 75 80  1  0  0  0
 76152  1  0  0  0
 76153  1  0  0  0
 76154  1  0  0  0
 76 81  1  0  0  0
 77 84  1  0  0  0
 77155  1  0  0  0
 77156  1  0  0  0
 78 79  1  0  0  0
 78 81  1  0  0  0
 78157  1  0  0  0
 78158  1  0  0  0
 79 80  1  0  0  0
 79159  1  0  0  0
 80 83  1  0  0  0
 80160  1  0  0  0
 81161  1  0  0  0
 83162  1  0  0  0
 84163  1  0  0  0
M  ISO  4   1 100  68 101  81 101  84 100
M  END
> <chiral flag>
0

> <version>
0

> <s_m_source_file>
/data/baiqing/PycharmProjects/Reinvent-master-3.2/result/LINK_invent/BTK/process_docking_weight1_custom_product_contain_oxygen_bond_distance_aromatic_linkinvent_7_9_3/rearranged_h_0192.sdf

> <i_m_source_file_index>
14

> <r_mmod_Potential_Energy-OPLS-2005>
-226.321685791016

> <r_mmod_Stretch_Energy-OPLS-2005>
37.5799331665039

> <r_mmod_Bend_Energy-OPLS-2005>
168.428726196289

> <r_mmod_Torsional_Energy-OPLS-2005>
231.262069702148

> <r_mmod_Improper_Torsional_Energy-OPLS-2005>
4.53470134735107

> <r_mmod_Van_der_Waal_Energy-OPLS-2005>
130.556838989258

> <r_mmod_Electrostatic_Energy-OPLS-2005>
-596.671691894531

> <r_mmod_Solvation_Energy-OPLS-2005>
-216.926467895508

> <b_mmod_Minimization_Converged-OPLS-2005>
0

> <r_mmod_RMS_Derivative-OPLS-2005>
5.7704029083252

$$$$
14
                    3D
 Structure written by MMmdl.
166174  0  0  1  0            999 V2000
  -30.7571  -14.3151   20.4888 C   0  0  0  0  0  0
  -30.4041  -12.1819   19.3637 C   0  0  0  0  0  0
  -29.3371  -12.3578   18.2517 C   0  0  0  0  0  0
  -27.8705  -12.2528   18.7996 C   0  0  0  0  0  0
  -27.7288  -13.0758   20.1235 C   0  0  2  0  0  0
  -28.8345  -12.7275   21.1285 C   0  0  0  0  0  0
  -25.4519  -14.8352   20.7428 C   0  0  0  0  0  0
  -24.3444  -13.7553   20.9954 C   0  0  0  0  0  0
  -24.6413  -12.2494   20.9947 C   0  0  0  0  0  0
  -23.9276  -10.8090   21.0976 C   0  0  0  0  0  0
  -24.3847   -9.7110   21.9193 C   0  0  0  0  0  0
  -23.7052   -8.4488   22.0604 C   0  0  0  0  0  0
  -22.5122   -8.1754   21.3595 C   0  0  0  0  0  0
  -22.0722   -9.1960   20.4779 C   0  0  0  0  0  0
  -22.7571  -10.4507   20.3542 C   0  0  0  0  0  0
  -21.7503   -6.1348   22.5138 C   0  0  0  0  0  0
  -21.4423   -6.6063   23.8081 C   0  0  0  0  0  0
  -21.3837   -5.7109   24.9004 C   0  0  0  0  0  0
  -21.6073   -4.3354   24.7035 C   0  0  0  0  0  0
  -21.8715   -3.8521   23.4118 C   0  0  0  0  0  0
  -21.9360   -4.7448   22.3219 C   0  0  0  0  0  0
  -22.8396  -13.9093   21.1684 C   0  0  0  0  0  0
  -22.1724   -4.2435   21.0838 F   0  0  0  0  0  0
  -21.5591   -3.4852   25.7561 F   0  0  0  0  0  0
  -30.1127  -13.1095   20.4641 N   0  0  0  0  0  0
  -26.3324  -13.4670   20.6701 N   0  0  0  0  0  0
  -25.8971  -12.1863   20.8817 N   0  0  0  0  0  0
  -22.2116  -13.0820   22.0197 N   0  0  0  0  0  0
  -26.1529  -17.2137   19.3250 N   0  0  0  0  0  0
  -31.9352  -14.4757   20.1984 O   0  0  0  0  0  0
  -21.7834   -6.9835   21.4149 O   0  0  0  0  0  0
  -22.1764  -14.7185   20.5528 O   0  0  0  0  0  0
  -24.7007  -31.7782   23.1471 C   0  0  0  0  0  0
  -25.9562  -32.4245   23.7900 C   0  0  1  0  0  0
  -26.5804  -26.2406   20.4451 C   0  0  0  0  0  0
  -25.6073  -33.8099   24.1784 N   0  0  0  0  0  0
  -23.5086  -30.4150   21.5153 C   0  0  2  0  0  0
  -24.8699  -28.7208   20.0899 C   0  0  0  0  0  0
  -22.7767  -29.4277   22.4705 C   0  0  0  0  0  0
  -18.0425  -28.1432   22.8537 C   0  0  0  0  0  0
  -24.1577  -36.7112   23.2635 C   0  0  0  0  0  0
  -26.0878  -30.3468   21.4834 C   0  0  0  0  0  0
  -26.0281  -28.8849   20.8462 C   0  0  0  0  0  0
  -26.9075  -27.6571   20.9895 C   0  0  0  0  0  0
  -25.5943  -26.4216   19.4750 C   0  0  0  0  0  0
  -24.7378  -27.5426   19.3408 C   0  0  0  0  0  0
  -23.7482  -29.7620   20.1228 C   0  0  0  0  0  0
  -25.4214  -36.2745   24.0247 C   0  0  1  0  0  0
  -20.6022  -28.3747   23.1204 C   0  0  2  0  0  0
  -20.6852  -26.9408   22.5431 C   0  0  0  0  0  0
  -19.5768  -26.6379   21.5296 C   0  0  0  0  0  0
  -18.1980  -26.7977   22.1716 C   0  0  0  0  0  0
  -19.1664  -28.8946   23.2849 C   0  0  0  0  0  0
  -18.9505  -30.1554   23.8823 C   0  0  0  0  0  0
  -17.6444  -30.6549   24.0571 C   0  0  0  0  0  0
  -25.9205  -34.9128   23.4868 C   0  0  0  0  0  0
  -16.5371  -29.9003   23.6317 C   0  0  0  0  0  0
  -16.7404  -28.6477   23.0321 C   0  0  0  0  0  0
  -26.4641  -31.6414   25.0655 C   0  0  0  0  0  0
  -25.3579  -31.3738   26.1165 C   0  0  0  0  0  0
  -27.0564  -30.2682   24.6855 C   0  0  0  0  0  0
  -27.6135  -32.4337   25.7344 C   0  0  0  0  0  0
  -27.5609  -37.1689   24.8434 C   0  0  0  0  0  0
  -21.4438  -29.2964   22.3462 N   0  0  0  0  0  0
  -26.4308  -37.3551   23.9361 N   0  0  0  0  0  0
  -24.7975  -30.8973   22.0894 N   0  0  0  0  0  0
  -23.4199  -28.7853   23.3062 O   0  0  0  0  0  0
  -26.9568  -24.6806   20.6837 O   0  0  0  0  0  0
  -26.5893  -34.8745   22.4510 O   0  0  0  0  0  0
  -23.6034  -32.1076   23.6324 O   0  0  0  0  0  0
  -27.4817  -15.8423   20.4444 C   0  0  0  0  0  0
  -24.8675  -15.5309   18.6830 C   0  0  0  0  0  0
  -25.0200  -17.4424   21.2232 C   0  0  0  0  0  0
  -30.0891  -18.2062   21.1526 C   0  0  0  0  0  0
  -26.3627  -23.4807   23.4106 C   0  0  0  0  0  0
  -24.2052  -24.2368   22.2170 C   0  0  0  0  0  0
  -29.4442  -17.0317   21.9117 C   0  0  0  0  0  0
  -26.0864  -20.8302   20.9770 C   0  0  0  0  0  0
  -28.9110  -15.7971   21.0748 C   0  0  2  0  0  0
  -25.3431  -23.2130   22.2792 C   0  0  0  0  0  0
  -26.0246  -22.9775   20.9010 C   0  0  1  0  0  0
  -26.6653  -15.1466   18.8462 N   0  0  0  0  0  0
  -26.5527  -16.8054   21.5413 N   0  0  0  0  0  0
  -24.0810  -16.5896   19.9603 N   0  0  0  0  0  0
  -24.1136  -14.8232   17.7965 N   0  0  0  0  0  0
  -25.1076  -19.2260   21.1474 N   0  0  0  0  0  0
  -29.9862  -15.3649   20.2277 N   0  0  0  0  0  0
  -31.3965  -12.3020   18.9306 H   0  0  0  0  0  0
  -30.3738  -11.1593   19.7393 H   0  0  0  0  0  0
  -29.4868  -11.6078   17.4727 H   0  0  0  0  0  0
  -29.4720  -13.3385   17.7854 H   0  0  0  0  0  0
  -27.6198  -11.2082   18.9740 H   0  0  0  0  0  0
  -27.1682  -12.6112   18.0467 H   0  0  0  0  0  0
  -28.2196  -13.8635   19.6432 H   0  0  0  0  0  0
  -28.8229  -11.6431   21.2989 H   0  0  0  0  0  0
  -28.6932  -13.1286   22.1320 H   0  0  0  0  0  0
  -25.2942   -9.8572   22.4866 H   0  0  0  0  0  0
  -24.1297   -7.6941   22.7079 H   0  0  0  0  0  0
  -21.1878   -9.0242   19.8840 H   0  0  0  0  0  0
  -22.3424  -11.1806   19.6753 H   0  0  0  0  0  0
  -21.2527   -7.6579   23.9669 H   0  0  0  0  0  0
  -21.1768   -6.0853   25.8904 H   0  0  0  0  0  0
  -22.0221   -2.7950   23.2599 H   0  0  0  0  0  0
  -22.7383  -12.4026   22.5487 H   0  0  0  0  0  0
  -21.2197  -13.1786   22.1883 H   0  0  0  0  0  0
  -26.7547  -17.7347   19.9675 H   0  0  0  0  0  0
  -26.7198  -16.5486   18.7550 H   0  0  0  0  0  0
  -26.7577  -32.4516   23.0499 H   0  0  0  0  0  0
  -24.9937  -33.9046   24.9737 H   0  0  0  0  0  0
  -22.8549  -31.2753   21.3574 H   0  0  0  0  0  0
  -23.3828  -35.9452   23.3147 H   0  0  0  0  0  0
  -24.3684  -36.8942   22.2080 H   0  0  0  0  0  0
  -23.7368  -37.6246   23.6853 H   0  0  0  0  0  0
  -26.3898  -31.0340   20.6918 H   0  0  0  0  0  0
  -26.9221  -30.3588   22.1698 H   0  0  0  0  0  0
  -27.7420  -27.7346   21.6692 H   0  0  0  0  0  0
  -25.2992  -25.5450   18.9143 H   0  0  0  0  0  0
  -23.8926  -27.4496   18.6784 H   0  0  0  0  0  0
  -23.9845  -30.5429   19.3997 H   0  0  0  0  0  0
  -22.8183  -29.3025   19.7757 H   0  0  0  0  0  0
  -25.1439  -36.1447   25.0752 H   0  0  0  0  0  0
  -21.0183  -28.3373   24.1314 H   0  0  0  0  0  0
  -20.5792  -26.2359   23.3719 H   0  0  0  0  0  0
  -21.6700  -26.7348   22.1179 H   0  0  0  0  0  0
  -19.6802  -25.6280   21.1364 H   0  0  0  0  0  0
  -19.6641  -27.3204   20.6848 H   0  0  0  0  0  0
  -17.4254  -26.6909   21.4094 H   0  0  0  0  0  0
  -18.0184  -26.0127   22.9094 H   0  0  0  0  0  0
  -19.7919  -30.7495   24.2096 H   0  0  0  0  0  0
  -17.4904  -31.6195   24.5232 H   0  0  0  0  0  0
  -15.5326  -30.2773   23.7658 H   0  0  0  0  0  0
  -15.8902  -28.0723   22.6946 H   0  0  0  0  0  0
  -24.5899  -30.7037   25.7275 H   0  0  0  0  0  0
  -24.8600  -32.2915   26.4295 H   0  0  0  0  0  0
  -25.7580  -30.8944   27.0110 H   0  0  0  0  0  0
  -26.3225  -29.6205   24.2075 H   0  0  0  0  0  0
  -27.3964  -29.7295   25.5705 H   0  0  0  0  0  0
  -27.9276  -30.3634   24.0387 H   0  0  0  0  0  0
  -27.2804  -33.3853   26.1496 H   0  0  0  0  0  0
  -28.4012  -32.6580   25.0125 H   0  0  0  0  0  0
  -28.0752  -31.8755   26.5504 H   0  0  0  0  0  0
  -28.2482  -38.0106   24.7531 H   0  0  0  0  0  0
  -28.1249  -36.2623   24.6208 H   0  0  0  0  0  0
  -27.2307  -37.1212   25.8820 H   0  0  0  0  0  0
  -20.9766  -29.8536   21.6452 H   0  0  0  0  0  0
  -26.0112  -38.2591   24.1340 H   0  0  0  0  0  0
  -30.2188  -19.0422   21.8478 H   0  0  0  0  0  0
  -29.4811  -18.5533   20.3181 H   0  0  0  0  0  0
  -31.0890  -17.9532   20.7892 H   0  0  0  0  0  0
  -25.9141  -24.0026   24.2562 H   0  0  0  0  0  0
  -27.2046  -24.0814   23.0739 H   0  0  0  0  0  0
  -26.7750  -22.5494   23.8013 H   0  0  0  0  0  0
  -23.6398  -24.2387   23.1537 H   0  0  0  0  0  0
  -23.4971  -23.9612   21.4327 H   0  0  0  0  0  0
  -24.5573  -25.2485   22.0276 H   0  0  0  0  0  0
  -28.7099  -17.3975   22.6361 H   0  0  0  0  0  0
  -30.2366  -16.6594   22.5690 H   0  0  0  0  0  0
  -26.8257  -20.6707   21.7587 H   0  0  0  0  0  0
  -26.6016  -20.5995   20.0500 H   0  0  0  0  0  0
  -28.7721  -15.1180   21.9086 H   0  0  0  0  0  0
  -24.8378  -22.2815   22.5545 H   0  0  0  0  0  0
  -25.2427  -23.1017   20.1446 H   0  0  0  0  0  0
  -24.5539  -14.4620   16.9597 H   0  0  0  0  0  0
  -23.1222  -15.0157   17.7534 H   0  0  0  0  0  0
  -24.1578  -19.5134   20.9519 H   0  0  0  0  0  0
  -30.4973  -16.1340   19.8234 H   0  0  0  0  0  0
  1 25  1  0  0  0
  1 30  2  0  0  0
  1 87  1  0  0  0
  2  3  1  0  0  0
  2 25  1  0  0  0
  2 88  1  0  0  0
  2 89  1  0  0  0
  3  4  1  0  0  0
  3 90  1  0  0  0
  3 91  1  0  0  0
  4  5  1  0  0  0
  4 92  1  0  0  0
  4 93  1  0  0  0
  5  6  1  0  0  0
  5 26  1  0  0  0
  5 94  1  0  0  0
  6 25  1  0  0  0
  6 95  1  0  0  0
  6 96  1  0  0  0
  7  8  2  0  0  0
  7 26  1  0  0  0
  7 29  1  0  0  0
  8  9  1  0  0  0
  8 22  1  0  0  0
  9 10  1  0  0  0
  9 27  2  0  0  0
 10 11  2  0  0  0
 10 15  1  0  0  0
 11 12  1  0  0  0
 11 97  1  0  0  0
 12 13  2  0  0  0
 12 98  1  0  0  0
 13 14  1  0  0  0
 13 31  1  0  0  0
 14 15  2  0  0  0
 14 99  1  0  0  0
 15100  1  0  0  0
 16 17  2  0  0  0
 16 21  1  0  0  0
 16 31  1  0  0  0
 17 18  1  0  0  0
 17101  1  0  0  0
 18 19  2  0  0  0
 18102  1  0  0  0
 19 20  1  0  0  0
 19 24  1  0  0  0
 20 21  2  0  0  0
 20103  1  0  0  0
 21 23  1  0  0  0
 22 28  1  0  0  0
 22 32  2  0  0  0
 26 27  1  0  0  0
 28104  1  0  0  0
 28105  1  0  0  0
 29106  1  0  0  0
 29107  1  0  0  0
 33 34  1  0  0  0
 33 66  1  0  0  0
 33 70  2  0  0  0
 34 36  1  0  0  0
 34 59  1  0  0  0
 34108  1  0  0  0
 35 44  2  0  0  0
 35 45  1  0  0  0
 35 68  1  0  0  0
 36 56  1  0  0  0
 36109  1  0  0  0
 37 39  1  0  0  0
 37 47  1  0  0  0
 37 66  1  0  0  0
 37110  1  0  0  0
 38 43  2  0  0  0
 38 46  1  0  0  0
 38 47  1  0  0  0
 39 64  1  0  0  0
 39 67  2  0  0  0
 40 52  1  0  0  0
 40 53  2  0  0  0
 40 58  1  0  0  0
 41111  1  0  0  0
 41112  1  0  0  0
 41113  1  0  0  0
 41 48  1  0  0  0
 42 43  1  0  0  0
 42 66  1  0  0  0
 42114  1  0  0  0
 42115  1  0  0  0
 43 44  1  0  0  0
 44116  1  0  0  0
 45 46  2  0  0  0
 45117  1  0  0  0
 46118  1  0  0  0
 47119  1  0  0  0
 47120  1  0  0  0
 48 56  1  0  0  0
 48 65  1  0  0  0
 48121  1  0  0  0
 49 50  1  0  0  0
 49 53  1  0  0  0
 49 64  1  0  0  0
 49122  1  0  0  0
 50 51  1  0  0  0
 50123  1  0  0  0
 50124  1  0  0  0
 51 52  1  0  0  0
 51125  1  0  0  0
 51126  1  0  0  0
 52127  1  0  0  0
 52128  1  0  0  0
 53 54  1  0  0  0
 54 55  2  0  0  0
 54129  1  0  0  0
 55 57  1  0  0  0
 55130  1  0  0  0
 56 69  2  0  0  0
 57 58  2  0  0  0
 57131  1  0  0  0
 58132  1  0  0  0
 59 60  1  0  0  0
 59 61  1  0  0  0
 59 62  1  0  0  0
 60133  1  0  0  0
 60134  1  0  0  0
 60135  1  0  0  0
 61136  1  0  0  0
 61137  1  0  0  0
 61138  1  0  0  0
 62139  1  0  0  0
 62140  1  0  0  0
 62141  1  0  0  0
 63 65  1  0  0  0
 63142  1  0  0  0
 63143  1  0  0  0
 63144  1  0  0  0
 64145  1  0  0  0
 65146  1  0  0  0
 68 81  1  0  0  0
 71 79  1  0  0  0
 71 82  1  0  0  0
 71 83  2  0  0  0
 72 82  2  0  0  0
 72 84  1  0  0  0
 72 85  1  0  0  0
 73 83  1  0  0  0
 73 84  2  0  0  0
 73 86  1  0  0  0
 74 77  1  0  0  0
 74147  1  0  0  0
 74148  1  0  0  0
 74149  1  0  0  0
 75150  1  0  0  0
 75151  1  0  0  0
 75152  1  0  0  0
 75 80  1  0  0  0
 76 80  1  0  0  0
 76153  1  0  0  0
 76154  1  0  0  0
 76155  1  0  0  0
 77156  1  0  0  0
 77157  1  0  0  0
 77 79  1  0  0  0
 78 86  1  0  0  0
 78158  1  0  0  0
 78159  1  0  0  0
 78 81  1  0  0  0
 79 87  1  0  0  0
 79160  1  0  0  0
 80 81  1  0  0  0
 80161  1  0  0  0
 81162  1  0  0  0
 85163  1  0  0  0
 85164  1  0  0  0
 86165  1  0  0  0
 87166  1  0  0  0
M  ISO  4   1 100  68 101  81 101  87 100
M  END
> <chiral flag>
0

> <version>
0

> <s_m_source_file>
/data/baiqing/PycharmProjects/Reinvent-master-3.2/result/LINK_invent/BTK/process_docking_weight1_custom_product_contain_oxygen_bond_distance_aromatic_linkinvent_7_9_3/rearranged_h_0192.sdf

> <i_m_source_file_index>
15

> <r_mmod_Potential_Energy-OPLS-2005>
13979.396484375

> <r_mmod_Stretch_Energy-OPLS-2005>
8711.810546875

> <r_mmod_Bend_Energy-OPLS-2005>
1119.82189941406

> <r_mmod_Torsional_Energy-OPLS-2005>
474.767211914062

> <r_mmod_Improper_Torsional_Energy-OPLS-2005>
77.5725555419922

> <r_mmod_Van_der_Waal_Energy-OPLS-2005>
3014.9111328125

> <r_mmod_Electrostatic_Energy-OPLS-2005>
-1335.81530761719

> <r_mmod_Solvation_Energy-OPLS-2005>
-259.404296875

> <b_mmod_Minimization_Converged-OPLS-2005>
0

> <r_mmod_RMS_Derivative-OPLS-2005>
22.1142539978027

$$$$
15
                    3D
 Structure written by MMmdl.
152160  0  0  1  0            999 V2000
  -30.5112  -14.9471   20.4145 C   0  0  0  0  0  0
  -30.4510  -12.5859   19.4840 C   0  0  0  0  0  0
  -29.5234  -12.5289   18.2472 C   0  0  0  0  0  0
  -28.0555  -12.3122   18.6675 C   0  0  0  0  0  0
  -27.6313  -13.2408   19.8352 C   0  0  2  0  0  0
  -28.6775  -13.2518   20.9698 C   0  0  0  0  0  0
  -25.2475  -13.8204   20.5695 C   0  0  0  0  0  0
  -24.1791  -13.0432   20.9224 C   0  0  0  0  0  0
  -24.6396  -11.6917   20.8746 C   0  0  0  0  0  0
  -23.9074  -10.4290   21.0408 C   0  0  0  0  0  0
  -24.3622   -9.4205   21.9185 C   0  0  0  0  0  0
  -23.6295   -8.2240   22.0751 C   0  0  0  0  0  0
  -22.4277   -8.0281   21.3544 C   0  0  0  0  0  0
  -21.9912   -9.0257   20.4649 C   0  0  0  0  0  0
  -22.7245  -10.2134   20.3059 C   0  0  0  0  0  0
  -21.6856   -6.0734   22.5281 C   0  0  0  0  0  0
  -21.4019   -6.5638   23.8215 C   0  0  0  0  0  0
  -21.3655   -5.6788   24.9175 C   0  0  0  0  0  0
  -21.6044   -4.3053   24.7226 C   0  0  0  0  0  0
  -21.8819   -3.8145   23.4347 C   0  0  0  0  0  0
  -21.9190   -4.6961   22.3402 C   0  0  0  0  0  0
  -22.7807  -13.5209   21.1876 C   0  0  0  0  0  0
  -22.1662   -4.2147   21.0981 F   0  0  0  0  0  0
  -21.5622   -3.4536   25.7739 F   0  0  0  0  0  0
  -29.9515  -13.6721   20.3701 N   0  0  0  0  0  0
  -26.2893  -12.9419   20.3214 N   0  0  0  0  0  0
  -25.9324  -11.6557   20.5720 N   0  0  0  0  0  0
  -22.0455  -12.8202   22.0436 N   0  0  0  0  0  0
  -25.4091  -15.1946   20.4114 N   0  0  0  0  0  0
  -31.7233  -15.0462   20.1904 O   0  0  0  0  0  0
  -21.6640   -6.8879   21.4244 O   0  0  0  0  0  0
  -22.3491  -14.5510   20.6717 O   0  0  0  0  0  0
  -24.6442  -31.8426   23.1861 C   0  0  0  0  0  0
  -25.9210  -32.4685   23.8255 C   0  0  1  0  0  0
  -27.2201  -27.1325   20.1580 C   0  0  0  0  0  0
  -25.5950  -33.8489   24.2180 N   0  0  0  0  0  0
  -23.4477  -30.4607   21.5325 C   0  0  2  0  0  0
  -24.8969  -28.8783   20.1168 C   0  0  0  0  0  0
  -22.7566  -29.4547   22.4867 C   0  0  0  0  0  0
  -18.0303  -28.1395   22.8475 C   0  0  0  0  0  0
  -24.1492  -36.7258   23.2641 C   0  0  0  0  0  0
  -26.0025  -30.7162   21.3824 C   0  0  0  0  0  0
  -26.0750  -29.3240   20.7303 C   0  0  0  0  0  0
  -27.2403  -28.4688   20.7281 C   0  0  0  0  0  0
  -26.0158  -26.7807   19.5153 C   0  0  0  0  0  0
  -24.8796  -27.6201   19.4937 C   0  0  0  0  0  0
  -23.6745  -29.7830   20.1545 C   0  0  0  0  0  0
  -25.4120  -36.3027   24.0319 C   0  0  1  0  0  0
  -20.5913  -28.3723   23.1237 C   0  0  2  0  0  0
  -20.6789  -26.9429   22.5405 C   0  0  0  0  0  0
  -19.5766  -26.6382   21.5211 C   0  0  0  0  0  0
  -18.1946  -26.7932   22.1623 C   0  0  0  0  0  0
  -19.1558  -28.8878   23.2847 C   0  0  0  0  0  0
  -18.9474  -30.1471   23.8878 C   0  0  0  0  0  0
  -17.6471  -30.6594   24.0556 C   0  0  0  0  0  0
  -25.9071  -34.9404   23.5061 C   0  0  0  0  0  0
  -16.5361  -29.9087   23.6332 C   0  0  0  0  0  0
  -16.7287  -28.6503   23.0357 C   0  0  0  0  0  0
  -26.4530  -31.6552   25.0698 C   0  0  0  0  0  0
  -25.3715  -31.3738   26.1395 C   0  0  0  0  0  0
  -27.0391  -30.2950   24.6268 C   0  0  0  0  0  0
  -27.6058  -32.4315   25.7483 C   0  0  0  0  0  0
  -27.5581  -37.1777   24.8460 C   0  0  0  0  0  0
  -21.4258  -29.3049   22.3611 N   0  0  0  0  0  0
  -26.4279  -37.3748   23.9416 N   0  0  0  0  0  0
  -24.7183  -31.0278   22.0893 N   0  0  0  0  0  0
  -23.4202  -28.8101   23.3027 O   0  0  0  0  0  0
  -28.2905  -26.1685   20.1506 O   0  0  0  0  0  0
  -26.5661  -34.8908   22.4641 O   0  0  0  0  0  0
  -23.5561  -32.1297   23.7088 O   0  0  0  0  0  0
  -30.2699  -19.7989   21.2444 C   0  0  0  0  0  0
  -29.2534  -20.5342   20.5239 C   0  0  0  0  0  0
  -29.6941  -17.5957   20.4331 C   0  0  0  0  0  0
  -28.6945  -18.3390   19.6893 C   0  0  0  0  0  0
  -30.0705  -23.6032   19.2279 C   0  0  0  0  0  0
  -28.1083  -24.6821   20.5870 C   0  0  0  0  0  0
  -28.7429  -23.2585   19.9123 C   0  0  2  0  0  0
  -30.4911  -18.4177   21.1965 N   0  0  0  0  0  0
  -28.4887  -19.7241   19.7151 N   0  0  0  0  0  0
  -27.8118  -17.6338   18.8787 N   0  0  0  0  0  0
  -29.6391  -16.0650   20.4400 N   0  0  0  0  0  0
  -28.9582  -21.9763   20.7784 N   0  0  0  0  0  0
  -31.4805  -12.7636   19.1690 H   0  0  0  0  0  0
  -30.4593  -11.6302   20.0112 H   0  0  0  0  0  0
  -29.8432  -11.7350   17.5706 H   0  0  0  0  0  0
  -29.6069  -13.4603   17.6849 H   0  0  0  0  0  0
  -27.9521  -11.2702   18.9718 H   0  0  0  0  0  0
  -27.3913  -12.4460   17.8131 H   0  0  0  0  0  0
  -27.5950  -14.2440   19.4115 H   0  0  0  0  0  0
  -28.7659  -12.2680   21.4333 H   0  0  0  0  0  0
  -28.3803  -13.9403   21.7626 H   0  0  0  0  0  0
  -25.2771   -9.5676   22.4753 H   0  0  0  0  0  0
  -24.0005   -7.4630   22.7470 H   0  0  0  0  0  0
  -21.0839   -8.8778   19.8959 H   0  0  0  0  0  0
  -22.3707  -10.9668   19.6163 H   0  0  0  0  0  0
  -21.2026   -7.6148   23.9719 H   0  0  0  0  0  0
  -21.1473   -6.0518   25.9075 H   0  0  0  0  0  0
  -22.0602   -2.7607   23.2848 H   0  0  0  0  0  0
  -22.4077  -11.9875   22.4842 H   0  0  0  0  0  0
  -21.1069  -13.1229   22.2631 H   0  0  0  0  0  0
  -24.6268  -15.8300   20.5264 H   0  0  0  0  0  0
  -26.2251  -15.6550   20.0276 H   0  0  0  0  0  0
  -26.7273  -32.5297   23.0981 H   0  0  0  0  0  0
  -25.0066  -33.9592   25.0308 H   0  0  0  0  0  0
  -22.7510  -31.2866   21.3749 H   0  0  0  0  0  0
  -23.3761  -35.9581   23.3268 H   0  0  0  0  0  0
  -24.3585  -36.8922   22.2063 H   0  0  0  0  0  0
  -23.7238  -37.6441   23.6696 H   0  0  0  0  0  0
  -26.1522  -31.4667   20.6052 H   0  0  0  0  0  0
  -26.8751  -30.7726   22.0212 H   0  0  0  0  0  0
  -28.1442  -28.8107   21.2130 H   0  0  0  0  0  0
  -25.9424  -25.8168   19.0315 H   0  0  0  0  0  0
  -23.9807  -27.2748   19.0018 H   0  0  0  0  0  0
  -23.8123  -30.5532   19.3947 H   0  0  0  0  0  0
  -22.7887  -29.2248   19.8459 H   0  0  0  0  0  0
  -25.1305  -36.1849   25.0810 H   0  0  0  0  0  0
  -21.0000  -28.3315   24.1360 H   0  0  0  0  0  0
  -20.5684  -26.2338   23.3623 H   0  0  0  0  0  0
  -21.6656  -26.7442   22.1203 H   0  0  0  0  0  0
  -19.6931  -25.6287   21.1257 H   0  0  0  0  0  0
  -19.6703  -27.3176   20.6728 H   0  0  0  0  0  0
  -17.4217  -26.6670   21.4027 H   0  0  0  0  0  0
  -18.0352  -26.0081   22.9026 H   0  0  0  0  0  0
  -19.7949  -30.7288   24.2245 H   0  0  0  0  0  0
  -17.5026  -31.6272   24.5161 H   0  0  0  0  0  0
  -15.5363  -30.2984   23.7669 H   0  0  0  0  0  0
  -15.8685  -28.0814   22.7089 H   0  0  0  0  0  0
  -24.5905  -30.7072   25.7717 H   0  0  0  0  0  0
  -24.8893  -32.2918   26.4764 H   0  0  0  0  0  0
  -25.8006  -30.8951   27.0208 H   0  0  0  0  0  0
  -26.3002  -29.6668   24.1282 H   0  0  0  0  0  0
  -27.4016  -29.7252   25.4833 H   0  0  0  0  0  0
  -27.8903  -30.4185   23.9568 H   0  0  0  0  0  0
  -27.2652  -33.3637   26.2003 H   0  0  0  0  0  0
  -28.3902  -32.6839   25.0335 H   0  0  0  0  0  0
  -28.0689  -31.8475   26.5449 H   0  0  0  0  0  0
  -28.2566  -38.0106   24.7540 H   0  0  0  0  0  0
  -28.1107  -36.2636   24.6235 H   0  0  0  0  0  0
  -27.2305  -37.1364   25.8862 H   0  0  0  0  0  0
  -20.9476  -29.8748   21.6776 H   0  0  0  0  0  0
  -26.0144  -38.2810   24.1436 H   0  0  0  0  0  0
  -30.9159  -20.3335   21.9256 H   0  0  0  0  0  0
  -29.9360  -24.4129   18.5099 H   0  0  0  0  0  0
  -30.4753  -22.7513   18.6805 H   0  0  0  0  0  0
  -30.8191  -23.9281   19.9510 H   0  0  0  0  0  0
  -28.4859  -24.6966   21.6095 H   0  0  0  0  0  0
  -27.0398  -24.5094   20.7151 H   0  0  0  0  0  0
  -28.0572  -22.9662   19.1152 H   0  0  0  0  0  0
  -28.1755  -16.7821   18.4701 H   0  0  0  0  0  0
  -27.2854  -18.1854   18.2122 H   0  0  0  0  0  0
  -28.6820  -15.7551   20.3955 H   0  0  0  0  0  0
  -29.3810  -22.2465   21.6625 H   0  0  0  0  0  0
  1 25  1  0  0  0
  1 30  2  0  0  0
  1 81  1  0  0  0
  2  3  1  0  0  0
  2 25  1  0  0  0
  2 83  1  0  0  0
  2 84  1  0  0  0
  3  4  1  0  0  0
  3 85  1  0  0  0
  3 86  1  0  0  0
  4  5  1  0  0  0
  4 87  1  0  0  0
  4 88  1  0  0  0
  5  6  1  0  0  0
  5 26  1  0  0  0
  5 89  1  0  0  0
  6 25  1  0  0  0
  6 90  1  0  0  0
  6 91  1  0  0  0
  7  8  2  0  0  0
  7 26  1  0  0  0
  7 29  1  0  0  0
  8  9  1  0  0  0
  8 22  1  0  0  0
  9 10  1  0  0  0
  9 27  2  0  0  0
 10 11  2  0  0  0
 10 15  1  0  0  0
 11 12  1  0  0  0
 11 92  1  0  0  0
 12 13  2  0  0  0
 12 93  1  0  0  0
 13 14  1  0  0  0
 13 31  1  0  0  0
 14 15  2  0  0  0
 14 94  1  0  0  0
 15 95  1  0  0  0
 16 17  2  0  0  0
 16 21  1  0  0  0
 16 31  1  0  0  0
 17 18  1  0  0  0
 17 96  1  0  0  0
 18 19  2  0  0  0
 18 97  1  0  0  0
 19 20  1  0  0  0
 19 24  1  0  0  0
 20 21  2  0  0  0
 20 98  1  0  0  0
 21 23  1  0  0  0
 22 28  1  0  0  0
 22 32  2  0  0  0
 26 27  1  0  0  0
 28 99  1  0  0  0
 28100  1  0  0  0
 29101  1  0  0  0
 29102  1  0  0  0
 33 34  1  0  0  0
 33 66  1  0  0  0
 33 70  2  0  0  0
 34 36  1  0  0  0
 34 59  1  0  0  0
 34103  1  0  0  0
 35 44  2  0  0  0
 35 45  1  0  0  0
 35 68  1  0  0  0
 36 56  1  0  0  0
 36104  1  0  0  0
 37 39  1  0  0  0
 37 47  1  0  0  0
 37 66  1  0  0  0
 37105  1  0  0  0
 38 43  2  0  0  0
 38 46  1  0  0  0
 38 47  1  0  0  0
 39 64  1  0  0  0
 39 67  2  0  0  0
 40 52  1  0  0  0
 40 53  2  0  0  0
 40 58  1  0  0  0
 41106  1  0  0  0
 41107  1  0  0  0
 41108  1  0  0  0
 41 48  1  0  0  0
 42 43  1  0  0  0
 42 66  1  0  0  0
 42109  1  0  0  0
 42110  1  0  0  0
 43 44  1  0  0  0
 44111  1  0  0  0
 45 46  2  0  0  0
 45112  1  0  0  0
 46113  1  0  0  0
 47114  1  0  0  0
 47115  1  0  0  0
 48 56  1  0  0  0
 48 65  1  0  0  0
 48116  1  0  0  0
 49 50  1  0  0  0
 49 53  1  0  0  0
 49 64  1  0  0  0
 49117  1  0  0  0
 50 51  1  0  0  0
 50118  1  0  0  0
 50119  1  0  0  0
 51 52  1  0  0  0
 51120  1  0  0  0
 51121  1  0  0  0
 52122  1  0  0  0
 52123  1  0  0  0
 53 54  1  0  0  0
 54 55  2  0  0  0
 54124  1  0  0  0
 55 57  1  0  0  0
 55125  1  0  0  0
 56 69  2  0  0  0
 57 58  2  0  0  0
 57126  1  0  0  0
 58127  1  0  0  0
 59 60  1  0  0  0
 59 61  1  0  0  0
 59 62  1  0  0  0
 60128  1  0  0  0
 60129  1  0  0  0
 60130  1  0  0  0
 61131  1  0  0  0
 61132  1  0  0  0
 61133  1  0  0  0
 62134  1  0  0  0
 62135  1  0  0  0
 62136  1  0  0  0
 63 65  1  0  0  0
 63137  1  0  0  0
 63138  1  0  0  0
 63139  1  0  0  0
 64140  1  0  0  0
 65141  1  0  0  0
 68 76  1  0  0  0
 71 72  2  0  0  0
 71 78  1  0  0  0
 71142  1  0  0  0
 72 79  1  0  0  0
 72 82  1  0  0  0
 73 74  1  0  0  0
 73 78  2  0  0  0
 73 81  1  0  0  0
 74 79  2  0  0  0
 74 80  1  0  0  0
 75143  1  0  0  0
 75144  1  0  0  0
 75145  1  0  0  0
 75 77  1  0  0  0
 76 77  1  0  0  0
 76146  1  0  0  0
 76147  1  0  0  0
 77 82  1  0  0  0
 77148  1  0  0  0
 80149  1  0  0  0
 80150  1  0  0  0
 81151  1  0  0  0
 82152  1  0  0  0
M  ISO  4   1 100  68 101  76 101  81 100
M  END
> <chiral flag>
0

> <version>
0

> <s_m_source_file>
/data/baiqing/PycharmProjects/Reinvent-master-3.2/result/LINK_invent/BTK/process_docking_weight1_custom_product_contain_oxygen_bond_distance_aromatic_linkinvent_7_9_3/rearranged_h_0192.sdf

> <i_m_source_file_index>
16

> <r_mmod_Potential_Energy-OPLS-2005>
378.802612304688

> <r_mmod_Stretch_Energy-OPLS-2005>
232.876068115234

> <r_mmod_Bend_Energy-OPLS-2005>
278.573883056641

> <r_mmod_Torsional_Energy-OPLS-2005>
258.519714355469

> <r_mmod_Improper_Torsional_Energy-OPLS-2005>
14.7121162414551

> <r_mmod_Van_der_Waal_Energy-OPLS-2005>
127.921310424805

> <r_mmod_Electrostatic_Energy-OPLS-2005>
-481.4306640625

> <r_mmod_Solvation_Energy-OPLS-2005>
-243.24040222168

> <b_mmod_Minimization_Converged-OPLS-2005>
0

> <r_mmod_RMS_Derivative-OPLS-2005>
0.797065377235413

$$$$
16
                    3D
 Structure written by MMmdl.
169177  0  0  1  0            999 V2000
  -30.6834  -14.4346   20.5950 C   0  0  0  0  0  0
  -30.4206  -12.3134   19.3693 C   0  0  0  0  0  0
  -29.4695  -12.5036   18.1745 C   0  0  0  0  0  0
  -27.9918  -12.3498   18.6012 C   0  0  0  0  0  0
  -27.6477  -13.1921   19.8557 C   0  0  2  0  0  0
  -28.6924  -12.9433   20.9575 C   0  0  0  0  0  0
  -25.2546  -13.8119   20.5682 C   0  0  0  0  0  0
  -24.1763  -13.0441   20.9221 C   0  0  0  0  0  0
  -24.6276  -11.6919   20.8796 C   0  0  0  0  0  0
  -23.8960  -10.4326   21.0468 C   0  0  0  0  0  0
  -24.3576   -9.4271   21.9199 C   0  0  0  0  0  0
  -23.6337   -8.2246   22.0743 C   0  0  0  0  0  0
  -22.4329   -8.0231   21.3519 C   0  0  0  0  0  0
  -21.9934   -9.0221   20.4656 C   0  0  0  0  0  0
  -22.7186  -10.2115   20.3112 C   0  0  0  0  0  0
  -21.6899   -6.0697   22.5304 C   0  0  0  0  0  0
  -21.4007   -6.5595   23.8226 C   0  0  0  0  0  0
  -21.3693   -5.6746   24.9190 C   0  0  0  0  0  0
  -21.6074   -4.3014   24.7229 C   0  0  0  0  0  0
  -21.8858   -3.8104   23.4373 C   0  0  0  0  0  0
  -21.9223   -4.6913   22.3426 C   0  0  0  0  0  0
  -22.7758  -13.5288   21.1914 C   0  0  0  0  0  0
  -22.1700   -4.2098   21.1006 F   0  0  0  0  0  0
  -21.5653   -3.4536   25.7764 F   0  0  0  0  0  0
  -30.0161  -13.2744   20.3952 N   0  0  0  0  0  0
  -26.2935  -12.9257   20.3285 N   0  0  0  0  0  0
  -25.9200  -11.6442   20.5713 N   0  0  0  0  0  0
  -22.0327  -12.8290   22.0407 N   0  0  0  0  0  0
  -25.4319  -15.1820   20.4207 N   0  0  0  0  0  0
  -31.8393  -14.6427   20.2043 O   0  0  0  0  0  0
  -21.6704   -6.8831   21.4238 O   0  0  0  0  0  0
  -22.3527  -14.5644   20.6798 O   0  0  0  0  0  0
  -24.6144  -31.8686   23.2223 C   0  0  0  0  0  0
  -25.9053  -32.4844   23.8439 C   0  0  1  0  0  0
  -27.2076  -27.4146   20.0906 C   0  0  0  0  0  0
  -25.5906  -33.8651   24.2374 N   0  0  0  0  0  0
  -23.4010  -30.5049   21.5653 C   0  0  2  0  0  0
  -24.8372  -28.9814   20.1154 C   0  0  0  0  0  0
  -22.7384  -29.4685   22.4982 C   0  0  0  0  0  0
  -18.0243  -28.1395   22.8486 C   0  0  0  0  0  0
  -24.1544  -36.7287   23.2617 C   0  0  0  0  0  0
  -25.9388  -30.8325   21.3849 C   0  0  0  0  0  0
  -26.0038  -29.4759   20.7065 C   0  0  0  0  0  0
  -27.1912  -28.7032   20.6846 C   0  0  0  0  0  0
  -26.0028  -26.9308   19.5177 C   0  0  0  0  0  0
  -24.8319  -27.7057   19.5216 C   0  0  0  0  0  0
  -23.6094  -29.8620   20.1736 C   0  0  0  0  0  0
  -25.4153  -36.3108   24.0335 C   0  0  1  0  0  0
  -20.5842  -28.3686   23.1334 C   0  0  2  0  0  0
  -20.6785  -26.9416   22.5466 C   0  0  0  0  0  0
  -19.5779  -26.6371   21.5266 C   0  0  0  0  0  0
  -18.1921  -26.7942   22.1623 C   0  0  0  0  0  0
  -19.1498  -28.8851   23.2907 C   0  0  0  0  0  0
  -18.9422  -30.1423   23.8921 C   0  0  0  0  0  0
  -17.6445  -30.6587   24.0559 C   0  0  0  0  0  0
  -25.9040  -34.9475   23.5143 C   0  0  0  0  0  0
  -16.5322  -29.9068   23.6327 C   0  0  0  0  0  0
  -16.7253  -28.6505   23.0324 C   0  0  0  0  0  0
  -26.4545  -31.6566   25.0713 C   0  0  0  0  0  0
  -25.3864  -31.3614   26.1480 C   0  0  0  0  0  0
  -27.0426  -30.3045   24.6057 C   0  0  0  0  0  0
  -27.6165  -32.4263   25.7415 C   0  0  0  0  0  0
  -27.5663  -37.1794   24.8429 C   0  0  0  0  0  0
  -21.4132  -29.3012   22.3695 N   0  0  0  0  0  0
  -26.4362  -37.3795   23.9417 N   0  0  0  0  0  0
  -24.6704  -31.0772   22.1142 N   0  0  0  0  0  0
  -23.4160  -28.8150   23.2981 O   0  0  0  0  0  0
  -28.3864  -26.6925   20.1122 O   0  0  0  0  0  0
  -26.5568  -34.8926   22.4683 O   0  0  0  0  0  0
  -23.5354  -32.1430   23.7618 O   0  0  0  0  0  0
  -32.2047  -17.9508   21.1274 C   0  0  0  0  0  0
  -30.9099  -17.6716   21.4840 C   0  0  0  0  0  0
  -30.6915  -19.8602   20.8669 C   0  0  0  0  0  0
  -28.6502  -22.4503   16.3091 C   0  0  0  0  0  0
  -26.8701  -20.7126   16.7776 C   0  0  0  0  0  0
  -28.0439  -21.6165   21.9478 C   0  0  0  0  0  0
  -30.4094  -16.3944   22.1063 C   0  0  0  0  0  0
  -28.2372  -24.1727   20.3682 C   0  0  0  0  0  0
  -27.4327  -22.5150   18.5455 C   0  0  0  0  0  0
  -28.4767  -25.4184   19.4538 C   0  0  0  0  0  0
  -27.9595  -21.6094   17.4038 C   0  0  0  0  0  0
  -28.5071  -22.8132   19.6340 C   0  0  2  0  0  0
  -28.7059  -21.5450   20.5564 C   0  0  1  0  0  0
  -30.0505  -18.7662   21.2955 N   0  0  0  0  0  0
  -30.0974  -21.0972   20.6387 N   0  0  0  0  0  0
  -29.9418  -15.3789   21.1782 N   0  0  0  0  0  0
  -32.4082  -19.5996   20.5891 S   0  0  0  0  0  0
  -31.4543  -12.4559   19.0489 H   0  0  0  0  0  0
  -30.3561  -11.2980   19.7610 H   0  0  0  0  0  0
  -29.7211  -11.7834   17.3936 H   0  0  0  0  0  0
  -29.6125  -13.4923   17.7288 H   0  0  0  0  0  0
  -27.7984  -11.2942   18.7819 H   0  0  0  0  0  0
  -27.3379  -12.6255   17.7739 H   0  0  0  0  0  0
  -27.7038  -14.2405   19.5506 H   0  0  0  0  0  0
  -28.6792  -11.8961   21.2728 H   0  0  0  0  0  0
  -28.4411  -13.5193   21.8507 H   0  0  0  0  0  0
  -25.2699   -9.5785   22.4787 H   0  0  0  0  0  0
  -24.0100   -7.4625   22.7440 H   0  0  0  0  0  0
  -21.0882   -8.8740   19.8926 H   0  0  0  0  0  0
  -22.3648  -10.9667   19.6251 H   0  0  0  0  0  0
  -21.1947   -7.6074   23.9733 H   0  0  0  0  0  0
  -21.1493   -6.0446   25.9095 H   0  0  0  0  0  0
  -22.0596   -2.7570   23.2893 H   0  0  0  0  0  0
  -22.4020  -12.0033   22.4857 H   0  0  0  0  0  0
  -21.0902  -13.1223   22.2592 H   0  0  0  0  0  0
  -24.6661  -15.8270   20.5950 H   0  0  0  0  0  0
  -26.2825  -15.6460   20.1283 H   0  0  0  0  0  0
  -26.7023  -32.5567   23.1092 H   0  0  0  0  0  0
  -25.0200  -33.9793   25.0638 H   0  0  0  0  0  0
  -22.6913  -31.3270   21.4465 H   0  0  0  0  0  0
  -23.3864  -35.9577   23.3262 H   0  0  0  0  0  0
  -24.3634  -36.8916   22.2028 H   0  0  0  0  0  0
  -23.7241  -37.6471   23.6641 H   0  0  0  0  0  0
  -26.0795  -31.6223   20.6456 H   0  0  0  0  0  0
  -26.8157  -30.8440   22.0223 H   0  0  0  0  0  0
  -28.0989  -29.0952   21.1257 H   0  0  0  0  0  0
  -25.9236  -25.9478   19.0831 H   0  0  0  0  0  0
  -23.9210  -27.3117   19.0951 H   0  0  0  0  0  0
  -23.7421  -30.6688   19.4510 H   0  0  0  0  0  0
  -22.7249  -29.3097   19.8479 H   0  0  0  0  0  0
  -25.1329  -36.2009   25.0835 H   0  0  0  0  0  0
  -20.9925  -28.3333   24.1476 H   0  0  0  0  0  0
  -20.5805  -26.2260   23.3658 H   0  0  0  0  0  0
  -21.6651  -26.7554   22.1207 H   0  0  0  0  0  0
  -19.7006  -25.6283   21.1290 H   0  0  0  0  0  0
  -19.6787  -27.3222   20.6840 H   0  0  0  0  0  0
  -17.4240  -26.6693   21.3977 H   0  0  0  0  0  0
  -18.0281  -26.0084   22.9005 H   0  0  0  0  0  0
  -19.7876  -30.7199   24.2400 H   0  0  0  0  0  0
  -17.4969  -31.6308   24.5066 H   0  0  0  0  0  0
  -15.5311  -30.2959   23.7638 H   0  0  0  0  0  0
  -15.8647  -28.0807   22.7035 H   0  0  0  0  0  0
  -24.6035  -30.6950   25.7821 H   0  0  0  0  0  0
  -24.9045  -32.2729   26.4989 H   0  0  0  0  0  0
  -25.8243  -30.8741   27.0189 H   0  0  0  0  0  0
  -26.3012  -29.6716   24.1167 H   0  0  0  0  0  0
  -27.4320  -29.7296   25.4450 H   0  0  0  0  0  0
  -27.8765  -30.4389   23.9191 H   0  0  0  0  0  0
  -27.2831  -33.3501   26.2147 H   0  0  0  0  0  0
  -28.3878  -32.6899   25.0165 H   0  0  0  0  0  0
  -28.0985  -31.8306   26.5155 H   0  0  0  0  0  0
  -28.2555  -38.0214   24.7611 H   0  0  0  0  0  0
  -28.1290  -36.2730   24.6111 H   0  0  0  0  0  0
  -27.2358  -37.1220   25.8818 H   0  0  0  0  0  0
  -20.9270  -29.8609   21.6828 H   0  0  0  0  0  0
  -26.0261  -38.2894   24.1481 H   0  0  0  0  0  0
  -33.0643  -17.2974   21.1802 H   0  0  0  0  0  0
  -29.1158  -21.8206   15.5497 H   0  0  0  0  0  0
  -29.4275  -23.0906   16.7289 H   0  0  0  0  0  0
  -27.9392  -23.1098   15.8010 H   0  0  0  0  0  0
  -27.3271  -19.8603   16.2681 H   0  0  0  0  0  0
  -26.2628  -21.2621   16.0545 H   0  0  0  0  0  0
  -26.1875  -20.2993   17.5220 H   0  0  0  0  0  0
  -28.1298  -20.6547   22.4587 H   0  0  0  0  0  0
  -26.9825  -21.8578   21.8756 H   0  0  0  0  0  0
  -28.5040  -22.3637   22.5957 H   0  0  0  0  0  0
  -31.1804  -15.9525   22.7373 H   0  0  0  0  0  0
  -29.5674  -16.5994   22.7697 H   0  0  0  0  0  0
  -27.2309  -24.1813   20.7969 H   0  0  0  0  0  0
  -28.9182  -24.2557   21.2181 H   0  0  0  0  0  0
  -26.5721  -22.0659   19.0467 H   0  0  0  0  0  0
  -27.0573  -23.4293   18.0792 H   0  0  0  0  0  0
  -27.8651  -25.3899   18.5537 H   0  0  0  0  0  0
  -29.4957  -25.3744   19.0706 H   0  0  0  0  0  0
  -28.7017  -20.9304   17.8244 H   0  0  0  0  0  0
  -29.4397  -22.9729   19.0961 H   0  0  0  0  0  0
  -28.2100  -20.7104   20.0556 H   0  0  0  0  0  0
  -30.7950  -21.7887   20.3713 H   0  0  0  0  0  0
  -28.9586  -15.1584   21.2345 H   0  0  0  0  0  0
  1 25  1  0  0  0
  1 30  2  0  0  0
  1 86  1  0  0  0
  2  3  1  0  0  0
  2 25  1  0  0  0
  2 88  1  0  0  0
  2 89  1  0  0  0
  3  4  1  0  0  0
  3 90  1  0  0  0
  3 91  1  0  0  0
  4  5  1  0  0  0
  4 92  1  0  0  0
  4 93  1  0  0  0
  5  6  1  0  0  0
  5 26  1  0  0  0
  5 94  1  0  0  0
  6 25  1  0  0  0
  6 95  1  0  0  0
  6 96  1  0  0  0
  7  8  2  0  0  0
  7 26  1  0  0  0
  7 29  1  0  0  0
  8  9  1  0  0  0
  8 22  1  0  0  0
  9 10  1  0  0  0
  9 27  2  0  0  0
 10 11  2  0  0  0
 10 15  1  0  0  0
 11 12  1  0  0  0
 11 97  1  0  0  0
 12 13  2  0  0  0
 12 98  1  0  0  0
 13 14  1  0  0  0
 13 31  1  0  0  0
 14 15  2  0  0  0
 14 99  1  0  0  0
 15100  1  0  0  0
 16 17  2  0  0  0
 16 21  1  0  0  0
 16 31  1  0  0  0
 17 18  1  0  0  0
 17101  1  0  0  0
 18 19  2  0  0  0
 18102  1  0  0  0
 19 20  1  0  0  0
 19 24  1  0  0  0
 20 21  2  0  0  0
 20103  1  0  0  0
 21 23  1  0  0  0
 22 28  1  0  0  0
 22 32  2  0  0  0
 26 27  1  0  0  0
 28104  1  0  0  0
 28105  1  0  0  0
 29106  1  0  0  0
 29107  1  0  0  0
 33 34  1  0  0  0
 33 66  1  0  0  0
 33 70  2  0  0  0
 34 36  1  0  0  0
 34 59  1  0  0  0
 34108  1  0  0  0
 35 44  2  0  0  0
 35 45  1  0  0  0
 35 68  1  0  0  0
 36 56  1  0  0  0
 36109  1  0  0  0
 37 39  1  0  0  0
 37 47  1  0  0  0
 37 66  1  0  0  0
 37110  1  0  0  0
 38 43  2  0  0  0
 38 46  1  0  0  0
 38 47  1  0  0  0
 39 64  1  0  0  0
 39 67  2  0  0  0
 40 52  1  0  0  0
 40 53  2  0  0  0
 40 58  1  0  0  0
 41111  1  0  0  0
 41112  1  0  0  0
 41113  1  0  0  0
 41 48  1  0  0  0
 42 43  1  0  0  0
 42 66  1  0  0  0
 42114  1  0  0  0
 42115  1  0  0  0
 43 44  1  0  0  0
 44116  1  0  0  0
 45 46  2  0  0  0
 45117  1  0  0  0
 46118  1  0  0  0
 47119  1  0  0  0
 47120  1  0  0  0
 48 56  1  0  0  0
 48 65  1  0  0  0
 48121  1  0  0  0
 49 50  1  0  0  0
 49 53  1  0  0  0
 49 64  1  0  0  0
 49122  1  0  0  0
 50 51  1  0  0  0
 50123  1  0  0  0
 50124  1  0  0  0
 51 52  1  0  0  0
 51125  1  0  0  0
 51126  1  0  0  0
 52127  1  0  0  0
 52128  1  0  0  0
 53 54  1  0  0  0
 54 55  2  0  0  0
 54129  1  0  0  0
 55 57  1  0  0  0
 55130  1  0  0  0
 56 69  2  0  0  0
 57 58  2  0  0  0
 57131  1  0  0  0
 58132  1  0  0  0
 59 60  1  0  0  0
 59 61  1  0  0  0
 59 62  1  0  0  0
 60133  1  0  0  0
 60134  1  0  0  0
 60135  1  0  0  0
 61136  1  0  0  0
 61137  1  0  0  0
 61138  1  0  0  0
 62139  1  0  0  0
 62140  1  0  0  0
 62141  1  0  0  0
 63 65  1  0  0  0
 63142  1  0  0  0
 63143  1  0  0  0
 63144  1  0  0  0
 64145  1  0  0  0
 65146  1  0  0  0
 68 80  1  0  0  0
 71 72  2  0  0  0
 71 87  1  0  0  0
 71147  1  0  0  0
 72 77  1  0  0  0
 72 84  1  0  0  0
 73 84  2  0  0  0
 73 85  1  0  0  0
 73 87  1  0  0  0
 74148  1  0  0  0
 74149  1  0  0  0
 74150  1  0  0  0
 74 81  1  0  0  0
 75 81  1  0  0  0
 75151  1  0  0  0
 75152  1  0  0  0
 75153  1  0  0  0
 76154  1  0  0  0
 76155  1  0  0  0
 76156  1  0  0  0
 76 83  1  0  0  0
 77 86  1  0  0  0
 77157  1  0  0  0
 77158  1  0  0  0
 78 80  1  0  0  0
 78159  1  0  0  0
 78160  1  0  0  0
 78 82  1  0  0  0
 79 81  1  0  0  0
 79 82  1  0  0  0
 79161  1  0  0  0
 79162  1  0  0  0
 80163  1  0  0  0
 80164  1  0  0  0
 81165  1  0  0  0
 82 83  1  0  0  0
 82166  1  0  0  0
 83 85  1  0  0  0
 83167  1  0  0  0
 85168  1  0  0  0
 86169  1  0  0  0
M  ISO  4   1 100  68 101  80 101  86 100
M  END
> <chiral flag>
0

> <version>
0

> <s_m_source_file>
/data/baiqing/PycharmProjects/Reinvent-master-3.2/result/LINK_invent/BTK/process_docking_weight1_custom_product_contain_oxygen_bond_distance_aromatic_linkinvent_7_9_3/rearranged_h_0192.sdf

> <i_m_source_file_index>
17

> <r_mmod_Potential_Energy-OPLS-2005>
-232.998947143555

> <r_mmod_Stretch_Energy-OPLS-2005>
39.0253295898438

> <r_mmod_Bend_Energy-OPLS-2005>
116.755706787109

> <r_mmod_Torsional_Energy-OPLS-2005>
234.126556396484

> <r_mmod_Improper_Torsional_Energy-OPLS-2005>
3.63960433006287

> <r_mmod_Van_der_Waal_Energy-OPLS-2005>
129.64274597168

> <r_mmod_Electrostatic_Energy-OPLS-2005>
-559.020263671875

> <r_mmod_Solvation_Energy-OPLS-2005>
-214.375289916992

> <b_mmod_Minimization_Converged-OPLS-2005>
0

> <r_mmod_RMS_Derivative-OPLS-2005>
9.76603984832764

$$$$
17
                    3D
 Structure written by MMmdl.
168176  0  0  1  0            999 V2000
  -30.7280  -14.3823   20.6643 C   0  0  0  0  0  0
  -30.4293  -12.2850   19.3941 C   0  0  0  0  0  0
  -29.4899  -12.5237   18.1946 C   0  0  0  0  0  0
  -28.0111  -12.3879   18.6075 C   0  0  0  0  0  0
  -27.6704  -13.1974   19.8865 C   0  0  2  0  0  0
  -28.7095  -12.9066   20.9926 C   0  0  0  0  0  0
  -25.2597  -13.8124   20.5624 C   0  0  0  0  0  0
  -24.1845  -13.0413   20.9131 C   0  0  0  0  0  0
  -24.6401  -11.6886   20.8724 C   0  0  0  0  0  0
  -23.9064  -10.4279   21.0402 C   0  0  0  0  0  0
  -24.3613   -9.4198   21.9184 C   0  0  0  0  0  0
  -23.6288   -8.2237   22.0755 C   0  0  0  0  0  0
  -22.4269   -8.0282   21.3552 C   0  0  0  0  0  0
  -21.9906   -9.0252   20.4646 C   0  0  0  0  0  0
  -22.7237  -10.2129   20.3052 C   0  0  0  0  0  0
  -21.6844   -6.0734   22.5282 C   0  0  0  0  0  0
  -21.4009   -6.5637   23.8214 C   0  0  0  0  0  0
  -21.3657   -5.6787   24.9178 C   0  0  0  0  0  0
  -21.6043   -4.3052   24.7224 C   0  0  0  0  0  0
  -21.8819   -3.8146   23.4343 C   0  0  0  0  0  0
  -21.9192   -4.6963   22.3403 C   0  0  0  0  0  0
  -22.7863  -13.5230   21.1797 C   0  0  0  0  0  0
  -22.1660   -4.2147   21.0979 F   0  0  0  0  0  0
  -21.5630   -3.4535   25.7737 F   0  0  0  0  0  0
  -30.0555  -13.2164   20.4668 N   0  0  0  0  0  0
  -26.3068  -12.9292   20.3419 N   0  0  0  0  0  0
  -25.9336  -11.6458   20.5791 N   0  0  0  0  0  0
  -22.0505  -12.8254   22.0367 N   0  0  0  0  0  0
  -25.4259  -15.1828   20.3972 N   0  0  0  0  0  0
  -31.7721  -14.6687   20.0623 O   0  0  0  0  0  0
  -21.6635   -6.8882   21.4247 O   0  0  0  0  0  0
  -22.3564  -14.5551   20.6648 O   0  0  0  0  0  0
  -24.6144  -31.8682   23.2112 C   0  0  0  0  0  0
  -25.9038  -32.4825   23.8399 C   0  0  1  0  0  0
  -27.2482  -27.4516   20.0758 C   0  0  0  0  0  0
  -25.5907  -33.8621   24.2329 N   0  0  0  0  0  0
  -23.4007  -30.4924   21.5515 C   0  0  2  0  0  0
  -24.8446  -28.9559   20.1191 C   0  0  0  0  0  0
  -22.7403  -29.4666   22.5002 C   0  0  0  0  0  0
  -18.0274  -28.1385   22.8495 C   0  0  0  0  0  0
  -24.1482  -36.7312   23.2637 C   0  0  0  0  0  0
  -25.9283  -30.8360   21.3605 C   0  0  0  0  0  0
  -26.0031  -29.4701   20.7113 C   0  0  0  0  0  0
  -27.1999  -28.7222   20.6912 C   0  0  0  0  0  0
  -26.0555  -26.9359   19.5097 C   0  0  0  0  0  0
  -24.8632  -27.6838   19.5244 C   0  0  0  0  0  0
  -23.6079  -29.8225   20.1663 C   0  0  0  0  0  0
  -25.4101  -36.3110   24.0341 C   0  0  1  0  0  0
  -20.5868  -28.3665   23.1317 C   0  0  2  0  0  0
  -20.6763  -26.9401   22.5413 C   0  0  0  0  0  0
  -19.5747  -26.6392   21.5205 C   0  0  0  0  0  0
  -18.1927  -26.7934   22.1616 C   0  0  0  0  0  0
  -19.1529  -28.8840   23.2907 C   0  0  0  0  0  0
  -18.9454  -30.1447   23.8916 C   0  0  0  0  0  0
  -17.6462  -30.6593   24.0566 C   0  0  0  0  0  0
  -25.9026  -34.9476   23.5127 C   0  0  0  0  0  0
  -16.5349  -29.9098   23.6328 C   0  0  0  0  0  0
  -16.7264  -28.6515   23.0347 C   0  0  0  0  0  0
  -26.4474  -31.6612   25.0727 C   0  0  0  0  0  0
  -25.3747  -31.3701   26.1477 C   0  0  0  0  0  0
  -27.0313  -30.3070   24.6081 C   0  0  0  0  0  0
  -27.6068  -32.4314   25.7477 C   0  0  0  0  0  0
  -27.5580  -37.1805   24.8467 C   0  0  0  0  0  0
  -21.4135  -29.3038   22.3726 N   0  0  0  0  0  0
  -26.4286  -37.3801   23.9418 N   0  0  0  0  0  0
  -24.6663  -31.0800   22.0998 N   0  0  0  0  0  0
  -23.4173  -28.8210   23.3048 O   0  0  0  0  0  0
  -28.4680  -26.8003   20.0688 O   0  0  0  0  0  0
  -26.5585  -34.8938   22.4682 O   0  0  0  0  0  0
  -23.5339  -32.1406   23.7521 O   0  0  0  0  0  0
  -28.6152  -18.8657   21.0207 C   0  0  0  0  0  0
  -29.9965  -18.6192   20.7842 C   0  0  0  0  0  0
  -27.8827  -17.7752   21.5166 C   0  0  0  0  0  0
  -29.7008  -16.4267   21.4113 C   0  0  0  0  0  0
  -32.0658  -19.1591   19.3793 C   0  0  0  0  0  0
  -31.9322  -22.6516   20.1430 C   0  0  0  0  0  0
  -29.5131  -23.1770   19.5088 C   0  0  0  0  0  0
  -28.6668  -25.5818   19.3421 C   0  0  0  0  0  0
  -30.9955  -19.7022   20.3500 C   0  0  1  0  0  0
  -30.4628  -22.1867   20.2371 C   0  0  1  0  0  0
  -29.1541  -24.4664   20.2907 C   0  0  1  0  0  0
  -30.5191  -17.3948   21.0106 N   0  0  0  0  0  0
  -28.4145  -16.5693   21.7024 N   0  0  0  0  0  0
  -27.9438  -20.0829   20.8218 N   0  0  0  0  0  0
  -26.5444  -17.9254   21.8367 N   0  0  0  0  0  0
  -30.1788  -15.1673   21.6004 N   0  0  0  0  0  0
  -30.2693  -20.8132   19.7051 N   0  3  0  0  0  0
  -28.0968  -24.1605   21.1891 O   0  0  0  0  0  0
  -31.4708  -12.4029   19.0873 H   0  0  0  0  0  0
  -30.3437  -11.2574   19.7496 H   0  0  0  0  0  0
  -29.7191  -11.8195   17.3936 H   0  0  0  0  0  0
  -29.6632  -13.5187   17.7833 H   0  0  0  0  0  0
  -27.8077  -11.3294   18.7753 H   0  0  0  0  0  0
  -27.3622  -12.6943   17.7856 H   0  0  0  0  0  0
  -27.7356  -14.2549   19.6308 H   0  0  0  0  0  0
  -28.6716  -11.8517   21.2677 H   0  0  0  0  0  0
  -28.4498  -13.4405   21.9071 H   0  0  0  0  0  0
  -25.2759   -9.5670   22.4758 H   0  0  0  0  0  0
  -23.9990   -7.4626   22.7477 H   0  0  0  0  0  0
  -21.0830   -8.8772   19.8956 H   0  0  0  0  0  0
  -22.3699  -10.9665   19.6155 H   0  0  0  0  0  0
  -21.1999   -7.6143   23.9718 H   0  0  0  0  0  0
  -21.1479   -6.0518   25.9081 H   0  0  0  0  0  0
  -22.0602   -2.7607   23.2842 H   0  0  0  0  0  0
  -22.4099  -11.9912   22.4765 H   0  0  0  0  0  0
  -21.1134  -13.1301   22.2570 H   0  0  0  0  0  0
  -24.6414  -15.8243   20.4335 H   0  0  0  0  0  0
  -26.2994  -15.6237   20.1370 H   0  0  0  0  0  0
  -26.7111  -32.5544   23.1174 H   0  0  0  0  0  0
  -25.0107  -33.9773   25.0509 H   0  0  0  0  0  0
  -22.6912  -31.3099   21.4121 H   0  0  0  0  0  0
  -23.3746  -35.9645   23.3305 H   0  0  0  0  0  0
  -24.3585  -36.8907   22.2049 H   0  0  0  0  0  0
  -23.7227  -37.6520   23.6641 H   0  0  0  0  0  0
  -26.0363  -31.6015   20.5909 H   0  0  0  0  0  0
  -26.8168  -30.8928   21.9763 H   0  0  0  0  0  0
  -28.0976  -29.1251   21.1392 H   0  0  0  0  0  0
  -25.9969  -25.9582   19.0613 H   0  0  0  0  0  0
  -23.9668  -27.2698   19.0821 H   0  0  0  0  0  0
  -23.7180  -30.5944   19.4043 H   0  0  0  0  0  0
  -22.7322  -29.2415   19.8708 H   0  0  0  0  0  0
  -25.1277  -36.1977   25.0838 H   0  0  0  0  0  0
  -20.9959  -28.3220   24.1438 H   0  0  0  0  0  0
  -20.5661  -26.2271   23.3595 H   0  0  0  0  0  0
  -21.6635  -26.7451   22.1208 H   0  0  0  0  0  0
  -19.6905  -25.6305   21.1231 H   0  0  0  0  0  0
  -19.6694  -27.3198   20.6735 H   0  0  0  0  0  0
  -17.4195  -26.6683   21.4020 H   0  0  0  0  0  0
  -18.0333  -26.0076   22.9014 H   0  0  0  0  0  0
  -19.7930  -30.7260   24.2289 H   0  0  0  0  0  0
  -17.5018  -31.6274   24.5165 H   0  0  0  0  0  0
  -15.5351  -30.3007   23.7649 H   0  0  0  0  0  0
  -15.8661  -28.0842   22.7049 H   0  0  0  0  0  0
  -24.5935  -30.7039   25.7801 H   0  0  0  0  0  0
  -24.8932  -32.2855   26.4939 H   0  0  0  0  0  0
  -25.8111  -30.8861   27.0227 H   0  0  0  0  0  0
  -26.2843  -29.6828   24.1172 H   0  0  0  0  0  0
  -27.4143  -29.7323   25.4524 H   0  0  0  0  0  0
  -27.8655  -30.4418   23.9192 H   0  0  0  0  0  0
  -27.2720  -33.3626   26.2066 H   0  0  0  0  0  0
  -28.3876  -32.6843   25.0288 H   0  0  0  0  0  0
  -28.0743  -31.8422   26.5377 H   0  0  0  0  0  0
  -28.2595  -38.0107   24.7533 H   0  0  0  0  0  0
  -28.1080  -36.2645   24.6265 H   0  0  0  0  0  0
  -27.2313  -37.1412   25.8874 H   0  0  0  0  0  0
  -20.9288  -29.8757   21.6951 H   0  0  0  0  0  0
  -26.0180  -38.2879   24.1437 H   0  0  0  0  0  0
  -32.6806  -18.3967   19.8585 H   0  0  0  0  0  0
  -32.7407  -19.9457   19.0454 H   0  0  0  0  0  0
  -31.6135  -18.7040   18.4972 H   0  0  0  0  0  0
  -32.0490  -23.6606   20.5387 H   0  0  0  0  0  0
  -32.2854  -22.6638   19.1112 H   0  0  0  0  0  0
  -32.6046  -22.0150   20.7187 H   0  0  0  0  0  0
  -28.5815  -22.6774   19.2351 H   0  0  0  0  0  0
  -29.9712  -23.4450   18.5545 H   0  0  0  0  0  0
  -27.8423  -25.2375   18.7237 H   0  0  0  0  0  0
  -29.4669  -25.7942   18.6315 H   0  0  0  0  0  0
  -31.4742  -20.0566   21.2640 H   0  0  0  0  0  0
  -30.1782  -22.1509   21.2902 H   0  0  0  0  0  0
  -30.0203  -24.8300   20.8459 H   0  0  0  0  0  0
  -27.5337  -20.3903   21.7038 H   0  0  0  0  0  0
  -27.1068  -19.9336   20.2607 H   0  0  0  0  0  0
  -26.0723  -18.7620   21.5280 H   0  0  0  0  0  0
  -25.9687  -17.0971   21.9026 H   0  0  0  0  0  0
  -29.5405  -14.6308   22.1620 H   0  0  0  0  0  0
  -29.3042  -20.5617   19.9734 H   0  0  0  0  0  0
  -30.3431  -20.7503   18.7051 H   0  0  0  0  0  0
  -28.4640  -23.7296   21.9544 H   0  0  0  0  0  0
  1 25  1  0  0  0
  1 30  2  0  0  0
  1 86  1  0  0  0
  2  3  1  0  0  0
  2 25  1  0  0  0
  2 89  1  0  0  0
  2 90  1  0  0  0
  3  4  1  0  0  0
  3 91  1  0  0  0
  3 92  1  0  0  0
  4  5  1  0  0  0
  4 93  1  0  0  0
  4 94  1  0  0  0
  5  6  1  0  0  0
  5 26  1  0  0  0
  5 95  1  0  0  0
  6 25  1  0  0  0
  6 96  1  0  0  0
  6 97  1  0  0  0
  7  8  2  0  0  0
  7 26  1  0  0  0
  7 29  1  0  0  0
  8  9  1  0  0  0
  8 22  1  0  0  0
  9 10  1  0  0  0
  9 27  2  0  0  0
 10 11  2  0  0  0
 10 15  1  0  0  0
 11 12  1  0  0  0
 11 98  1  0  0  0
 12 13  2  0  0  0
 12 99  1  0  0  0
 13 14  1  0  0  0
 13 31  1  0  0  0
 14 15  2  0  0  0
 14100  1  0  0  0
 15101  1  0  0  0
 16 17  2  0  0  0
 16 21  1  0  0  0
 16 31  1  0  0  0
 17 18  1  0  0  0
 17102  1  0  0  0
 18 19  2  0  0  0
 18103  1  0  0  0
 19 20  1  0  0  0
 19 24  1  0  0  0
 20 21  2  0  0  0
 20104  1  0  0  0
 21 23  1  0  0  0
 22 28  1  0  0  0
 22 32  2  0  0  0
 26 27  1  0  0  0
 28105  1  0  0  0
 28106  1  0  0  0
 29107  1  0  0  0
 29108  1  0  0  0
 33 34  1  0  0  0
 33 66  1  0  0  0
 33 70  2  0  0  0
 34 36  1  0  0  0
 34 59  1  0  0  0
 34109  1  0  0  0
 35 44  2  0  0  0
 35 45  1  0  0  0
 35 68  1  0  0  0
 36 56  1  0  0  0
 36110  1  0  0  0
 37 39  1  0  0  0
 37 47  1  0  0  0
 37 66  1  0  0  0
 37111  1  0  0  0
 38 43  2  0  0  0
 38 46  1  0  0  0
 38 47  1  0  0  0
 39 64  1  0  0  0
 39 67  2  0  0  0
 40 52  1  0  0  0
 40 53  2  0  0  0
 40 58  1  0  0  0
 41112  1  0  0  0
 41113  1  0  0  0
 41114  1  0  0  0
 41 48  1  0  0  0
 42 43  1  0  0  0
 42 66  1  0  0  0
 42115  1  0  0  0
 42116  1  0  0  0
 43 44  1  0  0  0
 44117  1  0  0  0
 45 46  2  0  0  0
 45118  1  0  0  0
 46119  1  0  0  0
 47120  1  0  0  0
 47121  1  0  0  0
 48 56  1  0  0  0
 48 65  1  0  0  0
 48122  1  0  0  0
 49 50  1  0  0  0
 49 53  1  0  0  0
 49 64  1  0  0  0
 49123  1  0  0  0
 50 51  1  0  0  0
 50124  1  0  0  0
 50125  1  0  0  0
 51 52  1  0  0  0
 51126  1  0  0  0
 51127  1  0  0  0
 52128  1  0  0  0
 52129  1  0  0  0
 53 54  1  0  0  0
 54 55  2  0  0  0
 54130  1  0  0  0
 55 57  1  0  0  0
 55131  1  0  0  0
 56 69  2  0  0  0
 57 58  2  0  0  0
 57132  1  0  0  0
 58133  1  0  0  0
 59 60  1  0  0  0
 59 61  1  0  0  0
 59 62  1  0  0  0
 60134  1  0  0  0
 60135  1  0  0  0
 60136  1  0  0  0
 61137  1  0  0  0
 61138  1  0  0  0
 61139  1  0  0  0
 62140  1  0  0  0
 62141  1  0  0  0
 62142  1  0  0  0
 63 65  1  0  0  0
 63143  1  0  0  0
 63144  1  0  0  0
 63145  1  0  0  0
 64146  1  0  0  0
 65147  1  0  0  0
 68 78  1  0  0  0
 71 72  2  0  0  0
 71 73  1  0  0  0
 71 84  1  0  0  0
 72 79  1  0  0  0
 72 82  1  0  0  0
 73 83  2  0  0  0
 73 85  1  0  0  0
 74 82  2  0  0  0
 74 83  1  0  0  0
 74 86  1  0  0  0
 75148  1  0  0  0
 75149  1  0  0  0
 75150  1  0  0  0
 75 79  1  0  0  0
 76151  1  0  0  0
 76152  1  0  0  0
 76153  1  0  0  0
 76 80  1  0  0  0
 77 80  1  0  0  0
 77 81  1  0  0  0
 77154  1  0  0  0
 77155  1  0  0  0
 78 81  1  0  0  0
 78156  1  0  0  0
 78157  1  0  0  0
 79 87  1  0  0  0
 79158  1  0  0  0
 80 87  1  0  0  0
 80159  1  0  0  0
 81 88  1  0  0  0
 81160  1  0  0  0
 84161  1  0  0  0
 84162  1  0  0  0
 85163  1  0  0  0
 85164  1  0  0  0
 86165  1  0  0  0
 87166  1  0  0  0
 87167  1  0  0  0
 88168  1  0  0  0
M  CHG  1  87   1
M  ISO  4   1 100  68 101  78 101  86 100
M  END
> <chiral flag>
0

> <version>
0

> <s_m_source_file>
/data/baiqing/PycharmProjects/Reinvent-master-3.2/result/LINK_invent/BTK/process_docking_weight1_custom_product_contain_oxygen_bond_distance_aromatic_linkinvent_7_9_3/rearranged_h_0192.sdf

> <i_m_source_file_index>
18

> <r_mmod_Potential_Energy-OPLS-2005>
-799.828247070312

> <r_mmod_Stretch_Energy-OPLS-2005>
37.6806221008301

> <r_mmod_Bend_Energy-OPLS-2005>
135.732894897461

> <r_mmod_Torsional_Energy-OPLS-2005>
274.953918457031

> <r_mmod_Improper_Torsional_Energy-OPLS-2005>
16.0277137756348

> <r_mmod_Van_der_Waal_Energy-OPLS-2005>
186.687637329102

> <r_mmod_Electrostatic_Energy-OPLS-2005>
-975.091552734375

> <r_mmod_Solvation_Energy-OPLS-2005>
-484.359710693359

> <b_mmod_Minimization_Converged-OPLS-2005>
0

> <r_mmod_RMS_Derivative-OPLS-2005>
2.12929725646973

$$$$
18
                    3D
 Structure written by MMmdl.
174182  0  0  1  0            999 V2000
  -30.6513  -14.6066   20.5157 C   0  0  0  0  0  0
  -30.4281  -12.3772   19.4423 C   0  0  0  0  0  0
  -29.4990  -12.4945   18.2154 C   0  0  0  0  0  0
  -28.0232  -12.3353   18.6323 C   0  0  0  0  0  0
  -27.6474  -13.2133   19.8560 C   0  0  2  0  0  0
  -28.6930  -13.0796   20.9854 C   0  0  0  0  0  0
  -25.2540  -13.8169   20.5677 C   0  0  0  0  0  0
  -24.1816  -13.0436   20.9205 C   0  0  0  0  0  0
  -24.6381  -11.6905   20.8753 C   0  0  0  0  0  0
  -23.9057  -10.4290   21.0414 C   0  0  0  0  0  0
  -24.3612   -9.4206   21.9189 C   0  0  0  0  0  0
  -23.6288   -8.2240   22.0757 C   0  0  0  0  0  0
  -22.4273   -8.0278   21.3544 C   0  0  0  0  0  0
  -21.9906   -9.0252   20.4649 C   0  0  0  0  0  0
  -22.7232  -10.2132   20.3060 C   0  0  0  0  0  0
  -21.6851   -6.0733   22.5280 C   0  0  0  0  0  0
  -21.4011   -6.5638   23.8213 C   0  0  0  0  0  0
  -21.3659   -5.6791   24.9175 C   0  0  0  0  0  0
  -21.6046   -4.3054   24.7228 C   0  0  0  0  0  0
  -21.8819   -3.8146   23.4349 C   0  0  0  0  0  0
  -21.9191   -4.6960   22.3402 C   0  0  0  0  0  0
  -22.7841  -13.5230   21.1866 C   0  0  0  0  0  0
  -22.1661   -4.2144   21.0979 F   0  0  0  0  0  0
  -21.5629   -3.4539   25.7744 F   0  0  0  0  0  0
  -30.0045  -13.4058   20.4099 N   0  0  0  0  0  0
  -26.2953  -12.9339   20.3288 N   0  0  0  0  0  0
  -25.9303  -11.6501   20.5757 N   0  0  0  0  0  0
  -22.0480  -12.8220   22.0418 N   0  0  0  0  0  0
  -25.4242  -15.1892   20.4068 N   0  0  0  0  0  0
  -31.8352  -14.7189   20.1759 O   0  0  0  0  0  0
  -21.6637   -6.8875   21.4241 O   0  0  0  0  0  0
  -22.3534  -14.5541   20.6716 O   0  0  0  0  0  0
  -24.6219  -31.8614   23.2041 C   0  0  0  0  0  0
  -25.9081  -32.4788   23.8361 C   0  0  1  0  0  0
  -27.2274  -27.3563   20.1224 C   0  0  0  0  0  0
  -25.5915  -33.8589   24.2292 N   0  0  0  0  0  0
  -23.4146  -30.4825   21.5457 C   0  0  2  0  0  0
  -24.8615  -28.9323   20.1206 C   0  0  0  0  0  0
  -22.7446  -29.4628   22.4961 C   0  0  0  0  0  0
  -18.0276  -28.1379   22.8478 C   0  0  0  0  0  0
  -24.1490  -36.7303   23.2639 C   0  0  0  0  0  0
  -25.9496  -30.8042   21.3673 C   0  0  0  0  0  0
  -26.0268  -29.4295   20.7199 C   0  0  0  0  0  0
  -27.2169  -28.6519   20.7109 C   0  0  0  0  0  0
  -26.0451  -26.8882   19.5176 C   0  0  0  0  0  0
  -24.8686  -27.6638   19.5138 C   0  0  0  0  0  0
  -23.6290  -29.8116   20.1628 C   0  0  0  0  0  0
  -25.4111  -36.3094   24.0335 C   0  0  1  0  0  0
  -20.5872  -28.3678   23.1293 C   0  0  2  0  0  0
  -20.6771  -26.9405   22.5412 C   0  0  0  0  0  0
  -19.5750  -26.6379   21.5209 C   0  0  0  0  0  0
  -18.1924  -26.7920   22.1616 C   0  0  0  0  0  0
  -19.1529  -28.8842   23.2879 C   0  0  0  0  0  0
  -18.9457  -30.1443   23.8898 C   0  0  0  0  0  0
  -17.6461  -30.6585   24.0556 C   0  0  0  0  0  0
  -25.9046  -34.9461   23.5114 C   0  0  0  0  0  0
  -16.5350  -29.9087   23.6324 C   0  0  0  0  0  0
  -16.7265  -28.6503   23.0343 C   0  0  0  0  0  0
  -26.4486  -31.6583   25.0711 C   0  0  0  0  0  0
  -25.3737  -31.3708   26.1452 C   0  0  0  0  0  0
  -27.0319  -30.3018   24.6118 C   0  0  0  0  0  0
  -27.6052  -32.4309   25.7481 C   0  0  0  0  0  0
  -27.5580  -37.1804   24.8464 C   0  0  0  0  0  0
  -21.4168  -29.3042   22.3700 N   0  0  0  0  0  0
  -26.4293  -37.3783   23.9408 N   0  0  0  0  0  0
  -24.6806  -31.0657   22.0968 N   0  0  0  0  0  0
  -23.4181  -28.8172   23.3034 O   0  0  0  0  0  0
  -28.3666  -26.5630   20.0608 O   0  0  0  0  0  0
  -26.5610  -34.8926   22.4679 O   0  0  0  0  0  0
  -23.5391  -32.1395   23.7390 O   0  0  0  0  0  0
  -30.8140  -19.5548   21.8422 C   0  0  0  0  0  0
  -29.9625  -19.3320   20.7480 C   0  0  0  0  0  0
  -31.3008  -18.4219   22.5014 C   0  0  0  0  0  0
  -30.1921  -17.0147   21.0717 C   0  0  0  0  0  0
  -29.3664  -20.1701   18.4018 C   0  0  0  0  0  0
  -29.8579  -25.5681   21.5657 C   0  0  0  0  0  0
  -28.1285  -23.3522   23.6237 C   0  0  0  0  0  0
  -26.1342  -22.8784   22.1626 C   0  0  0  0  0  0
  -27.5989  -21.0407   23.0137 C   0  0  0  0  0  0
  -28.2886  -23.9551   20.2901 C   0  0  0  0  0  0
  -29.5294  -20.5597   19.8832 C   0  0  1  0  0  0
  -28.5072  -22.6177   21.1619 C   0  0  1  0  0  0
  -28.4635  -25.3992   20.9408 C   0  0  2  0  0  0
  -27.6007  -22.4902   22.4535 C   0  0  0  0  0  0
  -29.6103  -18.0439   20.4064 N   0  0  0  0  0  0
  -31.0048  -17.1725   22.1182 N   0  0  0  0  0  0
  -32.1367  -18.5512   23.5990 N   0  0  0  0  0  0
  -29.8598  -15.7003   20.7392 N   0  0  0  0  0  0
  -28.3386  -21.3427   20.3608 N   0  3  0  0  0  0
  -31.1751  -20.8039   22.2274 F   0  0  0  0  0  0
  -31.4705  -12.4922   19.1395 H   0  0  0  0  0  0
  -30.3542  -11.3848   19.8900 H   0  0  0  0  0  0
  -29.7600  -11.7399   17.4721 H   0  0  0  0  0  0
  -29.6423  -13.4623   17.7319 H   0  0  0  0  0  0
  -27.8612  -11.2833   18.8704 H   0  0  0  0  0  0
  -27.3662  -12.5588   17.7911 H   0  0  0  0  0  0
  -27.6613  -14.2448   19.5047 H   0  0  0  0  0  0
  -28.7016  -12.0643   21.3847 H   0  0  0  0  0  0
  -28.4475  -13.7304   21.8264 H   0  0  0  0  0  0
  -25.2757   -9.5680   22.4761 H   0  0  0  0  0  0
  -23.9999   -7.4630   22.7474 H   0  0  0  0  0  0
  -21.0838   -8.8770   19.8951 H   0  0  0  0  0  0
  -22.3694  -10.9671   19.6170 H   0  0  0  0  0  0
  -21.2004   -7.6147   23.9715 H   0  0  0  0  0  0
  -21.1481   -6.0523   25.9078 H   0  0  0  0  0  0
  -22.0598   -2.7607   23.2852 H   0  0  0  0  0  0
  -22.4091  -11.9871   22.4792 H   0  0  0  0  0  0
  -21.1100  -13.1248   22.2629 H   0  0  0  0  0  0
  -24.6485  -15.8350   20.5072 H   0  0  0  0  0  0
  -26.2530  -15.6285   20.0286 H   0  0  0  0  0  0
  -26.7146  -32.5481   23.1114 H   0  0  0  0  0  0
  -25.0077  -33.9739   25.0447 H   0  0  0  0  0  0
  -22.7079  -31.3019   21.4004 H   0  0  0  0  0  0
  -23.3752  -35.9636   23.3304 H   0  0  0  0  0  0
  -24.3584  -36.8918   22.2052 H   0  0  0  0  0  0
  -23.7249  -37.6510   23.6657 H   0  0  0  0  0  0
  -26.0687  -31.5641   20.5938 H   0  0  0  0  0  0
  -26.8350  -30.8610   21.9891 H   0  0  0  0  0  0
  -28.1201  -29.0341   21.1645 H   0  0  0  0  0  0
  -26.0372  -25.9182   19.0408 H   0  0  0  0  0  0
  -23.9752  -27.2761   19.0438 H   0  0  0  0  0  0
  -23.7497  -30.5857   19.4035 H   0  0  0  0  0  0
  -22.7500  -29.2389   19.8621 H   0  0  0  0  0  0
  -25.1288  -36.1951   25.0827 H   0  0  0  0  0  0
  -20.9951  -28.3254   24.1417 H   0  0  0  0  0  0
  -20.5677  -26.2290   23.3610 H   0  0  0  0  0  0
  -21.6644  -26.7446   22.1203 H   0  0  0  0  0  0
  -19.6924  -25.6291   21.1240 H   0  0  0  0  0  0
  -19.6699  -27.3191   20.6737 H   0  0  0  0  0  0
  -17.4199  -26.6659   21.4013 H   0  0  0  0  0  0
  -18.0320  -26.0065   22.9013 H   0  0  0  0  0  0
  -19.7941  -30.7240   24.2285 H   0  0  0  0  0  0
  -17.5027  -31.6271   24.5150 H   0  0  0  0  0  0
  -15.5355  -30.2991   23.7655 H   0  0  0  0  0  0
  -15.8659  -28.0828   22.7056 H   0  0  0  0  0  0
  -24.5912  -30.7052   25.7788 H   0  0  0  0  0  0
  -24.8928  -32.2867   26.4892 H   0  0  0  0  0  0
  -25.8076  -30.8881   27.0217 H   0  0  0  0  0  0
  -26.2869  -29.6777   24.1163 H   0  0  0  0  0  0
  -27.4066  -29.7259   25.4589 H   0  0  0  0  0  0
  -27.8717  -30.4324   23.9289 H   0  0  0  0  0  0
  -27.2668  -33.3608   26.2064 H   0  0  0  0  0  0
  -28.3861  -32.6866   25.0308 H   0  0  0  0  0  0
  -28.0720  -31.8429   26.5393 H   0  0  0  0  0  0
  -28.2591  -38.0104   24.7507 H   0  0  0  0  0  0
  -28.1079  -36.2636   24.6289 H   0  0  0  0  0  0
  -27.2297  -37.1451   25.8866 H   0  0  0  0  0  0
  -20.9341  -29.8781   21.6928 H   0  0  0  0  0  0
  -26.0179  -38.2860   24.1411 H   0  0  0  0  0  0
  -30.2745  -19.7000   18.0234 H   0  0  0  0  0  0
  -29.1680  -21.0411   17.7772 H   0  0  0  0  0  0
  -28.5496  -19.4612   18.2607 H   0  0  0  0  0  0
  -30.0797  -24.8089   22.3128 H   0  0  0  0  0  0
  -29.9487  -26.5374   22.0570 H   0  0  0  0  0  0
  -30.6360  -25.5119   20.8040 H   0  0  0  0  0  0
  -27.5709  -23.1554   24.5406 H   0  0  0  0  0  0
  -28.0401  -24.4207   23.4619 H   0  0  0  0  0  0
  -29.1748  -23.1343   23.8415 H   0  0  0  0  0  0
  -25.5022  -22.7136   23.0366 H   0  0  0  0  0  0
  -25.7096  -22.2915   21.3476 H   0  0  0  0  0  0
  -26.0258  -23.9306   21.8998 H   0  0  0  0  0  0
  -27.0446  -20.9833   23.9525 H   0  0  0  0  0  0
  -28.6084  -20.6910   23.2349 H   0  0  0  0  0  0
  -27.1185  -20.3161   22.3551 H   0  0  0  0  0  0
  -27.2964  -23.9188   19.8417 H   0  0  0  0  0  0
  -28.9747  -23.9057   19.4439 H   0  0  0  0  0  0
  -30.3760  -21.2474   19.8949 H   0  0  0  0  0  0
  -29.5416  -22.6272   21.5068 H   0  0  0  0  0  0
  -27.7086  -25.5298   21.7136 H   0  0  0  0  0  0
  -32.5569  -19.4639   23.7206 H   0  0  0  0  0  0
  -32.7474  -17.7765   23.8178 H   0  0  0  0  0  0
  -28.8730  -15.5158   20.7245 H   0  0  0  0  0  0
  -27.8317  -20.7078   20.9582 H   0  0  0  0  0  0
  -27.7453  -21.5273   19.5704 H   0  0  0  0  0  0
  1 25  1  0  0  0
  1 30  2  0  0  0
  1 88  1  0  0  0
  2  3  1  0  0  0
  2 25  1  0  0  0
  2 91  1  0  0  0
  2 92  1  0  0  0
  3  4  1  0  0  0
  3 93  1  0  0  0
  3 94  1  0  0  0
  4  5  1  0  0  0
  4 95  1  0  0  0
  4 96  1  0  0  0
  5  6  1  0  0  0
  5 26  1  0  0  0
  5 97  1  0  0  0
  6 25  1  0  0  0
  6 98  1  0  0  0
  6 99  1  0  0  0
  7  8  2  0  0  0
  7 26  1  0  0  0
  7 29  1  0  0  0
  8  9  1  0  0  0
  8 22  1  0  0  0
  9 10  1  0  0  0
  9 27  2  0  0  0
 10 11  2  0  0  0
 10 15  1  0  0  0
 11 12  1  0  0  0
 11100  1  0  0  0
 12 13  2  0  0  0
 12101  1  0  0  0
 13 14  1  0  0  0
 13 31  1  0  0  0
 14 15  2  0  0  0
 14102  1  0  0  0
 15103  1  0  0  0
 16 17  2  0  0  0
 16 21  1  0  0  0
 16 31  1  0  0  0
 17 18  1  0  0  0
 17104  1  0  0  0
 18 19  2  0  0  0
 18105  1  0  0  0
 19 20  1  0  0  0
 19 24  1  0  0  0
 20 21  2  0  0  0
 20106  1  0  0  0
 21 23  1  0  0  0
 22 28  1  0  0  0
 22 32  2  0  0  0
 26 27  1  0  0  0
 28107  1  0  0  0
 28108  1  0  0  0
 29109  1  0  0  0
 29110  1  0  0  0
 33 34  1  0  0  0
 33 66  1  0  0  0
 33 70  2  0  0  0
 34 36  1  0  0  0
 34 59  1  0  0  0
 34111  1  0  0  0
 35 44  2  0  0  0
 35 45  1  0  0  0
 35 68  1  0  0  0
 36 56  1  0  0  0
 36112  1  0  0  0
 37 39  1  0  0  0
 37 47  1  0  0  0
 37 66  1  0  0  0
 37113  1  0  0  0
 38 43  2  0  0  0
 38 46  1  0  0  0
 38 47  1  0  0  0
 39 64  1  0  0  0
 39 67  2  0  0  0
 40 52  1  0  0  0
 40 53  2  0  0  0
 40 58  1  0  0  0
 41114  1  0  0  0
 41115  1  0  0  0
 41116  1  0  0  0
 41 48  1  0  0  0
 42 43  1  0  0  0
 42 66  1  0  0  0
 42117  1  0  0  0
 42118  1  0  0  0
 43 44  1  0  0  0
 44119  1  0  0  0
 45 46  2  0  0  0
 45120  1  0  0  0
 46121  1  0  0  0
 47122  1  0  0  0
 47123  1  0  0  0
 48 56  1  0  0  0
 48 65  1  0  0  0
 48124  1  0  0  0
 49 50  1  0  0  0
 49 53  1  0  0  0
 49 64  1  0  0  0
 49125  1  0  0  0
 50 51  1  0  0  0
 50126  1  0  0  0
 50127  1  0  0  0
 51 52  1  0  0  0
 51128  1  0  0  0
 51129  1  0  0  0
 52130  1  0  0  0
 52131  1  0  0  0
 53 54  1  0  0  0
 54 55  2  0  0  0
 54132  1  0  0  0
 55 57  1  0  0  0
 55133  1  0  0  0
 56 69  2  0  0  0
 57 58  2  0  0  0
 57134  1  0  0  0
 58135  1  0  0  0
 59 60  1  0  0  0
 59 61  1  0  0  0
 59 62  1  0  0  0
 60136  1  0  0  0
 60137  1  0  0  0
 60138  1  0  0  0
 61139  1  0  0  0
 61140  1  0  0  0
 61141  1  0  0  0
 62142  1  0  0  0
 62143  1  0  0  0
 62144  1  0  0  0
 63 65  1  0  0  0
 63145  1  0  0  0
 63146  1  0  0  0
 63147  1  0  0  0
 64148  1  0  0  0
 65149  1  0  0  0
 68 83  1  0  0  0
 71 72  2  0  0  0
 71 73  1  0  0  0
 71 90  1  0  0  0
 72 81  1  0  0  0
 72 85  1  0  0  0
 73 86  2  0  0  0
 73 87  1  0  0  0
 74 85  2  0  0  0
 74 86  1  0  0  0
 74 88  1  0  0  0
 75150  1  0  0  0
 75151  1  0  0  0
 75152  1  0  0  0
 75 81  1  0  0  0
 76153  1  0  0  0
 76154  1  0  0  0
 76155  1  0  0  0
 76 83  1  0  0  0
 77156  1  0  0  0
 77157  1  0  0  0
 77158  1  0  0  0
 77 84  1  0  0  0
 78 84  1  0  0  0
 78159  1  0  0  0
 78160  1  0  0  0
 78161  1  0  0  0
 79 84  1  0  0  0
 79162  1  0  0  0
 79163  1  0  0  0
 79164  1  0  0  0
 80 83  1  0  0  0
 80165  1  0  0  0
 80166  1  0  0  0
 80 82  1  0  0  0
 81 89  1  0  0  0
 81167  1  0  0  0
 82 84  1  0  0  0
 82 89  1  0  0  0
 82168  1  0  0  0
 83169  1  0  0  0
 87170  1  0  0  0
 87171  1  0  0  0
 88172  1  0  0  0
 89173  1  0  0  0
 89174  1  0  0  0
M  CHG  1  89   1
M  ISO  4   1 100  68 101  83 101  88 100
M  END
> <chiral flag>
0

> <version>
0

> <s_m_source_file>
/data/baiqing/PycharmProjects/Reinvent-master-3.2/result/LINK_invent/BTK/process_docking_weight1_custom_product_contain_oxygen_bond_distance_aromatic_linkinvent_7_9_3/rearranged_h_0192.sdf

> <i_m_source_file_index>
19

> <r_mmod_Potential_Energy-OPLS-2005>
-621.294372558594

> <r_mmod_Stretch_Energy-OPLS-2005>
72.3800506591797

> <r_mmod_Bend_Energy-OPLS-2005>
149.852020263672

> <r_mmod_Torsional_Energy-OPLS-2005>
301.882629394531

> <r_mmod_Improper_Torsional_Energy-OPLS-2005>
10.7014875411987

> <r_mmod_Van_der_Waal_Energy-OPLS-2005>
145.592010498047

> <r_mmod_Electrostatic_Energy-OPLS-2005>
-868.201721191406

> <r_mmod_Solvation_Energy-OPLS-2005>
-468.918182373047

> <b_mmod_Minimization_Converged-OPLS-2005>
0

> <r_mmod_RMS_Derivative-OPLS-2005>
0.831741154193878

$$$$
19
                    3D
 Structure written by MMmdl.
158166  0  0  1  0            999 V2000
  -30.7444  -14.4074   20.5651 C   0  0  0  0  0  0
  -30.4129  -12.2546   19.4233 C   0  0  0  0  0  0
  -29.4957  -12.4775   18.2040 C   0  0  0  0  0  0
  -28.0089  -12.3810   18.6040 C   0  0  0  0  0  0
  -27.6645  -13.2100   19.8738 C   0  0  2  0  0  0
  -28.7077  -12.9745   20.9914 C   0  0  0  0  0  0
  -25.2583  -13.8173   20.5670 C   0  0  0  0  0  0
  -24.1841  -13.0439   20.9201 C   0  0  0  0  0  0
  -24.6395  -11.6905   20.8738 C   0  0  0  0  0  0
  -23.9051  -10.4281   21.0390 C   0  0  0  0  0  0
  -24.3598   -9.4203   21.9168 C   0  0  0  0  0  0
  -23.6296   -8.2226   22.0726 C   0  0  0  0  0  0
  -22.4266   -8.0261   21.3533 C   0  0  0  0  0  0
  -21.9908   -9.0226   20.4621 C   0  0  0  0  0  0
  -22.7227  -10.2111   20.3030 C   0  0  0  0  0  0
  -21.6846   -6.0723   22.5282 C   0  0  0  0  0  0
  -21.4012   -6.5627   23.8223 C   0  0  0  0  0  0
  -21.3666   -5.6771   24.9183 C   0  0  0  0  0  0
  -21.6049   -4.3036   24.7219 C   0  0  0  0  0  0
  -21.8820   -3.8132   23.4343 C   0  0  0  0  0  0
  -21.9195   -4.6953   22.3410 C   0  0  0  0  0  0
  -22.7859  -13.5222   21.1882 C   0  0  0  0  0  0
  -22.1661   -4.2148   21.0987 F   0  0  0  0  0  0
  -21.5640   -3.4519   25.7731 F   0  0  0  0  0  0
  -30.0428  -13.2510   20.4378 N   0  0  0  0  0  0
  -26.3047  -12.9353   20.3351 N   0  0  0  0  0  0
  -25.9329  -11.6506   20.5731 N   0  0  0  0  0  0
  -22.0469  -12.8216   22.0427 N   0  0  0  0  0  0
  -25.4288  -15.1885   20.4053 N   0  0  0  0  0  0
  -31.8632  -14.5788   20.0754 O   0  0  0  0  0  0
  -21.6631   -6.8851   21.4234 O   0  0  0  0  0  0
  -22.3555  -14.5528   20.6708 O   0  0  0  0  0  0
  -24.6118  -31.8732   23.2121 C   0  0  0  0  0  0
  -25.9041  -32.4810   23.8416 C   0  0  1  0  0  0
  -27.2270  -27.4631   20.0704 C   0  0  0  0  0  0
  -25.5923  -33.8614   24.2358 N   0  0  0  0  0  0
  -23.3940  -30.4987   21.5547 C   0  0  2  0  0  0
  -24.8376  -28.9822   20.1076 C   0  0  0  0  0  0
  -22.7397  -29.4660   22.5022 C   0  0  0  0  0  0
  -18.0259  -28.1317   22.8499 C   0  0  0  0  0  0
  -24.1485  -36.7307   23.2633 C   0  0  0  0  0  0
  -25.9240  -30.8515   21.3564 C   0  0  0  0  0  0
  -26.0022  -29.4930   20.6954 C   0  0  0  0  0  0
  -27.1990  -28.7430   20.6695 C   0  0  0  0  0  0
  -26.0382  -26.9689   19.4770 C   0  0  0  0  0  0
  -24.8518  -27.7180   19.4981 C   0  0  0  0  0  0
  -23.5923  -29.8363   20.1693 C   0  0  0  0  0  0
  -25.4105  -36.3095   24.0341 C   0  0  1  0  0  0
  -20.5858  -28.3624   23.1316 C   0  0  2  0  0  0
  -20.6784  -26.9330   22.5469 C   0  0  0  0  0  0
  -19.5745  -26.6356   21.5257 C   0  0  0  0  0  0
  -18.1926  -26.7858   22.1642 C   0  0  0  0  0  0
  -19.1523  -28.8784   23.2889 C   0  0  0  0  0  0
  -18.9461  -30.1402   23.8893 C   0  0  0  0  0  0
  -17.6481  -30.6536   24.0586 C   0  0  0  0  0  0
  -25.9043  -34.9463   23.5138 C   0  0  0  0  0  0
  -16.5368  -29.9057   23.6347 C   0  0  0  0  0  0
  -16.7268  -28.6459   23.0360 C   0  0  0  0  0  0
  -26.4516  -31.6545   25.0708 C   0  0  0  0  0  0
  -25.3846  -31.3639   26.1496 C   0  0  0  0  0  0
  -27.0352  -30.2981   24.6049 C   0  0  0  0  0  0
  -27.6083  -32.4296   25.7474 C   0  0  0  0  0  0
  -27.5567  -37.1794   24.8447 C   0  0  0  0  0  0
  -21.4119  -29.3021   22.3754 N   0  0  0  0  0  0
  -26.4272  -37.3802   23.9414 N   0  0  0  0  0  0
  -24.6624  -31.0865   22.0994 N   0  0  0  0  0  0
  -23.4194  -28.8218   23.3038 O   0  0  0  0  0  0
  -28.4031  -26.7382   20.1259 O   0  0  0  0  0  0
  -26.5585  -34.8943   22.4676 O   0  0  0  0  0  0
  -23.5341  -32.1490   23.7550 O   0  0  0  0  0  0
  -29.3080  -17.6026   23.1384 C   0  0  0  0  0  0
  -29.7780  -17.7687   21.8592 C   0  0  0  0  0  0
  -28.7344  -19.7693   22.1505 C   0  0  0  0  0  0
  -27.9418  -21.3252   19.4237 C   0  0  0  0  0  0
  -30.5879  -16.8004   21.0534 C   0  0  0  0  0  0
  -27.3382  -23.1813   21.0903 C   0  0  0  0  0  0
  -28.3457  -25.3050   20.0088 C   0  0  0  0  0  0
  -28.2958  -21.9940   20.7756 C   0  0  1  0  0  0
  -27.9580  -24.5854   21.3276 C   0  0  1  0  0  0
  -29.4325  -19.0102   21.3069 N   0  0  0  0  0  0
  -28.2419  -21.0349   21.8764 N   0  0  0  0  0  0
  -30.0871  -15.4280   21.1267 N   0  0  0  0  0  0
  -26.9492  -25.3211   22.0027 O   0  0  0  0  0  0
  -28.4617  -19.0141   23.7125 S   0  0  0  0  0  0
  -31.4611  -12.3175   19.1291 H   0  0  0  0  0  0
  -30.2802  -11.2496   19.8276 H   0  0  0  0  0  0
  -29.7202  -11.7452   17.4262 H   0  0  0  0  0  0
  -29.6915  -13.4562   17.7680 H   0  0  0  0  0  0
  -27.7746  -11.3275   18.7705 H   0  0  0  0  0  0
  -27.3792  -12.6974   17.7707 H   0  0  0  0  0  0
  -27.7115  -14.2618   19.5884 H   0  0  0  0  0  0
  -28.6661  -11.9337   21.3144 H   0  0  0  0  0  0
  -28.4862  -13.5675   21.8815 H   0  0  0  0  0  0
  -25.2727   -9.5711   22.4754 H   0  0  0  0  0  0
  -24.0030   -7.4608   22.7432 H   0  0  0  0  0  0
  -21.0844   -8.8696   19.8931 H   0  0  0  0  0  0
  -22.3640  -10.9629   19.6142 H   0  0  0  0  0  0
  -21.1979   -7.6117   23.9739 H   0  0  0  0  0  0
  -21.1515   -6.0484   25.9092 H   0  0  0  0  0  0
  -22.0606   -2.7595   23.2830 H   0  0  0  0  0  0
  -22.4061  -11.9907   22.4892 H   0  0  0  0  0  0
  -21.1062  -13.1214   22.2523 H   0  0  0  0  0  0
  -24.6593  -15.8372   20.5164 H   0  0  0  0  0  0
  -26.2704  -15.6345   20.0684 H   0  0  0  0  0  0
  -26.7107  -32.5526   23.1178 H   0  0  0  0  0  0
  -25.0093  -33.9810   25.0510 H   0  0  0  0  0  0
  -22.6798  -31.3147   21.4228 H   0  0  0  0  0  0
  -23.3752  -35.9624   23.3273 H   0  0  0  0  0  0
  -24.3575  -36.8968   22.2051 H   0  0  0  0  0  0
  -23.7260  -37.6523   23.6668 H   0  0  0  0  0  0
  -26.0435  -31.6286   20.6018 H   0  0  0  0  0  0
  -26.8095  -30.8946   21.9768 H   0  0  0  0  0  0
  -28.1018  -29.1367   21.1206 H   0  0  0  0  0  0
  -25.9818  -26.0055   18.9997 H   0  0  0  0  0  0
  -23.9513  -27.3208   19.0478 H   0  0  0  0  0  0
  -23.6791  -30.6159   19.4102 H   0  0  0  0  0  0
  -22.7221  -29.2425   19.8815 H   0  0  0  0  0  0
  -25.1278  -36.1955   25.0842 H   0  0  0  0  0  0
  -20.9956  -28.3193   24.1425 H   0  0  0  0  0  0
  -20.5703  -26.2205   23.3658 H   0  0  0  0  0  0
  -21.6635  -26.7363   22.1262 H   0  0  0  0  0  0
  -19.6900  -25.6289   21.1176 H   0  0  0  0  0  0
  -19.6644  -27.3260   20.6866 H   0  0  0  0  0  0
  -17.4218  -26.6605   21.4039 H   0  0  0  0  0  0
  -18.0311  -25.9995   22.9009 H   0  0  0  0  0  0
  -19.7975  -30.7206   24.2203 H   0  0  0  0  0  0
  -17.5066  -31.6212   24.5182 H   0  0  0  0  0  0
  -15.5384  -30.3002   23.7637 H   0  0  0  0  0  0
  -15.8639  -28.0815   22.7076 H   0  0  0  0  0  0
  -24.5984  -30.7000   25.7856 H   0  0  0  0  0  0
  -24.9069  -32.2799   26.4981 H   0  0  0  0  0  0
  -25.8265  -30.8793   27.0208 H   0  0  0  0  0  0
  -26.2861  -29.6690   24.1218 H   0  0  0  0  0  0
  -27.4267  -29.7248   25.4460 H   0  0  0  0  0  0
  -27.8628  -30.4255   23.9075 H   0  0  0  0  0  0
  -27.2649  -33.3580   26.2040 H   0  0  0  0  0  0
  -28.3888  -32.6902   25.0308 H   0  0  0  0  0  0
  -28.0749  -31.8448   26.5410 H   0  0  0  0  0  0
  -28.2576  -38.0109   24.7540 H   0  0  0  0  0  0
  -28.1105  -36.2651   24.6208 H   0  0  0  0  0  0
  -27.2292  -37.1351   25.8859 H   0  0  0  0  0  0
  -20.9206  -29.8855   21.7137 H   0  0  0  0  0  0
  -26.0156  -38.2869   24.1478 H   0  0  0  0  0  0
  -29.4310  -16.7489   23.7918 H   0  0  0  0  0  0
  -28.1167  -22.0026   18.5858 H   0  0  0  0  0  0
  -26.8899  -21.0292   19.3794 H   0  0  0  0  0  0
  -28.5334  -20.4325   19.2179 H   0  0  0  0  0  0
  -31.6287  -16.8258   21.3860 H   0  0  0  0  0  0
  -30.6043  -17.1001   20.0044 H   0  0  0  0  0  0
  -26.7339  -22.9178   21.9624 H   0  0  0  0  0  0
  -26.5969  -23.2759   20.2970 H   0  0  0  0  0  0
  -27.7434  -24.9728   19.1695 H   0  0  0  0  0  0
  -29.3490  -24.9754   19.7387 H   0  0  0  0  0  0
  -29.3246  -22.3542   20.7076 H   0  0  0  0  0  0
  -28.8249  -24.5334   21.9893 H   0  0  0  0  0  0
  -27.7548  -21.4097   22.6839 H   0  0  0  0  0  0
  -29.1479  -15.2786   21.4600 H   0  0  0  0  0  0
  -27.1373  -26.2466   21.8600 H   0  0  0  0  0  0
  1 25  1  0  0  0
  1 30  2  0  0  0
  1 82  1  0  0  0
  2  3  1  0  0  0
  2 25  1  0  0  0
  2 85  1  0  0  0
  2 86  1  0  0  0
  3  4  1  0  0  0
  3 87  1  0  0  0
  3 88  1  0  0  0
  4  5  1  0  0  0
  4 89  1  0  0  0
  4 90  1  0  0  0
  5  6  1  0  0  0
  5 26  1  0  0  0
  5 91  1  0  0  0
  6 25  1  0  0  0
  6 92  1  0  0  0
  6 93  1  0  0  0
  7  8  2  0  0  0
  7 26  1  0  0  0
  7 29  1  0  0  0
  8  9  1  0  0  0
  8 22  1  0  0  0
  9 10  1  0  0  0
  9 27  2  0  0  0
 10 11  2  0  0  0
 10 15  1  0  0  0
 11 12  1  0  0  0
 11 94  1  0  0  0
 12 13  2  0  0  0
 12 95  1  0  0  0
 13 14  1  0  0  0
 13 31  1  0  0  0
 14 15  2  0  0  0
 14 96  1  0  0  0
 15 97  1  0  0  0
 16 17  2  0  0  0
 16 21  1  0  0  0
 16 31  1  0  0  0
 17 18  1  0  0  0
 17 98  1  0  0  0
 18 19  2  0  0  0
 18 99  1  0  0  0
 19 20  1  0  0  0
 19 24  1  0  0  0
 20 21  2  0  0  0
 20100  1  0  0  0
 21 23  1  0  0  0
 22 28  1  0  0  0
 22 32  2  0  0  0
 26 27  1  0  0  0
 28101  1  0  0  0
 28102  1  0  0  0
 29103  1  0  0  0
 29104  1  0  0  0
 33 34  1  0  0  0
 33 66  1  0  0  0
 33 70  2  0  0  0
 34 36  1  0  0  0
 34 59  1  0  0  0
 34105  1  0  0  0
 35 44  2  0  0  0
 35 45  1  0  0  0
 35 68  1  0  0  0
 36 56  1  0  0  0
 36106  1  0  0  0
 37 39  1  0  0  0
 37 47  1  0  0  0
 37 66  1  0  0  0
 37107  1  0  0  0
 38 43  2  0  0  0
 38 46  1  0  0  0
 38 47  1  0  0  0
 39 64  1  0  0  0
 39 67  2  0  0  0
 40 52  1  0  0  0
 40 53  2  0  0  0
 40 58  1  0  0  0
 41108  1  0  0  0
 41109  1  0  0  0
 41110  1  0  0  0
 41 48  1  0  0  0
 42 43  1  0  0  0
 42 66  1  0  0  0
 42111  1  0  0  0
 42112  1  0  0  0
 43 44  1  0  0  0
 44113  1  0  0  0
 45 46  2  0  0  0
 45114  1  0  0  0
 46115  1  0  0  0
 47116  1  0  0  0
 47117  1  0  0  0
 48 56  1  0  0  0
 48 65  1  0  0  0
 48118  1  0  0  0
 49 50  1  0  0  0
 49 53  1  0  0  0
 49 64  1  0  0  0
 49119  1  0  0  0
 50 51  1  0  0  0
 50120  1  0  0  0
 50121  1  0  0  0
 51 52  1  0  0  0
 51122  1  0  0  0
 51123  1  0  0  0
 52124  1  0  0  0
 52125  1  0  0  0
 53 54  1  0  0  0
 54 55  2  0  0  0
 54126  1  0  0  0
 55 57  1  0  0  0
 55127  1  0  0  0
 56 69  2  0  0  0
 57 58  2  0  0  0
 57128  1  0  0  0
 58129  1  0  0  0
 59 60  1  0  0  0
 59 61  1  0  0  0
 59 62  1  0  0  0
 60130  1  0  0  0
 60131  1  0  0  0
 60132  1  0  0  0
 61133  1  0  0  0
 61134  1  0  0  0
 61135  1  0  0  0
 62136  1  0  0  0
 62137  1  0  0  0
 62138  1  0  0  0
 63 65  1  0  0  0
 63139  1  0  0  0
 63140  1  0  0  0
 63141  1  0  0  0
 64142  1  0  0  0
 65143  1  0  0  0
 68 77  1  0  0  0
 71 72  2  0  0  0
 71 84  1  0  0  0
 71144  1  0  0  0
 72 75  1  0  0  0
 72 80  1  0  0  0
 73 80  2  0  0  0
 73 81  1  0  0  0
 73 84  1  0  0  0
 74145  1  0  0  0
 74146  1  0  0  0
 74147  1  0  0  0
 74 78  1  0  0  0
 75 82  1  0  0  0
 75148  1  0  0  0
 75149  1  0  0  0
 76 78  1  0  0  0
 76 79  1  0  0  0
 76150  1  0  0  0
 76151  1  0  0  0
 77 79  1  0  0  0
 77152  1  0  0  0
 77153  1  0  0  0
 78 81  1  0  0  0
 78154  1  0  0  0
 79 83  1  0  0  0
 79155  1  0  0  0
 81156  1  0  0  0
 82157  1  0  0  0
 83158  1  0  0  0
M  ISO  4   1 100  68 101  77 101  82 100
M  END
> <chiral flag>
0

> <version>
0

> <s_m_source_file>
/data/baiqing/PycharmProjects/Reinvent-master-3.2/result/LINK_invent/BTK/process_docking_weight1_custom_product_contain_oxygen_bond_distance_aromatic_linkinvent_7_9_3/rearranged_h_0192.sdf

> <i_m_source_file_index>
20

> <r_mmod_Potential_Energy-OPLS-2005>
-227.035400390625

> <r_mmod_Stretch_Energy-OPLS-2005>
35.2092247009277

> <r_mmod_Bend_Energy-OPLS-2005>
103.904968261719

> <r_mmod_Torsional_Energy-OPLS-2005>
226.973205566406

> <r_mmod_Improper_Torsional_Energy-OPLS-2005>
3.73441648483276

> <r_mmod_Van_der_Waal_Energy-OPLS-2005>
139.085571289062

> <r_mmod_Electrostatic_Energy-OPLS-2005>
-517.026062011719

> <r_mmod_Solvation_Energy-OPLS-2005>
-230.942749023438

> <b_mmod_Minimization_Converged-OPLS-2005>
0

> <r_mmod_RMS_Derivative-OPLS-2005>
5.28957748413086

$$$$
20
                    3D
 Structure written by MMmdl.
157165  0  0  1  0            999 V2000
  -30.6575  -14.5344   20.5668 C   0  0  0  0  0  0
  -30.4285  -12.3491   19.4288 C   0  0  0  0  0  0
  -29.5019  -12.5160   18.2054 C   0  0  0  0  0  0
  -28.0232  -12.3574   18.6153 C   0  0  0  0  0  0
  -27.6502  -13.2076   19.8605 C   0  0  2  0  0  0
  -28.6917  -13.0181   20.9869 C   0  0  0  0  0  0
  -25.2546  -13.8136   20.5648 C   0  0  0  0  0  0
  -24.1812  -13.0427   20.9185 C   0  0  0  0  0  0
  -24.6371  -11.6899   20.8736 C   0  0  0  0  0  0
  -23.9041  -10.4293   21.0406 C   0  0  0  0  0  0
  -24.3607   -9.4213   21.9167 C   0  0  0  0  0  0
  -23.6290   -8.2256   22.0746 C   0  0  0  0  0  0
  -22.4255   -8.0300   21.3576 C   0  0  0  0  0  0
  -21.9915   -9.0242   20.4634 C   0  0  0  0  0  0
  -22.7242  -10.2121   20.3030 C   0  0  0  0  0  0
  -21.6845   -6.0732   22.5286 C   0  0  0  0  0  0
  -21.4016   -6.5630   23.8219 C   0  0  0  0  0  0
  -21.3671   -5.6781   24.9173 C   0  0  0  0  0  0
  -21.6043   -4.3048   24.7232 C   0  0  0  0  0  0
  -21.8825   -3.8151   23.4355 C   0  0  0  0  0  0
  -21.9190   -4.6964   22.3405 C   0  0  0  0  0  0
  -22.7836  -13.5235   21.1847 C   0  0  0  0  0  0
  -22.1648   -4.2155   21.0982 F   0  0  0  0  0  0
  -21.5639   -3.4537   25.7746 F   0  0  0  0  0  0
  -30.0165  -13.3370   20.4369 N   0  0  0  0  0  0
  -26.2948  -12.9300   20.3282 N   0  0  0  0  0  0
  -25.9286  -11.6464   20.5725 N   0  0  0  0  0  0
  -22.0458  -12.8242   22.0404 N   0  0  0  0  0  0
  -25.4246  -15.1861   20.4027 N   0  0  0  0  0  0
  -31.8169  -14.7034   20.1755 O   0  0  0  0  0  0
  -21.6660   -6.8873   21.4248 O   0  0  0  0  0  0
  -22.3533  -14.5539   20.6677 O   0  0  0  0  0  0
  -24.6187  -31.8666   23.2057 C   0  0  0  0  0  0
  -25.9072  -32.4801   23.8377 C   0  0  1  0  0  0
  -27.2299  -27.4016   20.0929 C   0  0  0  0  0  0
  -25.5925  -33.8597   24.2315 N   0  0  0  0  0  0
  -23.4068  -30.4890   21.5496 C   0  0  2  0  0  0
  -24.8464  -28.9484   20.1199 C   0  0  0  0  0  0
  -22.7430  -29.4654   22.5004 C   0  0  0  0  0  0
  -18.0274  -28.1375   22.8486 C   0  0  0  0  0  0
  -24.1488  -36.7317   23.2636 C   0  0  0  0  0  0
  -25.9385  -30.8215   21.3621 C   0  0  0  0  0  0
  -26.0110  -29.4544   20.7077 C   0  0  0  0  0  0
  -27.2048  -28.6915   20.6849 C   0  0  0  0  0  0
  -26.0289  -26.9068   19.5275 C   0  0  0  0  0  0
  -24.8513  -27.6746   19.5305 C   0  0  0  0  0  0
  -23.6101  -29.8153   20.1674 C   0  0  0  0  0  0
  -25.4112  -36.3107   24.0330 C   0  0  1  0  0  0
  -20.5867  -28.3670   23.1308 C   0  0  2  0  0  0
  -20.6769  -26.9407   22.5407 C   0  0  0  0  0  0
  -19.5749  -26.6365   21.5209 C   0  0  0  0  0  0
  -18.1925  -26.7916   22.1615 C   0  0  0  0  0  0
  -19.1527  -28.8839   23.2886 C   0  0  0  0  0  0
  -18.9463  -30.1441   23.8899 C   0  0  0  0  0  0
  -17.6461  -30.6569   24.0550 C   0  0  0  0  0  0
  -25.9051  -34.9465   23.5116 C   0  0  0  0  0  0
  -16.5344  -29.9070   23.6323 C   0  0  0  0  0  0
  -16.7255  -28.6486   23.0340 C   0  0  0  0  0  0
  -26.4474  -31.6612   25.0731 C   0  0  0  0  0  0
  -25.3718  -31.3742   26.1466 C   0  0  0  0  0  0
  -27.0317  -30.3044   24.6152 C   0  0  0  0  0  0
  -27.6045  -32.4337   25.7502 C   0  0  0  0  0  0
  -27.5589  -37.1812   24.8465 C   0  0  0  0  0  0
  -21.4160  -29.3034   22.3733 N   0  0  0  0  0  0
  -26.4307  -37.3787   23.9399 N   0  0  0  0  0  0
  -24.6740  -31.0734   22.0973 N   0  0  0  0  0  0
  -23.4191  -28.8206   23.3062 O   0  0  0  0  0  0
  -28.4209  -26.6850   20.1007 O   0  0  0  0  0  0
  -26.5599  -34.8924   22.4671 O   0  0  0  0  0  0
  -23.5370  -32.1442   23.7441 O   0  0  0  0  0  0
  -31.4247  -18.3698   22.7859 C   0  0  0  0  0  0
  -31.1092  -17.0698   22.3541 C   0  0  0  0  0  0
  -30.8371  -19.4802   22.1546 C   0  0  0  0  0  0
  -30.2153  -16.9018   21.2730 C   0  0  0  0  0  0
  -29.9240  -19.2528   21.0932 C   0  0  0  0  0  0
  -28.6522  -24.2035   20.5306 C   0  0  0  0  0  0
  -29.3129  -21.7009   20.8597 C   0  0  0  0  0  0
  -28.5214  -25.3719   19.5024 C   0  0  0  0  0  0
  -28.5090  -22.7259   19.9984 C   0  0  2  0  0  0
  -29.6223  -17.9913   20.6815 N   0  0  0  0  0  0
  -29.8528  -15.5682   20.9123 N   0  0  0  0  0  0
  -29.2740  -20.2985   20.3911 N   0  0  0  0  0  0
  -28.8795  -22.5720   18.5762 N   0  3  0  0  0  0
  -31.6257  -15.9995   23.0076 F   0  0  0  0  0  0
  -31.1727  -20.7210   22.5818 F   0  0  0  0  0  0
  -31.4714  -12.4720   19.1288 H   0  0  0  0  0  0
  -30.3524  -11.3384   19.8395 H   0  0  0  0  0  0
  -29.7600  -11.7862   17.4355 H   0  0  0  0  0  0
  -29.6575  -13.4988   17.7666 H   0  0  0  0  0  0
  -27.8399  -11.3013   18.8196 H   0  0  0  0  0  0
  -27.3745  -12.6218   17.7817 H   0  0  0  0  0  0
  -27.6834  -14.2514   19.5475 H   0  0  0  0  0  0
  -28.6808  -11.9873   21.3519 H   0  0  0  0  0  0
  -28.4446  -13.6318   21.8537 H   0  0  0  0  0  0
  -25.2728   -9.5706   22.4759 H   0  0  0  0  0  0
  -24.0006   -7.4647   22.7461 H   0  0  0  0  0  0
  -21.0839   -8.8752   19.8950 H   0  0  0  0  0  0
  -22.3658  -10.9668   19.6176 H   0  0  0  0  0  0
  -21.1993   -7.6136   23.9726 H   0  0  0  0  0  0
  -21.1488   -6.0509   25.9080 H   0  0  0  0  0  0
  -22.0588   -2.7624   23.2854 H   0  0  0  0  0  0
  -22.4011  -11.9917   22.4868 H   0  0  0  0  0  0
  -21.1079  -13.1318   22.2516 H   0  0  0  0  0  0
  -24.6558  -15.8397   20.5055 H   0  0  0  0  0  0
  -26.2602  -15.6342   20.0524 H   0  0  0  0  0  0
  -26.7151  -32.5485   23.1148 H   0  0  0  0  0  0
  -25.0091  -33.9772   25.0468 H   0  0  0  0  0  0
  -22.6950  -31.3047   21.4080 H   0  0  0  0  0  0
  -23.3742  -35.9671   23.3326 H   0  0  0  0  0  0
  -24.3577  -36.8897   22.2053 H   0  0  0  0  0  0
  -23.7274  -37.6535   23.6631 H   0  0  0  0  0  0
  -26.0600  -31.5852   20.5953 H   0  0  0  0  0  0
  -26.8233  -30.8678   21.9830 H   0  0  0  0  0  0
  -28.1099  -29.0842   21.1294 H   0  0  0  0  0  0
  -25.9431  -25.9235   19.0928 H   0  0  0  0  0  0
  -23.9474  -27.2664   19.0963 H   0  0  0  0  0  0
  -23.7132  -30.5822   19.3998 H   0  0  0  0  0  0
  -22.7348  -29.2299   19.8818 H   0  0  0  0  0  0
  -25.1297  -36.1969   25.0825 H   0  0  0  0  0  0
  -20.9949  -28.3225   24.1429 H   0  0  0  0  0  0
  -20.5664  -26.2289   23.3603 H   0  0  0  0  0  0
  -21.6640  -26.7438   22.1198 H   0  0  0  0  0  0
  -19.6904  -25.6273   21.1238 H   0  0  0  0  0  0
  -19.6669  -27.3168   20.6738 H   0  0  0  0  0  0
  -17.4199  -26.6668   21.4004 H   0  0  0  0  0  0
  -18.0305  -26.0043   22.8996 H   0  0  0  0  0  0
  -19.7942  -30.7250   24.2273 H   0  0  0  0  0  0
  -17.5012  -31.6250   24.5149 H   0  0  0  0  0  0
  -15.5340  -30.2967   23.7641 H   0  0  0  0  0  0
  -15.8658  -28.0785   22.7063 H   0  0  0  0  0  0
  -24.5852  -30.7138   25.7792 H   0  0  0  0  0  0
  -24.8954  -32.2913   26.4940 H   0  0  0  0  0  0
  -25.8029  -30.8869   27.0220 H   0  0  0  0  0  0
  -26.2884  -29.6786   24.1183 H   0  0  0  0  0  0
  -27.4054  -29.7292   25.4641 H   0  0  0  0  0  0
  -27.8737  -30.4353   23.9345 H   0  0  0  0  0  0
  -27.2654  -33.3609   26.2130 H   0  0  0  0  0  0
  -28.3830  -32.6938   25.0320 H   0  0  0  0  0  0
  -28.0749  -31.8435   26.5380 H   0  0  0  0  0  0
  -28.2611  -38.0097   24.7486 H   0  0  0  0  0  0
  -28.1067  -36.2627   24.6312 H   0  0  0  0  0  0
  -27.2295  -37.1497   25.8860 H   0  0  0  0  0  0
  -20.9352  -29.8774   21.6953 H   0  0  0  0  0  0
  -26.0191  -38.2873   24.1342 H   0  0  0  0  0  0
  -32.1038  -18.5173   23.6122 H   0  0  0  0  0  0
  -27.9187  -24.3486   21.3264 H   0  0  0  0  0  0
  -29.6249  -24.3093   21.0205 H   0  0  0  0  0  0
  -28.9604  -21.7469   21.8928 H   0  0  0  0  0  0
  -30.3532  -22.0307   20.8700 H   0  0  0  0  0  0
  -27.7643  -25.1591   18.7530 H   0  0  0  0  0  0
  -29.4470  -25.3892   18.9278 H   0  0  0  0  0  0
  -27.4525  -22.4583   20.0624 H   0  0  0  0  0  0
  -28.8710  -15.3613   20.9508 H   0  0  0  0  0  0
  -28.5088  -20.0126   19.7923 H   0  0  0  0  0  0
  -29.7932  -22.9384   18.3832 H   0  0  0  0  0  0
  -28.2124  -23.0181   17.9713 H   0  0  0  0  0  0
  -28.8880  -21.5963   18.3431 H   0  0  0  0  0  0
  1 25  1  0  0  0
  1 30  2  0  0  0
  1 81  1  0  0  0
  2  3  1  0  0  0
  2 25  1  0  0  0
  2 86  1  0  0  0
  2 87  1  0  0  0
  3  4  1  0  0  0
  3 88  1  0  0  0
  3 89  1  0  0  0
  4  5  1  0  0  0
  4 90  1  0  0  0
  4 91  1  0  0  0
  5  6  1  0  0  0
  5 26  1  0  0  0
  5 92  1  0  0  0
  6 25  1  0  0  0
  6 93  1  0  0  0
  6 94  1  0  0  0
  7  8  2  0  0  0
  7 26  1  0  0  0
  7 29  1  0  0  0
  8  9  1  0  0  0
  8 22  1  0  0  0
  9 10  1  0  0  0
  9 27  2  0  0  0
 10 11  2  0  0  0
 10 15  1  0  0  0
 11 12  1  0  0  0
 11 95  1  0  0  0
 12 13  2  0  0  0
 12 96  1  0  0  0
 13 14  1  0  0  0
 13 31  1  0  0  0
 14 15  2  0  0  0
 14 97  1  0  0  0
 15 98  1  0  0  0
 16 17  2  0  0  0
 16 21  1  0  0  0
 16 31  1  0  0  0
 17 18  1  0  0  0
 17 99  1  0  0  0
 18 19  2  0  0  0
 18100  1  0  0  0
 19 20  1  0  0  0
 19 24  1  0  0  0
 20 21  2  0  0  0
 20101  1  0  0  0
 21 23  1  0  0  0
 22 28  1  0  0  0
 22 32  2  0  0  0
 26 27  1  0  0  0
 28102  1  0  0  0
 28103  1  0  0  0
 29104  1  0  0  0
 29105  1  0  0  0
 33 34  1  0  0  0
 33 66  1  0  0  0
 33 70  2  0  0  0
 34 36  1  0  0  0
 34 59  1  0  0  0
 34106  1  0  0  0
 35 44  2  0  0  0
 35 45  1  0  0  0
 35 68  1  0  0  0
 36 56  1  0  0  0
 36107  1  0  0  0
 37 39  1  0  0  0
 37 47  1  0  0  0
 37 66  1  0  0  0
 37108  1  0  0  0
 38 43  2  0  0  0
 38 46  1  0  0  0
 38 47  1  0  0  0
 39 64  1  0  0  0
 39 67  2  0  0  0
 40 52  1  0  0  0
 40 53  2  0  0  0
 40 58  1  0  0  0
 41109  1  0  0  0
 41110  1  0  0  0
 41111  1  0  0  0
 41 48  1  0  0  0
 42 43  1  0  0  0
 42 66  1  0  0  0
 42112  1  0  0  0
 42113  1  0  0  0
 43 44  1  0  0  0
 44114  1  0  0  0
 45 46  2  0  0  0
 45115  1  0  0  0
 46116  1  0  0  0
 47117  1  0  0  0
 47118  1  0  0  0
 48 56  1  0  0  0
 48 65  1  0  0  0
 48119  1  0  0  0
 49 50  1  0  0  0
 49 53  1  0  0  0
 49 64  1  0  0  0
 49120  1  0  0  0
 50 51  1  0  0  0
 50121  1  0  0  0
 50122  1  0  0  0
 51 52  1  0  0  0
 51123  1  0  0  0
 51124  1  0  0  0
 52125  1  0  0  0
 52126  1  0  0  0
 53 54  1  0  0  0
 54 55  2  0  0  0
 54127  1  0  0  0
 55 57  1  0  0  0
 55128  1  0  0  0
 56 69  2  0  0  0
 57 58  2  0  0  0
 57129  1  0  0  0
 58130  1  0  0  0
 59 60  1  0  0  0
 59 61  1  0  0  0
 59 62  1  0  0  0
 60131  1  0  0  0
 60132  1  0  0  0
 60133  1  0  0  0
 61134  1  0  0  0
 61135  1  0  0  0
 61136  1  0  0  0
 62137  1  0  0  0
 62138  1  0  0  0
 62139  1  0  0  0
 63 65  1  0  0  0
 63140  1  0  0  0
 63141  1  0  0  0
 63142  1  0  0  0
 64143  1  0  0  0
 65144  1  0  0  0
 68 78  1  0  0  0
 71 72  2  0  0  0
 71 73  1  0  0  0
 71145  1  0  0  0
 72 74  1  0  0  0
 72 84  1  0  0  0
 73 75  2  0  0  0
 73 85  1  0  0  0
 74 80  2  0  0  0
 74 81  1  0  0  0
 75 80  1  0  0  0
 75 82  1  0  0  0
 76 78  1  0  0  0
 76 79  1  0  0  0
 76146  1  0  0  0
 76147  1  0  0  0
 77 79  1  0  0  0
 77 82  1  0  0  0
 77148  1  0  0  0
 77149  1  0  0  0
 78150  1  0  0  0
 78151  1  0  0  0
 79 83  1  0  0  0
 79152  1  0  0  0
 81153  1  0  0  0
 82154  1  0  0  0
 83155  1  0  0  0
 83156  1  0  0  0
 83157  1  0  0  0
M  CHG  1  83   1
M  ISO  4   1 100  68 101  78 101  81 100
M  END
> <chiral flag>
0

> <version>
0

> <s_m_source_file>
/data/baiqing/PycharmProjects/Reinvent-master-3.2/result/LINK_invent/BTK/process_docking_weight1_custom_product_contain_oxygen_bond_distance_aromatic_linkinvent_7_9_3/rearranged_h_0192.sdf

> <i_m_source_file_index>
21

> <r_mmod_Potential_Energy-OPLS-2005>
-411.326995849609

> <r_mmod_Stretch_Energy-OPLS-2005>
47.7283325195312

> <r_mmod_Bend_Energy-OPLS-2005>
124.782272338867

> <r_mmod_Torsional_Energy-OPLS-2005>
255.43376159668

> <r_mmod_Improper_Torsional_Energy-OPLS-2005>
7.63620853424072

> <r_mmod_Van_der_Waal_Energy-OPLS-2005>
163.30500793457

> <r_mmod_Electrostatic_Energy-OPLS-2005>
-502.664520263672

> <r_mmod_Solvation_Energy-OPLS-2005>
-528.410827636719

> <b_mmod_Minimization_Converged-OPLS-2005>
0

> <r_mmod_RMS_Derivative-OPLS-2005>
6.21229696273804

$$$$
21
                    3D
 Structure written by MMmdl.
160168  0  0  1  0            999 V2000
  -30.7404  -14.3848   20.6560 C   0  0  0  0  0  0
  -30.4242  -12.2827   19.4087 C   0  0  0  0  0  0
  -29.4938  -12.5196   18.2023 C   0  0  0  0  0  0
  -28.0138  -12.3883   18.6115 C   0  0  0  0  0  0
  -27.6702  -13.2026   19.8868 C   0  0  2  0  0  0
  -28.7068  -12.9350   21.0023 C   0  0  0  0  0  0
  -25.2618  -13.8153   20.5670 C   0  0  0  0  0  0
  -24.1852  -13.0434   20.9162 C   0  0  0  0  0  0
  -24.6401  -11.6905   20.8720 C   0  0  0  0  0  0
  -23.9060  -10.4288   21.0397 C   0  0  0  0  0  0
  -24.3614   -9.4210   21.9180 C   0  0  0  0  0  0
  -23.6284   -8.2246   22.0750 C   0  0  0  0  0  0
  -22.4273   -8.0288   21.3532 C   0  0  0  0  0  0
  -21.9910   -9.0262   20.4637 C   0  0  0  0  0  0
  -22.7234  -10.2136   20.3048 C   0  0  0  0  0  0
  -21.6860   -6.0741   22.5276 C   0  0  0  0  0  0
  -21.4014   -6.5641   23.8209 C   0  0  0  0  0  0
  -21.3654   -5.6791   24.9166 C   0  0  0  0  0  0
  -21.6048   -4.3053   24.7216 C   0  0  0  0  0  0
  -21.8821   -3.8150   23.4337 C   0  0  0  0  0  0
  -21.9188   -4.6968   22.3396 C   0  0  0  0  0  0
  -22.7870  -13.5235   21.1821 C   0  0  0  0  0  0
  -22.1663   -4.2153   21.0972 F   0  0  0  0  0  0
  -21.5629   -3.4539   25.7730 F   0  0  0  0  0  0
  -30.0513  -13.2292   20.4701 N   0  0  0  0  0  0
  -26.3067  -12.9318   20.3411 N   0  0  0  0  0  0
  -25.9332  -11.6476   20.5757 N   0  0  0  0  0  0
  -22.0513  -12.8232   22.0383 N   0  0  0  0  0  0
  -25.4353  -15.1868   20.4102 N   0  0  0  0  0  0
  -31.7854  -14.6575   20.0573 O   0  0  0  0  0  0
  -21.6637   -6.8891   21.4238 O   0  0  0  0  0  0
  -22.3562  -14.5544   20.6674 O   0  0  0  0  0  0
  -24.6101  -31.8699   23.2129 C   0  0  0  0  0  0
  -25.8999  -32.4838   23.8407 C   0  0  1  0  0  0
  -27.2379  -27.4608   20.1089 C   0  0  0  0  0  0
  -25.5857  -33.8627   24.2328 N   0  0  0  0  0  0
  -23.3984  -30.4915   21.5546 C   0  0  2  0  0  0
  -24.8450  -28.9564   20.1224 C   0  0  0  0  0  0
  -22.7386  -29.4672   22.5041 C   0  0  0  0  0  0
  -18.0258  -28.1370   22.8514 C   0  0  0  0  0  0
  -24.1471  -36.7325   23.2649 C   0  0  0  0  0  0
  -25.9235  -30.8462   21.3599 C   0  0  0  0  0  0
  -26.0014  -29.4812   20.7117 C   0  0  0  0  0  0
  -27.2018  -28.7409   20.6973 C   0  0  0  0  0  0
  -26.0688  -26.9392   19.5153 C   0  0  0  0  0  0
  -24.8714  -27.6828   19.5229 C   0  0  0  0  0  0
  -23.6034  -29.8191   20.1699 C   0  0  0  0  0  0
  -25.4094  -36.3117   24.0335 C   0  0  1  0  0  0
  -20.5852  -28.3655   23.1342 C   0  0  2  0  0  0
  -20.6766  -26.9394   22.5436 C   0  0  0  0  0  0
  -19.5743  -26.6392   21.5231 C   0  0  0  0  0  0
  -18.1911  -26.7929   22.1628 C   0  0  0  0  0  0
  -19.1510  -28.8830   23.2930 C   0  0  0  0  0  0
  -18.9441  -30.1434   23.8940 C   0  0  0  0  0  0
  -17.6445  -30.6594   24.0559 C   0  0  0  0  0  0
  -25.9015  -34.9481   23.5138 C   0  0  0  0  0  0
  -16.5332  -29.9095   23.6325 C   0  0  0  0  0  0
  -16.7250  -28.6500   23.0364 C   0  0  0  0  0  0
  -26.4432  -31.6608   25.0726 C   0  0  0  0  0  0
  -25.3688  -31.3689   26.1467 C   0  0  0  0  0  0
  -27.0271  -30.3059   24.6079 C   0  0  0  0  0  0
  -27.6025  -32.4324   25.7468 C   0  0  0  0  0  0
  -27.5591  -37.1789   24.8458 C   0  0  0  0  0  0
  -21.4116  -29.3035   22.3761 N   0  0  0  0  0  0
  -26.4287  -37.3788   23.9421 N   0  0  0  0  0  0
  -24.6625  -31.0829   22.1007 N   0  0  0  0  0  0
  -23.4173  -28.8237   23.3086 O   0  0  0  0  0  0
  -28.4384  -26.7933   20.0766 O   0  0  0  0  0  0
  -26.5607  -34.8930   22.4718 O   0  0  0  0  0  0
  -23.5300  -32.1429   23.7541 O   0  0  0  0  0  0
  -30.8142  -19.8161   22.4337 C   0  0  0  0  0  0
  -29.7947  -18.8946   22.4515 C   0  0  0  0  0  0
  -29.1177  -21.1269   21.6907 C   0  0  0  0  0  0
  -29.0845  -22.2787   18.7019 C   0  0  0  0  0  0
  -27.9493  -25.5269   22.1578 C   0  0  0  0  0  0
  -29.8908  -17.4259   22.7063 C   0  0  0  0  0  0
  -28.1418  -24.3523   19.8488 C   0  0  0  0  0  0
  -30.4665  -16.6910   21.4839 C   0  0  0  0  0  0
  -28.9917  -23.0690   20.0186 C   0  0  1  0  0  0
  -28.5689  -25.5341   20.7480 C   0  0  1  0  0  0
  -30.4210  -21.0760   21.9647 N   0  0  0  0  0  0
  -28.4923  -22.1924   21.0666 N   0  0  0  0  0  0
  -30.1656  -15.2635   21.4849 N   0  0  0  0  0  0
  -28.2712  -19.6196   21.9937 S   0  0  0  0  0  0
  -31.4679  -12.3856   19.1061 H   0  0  0  0  0  0
  -30.3234  -11.2601   19.7747 H   0  0  0  0  0  0
  -29.7237  -11.8107   17.4057 H   0  0  0  0  0  0
  -29.6740  -13.5136   17.7903 H   0  0  0  0  0  0
  -27.8065  -11.3314   18.7778 H   0  0  0  0  0  0
  -27.3697  -12.6970   17.7878 H   0  0  0  0  0  0
  -27.7309  -14.2581   19.6221 H   0  0  0  0  0  0
  -28.6673  -11.8895   21.3104 H   0  0  0  0  0  0
  -28.4585  -13.5027   21.9000 H   0  0  0  0  0  0
  -25.2769   -9.5685   22.4747 H   0  0  0  0  0  0
  -24.0001   -7.4639   22.7476 H   0  0  0  0  0  0
  -21.0847   -8.8770   19.8949 H   0  0  0  0  0  0
  -22.3696  -10.9669   19.6154 H   0  0  0  0  0  0
  -21.2010   -7.6153   23.9708 H   0  0  0  0  0  0
  -21.1480   -6.0524   25.9067 H   0  0  0  0  0  0
  -22.0605   -2.7617   23.2830 H   0  0  0  0  0  0
  -22.4127  -11.9898   22.4773 H   0  0  0  0  0  0
  -21.1119  -13.1244   22.2565 H   0  0  0  0  0  0
  -24.6751  -15.8481   20.5239 H   0  0  0  0  0  0
  -26.2978  -15.6239   20.1091 H   0  0  0  0  0  0
  -26.7091  -32.5579   23.1206 H   0  0  0  0  0  0
  -24.9963  -33.9765   25.0445 H   0  0  0  0  0  0
  -22.6868  -31.3089   21.4177 H   0  0  0  0  0  0
  -23.3730  -35.9664   23.3310 H   0  0  0  0  0  0
  -24.3576  -36.8920   22.2069 H   0  0  0  0  0  0
  -23.7224  -37.6533   23.6657 H   0  0  0  0  0  0
  -26.0241  -31.6148   20.5908 H   0  0  0  0  0  0
  -26.8128  -30.9070   21.9742 H   0  0  0  0  0  0
  -28.1010  -29.1424   21.1433 H   0  0  0  0  0  0
  -26.0811  -25.9742   19.0303 H   0  0  0  0  0  0
  -23.9785  -27.2744   19.0662 H   0  0  0  0  0  0
  -23.7001  -30.5910   19.4054 H   0  0  0  0  0  0
  -22.7290  -29.2316   19.8826 H   0  0  0  0  0  0
  -25.1254  -36.2003   25.0819 H   0  0  0  0  0  0
  -20.9926  -28.3229   24.1467 H   0  0  0  0  0  0
  -20.5705  -26.2247   23.3608 H   0  0  0  0  0  0
  -21.6630  -26.7479   22.1198 H   0  0  0  0  0  0
  -19.6899  -25.6313   21.1239 H   0  0  0  0  0  0
  -19.6686  -27.3229   20.6786 H   0  0  0  0  0  0
  -17.4185  -26.6693   21.4021 H   0  0  0  0  0  0
  -18.0286  -26.0058   22.9010 H   0  0  0  0  0  0
  -19.7917  -30.7224   24.2346 H   0  0  0  0  0  0
  -17.5006  -31.6284   24.5142 H   0  0  0  0  0  0
  -15.5334  -30.3010   23.7648 H   0  0  0  0  0  0
  -15.8640  -28.0831   22.7091 H   0  0  0  0  0  0
  -24.5886  -30.7011   25.7792 H   0  0  0  0  0  0
  -24.8811  -32.2816   26.4892 H   0  0  0  0  0  0
  -25.8018  -30.8888   27.0252 H   0  0  0  0  0  0
  -26.2818  -29.6805   24.1133 H   0  0  0  0  0  0
  -27.4086  -29.7301   25.4519 H   0  0  0  0  0  0
  -27.8628  -30.4398   23.9203 H   0  0  0  0  0  0
  -27.2677  -33.3640   26.2040 H   0  0  0  0  0  0
  -28.3819  -32.6810   25.0259 H   0  0  0  0  0  0
  -28.0697  -31.8436   26.5353 H   0  0  0  0  0  0
  -28.2568  -38.0128   24.7566 H   0  0  0  0  0  0
  -28.1116  -36.2659   24.6204 H   0  0  0  0  0  0
  -27.2316  -37.1339   25.8858 H   0  0  0  0  0  0
  -20.9285  -29.8716   21.6932 H   0  0  0  0  0  0
  -26.0186  -38.2862   24.1472 H   0  0  0  0  0  0
  -31.8572  -19.6390   22.6616 H   0  0  0  0  0  0
  -29.5191  -22.8862   17.9072 H   0  0  0  0  0  0
  -28.1040  -21.9419   18.3638 H   0  0  0  0  0  0
  -29.7189  -21.3984   18.8115 H   0  0  0  0  0  0
  -28.2412  -24.6295   22.7047 H   0  0  0  0  0  0
  -26.8602  -25.5611   22.1298 H   0  0  0  0  0  0
  -28.2931  -26.3846   22.7356 H   0  0  0  0  0  0
  -28.8986  -17.0405   22.9473 H   0  0  0  0  0  0
  -30.5110  -17.2353   23.5838 H   0  0  0  0  0  0
  -27.0773  -24.1381   19.9506 H   0  0  0  0  0  0
  -28.2731  -24.6920   18.8216 H   0  0  0  0  0  0
  -31.5416  -16.8726   21.4146 H   0  0  0  0  0  0
  -30.0264  -17.1008   20.5715 H   0  0  0  0  0  0
  -30.0101  -23.3544   20.2839 H   0  0  0  0  0  0
  -29.6462  -25.4540   20.8917 H   0  0  0  0  0  0
  -27.4861  -22.0637   21.0349 H   0  0  0  0  0  0
  -29.3291  -14.9575   21.9595 H   0  0  0  0  0  0
  1 25  1  0  0  0
  1 30  2  0  0  0
  1 83  1  0  0  0
  2  3  1  0  0  0
  2 25  1  0  0  0
  2 85  1  0  0  0
  2 86  1  0  0  0
  3  4  1  0  0  0
  3 87  1  0  0  0
  3 88  1  0  0  0
  4  5  1  0  0  0
  4 89  1  0  0  0
  4 90  1  0  0  0
  5  6  1  0  0  0
  5 26  1  0  0  0
  5 91  1  0  0  0
  6 25  1  0  0  0
  6 92  1  0  0  0
  6 93  1  0  0  0
  7  8  2  0  0  0
  7 26  1  0  0  0
  7 29  1  0  0  0
  8  9  1  0  0  0
  8 22  1  0  0  0
  9 10  1  0  0  0
  9 27  2  0  0  0
 10 11  2  0  0  0
 10 15  1  0  0  0
 11 12  1  0  0  0
 11 94  1  0  0  0
 12 13  2  0  0  0
 12 95  1  0  0  0
 13 14  1  0  0  0
 13 31  1  0  0  0
 14 15  2  0  0  0
 14 96  1  0  0  0
 15 97  1  0  0  0
 16 17  2  0  0  0
 16 21  1  0  0  0
 16 31  1  0  0  0
 17 18  1  0  0  0
 17 98  1  0  0  0
 18 19  2  0  0  0
 18 99  1  0  0  0
 19 20  1  0  0  0
 19 24  1  0  0  0
 20 21  2  0  0  0
 20100  1  0  0  0
 21 23  1  0  0  0
 22 28  1  0  0  0
 22 32  2  0  0  0
 26 27  1  0  0  0
 28101  1  0  0  0
 28102  1  0  0  0
 29103  1  0  0  0
 29104  1  0  0  0
 33 34  1  0  0  0
 33 66  1  0  0  0
 33 70  2  0  0  0
 34 36  1  0  0  0
 34 59  1  0  0  0
 34105  1  0  0  0
 35 44  2  0  0  0
 35 45  1  0  0  0
 35 68  1  0  0  0
 36 56  1  0  0  0
 36106  1  0  0  0
 37 39  1  0  0  0
 37 47  1  0  0  0
 37 66  1  0  0  0
 37107  1  0  0  0
 38 43  2  0  0  0
 38 46  1  0  0  0
 38 47  1  0  0  0
 39 64  1  0  0  0
 39 67  2  0  0  0
 40 52  1  0  0  0
 40 53  2  0  0  0
 40 58  1  0  0  0
 41108  1  0  0  0
 41109  1  0  0  0
 41110  1  0  0  0
 41 48  1  0  0  0
 42 43  1  0  0  0
 42 66  1  0  0  0
 42111  1  0  0  0
 42112  1  0  0  0
 43 44  1  0  0  0
 44113  1  0  0  0
 45 46  2  0  0  0
 45114  1  0  0  0
 46115  1  0  0  0
 47116  1  0  0  0
 47117  1  0  0  0
 48 56  1  0  0  0
 48 65  1  0  0  0
 48118  1  0  0  0
 49 50  1  0  0  0
 49 53  1  0  0  0
 49 64  1  0  0  0
 49119  1  0  0  0
 50 51  1  0  0  0
 50120  1  0  0  0
 50121  1  0  0  0
 51 52  1  0  0  0
 51122  1  0  0  0
 51123  1  0  0  0
 52124  1  0  0  0
 52125  1  0  0  0
 53 54  1  0  0  0
 54 55  2  0  0  0
 54126  1  0  0  0
 55 57  1  0  0  0
 55127  1  0  0  0
 56 69  2  0  0  0
 57 58  2  0  0  0
 57128  1  0  0  0
 58129  1  0  0  0
 59 60  1  0  0  0
 59 61  1  0  0  0
 59 62  1  0  0  0
 60130  1  0  0  0
 60131  1  0  0  0
 60132  1  0  0  0
 61133  1  0  0  0
 61134  1  0  0  0
 61135  1  0  0  0
 62136  1  0  0  0
 62137  1  0  0  0
 62138  1  0  0  0
 63 65  1  0  0  0
 63139  1  0  0  0
 63140  1  0  0  0
 63141  1  0  0  0
 64142  1  0  0  0
 65143  1  0  0  0
 68 80  1  0  0  0
 71 72  2  0  0  0
 71 81  1  0  0  0
 71144  1  0  0  0
 72 76  1  0  0  0
 72 84  1  0  0  0
 73 81  2  0  0  0
 73 82  1  0  0  0
 73 84  1  0  0  0
 74145  1  0  0  0
 74146  1  0  0  0
 74147  1  0  0  0
 74 79  1  0  0  0
 75148  1  0  0  0
 75149  1  0  0  0
 75150  1  0  0  0
 75 80  1  0  0  0
 76 78  1  0  0  0
 76151  1  0  0  0
 76152  1  0  0  0
 77 79  1  0  0  0
 77 80  1  0  0  0
 77153  1  0  0  0
 77154  1  0  0  0
 78 83  1  0  0  0
 78155  1  0  0  0
 78156  1  0  0  0
 79 82  1  0  0  0
 79157  1  0  0  0
 80158  1  0  0  0
 82159  1  0  0  0
 83160  1  0  0  0
M  ISO  4   1 100  68 101  80 101  83 100
M  END
> <chiral flag>
0

> <version>
0

> <s_m_source_file>
/data/baiqing/PycharmProjects/Reinvent-master-3.2/result/LINK_invent/BTK/process_docking_weight1_custom_product_contain_oxygen_bond_distance_aromatic_linkinvent_7_9_3/rearranged_h_0192.sdf

> <i_m_source_file_index>
22

> <r_mmod_Potential_Energy-OPLS-2005>
-147.065811157227

> <r_mmod_Stretch_Energy-OPLS-2005>
30.9527549743652

> <r_mmod_Bend_Energy-OPLS-2005>
98.4667205810547

> <r_mmod_Torsional_Energy-OPLS-2005>
220.370162963867

> <r_mmod_Improper_Torsional_Energy-OPLS-2005>
5.9326114654541

> <r_mmod_Van_der_Waal_Energy-OPLS-2005>
123.95735168457

> <r_mmod_Electrostatic_Energy-OPLS-2005>
-412.893249511719

> <r_mmod_Solvation_Energy-OPLS-2005>
-221.037216186523

> <b_mmod_Minimization_Converged-OPLS-2005>
0

> <r_mmod_RMS_Derivative-OPLS-2005>
2.63460302352905

$$$$
22
                    3D
 Structure written by MMmdl.
156164  0  0  1  0            999 V2000
  -30.6446  -14.5869   20.5327 C   0  0  0  0  0  0
  -30.4284  -12.3632   19.4530 C   0  0  0  0  0  0
  -29.5057  -12.4966   18.2234 C   0  0  0  0  0  0
  -28.0249  -12.3452   18.6298 C   0  0  0  0  0  0
  -27.6499  -13.2128   19.8617 C   0  0  2  0  0  0
  -28.6889  -13.0527   20.9933 C   0  0  0  0  0  0
  -25.2539  -13.8159   20.5678 C   0  0  0  0  0  0
  -24.1808  -13.0429   20.9193 C   0  0  0  0  0  0
  -24.6364  -11.6901   20.8715 C   0  0  0  0  0  0
  -23.9025  -10.4289   21.0392 C   0  0  0  0  0  0
  -24.3583   -9.4209   21.9163 C   0  0  0  0  0  0
  -23.6276   -8.2232   22.0743 C   0  0  0  0  0  0
  -22.4259   -8.0268   21.3542 C   0  0  0  0  0  0
  -21.9885   -9.0234   20.4642 C   0  0  0  0  0  0
  -22.7202  -10.2125   20.3048 C   0  0  0  0  0  0
  -21.6855   -6.0721   22.5274 C   0  0  0  0  0  0
  -21.4014   -6.5630   23.8203 C   0  0  0  0  0  0
  -21.3662   -5.6782   24.9165 C   0  0  0  0  0  0
  -21.6041   -4.3047   24.7217 C   0  0  0  0  0  0
  -21.8815   -3.8137   23.4339 C   0  0  0  0  0  0
  -21.9189   -4.6954   22.3396 C   0  0  0  0  0  0
  -22.7826  -13.5226   21.1850 C   0  0  0  0  0  0
  -22.1655   -4.2134   21.0973 F   0  0  0  0  0  0
  -21.5640   -3.4533   25.7735 F   0  0  0  0  0  0
  -30.0078  -13.3808   20.4348 N   0  0  0  0  0  0
  -26.2953  -12.9335   20.3292 N   0  0  0  0  0  0
  -25.9285  -11.6492   20.5721 N   0  0  0  0  0  0
  -22.0444  -12.8259   22.0415 N   0  0  0  0  0  0
  -25.4267  -15.1886   20.4111 N   0  0  0  0  0  0
  -31.8110  -14.7149   20.1456 O   0  0  0  0  0  0
  -21.6637   -6.8857   21.4233 O   0  0  0  0  0  0
  -22.3504  -14.5509   20.6660 O   0  0  0  0  0  0
  -24.6186  -31.8626   23.2039 C   0  0  0  0  0  0
  -25.9054  -32.4790   23.8363 C   0  0  1  0  0  0
  -27.2324  -27.3619   20.1219 C   0  0  0  0  0  0
  -25.5885  -33.8591   24.2295 N   0  0  0  0  0  0
  -23.4108  -30.4813   21.5470 C   0  0  2  0  0  0
  -24.8575  -28.9335   20.1157 C   0  0  0  0  0  0
  -22.7433  -29.4622   22.4988 C   0  0  0  0  0  0
  -18.0276  -28.1371   22.8500 C   0  0  0  0  0  0
  -24.1487  -36.7293   23.2645 C   0  0  0  0  0  0
  -25.9457  -30.8035   21.3711 C   0  0  0  0  0  0
  -26.0193  -29.4337   20.7154 C   0  0  0  0  0  0
  -27.2063  -28.6570   20.7083 C   0  0  0  0  0  0
  -26.0505  -26.8903   19.5090 C   0  0  0  0  0  0
  -24.8723  -27.6667   19.5058 C   0  0  0  0  0  0
  -23.6208  -29.8055   20.1647 C   0  0  0  0  0  0
  -25.4113  -36.3102   24.0342 C   0  0  1  0  0  0
  -20.5870  -28.3658   23.1315 C   0  0  2  0  0  0
  -20.6770  -26.9391   22.5418 C   0  0  0  0  0  0
  -19.5744  -26.6374   21.5217 C   0  0  0  0  0  0
  -18.1919  -26.7921   22.1625 C   0  0  0  0  0  0
  -19.1526  -28.8833   23.2900 C   0  0  0  0  0  0
  -18.9449  -30.1444   23.8901 C   0  0  0  0  0  0
  -17.6447  -30.6583   24.0554 C   0  0  0  0  0  0
  -25.9038  -34.9464   23.5118 C   0  0  0  0  0  0
  -16.5339  -29.9071   23.6334 C   0  0  0  0  0  0
  -16.7263  -28.6486   23.0365 C   0  0  0  0  0  0
  -26.4463  -31.6603   25.0726 C   0  0  0  0  0  0
  -25.3705  -31.3725   26.1460 C   0  0  0  0  0  0
  -27.0308  -30.3038   24.6158 C   0  0  0  0  0  0
  -27.6034  -32.4347   25.7474 C   0  0  0  0  0  0
  -27.5586  -37.1803   24.8470 C   0  0  0  0  0  0
  -21.4157  -29.3010   22.3714 N   0  0  0  0  0  0
  -26.4305  -37.3783   23.9405 N   0  0  0  0  0  0
  -24.6766  -31.0664   22.0971 N   0  0  0  0  0  0
  -23.4179  -28.8193   23.3073 O   0  0  0  0  0  0
  -28.4061  -26.6156   20.1722 O   0  0  0  0  0  0
  -26.5607  -34.8922   22.4689 O   0  0  0  0  0  0
  -23.5364  -32.1414   23.7385 O   0  0  0  0  0  0
  -31.4304  -17.5545   21.1716 C   0  0  0  0  0  0
  -31.6451  -18.9392   21.2110 C   0  0  0  0  0  0
  -30.1324  -17.0781   20.9186 C   0  0  0  0  0  0
  -29.4449  -19.3296   20.8026 C   0  0  0  0  0  0
  -29.1808  -21.8232   18.8332 C   0  0  0  0  0  0
  -28.0020  -24.2084   21.0088 C   0  0  0  0  0  0
  -28.6693  -22.7765   21.1713 C   0  0  0  0  0  0
  -28.4621  -25.1859   19.8710 C   0  0  0  0  0  0
  -28.3656  -21.6467   20.1228 C   0  0  2  0  0  0
  -30.6486  -19.8253   21.0195 N   0  0  0  0  0  0
  -29.1446  -18.0188   20.7645 N   0  0  0  0  0  0
  -29.8584  -15.6515   20.8864 N   0  0  0  0  0  0
  -28.3950  -20.2372   20.6180 N   0  0  0  0  0  0
  -31.4727  -12.4759   19.1558 H   0  0  0  0  0  0
  -30.3498  -11.3657   19.8869 H   0  0  0  0  0  0
  -29.7684  -11.7465   17.4756 H   0  0  0  0  0  0
  -29.6610  -13.4676   17.7496 H   0  0  0  0  0  0
  -27.8527  -11.2928   18.8560 H   0  0  0  0  0  0
  -27.3722  -12.5815   17.7891 H   0  0  0  0  0  0
  -27.6719  -14.2486   19.5226 H   0  0  0  0  0  0
  -28.6861  -12.0284   21.3690 H   0  0  0  0  0  0
  -28.4395  -13.6822   21.8497 H   0  0  0  0  0  0
  -25.2718   -9.5705   22.4730 H   0  0  0  0  0  0
  -24.0000   -7.4625   22.7460 H   0  0  0  0  0  0
  -21.0816   -8.8731   19.8950 H   0  0  0  0  0  0
  -22.3630  -10.9649   19.6156 H   0  0  0  0  0  0
  -21.2003   -7.6138   23.9705 H   0  0  0  0  0  0
  -21.1498   -6.0514   25.9068 H   0  0  0  0  0  0
  -22.0597   -2.7603   23.2838 H   0  0  0  0  0  0
  -22.4059  -11.9958   22.4876 H   0  0  0  0  0  0
  -21.1042  -13.1283   22.2547 H   0  0  0  0  0  0
  -24.6585  -15.8419   20.5222 H   0  0  0  0  0  0
  -26.2735  -15.6314   20.0770 H   0  0  0  0  0  0
  -26.7109  -32.5471   23.1104 H   0  0  0  0  0  0
  -25.0054  -33.9758   25.0452 H   0  0  0  0  0  0
  -22.7018  -31.2985   21.4021 H   0  0  0  0  0  0
  -23.3760  -35.9616   23.3327 H   0  0  0  0  0  0
  -24.3575  -36.8887   22.2055 H   0  0  0  0  0  0
  -23.7227  -37.6497   23.6644 H   0  0  0  0  0  0
  -26.0775  -31.5672   20.6041 H   0  0  0  0  0  0
  -26.8258  -30.8475   22.0017 H   0  0  0  0  0  0
  -28.1034  -29.0372   21.1784 H   0  0  0  0  0  0
  -26.0168  -25.9193   19.0383 H   0  0  0  0  0  0
  -23.9794  -27.2759   19.0378 H   0  0  0  0  0  0
  -23.7251  -30.5736   19.3977 H   0  0  0  0  0  0
  -22.7450  -29.2208   19.8769 H   0  0  0  0  0  0
  -25.1293  -36.1976   25.0836 H   0  0  0  0  0  0
  -20.9959  -28.3221   24.1437 H   0  0  0  0  0  0
  -20.5692  -26.2249   23.3601 H   0  0  0  0  0  0
  -21.6638  -26.7444   22.1196 H   0  0  0  0  0  0
  -19.6908  -25.6284   21.1238 H   0  0  0  0  0  0
  -19.6696  -27.3189   20.6751 H   0  0  0  0  0  0
  -17.4199  -26.6683   21.4018 H   0  0  0  0  0  0
  -18.0315  -26.0056   22.9013 H   0  0  0  0  0  0
  -19.7918  -30.7263   24.2276 H   0  0  0  0  0  0
  -17.4996  -31.6275   24.5137 H   0  0  0  0  0  0
  -15.5337  -30.2967   23.7666 H   0  0  0  0  0  0
  -15.8662  -28.0797   22.7095 H   0  0  0  0  0  0
  -24.5857  -30.7106   25.7780 H   0  0  0  0  0  0
  -24.8913  -32.2883   26.4931 H   0  0  0  0  0  0
  -25.8026  -30.8858   27.0212 H   0  0  0  0  0  0
  -26.2875  -29.6794   24.1183 H   0  0  0  0  0  0
  -27.4027  -29.7288   25.4650 H   0  0  0  0  0  0
  -27.8734  -30.4352   23.9364 H   0  0  0  0  0  0
  -27.2649  -33.3643   26.2063 H   0  0  0  0  0  0
  -28.3809  -32.6923   25.0269 H   0  0  0  0  0  0
  -28.0739  -31.8474   26.5371 H   0  0  0  0  0  0
  -28.2620  -38.0088   24.7504 H   0  0  0  0  0  0
  -28.1069  -36.2615   24.6316 H   0  0  0  0  0  0
  -27.2297  -37.1480   25.8874 H   0  0  0  0  0  0
  -20.9338  -29.8676   21.6876 H   0  0  0  0  0  0
  -26.0204  -38.2871   24.1380 H   0  0  0  0  0  0
  -32.2666  -16.8881   21.3311 H   0  0  0  0  0  0
  -32.6299  -19.3403   21.3993 H   0  0  0  0  0  0
  -29.0051  -22.8034   18.3908 H   0  0  0  0  0  0
  -28.9114  -21.0773   18.0845 H   0  0  0  0  0  0
  -30.2514  -21.7408   19.0208 H   0  0  0  0  0  0
  -28.2035  -24.7314   21.9450 H   0  0  0  0  0  0
  -26.9167  -24.1082   20.9784 H   0  0  0  0  0  0
  -28.3250  -22.4067   22.1380 H   0  0  0  0  0  0
  -29.7484  -22.8848   21.2853 H   0  0  0  0  0  0
  -27.9675  -24.9537   18.9282 H   0  0  0  0  0  0
  -29.5172  -24.9840   19.6877 H   0  0  0  0  0  0
  -27.3213  -21.7847   19.8407 H   0  0  0  0  0  0
  -28.8971  -15.4048   21.0506 H   0  0  0  0  0  0
  -27.5051  -19.7625   20.5113 H   0  0  0  0  0  0
  1 25  1  0  0  0
  1 30  2  0  0  0
  1 82  1  0  0  0
  2  3  1  0  0  0
  2 25  1  0  0  0
  2 84  1  0  0  0
  2 85  1  0  0  0
  3  4  1  0  0  0
  3 86  1  0  0  0
  3 87  1  0  0  0
  4  5  1  0  0  0
  4 88  1  0  0  0
  4 89  1  0  0  0
  5  6  1  0  0  0
  5 26  1  0  0  0
  5 90  1  0  0  0
  6 25  1  0  0  0
  6 91  1  0  0  0
  6 92  1  0  0  0
  7  8  2  0  0  0
  7 26  1  0  0  0
  7 29  1  0  0  0
  8  9  1  0  0  0
  8 22  1  0  0  0
  9 10  1  0  0  0
  9 27  2  0  0  0
 10 11  2  0  0  0
 10 15  1  0  0  0
 11 12  1  0  0  0
 11 93  1  0  0  0
 12 13  2  0  0  0
 12 94  1  0  0  0
 13 14  1  0  0  0
 13 31  1  0  0  0
 14 15  2  0  0  0
 14 95  1  0  0  0
 15 96  1  0  0  0
 16 17  2  0  0  0
 16 21  1  0  0  0
 16 31  1  0  0  0
 17 18  1  0  0  0
 17 97  1  0  0  0
 18 19  2  0  0  0
 18 98  1  0  0  0
 19 20  1  0  0  0
 19 24  1  0  0  0
 20 21  2  0  0  0
 20 99  1  0  0  0
 21 23  1  0  0  0
 22 28  1  0  0  0
 22 32  2  0  0  0
 26 27  1  0  0  0
 28100  1  0  0  0
 28101  1  0  0  0
 29102  1  0  0  0
 29103  1  0  0  0
 33 34  1  0  0  0
 33 66  1  0  0  0
 33 70  2  0  0  0
 34 36  1  0  0  0
 34 59  1  0  0  0
 34104  1  0  0  0
 35 44  2  0  0  0
 35 45  1  0  0  0
 35 68  1  0  0  0
 36 56  1  0  0  0
 36105  1  0  0  0
 37 39  1  0  0  0
 37 47  1  0  0  0
 37 66  1  0  0  0
 37106  1  0  0  0
 38 43  2  0  0  0
 38 46  1  0  0  0
 38 47  1  0  0  0
 39 64  1  0  0  0
 39 67  2  0  0  0
 40 52  1  0  0  0
 40 53  2  0  0  0
 40 58  1  0  0  0
 41107  1  0  0  0
 41108  1  0  0  0
 41109  1  0  0  0
 41 48  1  0  0  0
 42 43  1  0  0  0
 42 66  1  0  0  0
 42110  1  0  0  0
 42111  1  0  0  0
 43 44  1  0  0  0
 44112  1  0  0  0
 45 46  2  0  0  0
 45113  1  0  0  0
 46114  1  0  0  0
 47115  1  0  0  0
 47116  1  0  0  0
 48 56  1  0  0  0
 48 65  1  0  0  0
 48117  1  0  0  0
 49 50  1  0  0  0
 49 53  1  0  0  0
 49 64  1  0  0  0
 49118  1  0  0  0
 50 51  1  0  0  0
 50119  1  0  0  0
 50120  1  0  0  0
 51 52  1  0  0  0
 51121  1  0  0  0
 51122  1  0  0  0
 52123  1  0  0  0
 52124  1  0  0  0
 53 54  1  0  0  0
 54 55  2  0  0  0
 54125  1  0  0  0
 55 57  1  0  0  0
 55126  1  0  0  0
 56 69  2  0  0  0
 57 58  2  0  0  0
 57127  1  0  0  0
 58128  1  0  0  0
 59 60  1  0  0  0
 59 61  1  0  0  0
 59 62  1  0  0  0
 60129  1  0  0  0
 60130  1  0  0  0
 60131  1  0  0  0
 61132  1  0  0  0
 61133  1  0  0  0
 61134  1  0  0  0
 62135  1  0  0  0
 62136  1  0  0  0
 62137  1  0  0  0
 63 65  1  0  0  0
 63138  1  0  0  0
 63139  1  0  0  0
 63140  1  0  0  0
 64141  1  0  0  0
 65142  1  0  0  0
 68 78  1  0  0  0
 71 72  2  0  0  0
 71 73  1  0  0  0
 71143  1  0  0  0
 72 80  1  0  0  0
 72144  1  0  0  0
 73 81  2  0  0  0
 73 82  1  0  0  0
 74 80  2  0  0  0
 74 81  1  0  0  0
 74 83  1  0  0  0
 75145  1  0  0  0
 75146  1  0  0  0
 75147  1  0  0  0
 75 79  1  0  0  0
 76 77  1  0  0  0
 76 78  1  0  0  0
 76148  1  0  0  0
 76149  1  0  0  0
 77 79  1  0  0  0
 77150  1  0  0  0
 77151  1  0  0  0
 78152  1  0  0  0
 78153  1  0  0  0
 79 83  1  0  0  0
 79154  1  0  0  0
 82155  1  0  0  0
 83156  1  0  0  0
M  ISO  4   1 100  68 101  78 101  82 100
M  END
> <chiral flag>
0

> <version>
0

> <s_m_source_file>
/data/baiqing/PycharmProjects/Reinvent-master-3.2/result/LINK_invent/BTK/process_docking_weight1_custom_product_contain_oxygen_bond_distance_aromatic_linkinvent_7_9_3/rearranged_h_0192.sdf

> <i_m_source_file_index>
23

> <r_mmod_Potential_Energy-OPLS-2005>
-479.84814453125

> <r_mmod_Stretch_Energy-OPLS-2005>
58.6568603515625

> <r_mmod_Bend_Energy-OPLS-2005>
156.979385375977

> <r_mmod_Torsional_Energy-OPLS-2005>
209.138000488281

> <r_mmod_Improper_Torsional_Energy-OPLS-2005>
5.83110284805298

> <r_mmod_Van_der_Waal_Energy-OPLS-2005>
149.582260131836

> <r_mmod_Electrostatic_Energy-OPLS-2005>
-859.620544433594

> <r_mmod_Solvation_Energy-OPLS-2005>
-231.912841796875

> <b_mmod_Minimization_Converged-OPLS-2005>
0

> <r_mmod_RMS_Derivative-OPLS-2005>
2.216228723526

$$$$
23
                    3D
 Structure written by MMmdl.
172180  0  0  1  0            999 V2000
  -30.7132  -14.5003   20.6131 C   0  0  0  0  0  0
  -30.4201  -12.3491   19.4249 C   0  0  0  0  0  0
  -29.4879  -12.5216   18.2102 C   0  0  0  0  0  0
  -28.0107  -12.3826   18.6223 C   0  0  0  0  0  0
  -27.6573  -13.2184   19.8808 C   0  0  2  0  0  0
  -28.6977  -13.0200   21.0044 C   0  0  0  0  0  0
  -25.2547  -13.8159   20.5689 C   0  0  0  0  0  0
  -24.1820  -13.0434   20.9206 C   0  0  0  0  0  0
  -24.6376  -11.6901   20.8718 C   0  0  0  0  0  0
  -23.9037  -10.4284   21.0364 C   0  0  0  0  0  0
  -24.3604   -9.4227   21.9157 C   0  0  0  0  0  0
  -23.6299   -8.2255   22.0737 C   0  0  0  0  0  0
  -22.4280   -8.0265   21.3539 C   0  0  0  0  0  0
  -21.9894   -9.0215   20.4633 C   0  0  0  0  0  0
  -22.7183  -10.2115   20.3032 C   0  0  0  0  0  0
  -21.6876   -6.0713   22.5270 C   0  0  0  0  0  0
  -21.4024   -6.5621   23.8199 C   0  0  0  0  0  0
  -21.3670   -5.6778   24.9162 C   0  0  0  0  0  0
  -21.6048   -4.3043   24.7223 C   0  0  0  0  0  0
  -21.8832   -3.8130   23.4349 C   0  0  0  0  0  0
  -21.9203   -4.6936   22.3397 C   0  0  0  0  0  0
  -22.7843  -13.5223   21.1851 C   0  0  0  0  0  0
  -22.1675   -4.2120   21.0973 F   0  0  0  0  0  0
  -21.5624   -3.4536   25.7742 F   0  0  0  0  0  0
  -30.0250  -13.3330   20.4513 N   0  0  0  0  0  0
  -26.2997  -12.9364   20.3380 N   0  0  0  0  0  0
  -25.9311  -11.6511   20.5768 N   0  0  0  0  0  0
  -22.0497  -12.8211   22.0405 N   0  0  0  0  0  0
  -25.4270  -15.1863   20.4006 N   0  0  0  0  0  0
  -31.8251  -14.6775   20.1110 O   0  0  0  0  0  0
  -21.6674   -6.8846   21.4218 O   0  0  0  0  0  0
  -22.3537  -14.5517   20.6653 O   0  0  0  0  0  0
  -24.6196  -31.8674   23.2151 C   0  0  0  0  0  0
  -25.9070  -32.4825   23.8444 C   0  0  1  0  0  0
  -27.2090  -27.3704   20.1027 C   0  0  0  0  0  0
  -25.5904  -33.8630   24.2337 N   0  0  0  0  0  0
  -23.4092  -30.5009   21.5551 C   0  0  2  0  0  0
  -24.8510  -28.9774   20.1065 C   0  0  0  0  0  0
  -22.7444  -29.4658   22.4939 C   0  0  0  0  0  0
  -18.0271  -28.1416   22.8489 C   0  0  0  0  0  0
  -24.1480  -36.7304   23.2641 C   0  0  0  0  0  0
  -25.9491  -30.8148   21.3843 C   0  0  0  0  0  0
  -26.0168  -29.4503   20.7184 C   0  0  0  0  0  0
  -27.1946  -28.6551   20.7164 C   0  0  0  0  0  0
  -26.0158  -26.9470   19.4636 C   0  0  0  0  0  0
  -24.8502  -27.7298   19.4733 C   0  0  0  0  0  0
  -23.6224  -29.8588   20.1612 C   0  0  0  0  0  0
  -25.4108  -36.3113   24.0334 C   0  0  1  0  0  0
  -20.5873  -28.3704   23.1297 C   0  0  2  0  0  0
  -20.6779  -26.9432   22.5418 C   0  0  0  0  0  0
  -19.5745  -26.6402   21.5235 C   0  0  0  0  0  0
  -18.1921  -26.7948   22.1641 C   0  0  0  0  0  0
  -19.1537  -28.8874   23.2893 C   0  0  0  0  0  0
  -18.9448  -30.1472   23.8914 C   0  0  0  0  0  0
  -17.6457  -30.6608   24.0580 C   0  0  0  0  0  0
  -25.9040  -34.9472   23.5131 C   0  0  0  0  0  0
  -16.5343  -29.9118   23.6328 C   0  0  0  0  0  0
  -16.7265  -28.6543   23.0331 C   0  0  0  0  0  0
  -26.4483  -31.6620   25.0784 C   0  0  0  0  0  0
  -25.3737  -31.3735   26.1522 C   0  0  0  0  0  0
  -27.0324  -30.3047   24.6225 C   0  0  0  0  0  0
  -27.6048  -32.4374   25.7533 C   0  0  0  0  0  0
  -27.5577  -37.1807   24.8463 C   0  0  0  0  0  0
  -21.4166  -29.3052   22.3675 N   0  0  0  0  0  0
  -26.4281  -37.3803   23.9413 N   0  0  0  0  0  0
  -24.6770  -31.0764   22.1071 N   0  0  0  0  0  0
  -23.4195  -28.8164   23.2968 O   0  0  0  0  0  0
  -28.3493  -26.5654   20.1874 O   0  0  0  0  0  0
  -26.5607  -34.8922   22.4697 O   0  0  0  0  0  0
  -23.5369  -32.1435   23.7521 O   0  0  0  0  0  0
  -28.3931  -17.9210   20.7623 C   0  0  0  0  0  0
  -29.6976  -18.0102   21.1849 C   0  0  0  0  0  0
  -29.2160  -20.2471   20.8409 C   0  0  0  0  0  0
  -32.9413  -22.0364   17.6812 C   0  0  0  0  0  0
  -26.5459  -21.9443   17.6136 C   0  0  0  0  0  0
  -29.1285  -25.8299   18.1395 C   0  0  0  0  0  0
  -30.6276  -16.8523   21.5348 C   0  0  0  0  0  0
  -31.6071  -21.6848   18.3474 C   0  0  0  0  0  0
  -27.9135  -22.5758   17.3300 C   0  0  0  0  0  0
  -30.4442  -22.4976   17.7550 C   0  0  0  0  0  0
  -29.2099  -24.1396   20.1575 C   0  0  0  0  0  0
  -29.0362  -22.1720   18.3203 C   0  0  1  0  0  0
  -28.8095  -22.6367   19.8034 C   0  0  1  0  0  0
  -28.4526  -25.3225   19.4287 C   0  0  1  0  0  0
  -30.1329  -19.3557   21.2572 N   0  0  0  0  0  0
  -29.4210  -21.6321   20.7019 N   0  0  0  0  0  0
  -30.0859  -15.4944   21.2830 N   0  0  0  0  0  0
  -27.6940  -19.4809   20.3971 S   0  0  0  0  0  0
  -31.4570  -12.4678   19.1078 H   0  0  0  0  0  0
  -30.3491  -11.3358   19.8220 H   0  0  0  0  0  0
  -29.7273  -11.7829   17.4455 H   0  0  0  0  0  0
  -29.6544  -13.4987   17.7532 H   0  0  0  0  0  0
  -27.8105  -11.3266   18.8057 H   0  0  0  0  0  0
  -27.3646  -12.6754   17.7942 H   0  0  0  0  0  0
  -27.6977  -14.2680   19.5918 H   0  0  0  0  0  0
  -28.6773  -11.9895   21.3624 H   0  0  0  0  0  0
  -28.4467  -13.6330   21.8718 H   0  0  0  0  0  0
  -25.2736   -9.5749   22.4740 H   0  0  0  0  0  0
  -24.0019   -7.4670   22.7461 H   0  0  0  0  0  0
  -21.0824   -8.8683   19.8953 H   0  0  0  0  0  0
  -22.3572  -10.9640   19.6160 H   0  0  0  0  0  0
  -21.2025   -7.6137   23.9673 H   0  0  0  0  0  0
  -21.1484   -6.0526   25.9054 H   0  0  0  0  0  0
  -22.0612   -2.7586   23.2852 H   0  0  0  0  0  0
  -22.4149  -11.9904   22.4824 H   0  0  0  0  0  0
  -21.1092  -13.1189   22.2580 H   0  0  0  0  0  0
  -24.6463  -15.8290   20.4765 H   0  0  0  0  0  0
  -26.2294  -15.5835   19.9322 H   0  0  0  0  0  0
  -26.7132  -32.5512   23.1192 H   0  0  0  0  0  0
  -25.0040  -33.9811   25.0474 H   0  0  0  0  0  0
  -22.6976  -31.3193   21.4282 H   0  0  0  0  0  0
  -23.3757  -35.9624   23.3308 H   0  0  0  0  0  0
  -24.3567  -36.8924   22.2054 H   0  0  0  0  0  0
  -23.7219  -37.6497   23.6668 H   0  0  0  0  0  0
  -26.0850  -31.5891   20.6271 H   0  0  0  0  0  0
  -26.8266  -30.8502   22.0162 H   0  0  0  0  0  0
  -28.0881  -29.0160   21.2056 H   0  0  0  0  0  0
  -25.9094  -26.0098   18.9468 H   0  0  0  0  0  0
  -23.9558  -27.3668   18.9849 H   0  0  0  0  0  0
  -23.7497  -30.6524   19.4229 H   0  0  0  0  0  0
  -22.7397  -29.3016   19.8443 H   0  0  0  0  0  0
  -25.1291  -36.1971   25.0828 H   0  0  0  0  0  0
  -20.9979  -28.3295   24.1416 H   0  0  0  0  0  0
  -20.5731  -26.2307   23.3621 H   0  0  0  0  0  0
  -21.6636  -26.7495   22.1178 H   0  0  0  0  0  0
  -19.6902  -25.6314   21.1263 H   0  0  0  0  0  0
  -19.6686  -27.3221   20.6774 H   0  0  0  0  0  0
  -17.4190  -26.6694   21.4043 H   0  0  0  0  0  0
  -18.0309  -26.0112   22.9056 H   0  0  0  0  0  0
  -19.7929  -30.7289   24.2292 H   0  0  0  0  0  0
  -17.5010  -31.6291   24.5178 H   0  0  0  0  0  0
  -15.5349  -30.3034   23.7650 H   0  0  0  0  0  0
  -15.8655  -28.0891   22.7017 H   0  0  0  0  0  0
  -24.5897  -30.7105   25.7845 H   0  0  0  0  0  0
  -24.8954  -32.2898   26.4998 H   0  0  0  0  0  0
  -25.8077  -30.8869   27.0268 H   0  0  0  0  0  0
  -26.2888  -29.6803   24.1254 H   0  0  0  0  0  0
  -27.4018  -29.7302   25.4731 H   0  0  0  0  0  0
  -27.8772  -30.4335   23.9451 H   0  0  0  0  0  0
  -27.2649  -33.3677   26.2104 H   0  0  0  0  0  0
  -28.3843  -32.6940   25.0345 H   0  0  0  0  0  0
  -28.0733  -31.8516   26.5451 H   0  0  0  0  0  0
  -28.2591  -38.0105   24.7522 H   0  0  0  0  0  0
  -28.1068  -36.2638   24.6275 H   0  0  0  0  0  0
  -27.2290  -37.1440   25.8862 H   0  0  0  0  0  0
  -20.9312  -29.8785   21.6913 H   0  0  0  0  0  0
  -26.0166  -38.2870   24.1454 H   0  0  0  0  0  0
  -27.8001  -17.0287   20.6286 H   0  0  0  0  0  0
  -33.7616  -21.4746   18.1277 H   0  0  0  0  0  0
  -33.1694  -23.0972   17.7949 H   0  0  0  0  0  0
  -32.9196  -21.8107   16.6140 H   0  0  0  0  0  0
  -25.8570  -22.1754   16.8016 H   0  0  0  0  0  0
  -26.1026  -22.3294   18.5315 H   0  0  0  0  0  0
  -26.6107  -20.8581   17.6902 H   0  0  0  0  0  0
  -29.2346  -25.0893   17.3562 H   0  0  0  0  0  0
  -30.1272  -26.2072   18.3546 H   0  0  0  0  0  0
  -28.5557  -26.6509   17.7065 H   0  0  0  0  0  0
  -30.9100  -16.9101   22.5871 H   0  0  0  0  0  0
  -31.5632  -16.9866   20.9902 H   0  0  0  0  0  0
  -31.6993  -21.8778   19.4140 H   0  0  0  0  0  0
  -31.4127  -20.6163   18.2406 H   0  0  0  0  0  0
  -27.7682  -23.6468   17.2756 H   0  0  0  0  0  0
  -28.2036  -22.2755   16.3214 H   0  0  0  0  0  0
  -30.4438  -22.3197   16.6801 H   0  0  0  0  0  0
  -30.6752  -23.5530   17.8725 H   0  0  0  0  0  0
  -30.2861  -24.2823   20.0594 H   0  0  0  0  0  0
  -29.0112  -24.2607   21.2235 H   0  0  0  0  0  0
  -28.9717  -21.0843   18.3022 H   0  0  0  0  0  0
  -27.7448  -22.5467   20.0176 H   0  0  0  0  0  0
  -27.4874  -24.8862   19.2050 H   0  0  0  0  0  0
  -30.2832  -21.9452   21.1315 H   0  0  0  0  0  0
  -29.1784  -15.2897   21.6727 H   0  0  0  0  0  0
  1 25  1  0  0  0
  1 30  2  0  0  0
  1 87  1  0  0  0
  2  3  1  0  0  0
  2 25  1  0  0  0
  2 89  1  0  0  0
  2 90  1  0  0  0
  3  4  1  0  0  0
  3 91  1  0  0  0
  3 92  1  0  0  0
  4  5  1  0  0  0
  4 93  1  0  0  0
  4 94  1  0  0  0
  5  6  1  0  0  0
  5 26  1  0  0  0
  5 95  1  0  0  0
  6 25  1  0  0  0
  6 96  1  0  0  0
  6 97  1  0  0  0
  7  8  2  0  0  0
  7 26  1  0  0  0
  7 29  1  0  0  0
  8  9  1  0  0  0
  8 22  1  0  0  0
  9 10  1  0  0  0
  9 27  2  0  0  0
 10 11  2  0  0  0
 10 15  1  0  0  0
 11 12  1  0  0  0
 11 98  1  0  0  0
 12 13  2  0  0  0
 12 99  1  0  0  0
 13 14  1  0  0  0
 13 31  1  0  0  0
 14 15  2  0  0  0
 14100  1  0  0  0
 15101  1  0  0  0
 16 17  2  0  0  0
 16 21  1  0  0  0
 16 31  1  0  0  0
 17 18  1  0  0  0
 17102  1  0  0  0
 18 19  2  0  0  0
 18103  1  0  0  0
 19 20  1  0  0  0
 19 24  1  0  0  0
 20 21  2  0  0  0
 20104  1  0  0  0
 21 23  1  0  0  0
 22 28  1  0  0  0
 22 32  2  0  0  0
 26 27  1  0  0  0
 28105  1  0  0  0
 28106  1  0  0  0
 29107  1  0  0  0
 29108  1  0  0  0
 33 34  1  0  0  0
 33 66  1  0  0  0
 33 70  2  0  0  0
 34 36  1  0  0  0
 34 59  1  0  0  0
 34109  1  0  0  0
 35 44  2  0  0  0
 35 45  1  0  0  0
 35 68  1  0  0  0
 36 56  1  0  0  0
 36110  1  0  0  0
 37 39  1  0  0  0
 37 47  1  0  0  0
 37 66  1  0  0  0
 37111  1  0  0  0
 38 43  2  0  0  0
 38 46  1  0  0  0
 38 47  1  0  0  0
 39 64  1  0  0  0
 39 67  2  0  0  0
 40 52  1  0  0  0
 40 53  2  0  0  0
 40 58  1  0  0  0
 41112  1  0  0  0
 41113  1  0  0  0
 41114  1  0  0  0
 41 48  1  0  0  0
 42 43  1  0  0  0
 42 66  1  0  0  0
 42115  1  0  0  0
 42116  1  0  0  0
 43 44  1  0  0  0
 44117  1  0  0  0
 45 46  2  0  0  0
 45118  1  0  0  0
 46119  1  0  0  0
 47120  1  0  0  0
 47121  1  0  0  0
 48 56  1  0  0  0
 48 65  1  0  0  0
 48122  1  0  0  0
 49 50  1  0  0  0
 49 53  1  0  0  0
 49 64  1  0  0  0
 49123  1  0  0  0
 50 51  1  0  0  0
 50124  1  0  0  0
 50125  1  0  0  0
 51 52  1  0  0  0
 51126  1  0  0  0
 51127  1  0  0  0
 52128  1  0  0  0
 52129  1  0  0  0
 53 54  1  0  0  0
 54 55  2  0  0  0
 54130  1  0  0  0
 55 57  1  0  0  0
 55131  1  0  0  0
 56 69  2  0  0  0
 57 58  2  0  0  0
 57132  1  0  0  0
 58133  1  0  0  0
 59 60  1  0  0  0
 59 61  1  0  0  0
 59 62  1  0  0  0
 60134  1  0  0  0
 60135  1  0  0  0
 60136  1  0  0  0
 61137  1  0  0  0
 61138  1  0  0  0
 61139  1  0  0  0
 62140  1  0  0  0
 62141  1  0  0  0
 62142  1  0  0  0
 63 65  1  0  0  0
 63143  1  0  0  0
 63144  1  0  0  0
 63145  1  0  0  0
 64146  1  0  0  0
 65147  1  0  0  0
 68 84  1  0  0  0
 71 72  2  0  0  0
 71 88  1  0  0  0
 71148  1  0  0  0
 72 77  1  0  0  0
 72 85  1  0  0  0
 73 85  2  0  0  0
 73 86  1  0  0  0
 73 88  1  0  0  0
 74 78  1  0  0  0
 74149  1  0  0  0
 74150  1  0  0  0
 74151  1  0  0  0
 75 79  1  0  0  0
 75152  1  0  0  0
 75153  1  0  0  0
 75154  1  0  0  0
 76155  1  0  0  0
 76156  1  0  0  0
 76157  1  0  0  0
 76 84  1  0  0  0
 77 87  1  0  0  0
 77158  1  0  0  0
 77159  1  0  0  0
 78 80  1  0  0  0
 78160  1  0  0  0
 78161  1  0  0  0
 79162  1  0  0  0
 79163  1  0  0  0
 79 82  1  0  0  0
 80 82  1  0  0  0
 80164  1  0  0  0
 80165  1  0  0  0
 81 84  1  0  0  0
 81166  1  0  0  0
 81167  1  0  0  0
 81 83  1  0  0  0
 82 83  1  0  0  0
 82168  1  0  0  0
 83 86  1  0  0  0
 83169  1  0  0  0
 84170  1  0  0  0
 86171  1  0  0  0
 87172  1  0  0  0
M  ISO  4   1 100  68 101  84 101  87 100
M  END
> <chiral flag>
0

> <version>
0

> <s_m_source_file>
/data/baiqing/PycharmProjects/Reinvent-master-3.2/result/LINK_invent/BTK/process_docking_weight1_custom_product_contain_oxygen_bond_distance_aromatic_linkinvent_7_9_3/rearranged_h_0192.sdf

> <i_m_source_file_index>
24

> <r_mmod_Potential_Energy-OPLS-2005>
-176.7587890625

> <r_mmod_Stretch_Energy-OPLS-2005>
55.5766754150391

> <r_mmod_Bend_Energy-OPLS-2005>
131.578659057617

> <r_mmod_Torsional_Energy-OPLS-2005>
213.79638671875

> <r_mmod_Improper_Torsional_Energy-OPLS-2005>
3.77252340316772

> <r_mmod_Van_der_Waal_Energy-OPLS-2005>
129.490493774414

> <r_mmod_Electrostatic_Energy-OPLS-2005>
-523.356628417969

> <r_mmod_Solvation_Energy-OPLS-2005>
-211.834564208984

> <b_mmod_Minimization_Converged-OPLS-2005>
0

> <r_mmod_RMS_Derivative-OPLS-2005>
3.38245701789856

$$$$
24
                    3D
 Structure written by MMmdl.
167175  0  0  1  0            999 V2000
  -30.6824  -14.4618   20.5756 C   0  0  0  0  0  0
  -30.4270  -12.2960   19.4158 C   0  0  0  0  0  0
  -29.4954  -12.4932   18.2001 C   0  0  0  0  0  0
  -28.0166  -12.3509   18.6166 C   0  0  0  0  0  0
  -27.6611  -13.1963   19.8702 C   0  0  2  0  0  0
  -28.7010  -12.9537   20.9873 C   0  0  0  0  0  0
  -25.2586  -13.8156   20.5658 C   0  0  0  0  0  0
  -24.1833  -13.0436   20.9194 C   0  0  0  0  0  0
  -24.6384  -11.6897   20.8737 C   0  0  0  0  0  0
  -23.9071  -10.4287   21.0414 C   0  0  0  0  0  0
  -24.3623   -9.4199   21.9188 C   0  0  0  0  0  0
  -23.6286   -8.2236   22.0757 C   0  0  0  0  0  0
  -22.4264   -8.0290   21.3552 C   0  0  0  0  0  0
  -21.9921   -9.0265   20.4648 C   0  0  0  0  0  0
  -22.7257  -10.2132   20.3056 C   0  0  0  0  0  0
  -21.6840   -6.0750   22.5289 C   0  0  0  0  0  0
  -21.4008   -6.5654   23.8231 C   0  0  0  0  0  0
  -21.3660   -5.6796   24.9190 C   0  0  0  0  0  0
  -21.6048   -4.3065   24.7230 C   0  0  0  0  0  0
  -21.8815   -3.8156   23.4355 C   0  0  0  0  0  0
  -21.9192   -4.6980   22.3409 C   0  0  0  0  0  0
  -22.7863  -13.5236   21.1870 C   0  0  0  0  0  0
  -22.1648   -4.2174   21.0984 F   0  0  0  0  0  0
  -21.5641   -3.4537   25.7746 F   0  0  0  0  0  0
  -30.0331  -13.2732   20.4427 N   0  0  0  0  0  0
  -26.3001  -12.9291   20.3305 N   0  0  0  0  0  0
  -25.9294  -11.6472   20.5739 N   0  0  0  0  0  0
  -22.0498  -12.8193   22.0415 N   0  0  0  0  0  0
  -25.4324  -15.1859   20.4095 N   0  0  0  0  0  0
  -31.8057  -14.6570   20.0970 O   0  0  0  0  0  0
  -21.6626   -6.8887   21.4241 O   0  0  0  0  0  0
  -22.3557  -14.5559   20.6766 O   0  0  0  0  0  0
  -24.6141  -31.8695   23.2067 C   0  0  0  0  0  0
  -25.9045  -32.4834   23.8333 C   0  0  1  0  0  0
  -27.2467  -27.4402   20.0939 C   0  0  0  0  0  0
  -25.5918  -33.8619   24.2307 N   0  0  0  0  0  0
  -23.4020  -30.4885   21.5475 C   0  0  2  0  0  0
  -24.8549  -28.9464   20.1272 C   0  0  0  0  0  0
  -22.7388  -29.4661   22.4975 C   0  0  0  0  0  0
  -18.0274  -28.1404   22.8460 C   0  0  0  0  0  0
  -24.1500  -36.7321   23.2604 C   0  0  0  0  0  0
  -25.9253  -30.8431   21.3473 C   0  0  0  0  0  0
  -26.0145  -29.4623   20.7238 C   0  0  0  0  0  0
  -27.2166  -28.7125   20.7203 C   0  0  0  0  0  0
  -26.0742  -26.9418   19.4946 C   0  0  0  0  0  0
  -24.8765  -27.6781   19.5210 C   0  0  0  0  0  0
  -23.6166  -29.8125   20.1664 C   0  0  0  0  0  0
  -25.4113  -36.3112   24.0300 C   0  0  1  0  0  0
  -20.5849  -28.3714   23.1300 C   0  0  2  0  0  0
  -20.6801  -26.9457   22.5421 C   0  0  0  0  0  0
  -19.5797  -26.6402   21.5202 C   0  0  0  0  0  0
  -18.1953  -26.7954   22.1596 C   0  0  0  0  0  0
  -19.1513  -28.8872   23.2874 C   0  0  0  0  0  0
  -18.9470  -30.1460   23.8905 C   0  0  0  0  0  0
  -17.6476  -30.6610   24.0560 C   0  0  0  0  0  0
  -25.9049  -34.9485   23.5100 C   0  0  0  0  0  0
  -16.5363  -29.9136   23.6285 C   0  0  0  0  0  0
  -16.7264  -28.6555   23.0307 C   0  0  0  0  0  0
  -26.4530  -31.6539   25.0593 C   0  0  0  0  0  0
  -25.3801  -31.3549   26.1322 C   0  0  0  0  0  0
  -27.0316  -30.2985   24.5813 C   0  0  0  0  0  0
  -27.6121  -32.4183   25.7438 C   0  0  0  0  0  0
  -27.5585  -37.1797   24.8449 C   0  0  0  0  0  0
  -21.4127  -29.3067   22.3707 N   0  0  0  0  0  0
  -26.4293  -37.3802   23.9402 N   0  0  0  0  0  0
  -24.6665  -31.0801   22.0964 N   0  0  0  0  0  0
  -23.4159  -28.8205   23.3027 O   0  0  0  0  0  0
  -28.3871  -26.6819   19.9472 O   0  0  0  0  0  0
  -26.5618  -34.8938   22.4670 O   0  0  0  0  0  0
  -23.5330  -32.1438   23.7446 O   0  0  0  0  0  0
  -31.1526  -18.8735   20.8981 C   0  0  0  0  0  0
  -29.8484  -19.3089   21.0201 C   0  0  0  0  0  0
  -30.1100  -16.8463   21.1019 C   0  0  0  0  0  0
  -33.1863  -19.3623   19.4704 C   0  0  0  0  0  0
  -33.2375  -19.8459   21.9874 C   0  0  0  0  0  0
  -27.0849  -21.0364   20.2383 C   0  0  0  0  0  0
  -28.6406  -25.0831   21.8200 C   0  0  0  0  0  0
  -28.2066  -22.5580   21.9810 C   0  0  0  0  0  0
  -29.1623  -26.3509   21.0964 C   0  0  0  0  0  0
  -32.3747  -19.7491   20.7177 C   0  0  0  0  0  0
  -28.1041  -21.1241   21.3855 C   0  0  2  0  0  0
  -28.8191  -23.7073   21.1163 C   0  0  2  0  0  0
  -31.2879  -17.4739   20.9724 N   0  0  0  0  0  0
  -29.4223  -20.6478   20.9825 N   0  0  0  0  0  0
  -29.9490  -15.4310   21.1561 N   0  0  0  0  0  0
  -30.2063  -23.4696   20.9073 O   0  0  0  0  0  0
  -28.7480  -17.9587   21.2340 S   0  0  0  0  0  0
  -31.4733  -12.3916   19.1197 H   0  0  0  0  0  0
  -30.3269  -11.2836   19.8102 H   0  0  0  0  0  0
  -29.7332  -11.7644   17.4231 H   0  0  0  0  0  0
  -29.6617  -13.4764   17.7547 H   0  0  0  0  0  0
  -27.8334  -11.2953   18.8205 H   0  0  0  0  0  0
  -27.3632  -12.6091   17.7836 H   0  0  0  0  0  0
  -27.7097  -14.2456   19.5783 H   0  0  0  0  0  0
  -28.6770  -11.9054   21.2895 H   0  0  0  0  0  0
  -28.4554  -13.5123   21.8923 H   0  0  0  0  0  0
  -25.2776   -9.5671   22.4756 H   0  0  0  0  0  0
  -24.0015   -7.4620   22.7457 H   0  0  0  0  0  0
  -21.0873   -8.8794   19.8920 H   0  0  0  0  0  0
  -22.3750  -10.9680   19.6159 H   0  0  0  0  0  0
  -21.1980   -7.6158   23.9749 H   0  0  0  0  0  0
  -21.1486   -6.0520   25.9103 H   0  0  0  0  0  0
  -22.0590   -2.7619   23.2847 H   0  0  0  0  0  0
  -22.4102  -11.9820   22.4748 H   0  0  0  0  0  0
  -21.1122  -13.1203   22.2642 H   0  0  0  0  0  0
  -24.6680  -15.8420   20.5352 H   0  0  0  0  0  0
  -26.2824  -15.6276   20.0820 H   0  0  0  0  0  0
  -26.7118  -32.5628   23.1109 H   0  0  0  0  0  0
  -25.0054  -33.9770   25.0436 H   0  0  0  0  0  0
  -22.6887  -31.3031   21.3967 H   0  0  0  0  0  0
  -23.3763  -35.9661   23.3261 H   0  0  0  0  0  0
  -24.3561  -36.8963   22.2018 H   0  0  0  0  0  0
  -23.7279  -37.6511   23.6668 H   0  0  0  0  0  0
  -25.9721  -31.5834   20.5461 H   0  0  0  0  0  0
  -26.8337  -30.9489   21.9294 H   0  0  0  0  0  0
  -28.1166  -29.1172   21.1648 H   0  0  0  0  0  0
  -26.0930  -25.9759   19.0066 H   0  0  0  0  0  0
  -23.9869  -27.2702   19.0584 H   0  0  0  0  0  0
  -23.7323  -30.5838   19.4041 H   0  0  0  0  0  0
  -22.7470  -29.2269   19.8642 H   0  0  0  0  0  0
  -25.1283  -36.1950   25.0790 H   0  0  0  0  0  0
  -20.9897  -28.3350   24.1427 H   0  0  0  0  0  0
  -20.5756  -26.2317   23.3617 H   0  0  0  0  0  0
  -21.6664  -26.7574   22.1153 H   0  0  0  0  0  0
  -19.6987  -25.6303   21.1252 H   0  0  0  0  0  0
  -19.6744  -27.3205   20.6729 H   0  0  0  0  0  0
  -17.4203  -26.6646   21.4022 H   0  0  0  0  0  0
  -18.0377  -26.0125   22.9025 H   0  0  0  0  0  0
  -19.7965  -30.7245   24.2289 H   0  0  0  0  0  0
  -17.5063  -31.6274   24.5212 H   0  0  0  0  0  0
  -15.5379  -30.3072   23.7603 H   0  0  0  0  0  0
  -15.8653  -28.0906   22.6999 H   0  0  0  0  0  0
  -24.6107  -30.6756   25.7630 H   0  0  0  0  0  0
  -24.8836  -32.2650   26.4685 H   0  0  0  0  0  0
  -25.8154  -30.8807   27.0120 H   0  0  0  0  0  0
  -26.2738  -29.6717   24.1083 H   0  0  0  0  0  0
  -27.4378  -29.7209   25.4132 H   0  0  0  0  0  0
  -27.8455  -30.4292   23.8668 H   0  0  0  0  0  0
  -27.2773  -33.3507   26.1977 H   0  0  0  0  0  0
  -28.4036  -32.6631   25.0347 H   0  0  0  0  0  0
  -28.0667  -31.8275   26.5405 H   0  0  0  0  0  0
  -28.2539  -38.0161   24.7546 H   0  0  0  0  0  0
  -28.1147  -36.2662   24.6231 H   0  0  0  0  0  0
  -27.2268  -37.1373   25.8844 H   0  0  0  0  0  0
  -20.9308  -29.8728   21.6872 H   0  0  0  0  0  0
  -26.0176  -38.2844   24.1528 H   0  0  0  0  0  0
  -32.5644  -19.4340   18.5775 H   0  0  0  0  0  0
  -33.5609  -18.3409   19.5340 H   0  0  0  0  0  0
  -34.0447  -20.0214   19.3303 H   0  0  0  0  0  0
  -32.6456  -20.2224   22.8224 H   0  0  0  0  0  0
  -34.0691  -20.5389   21.8487 H   0  0  0  0  0  0
  -33.6569  -18.8825   22.2733 H   0  0  0  0  0  0
  -26.1034  -21.3814   20.5686 H   0  0  0  0  0  0
  -26.9605  -20.0116   19.8842 H   0  0  0  0  0  0
  -27.3711  -21.6499   19.3835 H   0  0  0  0  0  0
  -27.5829  -25.2311   22.0284 H   0  0  0  0  0  0
  -29.1288  -25.0387   22.7949 H   0  0  0  0  0  0
  -28.7438  -22.4988   22.9303 H   0  0  0  0  0  0
  -27.1972  -22.8657   22.2587 H   0  0  0  0  0  0
  -30.1910  -26.1893   20.7795 H   0  0  0  0  0  0
  -29.2061  -27.1884   21.7921 H   0  0  0  0  0  0
  -32.0313  -20.7659   20.5285 H   0  0  0  0  0  0
  -27.7345  -20.4834   22.1911 H   0  0  0  0  0  0
  -28.3254  -23.7322   20.1421 H   0  0  0  0  0  0
  -30.0988  -21.4027   20.8610 H   0  0  0  0  0  0
  -29.0420  -15.1188   21.4670 H   0  0  0  0  0  0
  -30.6510  -23.5396   21.7474 H   0  0  0  0  0  0
  1 25  1  0  0  0
  1 30  2  0  0  0
  1 85  1  0  0  0
  2  3  1  0  0  0
  2 25  1  0  0  0
  2 88  1  0  0  0
  2 89  1  0  0  0
  3  4  1  0  0  0
  3 90  1  0  0  0
  3 91  1  0  0  0
  4  5  1  0  0  0
  4 92  1  0  0  0
  4 93  1  0  0  0
  5  6  1  0  0  0
  5 26  1  0  0  0
  5 94  1  0  0  0
  6 25  1  0  0  0
  6 95  1  0  0  0
  6 96  1  0  0  0
  7  8  2  0  0  0
  7 26  1  0  0  0
  7 29  1  0  0  0
  8  9  1  0  0  0
  8 22  1  0  0  0
  9 10  1  0  0  0
  9 27  2  0  0  0
 10 11  2  0  0  0
 10 15  1  0  0  0
 11 12  1  0  0  0
 11 97  1  0  0  0
 12 13  2  0  0  0
 12 98  1  0  0  0
 13 14  1  0  0  0
 13 31  1  0  0  0
 14 15  2  0  0  0
 14 99  1  0  0  0
 15100  1  0  0  0
 16 17  2  0  0  0
 16 21  1  0  0  0
 16 31  1  0  0  0
 17 18  1  0  0  0
 17101  1  0  0  0
 18 19  2  0  0  0
 18102  1  0  0  0
 19 20  1  0  0  0
 19 24  1  0  0  0
 20 21  2  0  0  0
 20103  1  0  0  0
 21 23  1  0  0  0
 22 28  1  0  0  0
 22 32  2  0  0  0
 26 27  1  0  0  0
 28104  1  0  0  0
 28105  1  0  0  0
 29106  1  0  0  0
 29107  1  0  0  0
 33 34  1  0  0  0
 33 66  1  0  0  0
 33 70  2  0  0  0
 34 36  1  0  0  0
 34 59  1  0  0  0
 34108  1  0  0  0
 35 44  2  0  0  0
 35 45  1  0  0  0
 35 68  1  0  0  0
 36 56  1  0  0  0
 36109  1  0  0  0
 37 39  1  0  0  0
 37 47  1  0  0  0
 37 66  1  0  0  0
 37110  1  0  0  0
 38 43  2  0  0  0
 38 46  1  0  0  0
 38 47  1  0  0  0
 39 64  1  0  0  0
 39 67  2  0  0  0
 40 52  1  0  0  0
 40 53  2  0  0  0
 40 58  1  0  0  0
 41111  1  0  0  0
 41112  1  0  0  0
 41113  1  0  0  0
 41 48  1  0  0  0
 42 43  1  0  0  0
 42 66  1  0  0  0
 42114  1  0  0  0
 42115  1  0  0  0
 43 44  1  0  0  0
 44116  1  0  0  0
 45 46  2  0  0  0
 45117  1  0  0  0
 46118  1  0  0  0
 47119  1  0  0  0
 47120  1  0  0  0
 48 56  1  0  0  0
 48 65  1  0  0  0
 48121  1  0  0  0
 49 50  1  0  0  0
 49 53  1  0  0  0
 49 64  1  0  0  0
 49122  1  0  0  0
 50 51  1  0  0  0
 50123  1  0  0  0
 50124  1  0  0  0
 51 52  1  0  0  0
 51125  1  0  0  0
 51126  1  0  0  0
 52127  1  0  0  0
 52128  1  0  0  0
 53 54  1  0  0  0
 54 55  2  0  0  0
 54129  1  0  0  0
 55 57  1  0  0  0
 55130  1  0  0  0
 56 69  2  0  0  0
 57 58  2  0  0  0
 57131  1  0  0  0
 58132  1  0  0  0
 59 60  1  0  0  0
 59 61  1  0  0  0
 59 62  1  0  0  0
 60133  1  0  0  0
 60134  1  0  0  0
 60135  1  0  0  0
 61136  1  0  0  0
 61137  1  0  0  0
 61138  1  0  0  0
 62139  1  0  0  0
 62140  1  0  0  0
 62141  1  0  0  0
 63 65  1  0  0  0
 63142  1  0  0  0
 63143  1  0  0  0
 63144  1  0  0  0
 64145  1  0  0  0
 65146  1  0  0  0
 68 79  1  0  0  0
 71 72  2  0  0  0
 71 80  1  0  0  0
 71 83  1  0  0  0
 72 84  1  0  0  0
 72 87  1  0  0  0
 73 83  2  0  0  0
 73 85  1  0  0  0
 73 87  1  0  0  0
 74147  1  0  0  0
 74148  1  0  0  0
 74149  1  0  0  0
 74 80  1  0  0  0
 75 80  1  0  0  0
 75150  1  0  0  0
 75151  1  0  0  0
 75152  1  0  0  0
 76153  1  0  0  0
 76154  1  0  0  0
 76155  1  0  0  0
 76 81  1  0  0  0
 77 79  1  0  0  0
 77 82  1  0  0  0
 77156  1  0  0  0
 77157  1  0  0  0
 78 81  1  0  0  0
 78 82  1  0  0  0
 78158  1  0  0  0
 78159  1  0  0  0
 79160  1  0  0  0
 79161  1  0  0  0
 80162  1  0  0  0
 81 84  1  0  0  0
 81163  1  0  0  0
 82 86  1  0  0  0
 82164  1  0  0  0
 84165  1  0  0  0
 85166  1  0  0  0
 86167  1  0  0  0
M  ISO  4   1 100  68 101  79 101  85 100
M  END
> <chiral flag>
0

> <version>
0

> <s_m_source_file>
/data/baiqing/PycharmProjects/Reinvent-master-3.2/result/LINK_invent/BTK/process_docking_weight1_custom_product_contain_oxygen_bond_distance_aromatic_linkinvent_7_9_3/rearranged_h_0192.sdf

> <i_m_source_file_index>
25

> <r_mmod_Potential_Energy-OPLS-2005>
-43.9233551025391

> <r_mmod_Stretch_Energy-OPLS-2005>
37.8582305908203

> <r_mmod_Bend_Energy-OPLS-2005>
125.043312072754

> <r_mmod_Torsional_Energy-OPLS-2005>
211.701690673828

> <r_mmod_Improper_Torsional_Energy-OPLS-2005>
4.41692352294922

> <r_mmod_Van_der_Waal_Energy-OPLS-2005>
120.158714294434

> <r_mmod_Electrostatic_Energy-OPLS-2005>
-321.995758056641

> <r_mmod_Solvation_Energy-OPLS-2005>
-232.140991210938

> <b_mmod_Minimization_Converged-OPLS-2005>
0

> <r_mmod_RMS_Derivative-OPLS-2005>
4.79004669189453

$$$$
25
                    3D
 Structure written by MMmdl.
157165  0  0  1  0            999 V2000
  -30.7189  -14.4545   20.6196 C   0  0  0  0  0  0
  -30.4229  -12.3150   19.4206 C   0  0  0  0  0  0
  -29.4934  -12.5069   18.2056 C   0  0  0  0  0  0
  -28.0157  -12.3660   18.6198 C   0  0  0  0  0  0
  -27.6620  -13.2054   19.8760 C   0  0  2  0  0  0
  -28.7007  -12.9840   20.9974 C   0  0  0  0  0  0
  -25.2583  -13.8169   20.5667 C   0  0  0  0  0  0
  -24.1830  -13.0442   20.9171 C   0  0  0  0  0  0
  -24.6380  -11.6909   20.8721 C   0  0  0  0  0  0
  -23.9050  -10.4297   21.0394 C   0  0  0  0  0  0
  -24.3605   -9.4210   21.9173 C   0  0  0  0  0  0
  -23.6286   -8.2243   22.0748 C   0  0  0  0  0  0
  -22.4267   -8.0290   21.3548 C   0  0  0  0  0  0
  -21.9901   -9.0255   20.4643 C   0  0  0  0  0  0
  -22.7221  -10.2135   20.3049 C   0  0  0  0  0  0
  -21.6853   -6.0739   22.5282 C   0  0  0  0  0  0
  -21.4006   -6.5643   23.8212 C   0  0  0  0  0  0
  -21.3655   -5.6794   24.9171 C   0  0  0  0  0  0
  -21.6043   -4.3058   24.7219 C   0  0  0  0  0  0
  -21.8819   -3.8149   23.4339 C   0  0  0  0  0  0
  -21.9188   -4.6966   22.3396 C   0  0  0  0  0  0
  -22.7853  -13.5238   21.1842 C   0  0  0  0  0  0
  -22.1655   -4.2148   21.0974 F   0  0  0  0  0  0
  -21.5636   -3.4541   25.7728 F   0  0  0  0  0  0
  -30.0328  -13.2923   20.4486 N   0  0  0  0  0  0
  -26.3017  -12.9329   20.3360 N   0  0  0  0  0  0
  -25.9304  -11.6490   20.5753 N   0  0  0  0  0  0
  -22.0493  -12.8242   22.0411 N   0  0  0  0  0  0
  -25.4326  -15.1886   20.4073 N   0  0  0  0  0  0
  -31.8058  -14.6779   20.0784 O   0  0  0  0  0  0
  -21.6638   -6.8884   21.4247 O   0  0  0  0  0  0
  -22.3539  -14.5539   20.6682 O   0  0  0  0  0  0
  -24.6154  -31.8667   23.2083 C   0  0  0  0  0  0
  -25.9045  -32.4815   23.8380 C   0  0  1  0  0  0
  -27.2297  -27.4252   20.1032 C   0  0  0  0  0  0
  -25.5895  -33.8615   24.2307 N   0  0  0  0  0  0
  -23.4039  -30.4904   21.5485 C   0  0  2  0  0  0
  -24.8500  -28.9532   20.1136 C   0  0  0  0  0  0
  -22.7415  -29.4660   22.4976 C   0  0  0  0  0  0
  -18.0274  -28.1386   22.8498 C   0  0  0  0  0  0
  -24.1485  -36.7307   23.2642 C   0  0  0  0  0  0
  -25.9341  -30.8298   21.3626 C   0  0  0  0  0  0
  -26.0109  -29.4644   20.7079 C   0  0  0  0  0  0
  -27.2074  -28.7100   20.6946 C   0  0  0  0  0  0
  -26.0542  -26.9267   19.5051 C   0  0  0  0  0  0
  -24.8668  -27.6850   19.5062 C   0  0  0  0  0  0
  -23.6122  -29.8212   20.1634 C   0  0  0  0  0  0
  -25.4109  -36.3108   24.0340 C   0  0  1  0  0  0
  -20.5869  -28.3670   23.1313 C   0  0  2  0  0  0
  -20.6767  -26.9403   22.5414 C   0  0  0  0  0  0
  -19.5745  -26.6393   21.5215 C   0  0  0  0  0  0
  -18.1923  -26.7933   22.1624 C   0  0  0  0  0  0
  -19.1529  -28.8842   23.2905 C   0  0  0  0  0  0
  -18.9456  -30.1454   23.8909 C   0  0  0  0  0  0
  -17.6461  -30.6591   24.0574 C   0  0  0  0  0  0
  -25.9039  -34.9475   23.5122 C   0  0  0  0  0  0
  -16.5348  -29.9100   23.6331 C   0  0  0  0  0  0
  -16.7265  -28.6518   23.0344 C   0  0  0  0  0  0
  -26.4467  -31.6600   25.0713 C   0  0  0  0  0  0
  -25.3741  -31.3718   26.1467 C   0  0  0  0  0  0
  -27.0299  -30.3042   24.6098 C   0  0  0  0  0  0
  -27.6039  -32.4329   25.7474 C   0  0  0  0  0  0
  -27.5585  -37.1799   24.8465 C   0  0  0  0  0  0
  -21.4141  -29.3039   22.3718 N   0  0  0  0  0  0
  -26.4291  -37.3797   23.9419 N   0  0  0  0  0  0
  -24.6693  -31.0768   22.0978 N   0  0  0  0  0  0
  -23.4182  -28.8199   23.3015 O   0  0  0  0  0  0
  -28.3848  -26.6724   20.0886 O   0  0  0  0  0  0
  -26.5607  -34.8934   22.4687 O   0  0  0  0  0  0
  -23.5343  -32.1410   23.7480 O   0  0  0  0  0  0
  -29.0360  -19.9008   21.5084 C   0  0  0  0  0  0
  -30.2447  -17.9424   21.2074 C   0  0  0  0  0  0
  -29.6139  -20.4864   20.3431 C   0  0  0  0  0  0
  -30.7834  -18.4903   20.0120 C   0  0  0  0  0  0
  -28.5557  -22.7933   20.4453 C   0  0  0  0  0  0
  -29.3141  -25.5248   21.9421 C   0  0  0  0  0  0
  -30.7470  -16.6347   21.8414 C   0  0  0  0  0  0
  -28.6506  -24.2103   19.8207 C   0  0  0  0  0  0
  -28.3247  -25.4032   20.7728 C   0  0  2  0  0  0
  -29.3442  -18.6467   21.9353 N   0  0  0  0  0  0
  -30.4674  -19.7384   19.5914 N   0  0  0  0  0  0
  -31.6958  -17.8071   19.2170 N   0  0  0  0  0  0
  -29.3850  -21.8468   19.9501 N   0  0  0  0  0  0
  -30.1245  -15.3828   21.3854 N   0  0  0  0  0  0
  -27.7233  -22.5758   21.3279 O   0  0  0  0  0  0
  -31.4661  -12.4186   19.1185 H   0  0  0  0  0  0
  -30.3328  -11.3038   19.8199 H   0  0  0  0  0  0
  -29.7351  -11.7776   17.4313 H   0  0  0  0  0  0
  -29.6605  -13.4893   17.7637 H   0  0  0  0  0  0
  -27.8294  -11.3093   18.8179 H   0  0  0  0  0  0
  -27.3637  -12.6391   17.7896 H   0  0  0  0  0  0
  -27.7085  -14.2542   19.5807 H   0  0  0  0  0  0
  -28.6792  -11.9468   21.3349 H   0  0  0  0  0  0
  -28.4500  -13.5775   21.8769 H   0  0  0  0  0  0
  -25.2745   -9.5689   22.4745 H   0  0  0  0  0  0
  -23.9997   -7.4636   22.7461 H   0  0  0  0  0  0
  -21.0838   -8.8768   19.8940 H   0  0  0  0  0  0
  -22.3683  -10.9674   19.6158 H   0  0  0  0  0  0
  -21.2000   -7.6152   23.9716 H   0  0  0  0  0  0
  -21.1480   -6.0522   25.9076 H   0  0  0  0  0  0
  -22.0603   -2.7612   23.2834 H   0  0  0  0  0  0
  -22.4091  -11.9905   22.4814 H   0  0  0  0  0  0
  -21.1104  -13.1259   22.2595 H   0  0  0  0  0  0
  -24.6708  -15.8485   20.5208 H   0  0  0  0  0  0
  -26.2904  -15.6258   20.0931 H   0  0  0  0  0  0
  -26.7109  -32.5513   23.1141 H   0  0  0  0  0  0
  -25.0068  -33.9779   25.0468 H   0  0  0  0  0  0
  -22.6939  -31.3083   21.4085 H   0  0  0  0  0  0
  -23.3750  -35.9637   23.3325 H   0  0  0  0  0  0
  -24.3581  -36.8893   22.2051 H   0  0  0  0  0  0
  -23.7234  -37.6519   23.6636 H   0  0  0  0  0  0
  -26.0515  -31.5963   20.5957 H   0  0  0  0  0  0
  -26.8216  -30.8791   21.9821 H   0  0  0  0  0  0
  -28.1061  -29.1013   21.1503 H   0  0  0  0  0  0
  -26.0555  -25.9519   19.0372 H   0  0  0  0  0  0
  -23.9747  -27.2875   19.0414 H   0  0  0  0  0  0
  -23.7208  -30.5959   19.4039 H   0  0  0  0  0  0
  -22.7356  -29.2423   19.8665 H   0  0  0  0  0  0
  -25.1283  -36.1967   25.0832 H   0  0  0  0  0  0
  -20.9967  -28.3227   24.1430 H   0  0  0  0  0  0
  -20.5677  -26.2269   23.3600 H   0  0  0  0  0  0
  -21.6635  -26.7451   22.1195 H   0  0  0  0  0  0
  -19.6908  -25.6313   21.1223 H   0  0  0  0  0  0
  -19.6683  -27.3228   20.6765 H   0  0  0  0  0  0
  -17.4191  -26.6692   21.4023 H   0  0  0  0  0  0
  -18.0318  -26.0081   22.9019 H   0  0  0  0  0  0
  -19.7934  -30.7274   24.2267 H   0  0  0  0  0  0
  -17.5018  -31.6269   24.5183 H   0  0  0  0  0  0
  -15.5353  -30.3006   23.7659 H   0  0  0  0  0  0
  -15.8664  -28.0855   22.7033 H   0  0  0  0  0  0
  -24.5900  -30.7080   25.7809 H   0  0  0  0  0  0
  -24.8959  -32.2881   26.4934 H   0  0  0  0  0  0
  -25.8100  -30.8870   27.0211 H   0  0  0  0  0  0
  -26.2841  -29.6809   24.1147 H   0  0  0  0  0  0
  -27.4064  -29.7271   25.4553 H   0  0  0  0  0  0
  -27.8679  -30.4366   23.9254 H   0  0  0  0  0  0
  -27.2640  -33.3603   26.2098 H   0  0  0  0  0  0
  -28.3816  -32.6936   25.0282 H   0  0  0  0  0  0
  -28.0750  -31.8438   26.5351 H   0  0  0  0  0  0
  -28.2589  -38.0113   24.7538 H   0  0  0  0  0  0
  -28.1089  -36.2643   24.6246 H   0  0  0  0  0  0
  -27.2308  -37.1394   25.8869 H   0  0  0  0  0  0
  -20.9296  -29.8751   21.6938 H   0  0  0  0  0  0
  -26.0178  -38.2868   24.1447 H   0  0  0  0  0  0
  -28.3526  -20.4309   22.1512 H   0  0  0  0  0  0
  -29.3138  -24.6318   22.5672 H   0  0  0  0  0  0
  -29.0544  -26.3700   22.5802 H   0  0  0  0  0  0
  -30.3324  -25.6777   21.5841 H   0  0  0  0  0  0
  -30.5949  -16.6932   22.9199 H   0  0  0  0  0  0
  -31.8309  -16.5945   21.7235 H   0  0  0  0  0  0
  -27.9587  -24.2369   18.9791 H   0  0  0  0  0  0
  -29.6458  -24.3503   19.3985 H   0  0  0  0  0  0
  -27.3323  -25.2440   21.1999 H   0  0  0  0  0  0
  -31.9124  -18.1455   18.2864 H   0  0  0  0  0  0
  -31.8438  -16.8101   19.3576 H   0  0  0  0  0  0
  -29.9676  -22.1583   19.1874 H   0  0  0  0  0  0
  -29.2200  -15.1553   21.7692 H   0  0  0  0  0  0
  1 25  1  0  0  0
  1 30  2  0  0  0
  1 84  1  0  0  0
  2  3  1  0  0  0
  2 25  1  0  0  0
  2 86  1  0  0  0
  2 87  1  0  0  0
  3  4  1  0  0  0
  3 88  1  0  0  0
  3 89  1  0  0  0
  4  5  1  0  0  0
  4 90  1  0  0  0
  4 91  1  0  0  0
  5  6  1  0  0  0
  5 26  1  0  0  0
  5 92  1  0  0  0
  6 25  1  0  0  0
  6 93  1  0  0  0
  6 94  1  0  0  0
  7  8  2  0  0  0
  7 26  1  0  0  0
  7 29  1  0  0  0
  8  9  1  0  0  0
  8 22  1  0  0  0
  9 10  1  0  0  0
  9 27  2  0  0  0
 10 11  2  0  0  0
 10 15  1  0  0  0
 11 12  1  0  0  0
 11 95  1  0  0  0
 12 13  2  0  0  0
 12 96  1  0  0  0
 13 14  1  0  0  0
 13 31  1  0  0  0
 14 15  2  0  0  0
 14 97  1  0  0  0
 15 98  1  0  0  0
 16 17  2  0  0  0
 16 21  1  0  0  0
 16 31  1  0  0  0
 17 18  1  0  0  0
 17 99  1  0  0  0
 18 19  2  0  0  0
 18100  1  0  0  0
 19 20  1  0  0  0
 19 24  1  0  0  0
 20 21  2  0  0  0
 20101  1  0  0  0
 21 23  1  0  0  0
 22 28  1  0  0  0
 22 32  2  0  0  0
 26 27  1  0  0  0
 28102  1  0  0  0
 28103  1  0  0  0
 29104  1  0  0  0
 29105  1  0  0  0
 33 34  1  0  0  0
 33 66  1  0  0  0
 33 70  2  0  0  0
 34 36  1  0  0  0
 34 59  1  0  0  0
 34106  1  0  0  0
 35 44  2  0  0  0
 35 45  1  0  0  0
 35 68  1  0  0  0
 36 56  1  0  0  0
 36107  1  0  0  0
 37 39  1  0  0  0
 37 47  1  0  0  0
 37 66  1  0  0  0
 37108  1  0  0  0
 38 43  2  0  0  0
 38 46  1  0  0  0
 38 47  1  0  0  0
 39 64  1  0  0  0
 39 67  2  0  0  0
 40 52  1  0  0  0
 40 53  2  0  0  0
 40 58  1  0  0  0
 41109  1  0  0  0
 41110  1  0  0  0
 41111  1  0  0  0
 41 48  1  0  0  0
 42 43  1  0  0  0
 42 66  1  0  0  0
 42112  1  0  0  0
 42113  1  0  0  0
 43 44  1  0  0  0
 44114  1  0  0  0
 45 46  2  0  0  0
 45115  1  0  0  0
 46116  1  0  0  0
 47117  1  0  0  0
 47118  1  0  0  0
 48 56  1  0  0  0
 48 65  1  0  0  0
 48119  1  0  0  0
 49 50  1  0  0  0
 49 53  1  0  0  0
 49 64  1  0  0  0
 49120  1  0  0  0
 50 51  1  0  0  0
 50121  1  0  0  0
 50122  1  0  0  0
 51 52  1  0  0  0
 51123  1  0  0  0
 51124  1  0  0  0
 52125  1  0  0  0
 52126  1  0  0  0
 53 54  1  0  0  0
 54 55  2  0  0  0
 54127  1  0  0  0
 55 57  1  0  0  0
 55128  1  0  0  0
 56 69  2  0  0  0
 57 58  2  0  0  0
 57129  1  0  0  0
 58130  1  0  0  0
 59 60  1  0  0  0
 59 61  1  0  0  0
 59 62  1  0  0  0
 60131  1  0  0  0
 60132  1  0  0  0
 60133  1  0  0  0
 61134  1  0  0  0
 61135  1  0  0  0
 61136  1  0  0  0
 62137  1  0  0  0
 62138  1  0  0  0
 62139  1  0  0  0
 63 65  1  0  0  0
 63140  1  0  0  0
 63141  1  0  0  0
 63142  1  0  0  0
 64143  1  0  0  0
 65144  1  0  0  0
 68 79  1  0  0  0
 71 73  2  0  0  0
 71 80  1  0  0  0
 71145  1  0  0  0
 72 74  1  0  0  0
 72 77  1  0  0  0
 72 80  2  0  0  0
 73 81  1  0  0  0
 73 83  1  0  0  0
 74 81  2  0  0  0
 74 82  1  0  0  0
 75 78  1  0  0  0
 75 83  1  0  0  0
 75 85  2  0  0  0
 76146  1  0  0  0
 76147  1  0  0  0
 76148  1  0  0  0
 76 79  1  0  0  0
 77 84  1  0  0  0
 77149  1  0  0  0
 77150  1  0  0  0
 78 79  1  0  0  0
 78151  1  0  0  0
 78152  1  0  0  0
 79153  1  0  0  0
 82154  1  0  0  0
 82155  1  0  0  0
 83156  1  0  0  0
 84157  1  0  0  0
M  ISO  4   1 100  68 101  79 101  84 100
M  END
> <chiral flag>
0

> <version>
0

> <s_m_source_file>
/data/baiqing/PycharmProjects/Reinvent-master-3.2/result/LINK_invent/BTK/process_docking_weight1_custom_product_contain_oxygen_bond_distance_aromatic_linkinvent_7_9_3/rearranged_h_0192.sdf

> <i_m_source_file_index>
26

> <r_mmod_Potential_Energy-OPLS-2005>
-157.093597412109

> <r_mmod_Stretch_Energy-OPLS-2005>
42.5586624145508

> <r_mmod_Bend_Energy-OPLS-2005>
115.335052490234

> <r_mmod_Torsional_Energy-OPLS-2005>
216.883819580078

> <r_mmod_Improper_Torsional_Energy-OPLS-2005>
4.34473848342896

> <r_mmod_Van_der_Waal_Energy-OPLS-2005>
156.55256652832

> <r_mmod_Electrostatic_Energy-OPLS-2005>
-472.56298828125

> <r_mmod_Solvation_Energy-OPLS-2005>
-231.646911621094

> <b_mmod_Minimization_Converged-OPLS-2005>
0

> <r_mmod_RMS_Derivative-OPLS-2005>
1.61807179450989

$$$$
26
                    3D
 Structure written by MMmdl.
156164  0  0  1  0            999 V2000
  -30.7328  -14.4923   20.5707 C   0  0  0  0  0  0
  -30.4096  -12.3162   19.4463 C   0  0  0  0  0  0
  -29.4951  -12.4945   18.2182 C   0  0  0  0  0  0
  -28.0168  -12.3546   18.6267 C   0  0  0  0  0  0
  -27.6542  -13.2166   19.8661 C   0  0  2  0  0  0
  -28.6938  -13.0437   20.9982 C   0  0  0  0  0  0
  -25.2544  -13.8181   20.5679 C   0  0  0  0  0  0
  -24.1823  -13.0444   20.9188 C   0  0  0  0  0  0
  -24.6393  -11.6915   20.8745 C   0  0  0  0  0  0
  -23.9077  -10.4297   21.0415 C   0  0  0  0  0  0
  -24.3631   -9.4211   21.9191 C   0  0  0  0  0  0
  -23.6301   -8.2251   22.0758 C   0  0  0  0  0  0
  -22.4281   -8.0291   21.3548 C   0  0  0  0  0  0
  -21.9929   -9.0265   20.4643 C   0  0  0  0  0  0
  -22.7259  -10.2141   20.3051 C   0  0  0  0  0  0
  -21.6846   -6.0754   22.5287 C   0  0  0  0  0  0
  -21.4008   -6.5650   23.8224 C   0  0  0  0  0  0
  -21.3658   -5.6795   24.9185 C   0  0  0  0  0  0
  -21.6038   -4.3056   24.7225 C   0  0  0  0  0  0
  -21.8819   -3.8159   23.4343 C   0  0  0  0  0  0
  -21.9188   -4.6986   22.3401 C   0  0  0  0  0  0
  -22.7840  -13.5232   21.1855 C   0  0  0  0  0  0
  -22.1656   -4.2171   21.0982 F   0  0  0  0  0  0
  -21.5630   -3.4540   25.7740 F   0  0  0  0  0  0
  -30.0257  -13.3324   20.4435 N   0  0  0  0  0  0
  -26.2986  -12.9372   20.3320 N   0  0  0  0  0  0
  -25.9314  -11.6523   20.5758 N   0  0  0  0  0  0
  -22.0481  -12.8225   22.0410 N   0  0  0  0  0  0
  -25.4252  -15.1914   20.4106 N   0  0  0  0  0  0
  -31.8622  -14.6041   20.0830 O   0  0  0  0  0  0
  -21.6627   -6.8907   21.4249 O   0  0  0  0  0  0
  -22.3532  -14.5541   20.6703 O   0  0  0  0  0  0
  -24.6171  -31.8720   23.2143 C   0  0  0  0  0  0
  -25.9052  -32.4854   23.8451 C   0  0  1  0  0  0
  -27.2221  -27.4183   20.0787 C   0  0  0  0  0  0
  -25.5899  -33.8649   24.2378 N   0  0  0  0  0  0
  -23.4056  -30.5004   21.5555 C   0  0  2  0  0  0
  -24.8470  -28.9716   20.1128 C   0  0  0  0  0  0
  -22.7420  -29.4706   22.4991 C   0  0  0  0  0  0
  -18.0287  -28.1364   22.8509 C   0  0  0  0  0  0
  -24.1482  -36.7315   23.2647 C   0  0  0  0  0  0
  -25.9402  -30.8259   21.3789 C   0  0  0  0  0  0
  -26.0121  -29.4635   20.7146 C   0  0  0  0  0  0
  -27.2010  -28.6930   20.6984 C   0  0  0  0  0  0
  -26.0369  -26.9637   19.4501 C   0  0  0  0  0  0
  -24.8543  -27.7187   19.4823 C   0  0  0  0  0  0
  -23.6140  -29.8433   20.1675 C   0  0  0  0  0  0
  -25.4105  -36.3131   24.0351 C   0  0  1  0  0  0
  -20.5883  -28.3680   23.1296 C   0  0  2  0  0  0
  -20.6777  -26.9416   22.5412 C   0  0  0  0  0  0
  -19.5752  -26.6387   21.5212 C   0  0  0  0  0  0
  -18.1924  -26.7923   22.1619 C   0  0  0  0  0  0
  -19.1542  -28.8831   23.2903 C   0  0  0  0  0  0
  -18.9471  -30.1429   23.8933 C   0  0  0  0  0  0
  -17.6479  -30.6582   24.0560 C   0  0  0  0  0  0
  -25.9040  -34.9498   23.5166 C   0  0  0  0  0  0
  -16.5369  -29.9093   23.6317 C   0  0  0  0  0  0
  -16.7280  -28.6486   23.0385 C   0  0  0  0  0  0
  -26.4453  -31.6632   25.0796 C   0  0  0  0  0  0
  -25.3687  -31.3717   26.1521 C   0  0  0  0  0  0
  -27.0301  -30.3078   24.6201 C   0  0  0  0  0  0
  -27.6045  -32.4354   25.7514 C   0  0  0  0  0  0
  -27.5588  -37.1813   24.8474 C   0  0  0  0  0  0
  -21.4154  -29.3058   22.3693 N   0  0  0  0  0  0
  -26.4303  -37.3815   23.9414 N   0  0  0  0  0  0
  -24.6718  -31.0799   22.1062 N   0  0  0  0  0  0
  -23.4183  -28.8259   23.3052 O   0  0  0  0  0  0
  -28.3740  -26.6464   20.1113 O   0  0  0  0  0  0
  -26.5613  -34.8925   22.4730 O   0  0  0  0  0  0
  -23.5348  -32.1507   23.7491 O   0  0  0  0  0  0
  -29.7205  -17.9959   21.0370 C   0  0  0  0  0  0
  -32.2906  -18.4090   21.6068 C   0  0  0  0  0  0
  -30.5890  -16.8946   21.2370 C   0  0  0  0  0  0
  -30.2577  -19.2970   21.1119 C   0  0  0  0  0  0
  -30.0609  -22.1247   22.6037 C   0  0  0  0  0  0
  -29.2577  -24.3462   20.5729 C   0  0  0  0  0  0
  -28.9555  -22.8276   20.3938 C   0  0  0  0  0  0
  -28.2254  -25.2340   19.8484 C   0  0  0  0  0  0
  -29.9152  -21.8237   21.0991 C   0  0  2  0  0  0
  -31.8752  -17.1482   21.5607 N   0  0  0  0  0  0
  -31.5542  -19.4883   21.3813 N   0  0  0  0  0  0
  -30.0818  -15.5565   21.1028 N   0  0  0  0  0  0
  -29.4578  -20.4364   20.8918 N   0  0  0  0  0  0
  -31.4589  -12.3793   19.1535 H   0  0  0  0  0  0
  -30.2876  -11.3181   19.8710 H   0  0  0  0  0  0
  -29.7424  -11.7549   17.4555 H   0  0  0  0  0  0
  -29.6642  -13.4719   17.7647 H   0  0  0  0  0  0
  -27.8357  -11.3014   18.8430 H   0  0  0  0  0  0
  -27.3676  -12.6040   17.7871 H   0  0  0  0  0  0
  -27.6842  -14.2565   19.5406 H   0  0  0  0  0  0
  -28.6700  -12.0198   21.3736 H   0  0  0  0  0  0
  -28.4521  -13.6777   21.8522 H   0  0  0  0  0  0
  -25.2779   -9.5673   22.4774 H   0  0  0  0  0  0
  -23.9995   -7.4637   22.7479 H   0  0  0  0  0  0
  -21.0865   -8.8796   19.8946 H   0  0  0  0  0  0
  -22.3738  -10.9686   19.6157 H   0  0  0  0  0  0
  -21.1999   -7.6158   23.9739 H   0  0  0  0  0  0
  -21.1477   -6.0524   25.9089 H   0  0  0  0  0  0
  -22.0601   -2.7625   23.2836 H   0  0  0  0  0  0
  -22.4076  -11.9863   22.4769 H   0  0  0  0  0  0
  -21.1105  -13.1268   22.2627 H   0  0  0  0  0  0
  -24.6552  -15.8444   20.5141 H   0  0  0  0  0  0
  -26.2732  -15.6331   20.0779 H   0  0  0  0  0  0
  -26.7130  -32.5555   23.1213 H   0  0  0  0  0  0
  -25.0014  -33.9821   25.0496 H   0  0  0  0  0  0
  -22.6967  -31.3193   21.4215 H   0  0  0  0  0  0
  -23.3767  -35.9631   23.3321 H   0  0  0  0  0  0
  -24.3568  -36.8912   22.2061 H   0  0  0  0  0  0
  -23.7201  -37.6505   23.6655 H   0  0  0  0  0  0
  -26.0709  -31.5988   20.6189 H   0  0  0  0  0  0
  -26.8192  -30.8669   22.0113 H   0  0  0  0  0  0
  -28.0967  -29.0644   21.1771 H   0  0  0  0  0  0
  -25.9961  -26.0246   18.9176 H   0  0  0  0  0  0
  -23.9596  -27.3387   19.0072 H   0  0  0  0  0  0
  -23.7277  -30.6270   19.4161 H   0  0  0  0  0  0
  -22.7346  -29.2702   19.8689 H   0  0  0  0  0  0
  -25.1266  -36.2030   25.0853 H   0  0  0  0  0  0
  -20.9988  -28.3270   24.1416 H   0  0  0  0  0  0
  -20.5676  -26.2309   23.3619 H   0  0  0  0  0  0
  -21.6646  -26.7457   22.1205 H   0  0  0  0  0  0
  -19.6918  -25.6297   21.1249 H   0  0  0  0  0  0
  -19.6677  -27.3185   20.6728 H   0  0  0  0  0  0
  -17.4206  -26.6704   21.4011 H   0  0  0  0  0  0
  -18.0292  -26.0034   22.8977 H   0  0  0  0  0  0
  -19.7955  -30.7199   24.2364 H   0  0  0  0  0  0
  -17.5053  -31.6279   24.5142 H   0  0  0  0  0  0
  -15.5372  -30.3019   23.7619 H   0  0  0  0  0  0
  -15.8677  -28.0796   22.7142 H   0  0  0  0  0  0
  -24.5895  -30.7043   25.7815 H   0  0  0  0  0  0
  -24.8817  -32.2855   26.4958 H   0  0  0  0  0  0
  -25.8004  -30.8888   27.0304 H   0  0  0  0  0  0
  -26.2875  -29.6828   24.1229 H   0  0  0  0  0  0
  -27.4036  -29.7336   25.4687 H   0  0  0  0  0  0
  -27.8736  -30.4400   23.9415 H   0  0  0  0  0  0
  -27.2714  -33.3675   26.2098 H   0  0  0  0  0  0
  -28.3822  -32.6878   25.0292 H   0  0  0  0  0  0
  -28.0768  -31.8480   26.5402 H   0  0  0  0  0  0
  -28.2622  -38.0098   24.7524 H   0  0  0  0  0  0
  -28.1066  -36.2627   24.6300 H   0  0  0  0  0  0
  -27.2309  -37.1475   25.8880 H   0  0  0  0  0  0
  -20.9326  -29.8765   21.6892 H   0  0  0  0  0  0
  -26.0213  -38.2910   24.1389 H   0  0  0  0  0  0
  -28.6759  -17.8466   20.8004 H   0  0  0  0  0  0
  -33.3304  -18.5696   21.8504 H   0  0  0  0  0  0
  -30.4028  -23.1426   22.7827 H   0  0  0  0  0  0
  -30.8037  -21.4747   23.0672 H   0  0  0  0  0  0
  -29.1187  -21.9905   23.1375 H   0  0  0  0  0  0
  -30.2618  -24.5799   20.2218 H   0  0  0  0  0  0
  -29.2263  -24.6094   21.6297 H   0  0  0  0  0  0
  -28.9575  -22.6131   19.3251 H   0  0  0  0  0  0
  -27.9318  -22.6357   20.7224 H   0  0  0  0  0  0
  -27.2566  -24.8748   20.1980 H   0  0  0  0  0  0
  -28.2631  -25.0603   18.7716 H   0  0  0  0  0  0
  -30.8978  -21.9338   20.6351 H   0  0  0  0  0  0
  -29.1159  -15.4101   21.3457 H   0  0  0  0  0  0
  -28.4672  -20.2882   20.7316 H   0  0  0  0  0  0
  1 25  1  0  0  0
  1 30  2  0  0  0
  1 82  1  0  0  0
  2  3  1  0  0  0
  2 25  1  0  0  0
  2 84  1  0  0  0
  2 85  1  0  0  0
  3  4  1  0  0  0
  3 86  1  0  0  0
  3 87  1  0  0  0
  4  5  1  0  0  0
  4 88  1  0  0  0
  4 89  1  0  0  0
  5  6  1  0  0  0
  5 26  1  0  0  0
  5 90  1  0  0  0
  6 25  1  0  0  0
  6 91  1  0  0  0
  6 92  1  0  0  0
  7  8  2  0  0  0
  7 26  1  0  0  0
  7 29  1  0  0  0
  8  9  1  0  0  0
  8 22  1  0  0  0
  9 10  1  0  0  0
  9 27  2  0  0  0
 10 11  2  0  0  0
 10 15  1  0  0  0
 11 12  1  0  0  0
 11 93  1  0  0  0
 12 13  2  0  0  0
 12 94  1  0  0  0
 13 14  1  0  0  0
 13 31  1  0  0  0
 14 15  2  0  0  0
 14 95  1  0  0  0
 15 96  1  0  0  0
 16 17  2  0  0  0
 16 21  1  0  0  0
 16 31  1  0  0  0
 17 18  1  0  0  0
 17 97  1  0  0  0
 18 19  2  0  0  0
 18 98  1  0  0  0
 19 20  1  0  0  0
 19 24  1  0  0  0
 20 21  2  0  0  0
 20 99  1  0  0  0
 21 23  1  0  0  0
 22 28  1  0  0  0
 22 32  2  0  0  0
 26 27  1  0  0  0
 28100  1  0  0  0
 28101  1  0  0  0
 29102  1  0  0  0
 29103  1  0  0  0
 33 34  1  0  0  0
 33 66  1  0  0  0
 33 70  2  0  0  0
 34 36  1  0  0  0
 34 59  1  0  0  0
 34104  1  0  0  0
 35 44  2  0  0  0
 35 45  1  0  0  0
 35 68  1  0  0  0
 36 56  1  0  0  0
 36105  1  0  0  0
 37 39  1  0  0  0
 37 47  1  0  0  0
 37 66  1  0  0  0
 37106  1  0  0  0
 38 43  2  0  0  0
 38 46  1  0  0  0
 38 47  1  0  0  0
 39 64  1  0  0  0
 39 67  2  0  0  0
 40 52  1  0  0  0
 40 53  2  0  0  0
 40 58  1  0  0  0
 41107  1  0  0  0
 41108  1  0  0  0
 41109  1  0  0  0
 41 48  1  0  0  0
 42 43  1  0  0  0
 42 66  1  0  0  0
 42110  1  0  0  0
 42111  1  0  0  0
 43 44  1  0  0  0
 44112  1  0  0  0
 45 46  2  0  0  0
 45113  1  0  0  0
 46114  1  0  0  0
 47115  1  0  0  0
 47116  1  0  0  0
 48 56  1  0  0  0
 48 65  1  0  0  0
 48117  1  0  0  0
 49 50  1  0  0  0
 49 53  1  0  0  0
 49 64  1  0  0  0
 49118  1  0  0  0
 50 51  1  0  0  0
 50119  1  0  0  0
 50120  1  0  0  0
 51 52  1  0  0  0
 51121  1  0  0  0
 51122  1  0  0  0
 52123  1  0  0  0
 52124  1  0  0  0
 53 54  1  0  0  0
 54 55  2  0  0  0
 54125  1  0  0  0
 55 57  1  0  0  0
 55126  1  0  0  0
 56 69  2  0  0  0
 57 58  2  0  0  0
 57127  1  0  0  0
 58128  1  0  0  0
 59 60  1  0  0  0
 59 61  1  0  0  0
 59 62  1  0  0  0
 60129  1  0  0  0
 60130  1  0  0  0
 60131  1  0  0  0
 61132  1  0  0  0
 61133  1  0  0  0
 61134  1  0  0  0
 62135  1  0  0  0
 62136  1  0  0  0
 62137  1  0  0  0
 63 65  1  0  0  0
 63138  1  0  0  0
 63139  1  0  0  0
 63140  1  0  0  0
 64141  1  0  0  0
 65142  1  0  0  0
 68 78  1  0  0  0
 71 73  2  0  0  0
 71 74  1  0  0  0
 71143  1  0  0  0
 72 80  2  0  0  0
 72 81  1  0  0  0
 72144  1  0  0  0
 73 80  1  0  0  0
 73 82  1  0  0  0
 74 81  2  0  0  0
 74 83  1  0  0  0
 75145  1  0  0  0
 75146  1  0  0  0
 75147  1  0  0  0
 75 79  1  0  0  0
 76 77  1  0  0  0
 76 78  1  0  0  0
 76148  1  0  0  0
 76149  1  0  0  0
 77 79  1  0  0  0
 77150  1  0  0  0
 77151  1  0  0  0
 78152  1  0  0  0
 78153  1  0  0  0
 79 83  1  0  0  0
 79154  1  0  0  0
 82155  1  0  0  0
 83156  1  0  0  0
M  ISO  4   1 100  68 101  78 101  82 100
M  END
> <chiral flag>
0

> <version>
0

> <s_m_source_file>
/data/baiqing/PycharmProjects/Reinvent-master-3.2/result/LINK_invent/BTK/process_docking_weight1_custom_product_contain_oxygen_bond_distance_aromatic_linkinvent_7_9_3/rearranged_h_0192.sdf

> <i_m_source_file_index>
27

> <r_mmod_Potential_Energy-OPLS-2005>
-510.309509277344

> <r_mmod_Stretch_Energy-OPLS-2005>
40.3241233825684

> <r_mmod_Bend_Energy-OPLS-2005>
113.909141540527

> <r_mmod_Torsional_Energy-OPLS-2005>
195.108901977539

> <r_mmod_Improper_Torsional_Energy-OPLS-2005>
3.89070177078247

> <r_mmod_Van_der_Waal_Energy-OPLS-2005>
174.910705566406

> <r_mmod_Electrostatic_Energy-OPLS-2005>
-805.931030273438

> <r_mmod_Solvation_Energy-OPLS-2005>
-251.057998657227

> <b_mmod_Minimization_Converged-OPLS-2005>
0

> <r_mmod_RMS_Derivative-OPLS-2005>
2.5807158946991

$$$$
27
                    3D
 Structure written by MMmdl.
168176  0  0  1  0            999 V2000
  -30.7331  -14.4671   20.5138 C   0  0  0  0  0  0
  -30.4172  -12.3022   19.3956 C   0  0  0  0  0  0
  -29.4762  -12.4794   18.1882 C   0  0  0  0  0  0
  -28.0016  -12.3520   18.6188 C   0  0  0  0  0  0
  -27.6519  -13.2087   19.8659 C   0  0  2  0  0  0
  -28.7118  -13.0373   20.9764 C   0  0  0  0  0  0
  -25.2566  -13.8179   20.5739 C   0  0  0  0  0  0
  -24.1810  -13.0444   20.9182 C   0  0  0  0  0  0
  -24.6377  -11.6911   20.8753 C   0  0  0  0  0  0
  -23.9041  -10.4303   21.0413 C   0  0  0  0  0  0
  -24.3597   -9.4226   21.9192 C   0  0  0  0  0  0
  -23.6286   -8.2253   22.0751 C   0  0  0  0  0  0
  -22.4277   -8.0278   21.3540 C   0  0  0  0  0  0
  -21.9909   -9.0245   20.4642 C   0  0  0  0  0  0
  -22.7220  -10.2139   20.3056 C   0  0  0  0  0  0
  -21.6856   -6.0732   22.5276 C   0  0  0  0  0  0
  -21.4021   -6.5635   23.8212 C   0  0  0  0  0  0
  -21.3653   -5.6784   24.9166 C   0  0  0  0  0  0
  -21.6038   -4.3048   24.7215 C   0  0  0  0  0  0
  -21.8821   -3.8145   23.4339 C   0  0  0  0  0  0
  -21.9198   -4.6961   22.3398 C   0  0  0  0  0  0
  -22.7832  -13.5230   21.1821 C   0  0  0  0  0  0
  -22.1667   -4.2144   21.0976 F   0  0  0  0  0  0
  -21.5622   -3.4529   25.7730 F   0  0  0  0  0  0
  -30.0294  -13.3140   20.3877 N   0  0  0  0  0  0
  -26.3002  -12.9349   20.3431 N   0  0  0  0  0  0
  -25.9316  -11.6505   20.5824 N   0  0  0  0  0  0
  -22.0467  -12.8243   22.0383 N   0  0  0  0  0  0
  -25.4260  -15.1918   20.4213 N   0  0  0  0  0  0
  -31.9275  -14.5575   20.2333 O   0  0  0  0  0  0
  -21.6642   -6.8880   21.4242 O   0  0  0  0  0  0
  -22.3525  -14.5525   20.6650 O   0  0  0  0  0  0
  -24.6134  -31.8683   23.2100 C   0  0  0  0  0  0
  -25.9032  -32.4841   23.8380 C   0  0  1  0  0  0
  -27.2359  -27.4324   20.0855 C   0  0  0  0  0  0
  -25.5888  -33.8641   24.2311 N   0  0  0  0  0  0
  -23.3982  -30.4933   21.5541 C   0  0  2  0  0  0
  -24.8420  -28.9539   20.1234 C   0  0  0  0  0  0
  -22.7348  -29.4689   22.5022 C   0  0  0  0  0  0
  -18.0268  -28.1339   22.8515 C   0  0  0  0  0  0
  -24.1477  -36.7332   23.2638 C   0  0  0  0  0  0
  -25.9272  -30.8361   21.3581 C   0  0  0  0  0  0
  -26.0046  -29.4668   20.7094 C   0  0  0  0  0  0
  -27.2020  -28.7142   20.6861 C   0  0  0  0  0  0
  -26.0474  -26.9333   19.5011 C   0  0  0  0  0  0
  -24.8588  -27.6849   19.5218 C   0  0  0  0  0  0
  -23.6015  -29.8189   20.1716 C   0  0  0  0  0  0
  -25.4105  -36.3134   24.0332 C   0  0  1  0  0  0
  -20.5839  -28.3660   23.1341 C   0  0  2  0  0  0
  -20.6775  -26.9413   22.5393 C   0  0  0  0  0  0
  -19.5751  -26.6400   21.5193 C   0  0  0  0  0  0
  -18.1931  -26.7903   22.1606 C   0  0  0  0  0  0
  -19.1497  -28.8817   23.2929 C   0  0  0  0  0  0
  -18.9396  -30.1434   23.8903 C   0  0  0  0  0  0
  -17.6389  -30.6559   24.0522 C   0  0  0  0  0  0
  -25.9043  -34.9498   23.5123 C   0  0  0  0  0  0
  -16.5295  -29.9034   23.6284 C   0  0  0  0  0  0
  -16.7250  -28.6445   23.0340 C   0  0  0  0  0  0
  -26.4456  -31.6625   25.0713 C   0  0  0  0  0  0
  -25.3730  -31.3731   26.1465 C   0  0  0  0  0  0
  -27.0255  -30.3067   24.6068 C   0  0  0  0  0  0
  -27.6011  -32.4350   25.7494 C   0  0  0  0  0  0
  -27.5576  -37.1819   24.8465 C   0  0  0  0  0  0
  -21.4076  -29.3076   22.3781 N   0  0  0  0  0  0
  -26.4288  -37.3817   23.9408 N   0  0  0  0  0  0
  -24.6659  -31.0785   22.1018 N   0  0  0  0  0  0
  -23.4124  -28.8205   23.3030 O   0  0  0  0  0  0
  -28.4350  -26.7432   20.0511 O   0  0  0  0  0  0
  -26.5609  -34.8949   22.4695 O   0  0  0  0  0  0
  -23.5321  -32.1453   23.7484 O   0  0  0  0  0  0
  -27.0020  -18.9536   20.1359 C   0  0  0  0  0  0
  -27.9236  -19.8418   20.6383 C   0  0  0  0  0  0
  -28.8329  -17.6089   19.9984 C   0  0  0  0  0  0
  -28.4235  -22.1968   21.1152 C   0  0  0  0  0  0
  -27.6370  -23.1687   23.2843 C   0  0  0  0  0  0
  -31.2413  -17.0872   16.1148 C   0  0  0  0  0  0
  -30.6390  -19.1511   17.4042 C   0  0  0  0  0  0
  -28.4349  -24.7956   21.5205 C   0  0  0  0  0  0
  -30.8352  -16.8837   18.6138 C   0  0  0  0  0  0
  -28.4334  -25.3047   20.0656 C   0  0  0  0  0  0
  -29.6509  -16.4369   19.5206 C   0  0  2  0  0  0
  -27.7540  -23.4237   21.7704 C   0  0  1  0  0  0
  -30.4405  -17.6273   17.3094 C   0  0  0  0  0  0
  -27.5243  -17.7104   19.7655 N   0  0  0  0  0  0
  -27.6310  -21.1128   21.0229 N   0  0  0  0  0  0
  -30.0111  -15.5872   20.6760 N   0  0  0  0  0  0
  -29.5852  -22.2439   20.7063 O   0  0  0  0  0  0
  -29.4871  -19.0508   20.7920 S   0  0  0  0  0  0
  -31.4563  -12.4004   19.0730 H   0  0  0  0  0  0
  -30.3274  -11.3003   19.8185 H   0  0  0  0  0  0
  -29.7039  -11.7377   17.4211 H   0  0  0  0  0  0
  -29.6383  -13.4542   17.7279 H   0  0  0  0  0  0
  -27.8114  -11.2989   18.8327 H   0  0  0  0  0  0
  -27.3424  -12.6137   17.7905 H   0  0  0  0  0  0
  -27.6671  -14.2471   19.5438 H   0  0  0  0  0  0
  -28.6971  -12.0207   21.3722 H   0  0  0  0  0  0
  -28.5044  -13.6993   21.8186 H   0  0  0  0  0  0
  -25.2735   -9.5700   22.4778 H   0  0  0  0  0  0
  -23.9988   -7.4645   22.7485 H   0  0  0  0  0  0
  -21.0833   -8.8755   19.8947 H   0  0  0  0  0  0
  -22.3672  -10.9670   19.6160 H   0  0  0  0  0  0
  -21.2028   -7.6146   23.9708 H   0  0  0  0  0  0
  -21.1469   -6.0516   25.9066 H   0  0  0  0  0  0
  -22.0614   -2.7604   23.2834 H   0  0  0  0  0  0
  -22.4065  -11.9910   22.4794 H   0  0  0  0  0  0
  -21.1081  -13.1291   22.2567 H   0  0  0  0  0  0
  -24.6562  -15.8418   20.5364 H   0  0  0  0  0  0
  -26.2923  -15.6569   20.1699 H   0  0  0  0  0  0
  -26.7092  -32.5547   23.1130 H   0  0  0  0  0  0
  -24.9988  -33.9803   25.0421 H   0  0  0  0  0  0
  -22.6895  -31.3129   21.4165 H   0  0  0  0  0  0
  -23.3740  -35.9664   23.3324 H   0  0  0  0  0  0
  -24.3554  -36.8939   22.2047 H   0  0  0  0  0  0
  -23.7240  -37.6546   23.6652 H   0  0  0  0  0  0
  -26.0254  -31.5960   20.5810 H   0  0  0  0  0  0
  -26.8229  -30.9021   21.9642 H   0  0  0  0  0  0
  -28.1023  -29.1133   21.1314 H   0  0  0  0  0  0
  -26.0092  -25.9792   19.0005 H   0  0  0  0  0  0
  -23.9644  -27.2824   19.0659 H   0  0  0  0  0  0
  -23.6992  -30.5914   19.4072 H   0  0  0  0  0  0
  -22.7256  -29.2340   19.8821 H   0  0  0  0  0  0
  -25.1277  -36.1989   25.0821 H   0  0  0  0  0  0
  -20.9920  -28.3172   24.1466 H   0  0  0  0  0  0
  -20.5700  -26.2251   23.3555 H   0  0  0  0  0  0
  -21.6659  -26.7484   22.1167 H   0  0  0  0  0  0
  -19.6894  -25.6320   21.1214 H   0  0  0  0  0  0
  -19.6701  -27.3255   20.6770 H   0  0  0  0  0  0
  -17.4238  -26.6679   21.3957 H   0  0  0  0  0  0
  -18.0331  -25.9978   22.8941 H   0  0  0  0  0  0
  -19.7841  -30.7303   24.2276 H   0  0  0  0  0  0
  -17.4905  -31.6266   24.5069 H   0  0  0  0  0  0
  -15.5282  -30.2943   23.7532 H   0  0  0  0  0  0
  -15.8667  -28.0766   22.6994 H   0  0  0  0  0  0
  -24.5882  -30.7101   25.7810 H   0  0  0  0  0  0
  -24.8933  -32.2887   26.4940 H   0  0  0  0  0  0
  -25.8080  -30.8881   27.0210 H   0  0  0  0  0  0
  -26.2764  -29.6868   24.1114 H   0  0  0  0  0  0
  -27.4029  -29.7268   25.4497 H   0  0  0  0  0  0
  -27.8611  -30.4385   23.9180 H   0  0  0  0  0  0
  -27.2601  -33.3623   26.2102 H   0  0  0  0  0  0
  -28.3811  -32.6960   25.0339 H   0  0  0  0  0  0
  -28.0691  -31.8469   26.5396 H   0  0  0  0  0  0
  -28.2606  -38.0100   24.7497 H   0  0  0  0  0  0
  -28.1057  -36.2634   24.6306 H   0  0  0  0  0  0
  -27.2289  -37.1492   25.8867 H   0  0  0  0  0  0
  -20.9208  -29.8846   21.7061 H   0  0  0  0  0  0
  -26.0183  -38.2891   24.1432 H   0  0  0  0  0  0
  -25.9491  -19.1409   19.9697 H   0  0  0  0  0  0
  -27.0372  -22.2822   23.4971 H   0  0  0  0  0  0
  -27.1643  -24.0074   23.7968 H   0  0  0  0  0  0
  -28.6202  -23.0157   23.7325 H   0  0  0  0  0  0
  -30.9451  -17.5770   15.1853 H   0  0  0  0  0  0
  -31.0785  -16.0173   15.9822 H   0  0  0  0  0  0
  -32.3129  -17.2456   16.2517 H   0  0  0  0  0  0
  -29.9685  -19.6094   18.1262 H   0  0  0  0  0  0
  -30.4418  -19.6414   16.4508 H   0  0  0  0  0  0
  -31.6619  -19.4054   17.6914 H   0  0  0  0  0  0
  -27.9082  -25.5322   22.1305 H   0  0  0  0  0  0
  -29.4569  -24.7886   21.9003 H   0  0  0  0  0  0
  -31.3949  -15.9982   18.3148 H   0  0  0  0  0  0
  -31.5428  -17.4826   19.1885 H   0  0  0  0  0  0
  -27.6327  -24.8476   19.4917 H   0  0  0  0  0  0
  -29.3451  -24.9653   19.5745 H   0  0  0  0  0  0
  -29.0043  -15.8327   18.8845 H   0  0  0  0  0  0
  -26.7423  -23.4947   21.3678 H   0  0  0  0  0  0
  -29.3875  -17.4320   17.0939 H   0  0  0  0  0  0
  -26.6684  -21.2731   21.2881 H   0  0  0  0  0  0
  -30.3792  -16.1588   21.4214 H   0  0  0  0  0  0
  1 25  1  0  0  0
  1 30  2  0  0  0
  1 86  1  0  0  0
  2  3  1  0  0  0
  2 25  1  0  0  0
  2 89  1  0  0  0
  2 90  1  0  0  0
  3  4  1  0  0  0
  3 91  1  0  0  0
  3 92  1  0  0  0
  4  5  1  0  0  0
  4 93  1  0  0  0
  4 94  1  0  0  0
  5  6  1  0  0  0
  5 26  1  0  0  0
  5 95  1  0  0  0
  6 25  1  0  0  0
  6 96  1  0  0  0
  6 97  1  0  0  0
  7  8  2  0  0  0
  7 26  1  0  0  0
  7 29  1  0  0  0
  8  9  1  0  0  0
  8 22  1  0  0  0
  9 10  1  0  0  0
  9 27  2  0  0  0
 10 11  2  0  0  0
 10 15  1  0  0  0
 11 12  1  0  0  0
 11 98  1  0  0  0
 12 13  2  0  0  0
 12 99  1  0  0  0
 13 14  1  0  0  0
 13 31  1  0  0  0
 14 15  2  0  0  0
 14100  1  0  0  0
 15101  1  0  0  0
 16 17  2  0  0  0
 16 21  1  0  0  0
 16 31  1  0  0  0
 17 18  1  0  0  0
 17102  1  0  0  0
 18 19  2  0  0  0
 18103  1  0  0  0
 19 20  1  0  0  0
 19 24  1  0  0  0
 20 21  2  0  0  0
 20104  1  0  0  0
 21 23  1  0  0  0
 22 28  1  0  0  0
 22 32  2  0  0  0
 26 27  1  0  0  0
 28105  1  0  0  0
 28106  1  0  0  0
 29107  1  0  0  0
 29108  1  0  0  0
 33 34  1  0  0  0
 33 66  1  0  0  0
 33 70  2  0  0  0
 34 36  1  0  0  0
 34 59  1  0  0  0
 34109  1  0  0  0
 35 44  2  0  0  0
 35 45  1  0  0  0
 35 68  1  0  0  0
 36 56  1  0  0  0
 36110  1  0  0  0
 37 39  1  0  0  0
 37 47  1  0  0  0
 37 66  1  0  0  0
 37111  1  0  0  0
 38 43  2  0  0  0
 38 46  1  0  0  0
 38 47  1  0  0  0
 39 64  1  0  0  0
 39 67  2  0  0  0
 40 52  1  0  0  0
 40 53  2  0  0  0
 40 58  1  0  0  0
 41112  1  0  0  0
 41113  1  0  0  0
 41114  1  0  0  0
 41 48  1  0  0  0
 42 43  1  0  0  0
 42 66  1  0  0  0
 42115  1  0  0  0
 42116  1  0  0  0
 43 44  1  0  0  0
 44117  1  0  0  0
 45 46  2  0  0  0
 45118  1  0  0  0
 46119  1  0  0  0
 47120  1  0  0  0
 47121  1  0  0  0
 48 56  1  0  0  0
 48 65  1  0  0  0
 48122  1  0  0  0
 49 50  1  0  0  0
 49 53  1  0  0  0
 49 64  1  0  0  0
 49123  1  0  0  0
 50 51  1  0  0  0
 50124  1  0  0  0
 50125  1  0  0  0
 51 52  1  0  0  0
 51126  1  0  0  0
 51127  1  0  0  0
 52128  1  0  0  0
 52129  1  0  0  0
 53 54  1  0  0  0
 54 55  2  0  0  0
 54130  1  0  0  0
 55 57  1  0  0  0
 55131  1  0  0  0
 56 69  2  0  0  0
 57 58  2  0  0  0
 57132  1  0  0  0
 58133  1  0  0  0
 59 60  1  0  0  0
 59 61  1  0  0  0
 59 62  1  0  0  0
 60134  1  0  0  0
 60135  1  0  0  0
 60136  1  0  0  0
 61137  1  0  0  0
 61138  1  0  0  0
 61139  1  0  0  0
 62140  1  0  0  0
 62141  1  0  0  0
 62142  1  0  0  0
 63 65  1  0  0  0
 63143  1  0  0  0
 63144  1  0  0  0
 63145  1  0  0  0
 64146  1  0  0  0
 65147  1  0  0  0
 68 80  1  0  0  0
 71 72  2  0  0  0
 71 84  1  0  0  0
 71148  1  0  0  0
 72 85  1  0  0  0
 72 88  1  0  0  0
 73 81  1  0  0  0
 73 84  2  0  0  0
 73 88  1  0  0  0
 74 82  1  0  0  0
 74 85  1  0  0  0
 74 87  2  0  0  0
 75149  1  0  0  0
 75150  1  0  0  0
 75151  1  0  0  0
 75 82  1  0  0  0
 76152  1  0  0  0
 76153  1  0  0  0
 76154  1  0  0  0
 76 83  1  0  0  0
 77 83  1  0  0  0
 77155  1  0  0  0
 77156  1  0  0  0
 77157  1  0  0  0
 78 80  1  0  0  0
 78 82  1  0  0  0
 78158  1  0  0  0
 78159  1  0  0  0
 79 83  1  0  0  0
 79160  1  0  0  0
 79161  1  0  0  0
 79 81  1  0  0  0
 80162  1  0  0  0
 80163  1  0  0  0
 81 86  1  0  0  0
 81164  1  0  0  0
 82165  1  0  0  0
 83166  1  0  0  0
 85167  1  0  0  0
 86168  1  0  0  0
M  ISO  4   1 100  68 101  80 101  86 100
M  END
> <chiral flag>
0

> <version>
0

> <s_m_source_file>
/data/baiqing/PycharmProjects/Reinvent-master-3.2/result/LINK_invent/BTK/process_docking_weight1_custom_product_contain_oxygen_bond_distance_aromatic_linkinvent_7_9_3/rearranged_h_0192.sdf

> <i_m_source_file_index>
28

> <r_mmod_Potential_Energy-OPLS-2005>
-95.1056213378906

> <r_mmod_Stretch_Energy-OPLS-2005>
36.2691879272461

> <r_mmod_Bend_Energy-OPLS-2005>
127.40991973877

> <r_mmod_Torsional_Energy-OPLS-2005>
285.788940429688

> <r_mmod_Improper_Torsional_Energy-OPLS-2005>
11.6937112808228

> <r_mmod_Van_der_Waal_Energy-OPLS-2005>
122.769828796387

> <r_mmod_Electrostatic_Energy-OPLS-2005>
-479.336059570312

> <r_mmod_Solvation_Energy-OPLS-2005>
-220.400115966797

> <b_mmod_Minimization_Converged-OPLS-2005>
0

> <r_mmod_RMS_Derivative-OPLS-2005>
3.11508536338806

$$$$
29
                    3D
 Structure written by MMmdl.
154162  0  0  1  0            999 V2000
  -30.6027  -14.7457   20.4503 C   0  0  0  0  0  0
  -30.4313  -12.4502   19.4724 C   0  0  0  0  0  0
  -29.5095  -12.5208   18.2347 C   0  0  0  0  0  0
  -28.0339  -12.3479   18.6426 C   0  0  0  0  0  0
  -27.6441  -13.2332   19.8564 C   0  0  2  0  0  0
  -28.6895  -13.1538   20.9916 C   0  0  0  0  0  0
  -25.2520  -13.8200   20.5705 C   0  0  0  0  0  0
  -24.1814  -13.0439   20.9208 C   0  0  0  0  0  0
  -24.6415  -11.6923   20.8747 C   0  0  0  0  0  0
  -23.9094  -10.4301   21.0395 C   0  0  0  0  0  0
  -24.3652   -9.4212   21.9167 C   0  0  0  0  0  0
  -23.6321   -8.2252   22.0740 C   0  0  0  0  0  0
  -22.4298   -8.0299   21.3547 C   0  0  0  0  0  0
  -21.9942   -9.0267   20.4637 C   0  0  0  0  0  0
  -22.7269  -10.2143   20.3038 C   0  0  0  0  0  0
  -21.6869   -6.0752   22.5285 C   0  0  0  0  0  0
  -21.4018   -6.5650   23.8218 C   0  0  0  0  0  0
  -21.3660   -5.6801   24.9177 C   0  0  0  0  0  0
  -21.6039   -4.3060   24.7229 C   0  0  0  0  0  0
  -21.8819   -3.8162   23.4347 C   0  0  0  0  0  0
  -21.9198   -4.6980   22.3404 C   0  0  0  0  0  0
  -22.7839  -13.5218   21.1872 C   0  0  0  0  0  0
  -22.1653   -4.2168   21.0983 F   0  0  0  0  0  0
  -21.5633   -3.4532   25.7727 F   0  0  0  0  0  0
  -29.9949  -13.5070   20.4156 N   0  0  0  0  0  0
  -26.2960  -12.9413   20.3313 N   0  0  0  0  0  0
  -25.9351  -11.6551   20.5763 N   0  0  0  0  0  0
  -22.0500  -12.8195   22.0425 N   0  0  0  0  0  0
  -25.4200  -15.1931   20.4128 N   0  0  0  0  0  0
  -31.7810  -14.8483   20.0888 O   0  0  0  0  0  0
  -21.6662   -6.8899   21.4246 O   0  0  0  0  0  0
  -22.3509  -14.5528   20.6728 O   0  0  0  0  0  0
  -24.6341  -31.8517   23.1993 C   0  0  0  0  0  0
  -25.9160  -32.4731   23.8328 C   0  0  1  0  0  0
  -27.2145  -27.2410   20.1155 C   0  0  0  0  0  0
  -25.5956  -33.8542   24.2247 N   0  0  0  0  0  0
  -23.4314  -30.4775   21.5408 C   0  0  2  0  0  0
  -24.8778  -28.9255   20.1060 C   0  0  0  0  0  0
  -22.7517  -29.4586   22.4877 C   0  0  0  0  0  0
  -18.0300  -28.1378   22.8476 C   0  0  0  0  0  0
  -24.1493  -36.7275   23.2638 C   0  0  0  0  0  0
  -25.9810  -30.7557   21.3863 C   0  0  0  0  0  0
  -26.0507  -29.3800   20.7204 C   0  0  0  0  0  0
  -27.2210  -28.5491   20.7162 C   0  0  0  0  0  0
  -26.0220  -26.8737   19.4515 C   0  0  0  0  0  0
  -24.8697  -27.6825   19.4592 C   0  0  0  0  0  0
  -23.6511  -29.8153   20.1561 C   0  0  0  0  0  0
  -25.4120  -36.3045   24.0312 C   0  0  1  0  0  0
  -20.5907  -28.3694   23.1247 C   0  0  2  0  0  0
  -20.6778  -26.9399   22.5402 C   0  0  0  0  0  0
  -19.5758  -26.6365   21.5206 C   0  0  0  0  0  0
  -18.1938  -26.7921   22.1614 C   0  0  0  0  0  0
  -19.1556  -28.8854   23.2861 C   0  0  0  0  0  0
  -18.9470  -30.1455   23.8873 C   0  0  0  0  0  0
  -17.6466  -30.6570   24.0563 C   0  0  0  0  0  0
  -25.9059  -34.9418   23.5076 C   0  0  0  0  0  0
  -16.5358  -29.9061   23.6337 C   0  0  0  0  0  0
  -16.7287  -28.6488   23.0346 C   0  0  0  0  0  0
  -26.4523  -31.6571   25.0737 C   0  0  0  0  0  0
  -25.3744  -31.3747   26.1455 C   0  0  0  0  0  0
  -27.0378  -30.2969   24.6278 C   0  0  0  0  0  0
  -27.6053  -32.4339   25.7516 C   0  0  0  0  0  0
  -27.5579  -37.1793   24.8458 C   0  0  0  0  0  0
  -21.4221  -29.3045   22.3628 N   0  0  0  0  0  0
  -26.4291  -37.3749   23.9399 N   0  0  0  0  0  0
  -24.7008  -31.0464   22.0974 N   0  0  0  0  0  0
  -23.4213  -28.8111   23.2967 O   0  0  0  0  0  0
  -28.2941  -26.3202   20.1950 O   0  0  0  0  0  0
  -26.5615  -34.8893   22.4635 O   0  0  0  0  0  0
  -23.5483  -32.1347   23.7276 O   0  0  0  0  0  0
  -29.9608  -17.2933   20.4676 C   0  0  0  0  0  0
  -30.9691  -22.2952   18.4170 C   0  0  0  0  0  0
  -29.4608  -22.0104   18.5033 C   0  0  0  0  0  0
  -28.9729  -23.6442   20.4933 C   0  0  0  0  0  0
  -29.3969  -20.8704   20.8832 C   0  0  0  0  0  0
  -28.0804  -24.8554   19.8705 C   0  0  0  0  0  0
  -28.8813  -22.1016   19.9329 C   0  0  2  0  0  0
  -30.8248  -17.8106   19.5391 N   0  0  0  0  0  0
  -29.2150  -18.2700   21.0343 N   0  0  0  0  0  0
  -30.6612  -19.1139   19.5284 N   0  0  0  0  0  0
  -29.6690  -19.4292   20.4064 N   0  0  0  0  0  0
  -29.8212  -15.8484   20.7630 N   0  0  0  0  0  0
  -31.4746  -12.5664   19.1738 H   0  0  0  0  0  0
  -30.3655  -11.4681   19.9429 H   0  0  0  0  0  0
  -29.7870  -11.7555   17.5094 H   0  0  0  0  0  0
  -29.6404  -13.4814   17.7338 H   0  0  0  0  0  0
  -27.8802  -11.2951   18.8824 H   0  0  0  0  0  0
  -27.3808  -12.5647   17.7958 H   0  0  0  0  0  0
  -27.6399  -14.2603   19.4904 H   0  0  0  0  0  0
  -28.7212  -12.1509   21.4197 H   0  0  0  0  0  0
  -28.4229  -13.8249   21.8101 H   0  0  0  0  0  0
  -25.2784   -9.5685   22.4756 H   0  0  0  0  0  0
  -24.0026   -7.4642   22.7456 H   0  0  0  0  0  0
  -21.0875   -8.8788   19.8946 H   0  0  0  0  0  0
  -22.3716  -10.9693   19.6167 H   0  0  0  0  0  0
  -21.1998   -7.6150   23.9717 H   0  0  0  0  0  0
  -21.1481   -6.0531   25.9081 H   0  0  0  0  0  0
  -22.0596   -2.7625   23.2842 H   0  0  0  0  0  0
  -22.4133  -11.9865   22.4811 H   0  0  0  0  0  0
  -21.1103  -13.1179   22.2618 H   0  0  0  0  0  0
  -24.6503  -15.8440   20.5204 H   0  0  0  0  0  0
  -26.2633  -15.6371   20.0742 H   0  0  0  0  0  0
  -26.7213  -32.5361   23.1053 H   0  0  0  0  0  0
  -25.0133  -33.9683   25.0409 H   0  0  0  0  0  0
  -22.7291  -31.3006   21.3954 H   0  0  0  0  0  0
  -23.3753  -35.9610   23.3289 H   0  0  0  0  0  0
  -24.3584  -36.8916   22.2056 H   0  0  0  0  0  0
  -23.7253  -37.6470   23.6681 H   0  0  0  0  0  0
  -26.1306  -31.5210   20.6234 H   0  0  0  0  0  0
  -26.8539  -30.7949   22.0261 H   0  0  0  0  0  0
  -28.1158  -28.8885   21.2176 H   0  0  0  0  0  0
  -25.9414  -25.9352   18.9236 H   0  0  0  0  0  0
  -23.9749  -27.3379   18.9595 H   0  0  0  0  0  0
  -23.7774  -30.5933   19.4022 H   0  0  0  0  0  0
  -22.7685  -29.2509   19.8504 H   0  0  0  0  0  0
  -25.1309  -36.1877   25.0805 H   0  0  0  0  0  0
  -21.0020  -28.3271   24.1361 H   0  0  0  0  0  0
  -20.5646  -26.2309   23.3618 H   0  0  0  0  0  0
  -21.6644  -26.7383   22.1212 H   0  0  0  0  0  0
  -19.6915  -25.6274   21.1241 H   0  0  0  0  0  0
  -19.6703  -27.3173   20.6738 H   0  0  0  0  0  0
  -17.4213  -26.6682   21.4010 H   0  0  0  0  0  0
  -18.0328  -26.0051   22.8998 H   0  0  0  0  0  0
  -19.7943  -30.7289   24.2216 H   0  0  0  0  0  0
  -17.5012  -31.6247   24.5168 H   0  0  0  0  0  0
  -15.5355  -30.2951   23.7667 H   0  0  0  0  0  0
  -15.8694  -28.0802   22.7056 H   0  0  0  0  0  0
  -24.5929  -30.7077   25.7799 H   0  0  0  0  0  0
  -24.8939  -32.2932   26.4832 H   0  0  0  0  0  0
  -25.8064  -30.8966   27.0256 H   0  0  0  0  0  0
  -26.2985  -29.6701   24.1283 H   0  0  0  0  0  0
  -27.3993  -29.7248   25.4833 H   0  0  0  0  0  0
  -27.8885  -30.4195   23.9575 H   0  0  0  0  0  0
  -27.2626  -33.3636   26.2064 H   0  0  0  0  0  0
  -28.3881  -32.6912   25.0374 H   0  0  0  0  0  0
  -28.0704  -31.8503   26.5467 H   0  0  0  0  0  0
  -28.2575  -38.0106   24.7499 H   0  0  0  0  0  0
  -28.1089  -36.2636   24.6282 H   0  0  0  0  0  0
  -27.2296  -37.1430   25.8858 H   0  0  0  0  0  0
  -20.9401  -29.8793   21.6855 H   0  0  0  0  0  0
  -26.0157  -38.2806   24.1426 H   0  0  0  0  0  0
  -31.3560  -22.0330   17.4313 H   0  0  0  0  0  0
  -31.5343  -21.7224   19.1528 H   0  0  0  0  0  0
  -31.1885  -23.3506   18.5802 H   0  0  0  0  0  0
  -29.2612  -21.0202   18.0918 H   0  0  0  0  0  0
  -28.9307  -22.6992   17.8438 H   0  0  0  0  0  0
  -28.7414  -23.6106   21.5578 H   0  0  0  0  0  0
  -30.0161  -23.9540   20.4596 H   0  0  0  0  0  0
  -28.7037  -20.7937   21.7208 H   0  0  0  0  0  0
  -30.3301  -21.1998   21.3384 H   0  0  0  0  0  0
  -27.0597  -24.5868   20.1416 H   0  0  0  0  0  0
  -28.1209  -24.7775   18.7842 H   0  0  0  0  0  0
  -27.8154  -21.9035   19.8158 H   0  0  0  0  0  0
  -28.9399  -15.6076   21.1831 H   0  0  0  0  0  0
  1 25  1  0  0  0
  1 30  2  0  0  0
  1 82  1  0  0  0
  2  3  1  0  0  0
  2 25  1  0  0  0
  2 83  1  0  0  0
  2 84  1  0  0  0
  3  4  1  0  0  0
  3 85  1  0  0  0
  3 86  1  0  0  0
  4  5  1  0  0  0
  4 87  1  0  0  0
  4 88  1  0  0  0
  5  6  1  0  0  0
  5 26  1  0  0  0
  5 89  1  0  0  0
  6 25  1  0  0  0
  6 90  1  0  0  0
  6 91  1  0  0  0
  7  8  2  0  0  0
  7 26  1  0  0  0
  7 29  1  0  0  0
  8  9  1  0  0  0
  8 22  1  0  0  0
  9 10  1  0  0  0
  9 27  2  0  0  0
 10 11  2  0  0  0
 10 15  1  0  0  0
 11 12  1  0  0  0
 11 92  1  0  0  0
 12 13  2  0  0  0
 12 93  1  0  0  0
 13 14  1  0  0  0
 13 31  1  0  0  0
 14 15  2  0  0  0
 14 94  1  0  0  0
 15 95  1  0  0  0
 16 17  2  0  0  0
 16 21  1  0  0  0
 16 31  1  0  0  0
 17 18  1  0  0  0
 17 96  1  0  0  0
 18 19  2  0  0  0
 18 97  1  0  0  0
 19 20  1  0  0  0
 19 24  1  0  0  0
 20 21  2  0  0  0
 20 98  1  0  0  0
 21 23  1  0  0  0
 22 28  1  0  0  0
 22 32  2  0  0  0
 26 27  1  0  0  0
 28 99  1  0  0  0
 28100  1  0  0  0
 29101  1  0  0  0
 29102  1  0  0  0
 33 34  1  0  0  0
 33 66  1  0  0  0
 33 70  2  0  0  0
 34 36  1  0  0  0
 34 59  1  0  0  0
 34103  1  0  0  0
 35 44  2  0  0  0
 35 45  1  0  0  0
 35 68  1  0  0  0
 36 56  1  0  0  0
 36104  1  0  0  0
 37 39  1  0  0  0
 37 47  1  0  0  0
 37 66  1  0  0  0
 37105  1  0  0  0
 38 43  2  0  0  0
 38 46  1  0  0  0
 38 47  1  0  0  0
 39 64  1  0  0  0
 39 67  2  0  0  0
 40 52  1  0  0  0
 40 53  2  0  0  0
 40 58  1  0  0  0
 41106  1  0  0  0
 41107  1  0  0  0
 41108  1  0  0  0
 41 48  1  0  0  0
 42 43  1  0  0  0
 42 66  1  0  0  0
 42109  1  0  0  0
 42110  1  0  0  0
 43 44  1  0  0  0
 44111  1  0  0  0
 45 46  2  0  0  0
 45112  1  0  0  0
 46113  1  0  0  0
 47114  1  0  0  0
 47115  1  0  0  0
 48 56  1  0  0  0
 48 65  1  0  0  0
 48116  1  0  0  0
 49 50  1  0  0  0
 49 53  1  0  0  0
 49 64  1  0  0  0
 49117  1  0  0  0
 50 51  1  0  0  0
 50118  1  0  0  0
 50119  1  0  0  0
 51 52  1  0  0  0
 51120  1  0  0  0
 51121  1  0  0  0
 52122  1  0  0  0
 52123  1  0  0  0
 53 54  1  0  0  0
 54 55  2  0  0  0
 54124  1  0  0  0
 55 57  1  0  0  0
 55125  1  0  0  0
 56 69  2  0  0  0
 57 58  2  0  0  0
 57126  1  0  0  0
 58127  1  0  0  0
 59 60  1  0  0  0
 59 61  1  0  0  0
 59 62  1  0  0  0
 60128  1  0  0  0
 60129  1  0  0  0
 60130  1  0  0  0
 61131  1  0  0  0
 61132  1  0  0  0
 61133  1  0  0  0
 62134  1  0  0  0
 62135  1  0  0  0
 62136  1  0  0  0
 63 65  1  0  0  0
 63137  1  0  0  0
 63138  1  0  0  0
 63139  1  0  0  0
 64140  1  0  0  0
 65141  1  0  0  0
 68 76  1  0  0  0
 71 78  1  0  0  0
 71 79  2  0  0  0
 71 82  1  0  0  0
 72 73  1  0  0  0
 72142  1  0  0  0
 72143  1  0  0  0
 72144  1  0  0  0
 73145  1  0  0  0
 73146  1  0  0  0
 73 77  1  0  0  0
 74 76  1  0  0  0
 74 77  1  0  0  0
 74147  1  0  0  0
 74148  1  0  0  0
 75 77  1  0  0  0
 75 81  1  0  0  0
 75149  1  0  0  0
 75150  1  0  0  0
 76151  1  0  0  0
 76152  1  0  0  0
 77153  1  0  0  0
 78 80  2  0  0  0
 79 81  1  0  0  0
 80 81  1  0  0  0
 82154  1  0  0  0
M  ISO  4   1 100  68 101  76 101  82 100
M  END
> <chiral flag>
0

> <version>
0

> <s_m_source_file>
/data/baiqing/PycharmProjects/Reinvent-master-3.2/result/LINK_invent/BTK/process_docking_weight1_custom_product_contain_oxygen_bond_distance_aromatic_linkinvent_7_9_3/rearranged_h_0192.sdf

> <i_m_source_file_index>
29

> <r_mmod_Potential_Energy-OPLS-2005>
147.785308837891

> <r_mmod_Stretch_Energy-OPLS-2005>
135.084350585938

> <r_mmod_Bend_Energy-OPLS-2005>
187.062728881836

> <r_mmod_Torsional_Energy-OPLS-2005>
225.241302490234

> <r_mmod_Improper_Torsional_Energy-OPLS-2005>
5.74178457260132

> <r_mmod_Van_der_Waal_Energy-OPLS-2005>
117.646057128906

> <r_mmod_Electrostatic_Energy-OPLS-2005>
-385.327545166016

> <r_mmod_Solvation_Energy-OPLS-2005>
-229.2802734375

> <b_mmod_Minimization_Converged-OPLS-2005>
0

> <r_mmod_RMS_Derivative-OPLS-2005>
1.96185755729675

$$$$
30
                    3D
 Structure written by MMmdl.
169177  0  0  1  0            999 V2000
  -30.6587  -14.5960   20.5151 C   0  0  0  0  0  0
  -30.4250  -12.3751   19.4339 C   0  0  0  0  0  0
  -29.4942  -12.5047   18.2102 C   0  0  0  0  0  0
  -28.0162  -12.3541   18.6261 C   0  0  0  0  0  0
  -27.6461  -13.2173   19.8619 C   0  0  2  0  0  0
  -28.6978  -13.0756   20.9863 C   0  0  0  0  0  0
  -25.2499  -13.8161   20.5671 C   0  0  0  0  0  0
  -24.1792  -13.0413   20.9198 C   0  0  0  0  0  0
  -24.6378  -11.6893   20.8749 C   0  0  0  0  0  0
  -23.9037  -10.4279   21.0406 C   0  0  0  0  0  0
  -24.3595   -9.4202   21.9181 C   0  0  0  0  0  0
  -23.6292   -8.2220   22.0732 C   0  0  0  0  0  0
  -22.4268   -8.0259   21.3531 C   0  0  0  0  0  0
  -21.9893   -9.0218   20.4631 C   0  0  0  0  0  0
  -22.7212  -10.2110   20.3053 C   0  0  0  0  0  0
  -21.6836   -6.0728   22.5282 C   0  0  0  0  0  0
  -21.4008   -6.5639   23.8211 C   0  0  0  0  0  0
  -21.3663   -5.6795   24.9177 C   0  0  0  0  0  0
  -21.6055   -4.3054   24.7233 C   0  0  0  0  0  0
  -21.8831   -3.8140   23.4350 C   0  0  0  0  0  0
  -21.9174   -4.6952   22.3410 C   0  0  0  0  0  0
  -22.7820  -13.5180   21.1886 C   0  0  0  0  0  0
  -22.1657   -4.2135   21.0992 F   0  0  0  0  0  0
  -21.5633   -3.4544   25.7745 F   0  0  0  0  0  0
  -30.0081  -13.3986   20.4062 N   0  0  0  0  0  0
  -26.2940  -12.9347   20.3333 N   0  0  0  0  0  0
  -25.9312  -11.6501   20.5803 N   0  0  0  0  0  0
  -22.0479  -12.8153   22.0439 N   0  0  0  0  0  0
  -25.4145  -15.1887   20.4062 N   0  0  0  0  0  0
  -31.8474  -14.7154   20.2032 O   0  0  0  0  0  0
  -21.6642   -6.8860   21.4238 O   0  0  0  0  0  0
  -22.3538  -14.5501   20.6762 O   0  0  0  0  0  0
  -24.6233  -31.8635   23.2043 C   0  0  0  0  0  0
  -25.9093  -32.4787   23.8367 C   0  0  1  0  0  0
  -27.2225  -27.3555   20.1117 C   0  0  0  0  0  0
  -25.5934  -33.8581   24.2297 N   0  0  0  0  0  0
  -23.4154  -30.4860   21.5480 C   0  0  2  0  0  0
  -24.8624  -28.9450   20.1104 C   0  0  0  0  0  0
  -22.7457  -29.4636   22.4961 C   0  0  0  0  0  0
  -18.0281  -28.1382   22.8488 C   0  0  0  0  0  0
  -24.1495  -36.7294   23.2637 C   0  0  0  0  0  0
  -25.9531  -30.8049   21.3701 C   0  0  0  0  0  0
  -26.0297  -29.4355   20.7109 C   0  0  0  0  0  0
  -27.2190  -28.6530   20.7003 C   0  0  0  0  0  0
  -26.0417  -26.9092   19.4857 C   0  0  0  0  0  0
  -24.8686  -27.6870   19.4864 C   0  0  0  0  0  0
  -23.6265  -29.8200   20.1634 C   0  0  0  0  0  0
  -25.4120  -36.3083   24.0335 C   0  0  1  0  0  0
  -20.5877  -28.3691   23.1294 C   0  0  2  0  0  0
  -20.6771  -26.9416   22.5418 C   0  0  0  0  0  0
  -19.5752  -26.6385   21.5213 C   0  0  0  0  0  0
  -18.1926  -26.7938   22.1613 C   0  0  0  0  0  0
  -19.1531  -28.8859   23.2886 C   0  0  0  0  0  0
  -18.9449  -30.1463   23.8900 C   0  0  0  0  0  0
  -17.6448  -30.6592   24.0558 C   0  0  0  0  0  0
  -25.9057  -34.9452   23.5121 C   0  0  0  0  0  0
  -16.5339  -29.9087   23.6329 C   0  0  0  0  0  0
  -16.7267  -28.6504   23.0354 C   0  0  0  0  0  0
  -26.4487  -31.6581   25.0723 C   0  0  0  0  0  0
  -25.3727  -31.3714   26.1457 C   0  0  0  0  0  0
  -27.0305  -30.2997   24.6156 C   0  0  0  0  0  0
  -27.6073  -32.4298   25.7479 C   0  0  0  0  0  0
  -27.5590  -37.1797   24.8453 C   0  0  0  0  0  0
  -21.4180  -29.3042   22.3694 N   0  0  0  0  0  0
  -26.4289  -37.3785   23.9418 N   0  0  0  0  0  0
  -24.6826  -31.0675   22.0979 N   0  0  0  0  0  0
  -23.4199  -28.8188   23.3034 O   0  0  0  0  0  0
  -28.3266  -26.5043   20.1350 O   0  0  0  0  0  0
  -26.5610  -34.8924   22.4671 O   0  0  0  0  0  0
  -23.5410  -32.1400   23.7406 O   0  0  0  0  0  0
  -30.3588  -19.3576   21.1154 C   0  0  0  0  0  0
  -31.2234  -19.0400   22.1502 C   0  0  0  0  0  0
  -30.2873  -17.0229   21.0671 C   0  0  0  0  0  0
  -31.1010  -21.0507   19.3938 C   0  0  0  0  0  0
  -25.9594  -22.3724   19.4826 C   0  0  0  0  0  0
  -26.2154  -21.0747   21.6446 C   0  0  0  0  0  0
  -28.7782  -25.4123   22.2104 C   0  0  0  0  0  0
  -28.6303  -23.8858   20.1306 C   0  0  0  0  0  0
  -30.1611  -20.8045   20.5845 C   0  0  1  0  0  0
  -26.6445  -22.3321   20.8632 C   0  0  0  0  0  0
  -28.1933  -22.4997   20.8042 C   0  0  1  0  0  0
  -28.1255  -25.2241   20.8332 C   0  0  2  0  0  0
  -29.7930  -18.1774   20.5374 N   0  0  0  0  0  0
  -31.9715  -19.8878   22.9667 N   0  0  0  0  0  0
  -29.8724  -15.6952   20.6841 N   0  0  0  0  0  0
  -28.7704  -21.2207   20.2295 N   0  3  0  0  0  0
  -31.4223  -17.3157   22.3741 S   0  0  0  0  0  0
  -31.4677  -12.4892   19.1314 H   0  0  0  0  0  0
  -30.3475  -11.3805   19.8732 H   0  0  0  0  0  0
  -29.7502  -11.7571   17.4597 H   0  0  0  0  0  0
  -29.6457  -13.4757   17.7343 H   0  0  0  0  0  0
  -27.8374  -11.3008   18.8456 H   0  0  0  0  0  0
  -27.3603  -12.5998   17.7907 H   0  0  0  0  0  0
  -27.6592  -14.2528   19.5241 H   0  0  0  0  0  0
  -28.7063  -12.0597   21.3828 H   0  0  0  0  0  0
  -28.4576  -13.7264   21.8310 H   0  0  0  0  0  0
  -25.2743   -9.5671   22.4744 H   0  0  0  0  0  0
  -23.9998   -7.4613   22.7459 H   0  0  0  0  0  0
  -21.0798   -8.8721   19.8953 H   0  0  0  0  0  0
  -22.3643  -10.9633   19.6155 H   0  0  0  0  0  0
  -21.1993   -7.6148   23.9719 H   0  0  0  0  0  0
  -21.1492   -6.0522   25.9084 H   0  0  0  0  0  0
  -22.0587   -2.7598   23.2858 H   0  0  0  0  0  0
  -22.4112  -11.9814   22.4817 H   0  0  0  0  0  0
  -21.1117  -13.1180   22.2709 H   0  0  0  0  0  0
  -24.6292  -15.8237   20.5101 H   0  0  0  0  0  0
  -26.2414  -15.6370   20.0330 H   0  0  0  0  0  0
  -26.7170  -32.5469   23.1133 H   0  0  0  0  0  0
  -25.0096  -33.9739   25.0453 H   0  0  0  0  0  0
  -22.7073  -31.3048   21.4064 H   0  0  0  0  0  0
  -23.3770  -35.9606   23.3264 H   0  0  0  0  0  0
  -24.3596  -36.8943   22.2054 H   0  0  0  0  0  0
  -23.7224  -37.6483   23.6675 H   0  0  0  0  0  0
  -26.0812  -31.5722   20.6055 H   0  0  0  0  0  0
  -26.8344  -30.8519   21.9979 H   0  0  0  0  0  0
  -28.1169  -29.0241   21.1741 H   0  0  0  0  0  0
  -26.0213  -25.9411   19.0055 H   0  0  0  0  0  0
  -23.9751  -27.3078   19.0100 H   0  0  0  0  0  0
  -23.7374  -30.5943   19.4032 H   0  0  0  0  0  0
  -22.7489  -29.2429   19.8665 H   0  0  0  0  0  0
  -25.1297  -36.1937   25.0826 H   0  0  0  0  0  0
  -20.9963  -28.3258   24.1416 H   0  0  0  0  0  0
  -20.5663  -26.2301   23.3615 H   0  0  0  0  0  0
  -21.6638  -26.7450   22.1205 H   0  0  0  0  0  0
  -19.6906  -25.6295   21.1253 H   0  0  0  0  0  0
  -19.6698  -27.3186   20.6737 H   0  0  0  0  0  0
  -17.4205  -26.6702   21.3998 H   0  0  0  0  0  0
  -18.0305  -26.0067   22.8993 H   0  0  0  0  0  0
  -19.7926  -30.7272   24.2263 H   0  0  0  0  0  0
  -17.5008  -31.6271   24.5161 H   0  0  0  0  0  0
  -15.5345  -30.2986   23.7666 H   0  0  0  0  0  0
  -15.8661  -28.0827   22.7071 H   0  0  0  0  0  0
  -24.5912  -30.7050   25.7792 H   0  0  0  0  0  0
  -24.8899  -32.2868   26.4887 H   0  0  0  0  0  0
  -25.8054  -30.8894   27.0232 H   0  0  0  0  0  0
  -26.2854  -29.6766   24.1189 H   0  0  0  0  0  0
  -27.4006  -29.7243   25.4658 H   0  0  0  0  0  0
  -27.8737  -30.4274   23.9358 H   0  0  0  0  0  0
  -27.2709  -33.3603   26.2070 H   0  0  0  0  0  0
  -28.3868  -32.6846   25.0282 H   0  0  0  0  0  0
  -28.0755  -31.8401   26.5374 H   0  0  0  0  0  0
  -28.2587  -38.0118   24.7542 H   0  0  0  0  0  0
  -28.1111  -36.2657   24.6222 H   0  0  0  0  0  0
  -27.2320  -37.1365   25.8856 H   0  0  0  0  0  0
  -20.9363  -29.8749   21.6883 H   0  0  0  0  0  0
  -26.0175  -38.2858   24.1432 H   0  0  0  0  0  0
  -32.1394  -20.8937   19.6886 H   0  0  0  0  0  0
  -31.0192  -22.0704   19.0164 H   0  0  0  0  0  0
  -30.8934  -20.3651   18.5716 H   0  0  0  0  0  0
  -24.8891  -22.1841   19.5762 H   0  0  0  0  0  0
  -26.3585  -21.6235   18.7982 H   0  0  0  0  0  0
  -26.0616  -23.3475   19.0056 H   0  0  0  0  0  0
  -25.1328  -21.0553   21.7768 H   0  0  0  0  0  0
  -26.6572  -21.0577   22.6417 H   0  0  0  0  0  0
  -26.4879  -20.1495   21.1356 H   0  0  0  0  0  0
  -28.5384  -24.5928   22.8877 H   0  0  0  0  0  0
  -28.4315  -26.3307   22.6842 H   0  0  0  0  0  0
  -29.8630  -25.4726   22.1258 H   0  0  0  0  0  0
  -28.2969  -23.8988   19.0929 H   0  0  0  0  0  0
  -29.7186  -23.9205   20.0753 H   0  0  0  0  0  0
  -30.4800  -21.4846   21.3755 H   0  0  0  0  0  0
  -26.2366  -23.1642   21.4358 H   0  0  0  0  0  0
  -28.5298  -22.5315   21.8408 H   0  0  0  0  0  0
  -27.0608  -25.1011   21.0156 H   0  0  0  0  0  0
  -32.0485  -20.8958   22.8720 H   0  0  0  0  0  0
  -32.6098  -19.5354   23.6738 H   0  0  0  0  0  0
  -28.8793  -15.5413   20.6443 H   0  0  0  0  0  0
  -28.1962  -20.4813   20.5996 H   0  0  0  0  0  0
  -28.6592  -21.1865   19.2299 H   0  0  0  0  0  0
  1 25  1  0  0  0
  1 30  2  0  0  0
  1 85  1  0  0  0
  2  3  1  0  0  0
  2 25  1  0  0  0
  2 88  1  0  0  0
  2 89  1  0  0  0
  3  4  1  0  0  0
  3 90  1  0  0  0
  3 91  1  0  0  0
  4  5  1  0  0  0
  4 92  1  0  0  0
  4 93  1  0  0  0
  5  6  1  0  0  0
  5 26  1  0  0  0
  5 94  1  0  0  0
  6 25  1  0  0  0
  6 95  1  0  0  0
  6 96  1  0  0  0
  7  8  2  0  0  0
  7 26  1  0  0  0
  7 29  1  0  0  0
  8  9  1  0  0  0
  8 22  1  0  0  0
  9 10  1  0  0  0
  9 27  2  0  0  0
 10 11  2  0  0  0
 10 15  1  0  0  0
 11 12  1  0  0  0
 11 97  1  0  0  0
 12 13  2  0  0  0
 12 98  1  0  0  0
 13 14  1  0  0  0
 13 31  1  0  0  0
 14 15  2  0  0  0
 14 99  1  0  0  0
 15100  1  0  0  0
 16 17  2  0  0  0
 16 21  1  0  0  0
 16 31  1  0  0  0
 17 18  1  0  0  0
 17101  1  0  0  0
 18 19  2  0  0  0
 18102  1  0  0  0
 19 20  1  0  0  0
 19 24  1  0  0  0
 20 21  2  0  0  0
 20103  1  0  0  0
 21 23  1  0  0  0
 22 28  1  0  0  0
 22 32  2  0  0  0
 26 27  1  0  0  0
 28104  1  0  0  0
 28105  1  0  0  0
 29106  1  0  0  0
 29107  1  0  0  0
 33 34  1  0  0  0
 33 66  1  0  0  0
 33 70  2  0  0  0
 34 36  1  0  0  0
 34 59  1  0  0  0
 34108  1  0  0  0
 35 44  2  0  0  0
 35 45  1  0  0  0
 35 68  1  0  0  0
 36 56  1  0  0  0
 36109  1  0  0  0
 37 39  1  0  0  0
 37 47  1  0  0  0
 37 66  1  0  0  0
 37110  1  0  0  0
 38 43  2  0  0  0
 38 46  1  0  0  0
 38 47  1  0  0  0
 39 64  1  0  0  0
 39 67  2  0  0  0
 40 52  1  0  0  0
 40 53  2  0  0  0
 40 58  1  0  0  0
 41111  1  0  0  0
 41112  1  0  0  0
 41113  1  0  0  0
 41 48  1  0  0  0
 42 43  1  0  0  0
 42 66  1  0  0  0
 42114  1  0  0  0
 42115  1  0  0  0
 43 44  1  0  0  0
 44116  1  0  0  0
 45 46  2  0  0  0
 45117  1  0  0  0
 46118  1  0  0  0
 47119  1  0  0  0
 47120  1  0  0  0
 48 56  1  0  0  0
 48 65  1  0  0  0
 48121  1  0  0  0
 49 50  1  0  0  0
 49 53  1  0  0  0
 49 64  1  0  0  0
 49122  1  0  0  0
 50 51  1  0  0  0
 50123  1  0  0  0
 50124  1  0  0  0
 51 52  1  0  0  0
 51125  1  0  0  0
 51126  1  0  0  0
 52127  1  0  0  0
 52128  1  0  0  0
 53 54  1  0  0  0
 54 55  2  0  0  0
 54129  1  0  0  0
 55 57  1  0  0  0
 55130  1  0  0  0
 56 69  2  0  0  0
 57 58  2  0  0  0
 57131  1  0  0  0
 58132  1  0  0  0
 59 60  1  0  0  0
 59 61  1  0  0  0
 59 62  1  0  0  0
 60133  1  0  0  0
 60134  1  0  0  0
 60135  1  0  0  0
 61136  1  0  0  0
 61137  1  0  0  0
 61138  1  0  0  0
 62139  1  0  0  0
 62140  1  0  0  0
 62141  1  0  0  0
 63 65  1  0  0  0
 63142  1  0  0  0
 63143  1  0  0  0
 63144  1  0  0  0
 64145  1  0  0  0
 65146  1  0  0  0
 68 82  1  0  0  0
 71 72  2  0  0  0
 71 79  1  0  0  0
 71 83  1  0  0  0
 72 84  1  0  0  0
 72 87  1  0  0  0
 73 83  2  0  0  0
 73 85  1  0  0  0
 73 87  1  0  0  0
 74147  1  0  0  0
 74148  1  0  0  0
 74149  1  0  0  0
 74 79  1  0  0  0
 75150  1  0  0  0
 75151  1  0  0  0
 75152  1  0  0  0
 75 80  1  0  0  0
 76 80  1  0  0  0
 76153  1  0  0  0
 76154  1  0  0  0
 76155  1  0  0  0
 77156  1  0  0  0
 77157  1  0  0  0
 77158  1  0  0  0
 77 82  1  0  0  0
 78 82  1  0  0  0
 78159  1  0  0  0
 78160  1  0  0  0
 78 81  1  0  0  0
 79 86  1  0  0  0
 79161  1  0  0  0
 80 81  1  0  0  0
 80162  1  0  0  0
 81 86  1  0  0  0
 81163  1  0  0  0
 82164  1  0  0  0
 84165  1  0  0  0
 84166  1  0  0  0
 85167  1  0  0  0
 86168  1  0  0  0
 86169  1  0  0  0
M  CHG  1  86   1
M  ISO  4   1 100  68 101  82 101  85 100
M  END
> <chiral flag>
0

> <version>
0

> <s_m_source_file>
/data/baiqing/PycharmProjects/Reinvent-master-3.2/result/LINK_invent/BTK/process_docking_weight1_custom_product_contain_oxygen_bond_distance_aromatic_linkinvent_7_9_3/rearranged_h_0192.sdf

> <i_m_source_file_index>
30

> <r_mmod_Potential_Energy-OPLS-2005>
-144.729354858398

> <r_mmod_Stretch_Energy-OPLS-2005>
67.8060913085938

> <r_mmod_Bend_Energy-OPLS-2005>
138.190032958984

> <r_mmod_Torsional_Energy-OPLS-2005>
270.89208984375

> <r_mmod_Improper_Torsional_Energy-OPLS-2005>
8.20571517944336

> <r_mmod_Van_der_Waal_Energy-OPLS-2005>
114.219772338867

> <r_mmod_Electrostatic_Energy-OPLS-2005>
-328.91552734375

> <r_mmod_Solvation_Energy-OPLS-2005>
-453.944610595703

> <b_mmod_Minimization_Converged-OPLS-2005>
0

> <r_mmod_RMS_Derivative-OPLS-2005>
2.96713185310364

$$$$
31
                    3D
 Structure written by MMmdl.
167175  0  0  1  0            999 V2000
  -30.6996  -14.5377   20.5366 C   0  0  0  0  0  0
  -30.4288  -12.3335   19.4404 C   0  0  0  0  0  0
  -29.5018  -12.4985   18.2158 C   0  0  0  0  0  0
  -28.0253  -12.3554   18.6341 C   0  0  0  0  0  0
  -27.6636  -13.2134   19.8739 C   0  0  2  0  0  0
  -28.7100  -13.0387   21.0012 C   0  0  0  0  0  0
  -25.2589  -13.8153   20.5644 C   0  0  0  0  0  0
  -24.1851  -13.0427   20.9192 C   0  0  0  0  0  0
  -24.6423  -11.6898   20.8754 C   0  0  0  0  0  0
  -23.9098  -10.4275   21.0422 C   0  0  0  0  0  0
  -24.3630   -9.4189   21.9205 C   0  0  0  0  0  0
  -23.6285   -8.2228   22.0788 C   0  0  0  0  0  0
  -22.4275   -8.0277   21.3556 C   0  0  0  0  0  0
  -21.9919   -9.0252   20.4669 C   0  0  0  0  0  0
  -22.7259  -10.2129   20.3072 C   0  0  0  0  0  0
  -21.6848   -6.0720   22.5274 C   0  0  0  0  0  0
  -21.4018   -6.5638   23.8200 C   0  0  0  0  0  0
  -21.3660   -5.6805   24.9164 C   0  0  0  0  0  0
  -21.6038   -4.3058   24.7229 C   0  0  0  0  0  0
  -21.8815   -3.8141   23.4353 C   0  0  0  0  0  0
  -21.9191   -4.6955   22.3396 C   0  0  0  0  0  0
  -22.7880  -13.5225   21.1832 C   0  0  0  0  0  0
  -22.1653   -4.2131   21.0978 F   0  0  0  0  0  0
  -21.5630   -3.4551   25.7747 F   0  0  0  0  0  0
  -30.0377  -13.3445   20.4397 N   0  0  0  0  0  0
  -26.3046  -12.9337   20.3370 N   0  0  0  0  0  0
  -25.9366  -11.6495   20.5802 N   0  0  0  0  0  0
  -22.0521  -12.8216   22.0391 N   0  0  0  0  0  0
  -25.4310  -15.1839   20.3898 N   0  0  0  0  0  0
  -31.8427  -14.6896   20.0971 O   0  0  0  0  0  0
  -21.6633   -6.8868   21.4232 O   0  0  0  0  0  0
  -22.3576  -14.5532   20.6682 O   0  0  0  0  0  0
  -24.6147  -31.8625   23.2024 C   0  0  0  0  0  0
  -25.9024  -32.4784   23.8349 C   0  0  1  0  0  0
  -27.2699  -27.3973   20.1007 C   0  0  0  0  0  0
  -25.5871  -33.8598   24.2281 N   0  0  0  0  0  0
  -23.4141  -30.4722   21.5454 C   0  0  2  0  0  0
  -24.8706  -28.9314   20.1178 C   0  0  0  0  0  0
  -22.7458  -29.4548   22.4985 C   0  0  0  0  0  0
  -18.0278  -28.1319   22.8493 C   0  0  0  0  0  0
  -24.1511  -36.7309   23.2643 C   0  0  0  0  0  0
  -25.9443  -30.8109   21.3687 C   0  0  0  0  0  0
  -26.0267  -29.4429   20.7141 C   0  0  0  0  0  0
  -27.2243  -28.6838   20.6969 C   0  0  0  0  0  0
  -26.0946  -26.9198   19.4755 C   0  0  0  0  0  0
  -24.8998  -27.6682   19.5002 C   0  0  0  0  0  0
  -23.6308  -29.7954   20.1639 C   0  0  0  0  0  0
  -25.4117  -36.3110   24.0367 C   0  0  1  0  0  0
  -20.5869  -28.3600   23.1346 C   0  0  2  0  0  0
  -20.6747  -26.9330   22.5449 C   0  0  0  0  0  0
  -19.5727  -26.6320   21.5230 C   0  0  0  0  0  0
  -18.1896  -26.7851   22.1629 C   0  0  0  0  0  0
  -19.1528  -28.8764   23.2901 C   0  0  0  0  0  0
  -18.9472  -30.1370   23.8902 C   0  0  0  0  0  0
  -17.6473  -30.6532   24.0529 C   0  0  0  0  0  0
  -25.9052  -34.9473   23.5138 C   0  0  0  0  0  0
  -16.5362  -29.9053   23.6306 C   0  0  0  0  0  0
  -16.7276  -28.6466   23.0341 C   0  0  0  0  0  0
  -26.4465  -31.6574   25.0679 C   0  0  0  0  0  0
  -25.3702  -31.3706   26.1399 C   0  0  0  0  0  0
  -27.0280  -30.3018   24.6025 C   0  0  0  0  0  0
  -27.6037  -32.4293   25.7455 C   0  0  0  0  0  0
  -27.5622  -37.1769   24.8447 C   0  0  0  0  0  0
  -21.4171  -29.2965   22.3757 N   0  0  0  0  0  0
  -26.4313  -37.3779   23.9431 N   0  0  0  0  0  0
  -24.6762  -31.0653   22.0966 N   0  0  0  0  0  0
  -23.4202  -28.8092   23.3037 O   0  0  0  0  0  0
  -28.4648  -26.6829   20.1668 O   0  0  0  0  0  0
  -26.5634  -34.8922   22.4714 O   0  0  0  0  0  0
  -23.5326  -32.1423   23.7357 O   0  0  0  0  0  0
  -29.1494  -17.5628   19.8492 C   0  0  0  0  0  0
  -30.1837  -19.6440   19.9315 C   0  0  0  0  0  0
  -30.1409  -16.9694   20.6761 C   0  0  0  0  0  0
  -31.1863  -19.0699   20.7775 C   0  0  0  0  0  0
  -30.1759  -21.0319   19.3591 C   0  0  0  0  0  0
  -32.2008  -23.5901   19.5838 C   0  0  0  0  0  0
  -33.6932  -25.6646   19.6844 C   0  0  0  0  0  0
  -27.6365  -24.4281   20.8369 C   0  0  0  0  0  0
  -32.9276  -24.6768   18.7852 C   0  0  0  0  0  0
  -30.0474  -24.8095   20.2168 C   0  0  0  0  0  0
  -30.6546  -23.5265   19.5185 C   0  0  2  0  0  0
  -28.5676  -25.2496   19.9256 C   0  0  2  0  0  0
  -29.1633  -18.8709   19.4755 N   0  0  0  0  0  0
  -31.1535  -17.7558   21.1474 N   0  0  0  0  0  0
  -32.2951  -19.7692   21.2430 N   0  0  0  0  0  0
  -29.9731  -15.5783   21.0089 N   0  0  0  0  0  0
  -30.2694  -22.1870   20.0838 N   0  0  0  0  0  0
  -30.0667  -21.1229   18.0210 N   0  3  0  0  0  0
  -32.8708  -22.7983   20.2551 O   0  0  0  0  0  0
  -31.4743  -12.4224   19.1386 H   0  0  0  0  0  0
  -30.3236  -11.3313   19.8573 H   0  0  0  0  0  0
  -29.7419  -11.7478   17.4590 H   0  0  0  0  0  0
  -29.6662  -13.4682   17.7462 H   0  0  0  0  0  0
  -27.8551  -11.3002   18.8562 H   0  0  0  0  0  0
  -27.3676  -12.6017   17.7997 H   0  0  0  0  0  0
  -27.6939  -14.2539   19.5518 H   0  0  0  0  0  0
  -28.6943  -12.0167   21.3821 H   0  0  0  0  0  0
  -28.4698  -13.6751   21.8554 H   0  0  0  0  0  0
  -25.2760   -9.5639   22.4794 H   0  0  0  0  0  0
  -23.9965   -7.4632   22.7539 H   0  0  0  0  0  0
  -21.0844   -8.8779   19.8990 H   0  0  0  0  0  0
  -22.3723  -10.9666   19.6199 H   0  0  0  0  0  0
  -21.2022   -7.6151   23.9692 H   0  0  0  0  0  0
  -21.1486   -6.0542   25.9063 H   0  0  0  0  0  0
  -22.0598   -2.7606   23.2861 H   0  0  0  0  0  0
  -22.4133  -11.9853   22.4721 H   0  0  0  0  0  0
  -21.1163  -13.1283   22.2651 H   0  0  0  0  0  0
  -24.6489  -15.8276   20.4335 H   0  0  0  0  0  0
  -26.2471  -15.5907   19.9522 H   0  0  0  0  0  0
  -26.7090  -32.5535   23.1118 H   0  0  0  0  0  0
  -24.9964  -33.9768   25.0373 H   0  0  0  0  0  0
  -22.7066  -31.2866   21.3893 H   0  0  0  0  0  0
  -23.3806  -35.9599   23.3252 H   0  0  0  0  0  0
  -24.3591  -36.8980   22.2048 H   0  0  0  0  0  0
  -23.7189  -37.6480   23.6686 H   0  0  0  0  0  0
  -26.0693  -31.5758   20.6003 H   0  0  0  0  0  0
  -26.8243  -30.8624   21.9972 H   0  0  0  0  0  0
  -28.1183  -29.0655   21.1636 H   0  0  0  0  0  0
  -26.0903  -25.9649   18.9681 H   0  0  0  0  0  0
  -24.0118  -27.2656   19.0341 H   0  0  0  0  0  0
  -23.7436  -30.5619   19.3964 H   0  0  0  0  0  0
  -22.7586  -29.2088   19.8740 H   0  0  0  0  0  0
  -25.1277  -36.2013   25.0859 H   0  0  0  0  0  0
  -20.9963  -28.3139   24.1472 H   0  0  0  0  0  0
  -20.5608  -26.2198   23.3629 H   0  0  0  0  0  0
  -21.6608  -26.7297   22.1261 H   0  0  0  0  0  0
  -19.6883  -25.6248   21.1234 H   0  0  0  0  0  0
  -19.6685  -27.3137   20.6767 H   0  0  0  0  0  0
  -17.4180  -26.6643   21.4016 H   0  0  0  0  0  0
  -18.0245  -25.9965   22.8990 H   0  0  0  0  0  0
  -19.7954  -30.7161   24.2307 H   0  0  0  0  0  0
  -17.5036  -31.6230   24.5079 H   0  0  0  0  0  0
  -15.5361  -30.2946   23.7594 H   0  0  0  0  0  0
  -15.8688  -28.0783   22.7051 H   0  0  0  0  0  0
  -24.5886  -30.7070   25.7715 H   0  0  0  0  0  0
  -24.8861  -32.2865   26.4813 H   0  0  0  0  0  0
  -25.7968  -30.8885   27.0199 H   0  0  0  0  0  0
  -26.2808  -29.6795   24.1089 H   0  0  0  0  0  0
  -27.4104  -29.7231   25.4446 H   0  0  0  0  0  0
  -27.8646  -30.4364   23.9148 H   0  0  0  0  0  0
  -27.2683  -33.3622   26.2008 H   0  0  0  0  0  0
  -28.3859  -32.6800   25.0279 H   0  0  0  0  0  0
  -28.0684  -31.8405   26.5373 H   0  0  0  0  0  0
  -28.2559  -38.0146   24.7636 H   0  0  0  0  0  0
  -28.1214  -36.2685   24.6142 H   0  0  0  0  0  0
  -27.2359  -37.1278   25.8849 H   0  0  0  0  0  0
  -20.9326  -29.8832   21.7121 H   0  0  0  0  0  0
  -26.0257  -38.2889   24.1425 H   0  0  0  0  0  0
  -28.3319  -16.9714   19.4659 H   0  0  0  0  0  0
  -34.2023  -26.4201   19.0824 H   0  0  0  0  0  0
  -34.4531  -25.1638   20.2884 H   0  0  0  0  0  0
  -33.0187  -26.1880   20.3633 H   0  0  0  0  0  0
  -27.7446  -23.3618   20.6373 H   0  0  0  0  0  0
  -26.5812  -24.6558   20.7023 H   0  0  0  0  0  0
  -27.8744  -24.5919   21.8880 H   0  0  0  0  0  0
  -32.2076  -25.2191   18.1757 H   0  0  0  0  0  0
  -33.6129  -24.1954   18.0890 H   0  0  0  0  0  0
  -30.6661  -25.6594   19.9255 H   0  0  0  0  0  0
  -30.1926  -24.7365   21.2954 H   0  0  0  0  0  0
  -30.3825  -23.5743   18.4643 H   0  0  0  0  0  0
  -28.3262  -25.0678   18.8779 H   0  0  0  0  0  0
  -32.5907  -20.6288   20.7892 H   0  0  0  0  0  0
  -33.0763  -19.2199   21.5843 H   0  0  0  0  0  0
  -29.0493  -15.3160   21.3149 H   0  0  0  0  0  0
  -30.3826  -22.0767   21.0824 H   0  0  0  0  0  0
  -29.8972  -20.2709   17.5098 H   0  0  0  0  0  0
  -29.9507  -21.9952   17.5340 H   0  0  0  0  0  0
  1 25  1  0  0  0
  1 30  2  0  0  0
  1 86  1  0  0  0
  2  3  1  0  0  0
  2 25  1  0  0  0
  2 90  1  0  0  0
  2 91  1  0  0  0
  3  4  1  0  0  0
  3 92  1  0  0  0
  3 93  1  0  0  0
  4  5  1  0  0  0
  4 94  1  0  0  0
  4 95  1  0  0  0
  5  6  1  0  0  0
  5 26  1  0  0  0
  5 96  1  0  0  0
  6 25  1  0  0  0
  6 97  1  0  0  0
  6 98  1  0  0  0
  7  8  2  0  0  0
  7 26  1  0  0  0
  7 29  1  0  0  0
  8  9  1  0  0  0
  8 22  1  0  0  0
  9 10  1  0  0  0
  9 27  2  0  0  0
 10 11  2  0  0  0
 10 15  1  0  0  0
 11 12  1  0  0  0
 11 99  1  0  0  0
 12 13  2  0  0  0
 12100  1  0  0  0
 13 14  1  0  0  0
 13 31  1  0  0  0
 14 15  2  0  0  0
 14101  1  0  0  0
 15102  1  0  0  0
 16 17  2  0  0  0
 16 21  1  0  0  0
 16 31  1  0  0  0
 17 18  1  0  0  0
 17103  1  0  0  0
 18 19  2  0  0  0
 18104  1  0  0  0
 19 20  1  0  0  0
 19 24  1  0  0  0
 20 21  2  0  0  0
 20105  1  0  0  0
 21 23  1  0  0  0
 22 28  1  0  0  0
 22 32  2  0  0  0
 26 27  1  0  0  0
 28106  1  0  0  0
 28107  1  0  0  0
 29108  1  0  0  0
 29109  1  0  0  0
 33 34  1  0  0  0
 33 66  1  0  0  0
 33 70  2  0  0  0
 34 36  1  0  0  0
 34 59  1  0  0  0
 34110  1  0  0  0
 35 44  2  0  0  0
 35 45  1  0  0  0
 35 68  1  0  0  0
 36 56  1  0  0  0
 36111  1  0  0  0
 37 39  1  0  0  0
 37 47  1  0  0  0
 37 66  1  0  0  0
 37112  1  0  0  0
 38 43  2  0  0  0
 38 46  1  0  0  0
 38 47  1  0  0  0
 39 64  1  0  0  0
 39 67  2  0  0  0
 40 52  1  0  0  0
 40 53  2  0  0  0
 40 58  1  0  0  0
 41113  1  0  0  0
 41114  1  0  0  0
 41115  1  0  0  0
 41 48  1  0  0  0
 42 43  1  0  0  0
 42 66  1  0  0  0
 42116  1  0  0  0
 42117  1  0  0  0
 43 44  1  0  0  0
 44118  1  0  0  0
 45 46  2  0  0  0
 45119  1  0  0  0
 46120  1  0  0  0
 47121  1  0  0  0
 47122  1  0  0  0
 48 56  1  0  0  0
 48 65  1  0  0  0
 48123  1  0  0  0
 49 50  1  0  0  0
 49 53  1  0  0  0
 49 64  1  0  0  0
 49124  1  0  0  0
 50 51  1  0  0  0
 50125  1  0  0  0
 50126  1  0  0  0
 51 52  1  0  0  0
 51127  1  0  0  0
 51128  1  0  0  0
 52129  1  0  0  0
 52130  1  0  0  0
 53 54  1  0  0  0
 54 55  2  0  0  0
 54131  1  0  0  0
 55 57  1  0  0  0
 55132  1  0  0  0
 56 69  2  0  0  0
 57 58  2  0  0  0
 57133  1  0  0  0
 58134  1  0  0  0
 59 60  1  0  0  0
 59 61  1  0  0  0
 59 62  1  0  0  0
 60135  1  0  0  0
 60136  1  0  0  0
 60137  1  0  0  0
 61138  1  0  0  0
 61139  1  0  0  0
 61140  1  0  0  0
 62141  1  0  0  0
 62142  1  0  0  0
 62143  1  0  0  0
 63 65  1  0  0  0
 63144  1  0  0  0
 63145  1  0  0  0
 63146  1  0  0  0
 64147  1  0  0  0
 65148  1  0  0  0
 68 82  1  0  0  0
 71 73  2  0  0  0
 71 83  1  0  0  0
 71149  1  0  0  0
 72 74  1  0  0  0
 72 75  1  0  0  0
 72 83  2  0  0  0
 73 84  1  0  0  0
 73 86  1  0  0  0
 74 84  2  0  0  0
 74 85  1  0  0  0
 75 87  1  0  0  0
 75 88  2  0  0  0
 76 79  1  0  0  0
 76 81  1  0  0  0
 76 89  2  0  0  0
 77 79  1  0  0  0
 77150  1  0  0  0
 77151  1  0  0  0
 77152  1  0  0  0
 78153  1  0  0  0
 78154  1  0  0  0
 78155  1  0  0  0
 78 82  1  0  0  0
 79156  1  0  0  0
 79157  1  0  0  0
 80 82  1  0  0  0
 80158  1  0  0  0
 80159  1  0  0  0
 80 81  1  0  0  0
 81 87  1  0  0  0
 81160  1  0  0  0
 82161  1  0  0  0
 85162  1  0  0  0
 85163  1  0  0  0
 86164  1  0  0  0
 87165  1  0  0  0
 88166  1  0  0  0
 88167  1  0  0  0
M  CHG  1  88   1
M  ISO  4   1 100  68 101  82 101  86 100
M  END
> <chiral flag>
0

> <version>
0

> <s_m_source_file>
/data/baiqing/PycharmProjects/Reinvent-master-3.2/result/LINK_invent/BTK/process_docking_weight1_custom_product_contain_oxygen_bond_distance_aromatic_linkinvent_7_9_3/rearranged_h_0192.sdf

> <i_m_source_file_index>
31

> <r_mmod_Potential_Energy-OPLS-2005>
-153.193710327148

> <r_mmod_Stretch_Energy-OPLS-2005>
60.6036338806152

> <r_mmod_Bend_Energy-OPLS-2005>
138.377731323242

> <r_mmod_Torsional_Energy-OPLS-2005>
262.373260498047

> <r_mmod_Improper_Torsional_Energy-OPLS-2005>
10.3987941741943

> <r_mmod_Van_der_Waal_Energy-OPLS-2005>
149.628128051758

> <r_mmod_Electrostatic_Energy-OPLS-2005>
-308.997253417969

> <r_mmod_Solvation_Energy-OPLS-2005>
-488.125396728516

> <b_mmod_Minimization_Converged-OPLS-2005>
0

> <r_mmod_RMS_Derivative-OPLS-2005>
4.79104566574097

$$$$
32
                    3D
 Structure written by MMmdl.
160168  0  0  1  0            999 V2000
  -30.6925  -14.5463   20.4651 C   0  0  0  0  0  0
  -30.4081  -12.3186   19.4654 C   0  0  0  0  0  0
  -29.5043  -12.4594   18.2253 C   0  0  0  0  0  0
  -28.0233  -12.3293   18.6312 C   0  0  0  0  0  0
  -27.6464  -13.2223   19.8476 C   0  0  2  0  0  0
  -28.6867  -13.1017   20.9812 C   0  0  0  0  0  0
  -25.2534  -13.8202   20.5674 C   0  0  0  0  0  0
  -24.1812  -13.0468   20.9209 C   0  0  0  0  0  0
  -24.6392  -11.6955   20.8746 C   0  0  0  0  0  0
  -23.9058  -10.4329   21.0392 C   0  0  0  0  0  0
  -24.3624   -9.4237   21.9160 C   0  0  0  0  0  0
  -23.6308   -8.2266   22.0719 C   0  0  0  0  0  0
  -22.4284   -8.0283   21.3511 C   0  0  0  0  0  0
  -21.9924   -9.0264   20.4640 C   0  0  0  0  0  0
  -22.7242  -10.2146   20.3054 C   0  0  0  0  0  0
  -21.6871   -6.0747   22.5278 C   0  0  0  0  0  0
  -21.4041   -6.5649   23.8208 C   0  0  0  0  0  0
  -21.3658   -5.6783   24.9170 C   0  0  0  0  0  0
  -21.6047   -4.3048   24.7212 C   0  0  0  0  0  0
  -21.8820   -3.8138   23.4324 C   0  0  0  0  0  0
  -21.9200   -4.6966   22.3394 C   0  0  0  0  0  0
  -22.7826  -13.5252   21.1851 C   0  0  0  0  0  0
  -22.1662   -4.2171   21.0962 F   0  0  0  0  0  0
  -21.5611   -3.4520   25.7712 F   0  0  0  0  0  0
  -30.0072  -13.3736   20.4067 N   0  0  0  0  0  0
  -26.2955  -12.9396   20.3239 N   0  0  0  0  0  0
  -25.9317  -11.6551   20.5736 N   0  0  0  0  0  0
  -22.0472  -12.8267   22.0415 N   0  0  0  0  0  0
  -25.4228  -15.1932   20.4114 N   0  0  0  0  0  0
  -31.8983  -14.5992   20.2128 O   0  0  0  0  0  0
  -21.6647   -6.8877   21.4235 O   0  0  0  0  0  0
  -22.3511  -14.5537   20.6652 O   0  0  0  0  0  0
  -24.6216  -31.8654   23.2071 C   0  0  0  0  0  0
  -25.9051  -32.4810   23.8391 C   0  0  1  0  0  0
  -27.2222  -27.3607   20.1355 C   0  0  0  0  0  0
  -25.5867  -33.8605   24.2312 N   0  0  0  0  0  0
  -23.4112  -30.4915   21.5476 C   0  0  2  0  0  0
  -24.8563  -28.9529   20.1110 C   0  0  0  0  0  0
  -22.7450  -29.4640   22.4930 C   0  0  0  0  0  0
  -18.0293  -28.1394   22.8503 C   0  0  0  0  0  0
  -24.1474  -36.7319   23.2643 C   0  0  0  0  0  0
  -25.9481  -30.8102   21.3679 C   0  0  0  0  0  0
  -26.0181  -29.4407   20.7169 C   0  0  0  0  0  0
  -27.2034  -28.6550   20.7216 C   0  0  0  0  0  0
  -26.0384  -26.9128   19.5042 C   0  0  0  0  0  0
  -24.8661  -27.6926   19.4951 C   0  0  0  0  0  0
  -23.6219  -29.8275   20.1597 C   0  0  0  0  0  0
  -25.4092  -36.3097   24.0343 C   0  0  1  0  0  0
  -20.5910  -28.3662   23.1304 C   0  0  2  0  0  0
  -20.6769  -26.9382   22.5411 C   0  0  0  0  0  0
  -19.5735  -26.6382   21.5216 C   0  0  0  0  0  0
  -18.1914  -26.7924   22.1647 C   0  0  0  0  0  0
  -19.1549  -28.8853   23.2901 C   0  0  0  0  0  0
  -18.9458  -30.1456   23.8895 C   0  0  0  0  0  0
  -17.6467  -30.6590   24.0573 C   0  0  0  0  0  0
  -25.9017  -34.9467   23.5133 C   0  0  0  0  0  0
  -16.5357  -29.9084   23.6342 C   0  0  0  0  0  0
  -16.7269  -28.6519   23.0339 C   0  0  0  0  0  0
  -26.4437  -31.6623   25.0758 C   0  0  0  0  0  0
  -25.3699  -31.3778   26.1508 C   0  0  0  0  0  0
  -27.0270  -30.3055   24.6178 C   0  0  0  0  0  0
  -27.5998  -32.4368   25.7515 C   0  0  0  0  0  0
  -27.5580  -37.1817   24.8458 C   0  0  0  0  0  0
  -21.4170  -29.3031   22.3700 N   0  0  0  0  0  0
  -26.4286  -37.3781   23.9420 N   0  0  0  0  0  0
  -24.6778  -31.0731   22.0964 N   0  0  0  0  0  0
  -23.4189  -28.8148   23.2965 O   0  0  0  0  0  0
  -28.3870  -26.5967   20.2187 O   0  0  0  0  0  0
  -26.5610  -34.8932   22.4707 O   0  0  0  0  0  0
  -23.5404  -32.1425   23.7441 O   0  0  0  0  0  0
  -29.5779  -18.2386   20.4782 C   0  0  0  0  0  0
  -29.0773  -20.3657   20.9767 C   0  0  0  0  0  0
  -32.4322  -18.2549   16.9100 C   0  0  0  0  0  0
  -31.9392  -18.2604   18.3664 C   0  0  0  0  0  0
  -30.9553  -17.1126   18.6847 C   0  0  0  0  0  0
  -29.1389  -22.7402   20.3954 C   0  0  0  0  0  0
  -28.4140  -25.1806   19.8618 C   0  0  0  0  0  0
  -30.5042  -17.0397   20.1768 C   0  0  2  0  0  0
  -28.7101  -24.1250   20.9909 C   0  0  1  0  0  0
  -30.0342  -19.4306   20.9517 N   0  0  0  0  0  0
  -28.2662  -18.2147   20.1481 N   0  0  0  0  0  0
  -29.3216  -21.6877   21.4129 N   0  0  0  0  0  0
  -29.9626  -15.6913   20.5102 N   0  0  0  0  0  0
  -27.5415  -23.8328   21.7503 O   0  0  0  0  0  0
  -27.5721  -19.7493   20.3747 S   0  0  0  0  0  0
  -31.4605  -12.3831   19.1847 H   0  0  0  0  0  0
  -30.2808  -11.3385   19.9280 H   0  0  0  0  0  0
  -29.7561  -11.6961   17.4892 H   0  0  0  0  0  0
  -29.6753  -13.4223   17.7391 H   0  0  0  0  0  0
  -27.8434  -11.2830   18.8726 H   0  0  0  0  0  0
  -27.3779  -12.5539   17.7807 H   0  0  0  0  0  0
  -27.6591  -14.2530   19.4885 H   0  0  0  0  0  0
  -28.6710  -12.1035   21.4187 H   0  0  0  0  0  0
  -28.4595  -13.7934   21.7952 H   0  0  0  0  0  0
  -25.2791   -9.5710   22.4692 H   0  0  0  0  0  0
  -24.0031   -7.4663   22.7436 H   0  0  0  0  0  0
  -21.0819   -8.8799   19.8975 H   0  0  0  0  0  0
  -22.3685  -10.9677   19.6145 H   0  0  0  0  0  0
  -21.2059   -7.6155   23.9737 H   0  0  0  0  0  0
  -21.1468   -6.0496   25.9073 H   0  0  0  0  0  0
  -22.0601   -2.7606   23.2811 H   0  0  0  0  0  0
  -22.4109  -11.9996   22.4909 H   0  0  0  0  0  0
  -21.1069  -13.1269   22.2553 H   0  0  0  0  0  0
  -24.6563  -15.8462   20.5381 H   0  0  0  0  0  0
  -26.2675  -15.6410   20.0812 H   0  0  0  0  0  0
  -26.7136  -32.5472   23.1160 H   0  0  0  0  0  0
  -24.9974  -33.9741   25.0429 H   0  0  0  0  0  0
  -22.7030  -31.3140   21.4110 H   0  0  0  0  0  0
  -23.3734  -35.9665   23.3311 H   0  0  0  0  0  0
  -24.3550  -36.8902   22.2054 H   0  0  0  0  0  0
  -23.7225  -37.6527   23.6648 H   0  0  0  0  0  0
  -26.0876  -31.5697   20.5947 H   0  0  0  0  0  0
  -26.8289  -30.8542   21.9965 H   0  0  0  0  0  0
  -28.0936  -29.0383   21.1999 H   0  0  0  0  0  0
  -25.9606  -25.9587   19.0116 H   0  0  0  0  0  0
  -23.9769  -27.3159   19.0059 H   0  0  0  0  0  0
  -23.7344  -30.6062   19.4036 H   0  0  0  0  0  0
  -22.7431  -29.2522   19.8608 H   0  0  0  0  0  0
  -25.1279  -36.1959   25.0844 H   0  0  0  0  0  0
  -21.0054  -28.3229   24.1410 H   0  0  0  0  0  0
  -20.5651  -26.2270   23.3603 H   0  0  0  0  0  0
  -21.6631  -26.7380   22.1219 H   0  0  0  0  0  0
  -19.6844  -25.6281   21.1235 H   0  0  0  0  0  0
  -19.6668  -27.3236   20.6783 H   0  0  0  0  0  0
  -17.4181  -26.6717   21.4033 H   0  0  0  0  0  0
  -18.0288  -26.0059   22.9056 H   0  0  0  0  0  0
  -19.7923  -30.7301   24.2246 H   0  0  0  0  0  0
  -17.4992  -31.6240   24.5197 H   0  0  0  0  0  0
  -15.5349  -30.2974   23.7633 H   0  0  0  0  0  0
  -15.8689  -28.0825   22.7032 H   0  0  0  0  0  0
  -24.5839  -30.7131   25.7876 H   0  0  0  0  0  0
  -24.8937  -32.2973   26.4960 H   0  0  0  0  0  0
  -25.8052  -30.8958   27.0273 H   0  0  0  0  0  0
  -26.2856  -29.6839   24.1146 H   0  0  0  0  0  0
  -27.3920  -29.7247   25.4650 H   0  0  0  0  0  0
  -27.8734  -30.4361   23.9433 H   0  0  0  0  0  0
  -27.2598  -33.3665   26.2124 H   0  0  0  0  0  0
  -28.3805  -32.6963   25.0339 H   0  0  0  0  0  0
  -28.0693  -31.8482   26.5409 H   0  0  0  0  0  0
  -28.2618  -38.0104   24.7511 H   0  0  0  0  0  0
  -28.1070  -36.2630   24.6300 H   0  0  0  0  0  0
  -27.2312  -37.1487   25.8868 H   0  0  0  0  0  0
  -20.9325  -29.8805   21.6976 H   0  0  0  0  0  0
  -26.0167  -38.2867   24.1398 H   0  0  0  0  0  0
  -33.2495  -18.9657   16.7740 H   0  0  0  0  0  0
  -31.6386  -18.5405   16.2187 H   0  0  0  0  0  0
  -32.8010  -17.2705   16.6102 H   0  0  0  0  0  0
  -31.4864  -19.2279   18.5800 H   0  0  0  0  0  0
  -32.7999  -18.1770   19.0299 H   0  0  0  0  0  0
  -31.4464  -16.1882   18.3893 H   0  0  0  0  0  0
  -30.0733  -17.1873   18.0501 H   0  0  0  0  0  0
  -30.0765  -22.8688   19.8515 H   0  0  0  0  0  0
  -28.3921  -22.4187   19.6665 H   0  0  0  0  0  0
  -27.5827  -24.8246   19.2616 H   0  0  0  0  0  0
  -29.2564  -25.1276   19.1726 H   0  0  0  0  0  0
  -31.3828  -17.1643   20.8102 H   0  0  0  0  0  0
  -29.4935  -24.5018   21.6528 H   0  0  0  0  0  0
  -28.6729  -21.9491   22.1548 H   0  0  0  0  0  0
  -28.9678  -15.6280   20.6620 H   0  0  0  0  0  0
  -27.3166  -24.6033   22.2649 H   0  0  0  0  0  0
  1 25  1  0  0  0
  1 30  2  0  0  0
  1 83  1  0  0  0
  2  3  1  0  0  0
  2 25  1  0  0  0
  2 86  1  0  0  0
  2 87  1  0  0  0
  3  4  1  0  0  0
  3 88  1  0  0  0
  3 89  1  0  0  0
  4  5  1  0  0  0
  4 90  1  0  0  0
  4 91  1  0  0  0
  5  6  1  0  0  0
  5 26  1  0  0  0
  5 92  1  0  0  0
  6 25  1  0  0  0
  6 93  1  0  0  0
  6 94  1  0  0  0
  7  8  2  0  0  0
  7 26  1  0  0  0
  7 29  1  0  0  0
  8  9  1  0  0  0
  8 22  1  0  0  0
  9 10  1  0  0  0
  9 27  2  0  0  0
 10 11  2  0  0  0
 10 15  1  0  0  0
 11 12  1  0  0  0
 11 95  1  0  0  0
 12 13  2  0  0  0
 12 96  1  0  0  0
 13 14  1  0  0  0
 13 31  1  0  0  0
 14 15  2  0  0  0
 14 97  1  0  0  0
 15 98  1  0  0  0
 16 17  2  0  0  0
 16 21  1  0  0  0
 16 31  1  0  0  0
 17 18  1  0  0  0
 17 99  1  0  0  0
 18 19  2  0  0  0
 18100  1  0  0  0
 19 20  1  0  0  0
 19 24  1  0  0  0
 20 21  2  0  0  0
 20101  1  0  0  0
 21 23  1  0  0  0
 22 28  1  0  0  0
 22 32  2  0  0  0
 26 27  1  0  0  0
 28102  1  0  0  0
 28103  1  0  0  0
 29104  1  0  0  0
 29105  1  0  0  0
 33 34  1  0  0  0
 33 66  1  0  0  0
 33 70  2  0  0  0
 34 36  1  0  0  0
 34 59  1  0  0  0
 34106  1  0  0  0
 35 44  2  0  0  0
 35 45  1  0  0  0
 35 68  1  0  0  0
 36 56  1  0  0  0
 36107  1  0  0  0
 37 39  1  0  0  0
 37 47  1  0  0  0
 37 66  1  0  0  0
 37108  1  0  0  0
 38 43  2  0  0  0
 38 46  1  0  0  0
 38 47  1  0  0  0
 39 64  1  0  0  0
 39 67  2  0  0  0
 40 52  1  0  0  0
 40 53  2  0  0  0
 40 58  1  0  0  0
 41109  1  0  0  0
 41110  1  0  0  0
 41111  1  0  0  0
 41 48  1  0  0  0
 42 43  1  0  0  0
 42 66  1  0  0  0
 42112  1  0  0  0
 42113  1  0  0  0
 43 44  1  0  0  0
 44114  1  0  0  0
 45 46  2  0  0  0
 45115  1  0  0  0
 46116  1  0  0  0
 47117  1  0  0  0
 47118  1  0  0  0
 48 56  1  0  0  0
 48 65  1  0  0  0
 48119  1  0  0  0
 49 50  1  0  0  0
 49 53  1  0  0  0
 49 64  1  0  0  0
 49120  1  0  0  0
 50 51  1  0  0  0
 50121  1  0  0  0
 50122  1  0  0  0
 51 52  1  0  0  0
 51123  1  0  0  0
 51124  1  0  0  0
 52125  1  0  0  0
 52126  1  0  0  0
 53 54  1  0  0  0
 54 55  2  0  0  0
 54127  1  0  0  0
 55 57  1  0  0  0
 55128  1  0  0  0
 56 69  2  0  0  0
 57 58  2  0  0  0
 57129  1  0  0  0
 58130  1  0  0  0
 59 60  1  0  0  0
 59 61  1  0  0  0
 59 62  1  0  0  0
 60131  1  0  0  0
 60132  1  0  0  0
 60133  1  0  0  0
 61134  1  0  0  0
 61135  1  0  0  0
 61136  1  0  0  0
 62137  1  0  0  0
 62138  1  0  0  0
 62139  1  0  0  0
 63 65  1  0  0  0
 63140  1  0  0  0
 63141  1  0  0  0
 63142  1  0  0  0
 64143  1  0  0  0
 65144  1  0  0  0
 68 77  1  0  0  0
 71 78  1  0  0  0
 71 80  1  0  0  0
 71 81  2  0  0  0
 72 80  2  0  0  0
 72 82  1  0  0  0
 72 85  1  0  0  0
 73 74  1  0  0  0
 73145  1  0  0  0
 73146  1  0  0  0
 73147  1  0  0  0
 74 75  1  0  0  0
 74148  1  0  0  0
 74149  1  0  0  0
 75150  1  0  0  0
 75151  1  0  0  0
 75 78  1  0  0  0
 76 79  1  0  0  0
 76 82  1  0  0  0
 76152  1  0  0  0
 76153  1  0  0  0
 77 79  1  0  0  0
 77154  1  0  0  0
 77155  1  0  0  0
 78 83  1  0  0  0
 78156  1  0  0  0
 79 84  1  0  0  0
 79157  1  0  0  0
 81 85  1  0  0  0
 82158  1  0  0  0
 83159  1  0  0  0
 84160  1  0  0  0
M  ISO  4   1 100  68 101  77 101  83 100
M  END
> <chiral flag>
0

> <version>
0

> <s_m_source_file>
/data/baiqing/PycharmProjects/Reinvent-master-3.2/result/LINK_invent/BTK/process_docking_weight1_custom_product_contain_oxygen_bond_distance_aromatic_linkinvent_7_9_3/rearranged_h_0192.sdf

> <i_m_source_file_index>
32

> <r_mmod_Potential_Energy-OPLS-2005>
-144.511642456055

> <r_mmod_Stretch_Energy-OPLS-2005>
52.9897727966309

> <r_mmod_Bend_Energy-OPLS-2005>
142.730865478516

> <r_mmod_Torsional_Energy-OPLS-2005>
238.529327392578

> <r_mmod_Improper_Torsional_Energy-OPLS-2005>
14.320011138916

> <r_mmod_Van_der_Waal_Energy-OPLS-2005>
126.723152160645

> <r_mmod_Electrostatic_Energy-OPLS-2005>
-527.913391113281

> <r_mmod_Solvation_Energy-OPLS-2005>
-229.632095336914

> <b_mmod_Minimization_Converged-OPLS-2005>
0

> <r_mmod_RMS_Derivative-OPLS-2005>
5.46214580535889

$$$$
33
                    3D
 Structure written by MMmdl.
156164  0  0  1  0            999 V2000
  -30.6921  -14.4714   20.5116 C   0  0  0  0  0  0
  -30.4188  -12.2816   19.4427 C   0  0  0  0  0  0
  -29.5003  -12.4799   18.2183 C   0  0  0  0  0  0
  -28.0169  -12.3610   18.6226 C   0  0  0  0  0  0
  -27.6612  -13.2067   19.8752 C   0  0  2  0  0  0
  -28.7012  -13.0061   21.0024 C   0  0  0  0  0  0
  -25.2591  -13.8167   20.5681 C   0  0  0  0  0  0
  -24.1838  -13.0443   20.9163 C   0  0  0  0  0  0
  -24.6393  -11.6908   20.8726 C   0  0  0  0  0  0
  -23.9056  -10.4296   21.0391 C   0  0  0  0  0  0
  -24.3611   -9.4213   21.9175 C   0  0  0  0  0  0
  -23.6293   -8.2243   22.0747 C   0  0  0  0  0  0
  -22.4275   -8.0276   21.3537 C   0  0  0  0  0  0
  -21.9905   -9.0248   20.4640 C   0  0  0  0  0  0
  -22.7224  -10.2134   20.3048 C   0  0  0  0  0  0
  -21.6856   -6.0731   22.5273 C   0  0  0  0  0  0
  -21.4013   -6.5632   23.8209 C   0  0  0  0  0  0
  -21.3663   -5.6782   24.9167 C   0  0  0  0  0  0
  -21.6055   -4.3047   24.7215 C   0  0  0  0  0  0
  -21.8822   -3.8139   23.4336 C   0  0  0  0  0  0
  -21.9192   -4.6957   22.3395 C   0  0  0  0  0  0
  -22.7865  -13.5242   21.1836 C   0  0  0  0  0  0
  -22.1663   -4.2143   21.0974 F   0  0  0  0  0  0
  -21.5634   -3.4534   25.7730 F   0  0  0  0  0  0
  -30.0361  -13.2826   20.4496 N   0  0  0  0  0  0
  -26.3021  -12.9335   20.3360 N   0  0  0  0  0  0
  -25.9326  -11.6494   20.5771 N   0  0  0  0  0  0
  -22.0498  -12.8235   22.0390 N   0  0  0  0  0  0
  -25.4340  -15.1877   20.4100 N   0  0  0  0  0  0
  -31.8488  -14.6255   20.1096 O   0  0  0  0  0  0
  -21.6640   -6.8874   21.4234 O   0  0  0  0  0  0
  -22.3557  -14.5547   20.6685 O   0  0  0  0  0  0
  -24.6131  -31.8687   23.2112 C   0  0  0  0  0  0
  -25.9031  -32.4824   23.8400 C   0  0  1  0  0  0
  -27.2389  -27.4466   20.0796 C   0  0  0  0  0  0
  -25.5892  -33.8621   24.2332 N   0  0  0  0  0  0
  -23.4009  -30.4926   21.5507 C   0  0  2  0  0  0
  -24.8477  -28.9593   20.1143 C   0  0  0  0  0  0
  -22.7400  -29.4664   22.4991 C   0  0  0  0  0  0
  -18.0268  -28.1375   22.8493 C   0  0  0  0  0  0
  -24.1488  -36.7319   23.2638 C   0  0  0  0  0  0
  -25.9296  -30.8343   21.3659 C   0  0  0  0  0  0
  -26.0059  -29.4689   20.7141 C   0  0  0  0  0  0
  -27.1996  -28.7132   20.7060 C   0  0  0  0  0  0
  -26.0538  -26.9395   19.4983 C   0  0  0  0  0  0
  -24.8654  -27.6917   19.5089 C   0  0  0  0  0  0
  -23.6093  -29.8244   20.1648 C   0  0  0  0  0  0
  -25.4108  -36.3112   24.0337 C   0  0  1  0  0  0
  -20.5857  -28.3658   23.1323 C   0  0  2  0  0  0
  -20.6760  -26.9397   22.5419 C   0  0  0  0  0  0
  -19.5739  -26.6381   21.5215 C   0  0  0  0  0  0
  -18.1915  -26.7921   22.1625 C   0  0  0  0  0  0
  -19.1516  -28.8833   23.2904 C   0  0  0  0  0  0
  -18.9449  -30.1440   23.8907 C   0  0  0  0  0  0
  -17.6452  -30.6586   24.0561 C   0  0  0  0  0  0
  -25.9032  -34.9476   23.5129 C   0  0  0  0  0  0
  -16.5339  -29.9085   23.6326 C   0  0  0  0  0  0
  -16.7257  -28.6502   23.0345 C   0  0  0  0  0  0
  -26.4471  -31.6600   25.0723 C   0  0  0  0  0  0
  -25.3745  -31.3714   26.1480 C   0  0  0  0  0  0
  -27.0300  -30.3040   24.6099 C   0  0  0  0  0  0
  -27.6053  -32.4317   25.7479 C   0  0  0  0  0  0
  -27.5582  -37.1814   24.8462 C   0  0  0  0  0  0
  -21.4129  -29.3031   22.3732 N   0  0  0  0  0  0
  -26.4296  -37.3794   23.9405 N   0  0  0  0  0  0
  -24.6657  -31.0798   22.1010 N   0  0  0  0  0  0
  -23.4183  -28.8199   23.3018 O   0  0  0  0  0  0
  -28.4118  -26.7221   20.1078 O   0  0  0  0  0  0
  -26.5594  -34.8926   22.4691 O   0  0  0  0  0  0
  -23.5326  -32.1437   23.7512 O   0  0  0  0  0  0
  -29.1306  -18.6697   19.1447 C   0  0  0  0  0  0
  -29.2859  -18.0158   17.9301 C   0  0  0  0  0  0
  -29.7225  -16.5869   19.8878 C   0  0  0  0  0  0
  -28.7375  -20.1190   19.2619 C   0  0  0  0  0  0
  -29.6792  -24.7581   19.3125 C   0  0  0  0  0  0
  -30.0613  -22.2531   19.6413 C   0  0  0  0  0  0
  -28.7808  -25.9680   18.9492 C   0  0  0  0  0  0
  -28.9969  -23.3661   19.4105 C   0  0  2  0  0  0
  -29.3571  -17.8256   20.2563 N   0  0  0  0  0  0
  -29.1267  -18.4777   16.6222 N   0  0  0  0  0  0
  -29.9349  -15.5378   20.8227 N   0  0  0  0  0  0
  -29.6160  -20.8762   19.9349 N   0  0  0  0  0  0
  -27.7702  -20.5905   18.6579 O   0  0  0  0  0  0
  -28.3806  -23.1276   18.1587 O   0  0  0  0  0  0
  -29.7933  -16.3664   18.1411 S   0  0  0  0  0  0
  -31.4667  -12.3613   19.1478 H   0  0  0  0  0  0
  -30.3014  -11.2755   19.8490 H   0  0  0  0  0  0
  -29.7361  -11.7430   17.4486 H   0  0  0  0  0  0
  -29.6861  -13.4543   17.7674 H   0  0  0  0  0  0
  -27.8148  -11.3076   18.8202 H   0  0  0  0  0  0
  -27.3748  -12.6397   17.7862 H   0  0  0  0  0  0
  -27.6995  -14.2512   19.5666 H   0  0  0  0  0  0
  -28.6642  -11.9829   21.3800 H   0  0  0  0  0  0
  -28.4757  -13.6442   21.8585 H   0  0  0  0  0  0
  -25.2758   -9.5696   22.4745 H   0  0  0  0  0  0
  -24.0008   -7.4637   22.7469 H   0  0  0  0  0  0
  -21.0835   -8.8766   19.8948 H   0  0  0  0  0  0
  -22.3677  -10.9675   19.6159 H   0  0  0  0  0  0
  -21.2003   -7.6143   23.9712 H   0  0  0  0  0  0
  -21.1488   -6.0509   25.9076 H   0  0  0  0  0  0
  -22.0599   -2.7598   23.2832 H   0  0  0  0  0  0
  -22.4102  -11.9890   22.4778 H   0  0  0  0  0  0
  -21.1129  -13.1280   22.2603 H   0  0  0  0  0  0
  -24.6695  -15.8453   20.5203 H   0  0  0  0  0  0
  -26.2905  -15.6274   20.0985 H   0  0  0  0  0  0
  -26.7099  -32.5547   23.1164 H   0  0  0  0  0  0
  -25.0037  -33.9787   25.0473 H   0  0  0  0  0  0
  -22.6888  -31.3090   21.4112 H   0  0  0  0  0  0
  -23.3745  -35.9658   23.3306 H   0  0  0  0  0  0
  -24.3580  -36.8929   22.2051 H   0  0  0  0  0  0
  -23.7252  -37.6529   23.6647 H   0  0  0  0  0  0
  -26.0422  -31.6000   20.5972 H   0  0  0  0  0  0
  -26.8177  -30.8880   21.9836 H   0  0  0  0  0  0
  -28.0934  -29.0998   21.1768 H   0  0  0  0  0  0
  -26.0204  -25.9538   19.0588 H   0  0  0  0  0  0
  -23.9705  -27.2859   19.0581 H   0  0  0  0  0  0
  -23.7149  -30.5980   19.4035 H   0  0  0  0  0  0
  -22.7355  -29.2406   19.8705 H   0  0  0  0  0  0
  -25.1289  -36.1974   25.0831 H   0  0  0  0  0  0
  -20.9949  -28.3215   24.1443 H   0  0  0  0  0  0
  -20.5670  -26.2258   23.3598 H   0  0  0  0  0  0
  -21.6629  -26.7445   22.1202 H   0  0  0  0  0  0
  -19.6898  -25.6296   21.1231 H   0  0  0  0  0  0
  -19.6681  -27.3200   20.6753 H   0  0  0  0  0  0
  -17.4188  -26.6666   21.4025 H   0  0  0  0  0  0
  -18.0317  -26.0061   22.9020 H   0  0  0  0  0  0
  -19.7925  -30.7252   24.2279 H   0  0  0  0  0  0
  -17.5010  -31.6268   24.5154 H   0  0  0  0  0  0
  -15.5342  -30.2992   23.7654 H   0  0  0  0  0  0
  -15.8652  -28.0833   22.7050 H   0  0  0  0  0  0
  -24.5871  -30.7120   25.7812 H   0  0  0  0  0  0
  -24.8997  -32.2881   26.4985 H   0  0  0  0  0  0
  -25.8094  -30.8819   27.0203 H   0  0  0  0  0  0
  -26.2840  -29.6795   24.1166 H   0  0  0  0  0  0
  -27.4086  -29.7283   25.4558 H   0  0  0  0  0  0
  -27.8672  -30.4358   23.9237 H   0  0  0  0  0  0
  -27.2669  -33.3598   26.2097 H   0  0  0  0  0  0
  -28.3837  -32.6906   25.0289 H   0  0  0  0  0  0
  -28.0745  -31.8414   26.5361 H   0  0  0  0  0  0
  -28.2607  -38.0104   24.7500 H   0  0  0  0  0  0
  -28.1069  -36.2635   24.6295 H   0  0  0  0  0  0
  -27.2294  -37.1473   25.8864 H   0  0  0  0  0  0
  -20.9281  -29.8757   21.6964 H   0  0  0  0  0  0
  -26.0185  -38.2874   24.1395 H   0  0  0  0  0  0
  -30.2138  -24.9760   20.2382 H   0  0  0  0  0  0
  -30.4557  -24.6906   18.5492 H   0  0  0  0  0  0
  -30.6811  -22.5486   20.4897 H   0  0  0  0  0  0
  -30.7450  -22.2113   18.7912 H   0  0  0  0  0  0
  -27.9545  -25.6564   18.3147 H   0  0  0  0  0  0
  -29.3635  -26.6492   18.3282 H   0  0  0  0  0  0
  -28.2512  -23.3613   20.2064 H   0  0  0  0  0  0
  -28.7239  -19.3843   16.4015 H   0  0  0  0  0  0
  -29.2448  -17.8961   15.7962 H   0  0  0  0  0  0
  -29.1506  -15.3578   21.4275 H   0  0  0  0  0  0
  -30.2862  -20.3244   20.4527 H   0  0  0  0  0  0
  -28.0117  -22.2405   18.2084 H   0  0  0  0  0  0
  1 25  1  0  0  0
  1 30  2  0  0  0
  1 81  1  0  0  0
  2  3  1  0  0  0
  2 25  1  0  0  0
  2 86  1  0  0  0
  2 87  1  0  0  0
  3  4  1  0  0  0
  3 88  1  0  0  0
  3 89  1  0  0  0
  4  5  1  0  0  0
  4 90  1  0  0  0
  4 91  1  0  0  0
  5  6  1  0  0  0
  5 26  1  0  0  0
  5 92  1  0  0  0
  6 25  1  0  0  0
  6 93  1  0  0  0
  6 94  1  0  0  0
  7  8  2  0  0  0
  7 26  1  0  0  0
  7 29  1  0  0  0
  8  9  1  0  0  0
  8 22  1  0  0  0
  9 10  1  0  0  0
  9 27  2  0  0  0
 10 11  2  0  0  0
 10 15  1  0  0  0
 11 12  1  0  0  0
 11 95  1  0  0  0
 12 13  2  0  0  0
 12 96  1  0  0  0
 13 14  1  0  0  0
 13 31  1  0  0  0
 14 15  2  0  0  0
 14 97  1  0  0  0
 15 98  1  0  0  0
 16 17  2  0  0  0
 16 21  1  0  0  0
 16 31  1  0  0  0
 17 18  1  0  0  0
 17 99  1  0  0  0
 18 19  2  0  0  0
 18100  1  0  0  0
 19 20  1  0  0  0
 19 24  1  0  0  0
 20 21  2  0  0  0
 20101  1  0  0  0
 21 23  1  0  0  0
 22 28  1  0  0  0
 22 32  2  0  0  0
 26 27  1  0  0  0
 28102  1  0  0  0
 28103  1  0  0  0
 29104  1  0  0  0
 29105  1  0  0  0
 33 34  1  0  0  0
 33 66  1  0  0  0
 33 70  2  0  0  0
 34 36  1  0  0  0
 34 59  1  0  0  0
 34106  1  0  0  0
 35 44  2  0  0  0
 35 45  1  0  0  0
 35 68  1  0  0  0
 36 56  1  0  0  0
 36107  1  0  0  0
 37 39  1  0  0  0
 37 47  1  0  0  0
 37 66  1  0  0  0
 37108  1  0  0  0
 38 43  2  0  0  0
 38 46  1  0  0  0
 38 47  1  0  0  0
 39 64  1  0  0  0
 39 67  2  0  0  0
 40 52  1  0  0  0
 40 53  2  0  0  0
 40 58  1  0  0  0
 41109  1  0  0  0
 41110  1  0  0  0
 41111  1  0  0  0
 41 48  1  0  0  0
 42 43  1  0  0  0
 42 66  1  0  0  0
 42112  1  0  0  0
 42113  1  0  0  0
 43 44  1  0  0  0
 44114  1  0  0  0
 45 46  2  0  0  0
 45115  1  0  0  0
 46116  1  0  0  0
 47117  1  0  0  0
 47118  1  0  0  0
 48 56  1  0  0  0
 48 65  1  0  0  0
 48119  1  0  0  0
 49 50  1  0  0  0
 49 53  1  0  0  0
 49 64  1  0  0  0
 49120  1  0  0  0
 50 51  1  0  0  0
 50121  1  0  0  0
 50122  1  0  0  0
 51 52  1  0  0  0
 51123  1  0  0  0
 51124  1  0  0  0
 52125  1  0  0  0
 52126  1  0  0  0
 53 54  1  0  0  0
 54 55  2  0  0  0
 54127  1  0  0  0
 55 57  1  0  0  0
 55128  1  0  0  0
 56 69  2  0  0  0
 57 58  2  0  0  0
 57129  1  0  0  0
 58130  1  0  0  0
 59 60  1  0  0  0
 59 61  1  0  0  0
 59 62  1  0  0  0
 60131  1  0  0  0
 60132  1  0  0  0
 60133  1  0  0  0
 61134  1  0  0  0
 61135  1  0  0  0
 61136  1  0  0  0
 62137  1  0  0  0
 62138  1  0  0  0
 62139  1  0  0  0
 63 65  1  0  0  0
 63140  1  0  0  0
 63141  1  0  0  0
 63142  1  0  0  0
 64143  1  0  0  0
 65144  1  0  0  0
 68 77  1  0  0  0
 71 72  2  0  0  0
 71 74  1  0  0  0
 71 79  1  0  0  0
 72 80  1  0  0  0
 72 85  1  0  0  0
 73 79  2  0  0  0
 73 81  1  0  0  0
 73 85  1  0  0  0
 74 82  1  0  0  0
 74 83  2  0  0  0
 75 77  1  0  0  0
 75 78  1  0  0  0
 75145  1  0  0  0
 75146  1  0  0  0
 76 78  1  0  0  0
 76 82  1  0  0  0
 76147  1  0  0  0
 76148  1  0  0  0
 77149  1  0  0  0
 77150  1  0  0  0
 78 84  1  0  0  0
 78151  1  0  0  0
 80152  1  0  0  0
 80153  1  0  0  0
 81154  1  0  0  0
 82155  1  0  0  0
 84156  1  0  0  0
M  ISO  4   1 100  68 101  77 101  81 100
M  END
> <chiral flag>
0

> <version>
0

> <s_m_source_file>
/data/baiqing/PycharmProjects/Reinvent-master-3.2/result/LINK_invent/BTK/process_docking_weight1_custom_product_contain_oxygen_bond_distance_aromatic_linkinvent_7_9_3/rearranged_h_0192.sdf

> <i_m_source_file_index>
33

> <r_mmod_Potential_Energy-OPLS-2005>
-10.8774299621582

> <r_mmod_Stretch_Energy-OPLS-2005>
37.495906829834

> <r_mmod_Bend_Energy-OPLS-2005>
115.452369689941

> <r_mmod_Torsional_Energy-OPLS-2005>
303.215850830078

> <r_mmod_Improper_Torsional_Energy-OPLS-2005>
11.7774066925049

> <r_mmod_Van_der_Waal_Energy-OPLS-2005>
136.069946289062

> <r_mmod_Electrostatic_Energy-OPLS-2005>
-379.372100830078

> <r_mmod_Solvation_Energy-OPLS-2005>
-250.076583862305

> <b_mmod_Minimization_Converged-OPLS-2005>
0

> <r_mmod_RMS_Derivative-OPLS-2005>
1.45854771137238

$$$$
34
                    3D
 Structure written by MMmdl.
160168  0  0  1  0            999 V2000
  -30.6290  -14.7327   20.4775 C   0  0  0  0  0  0
  -30.4278  -12.4507   19.4735 C   0  0  0  0  0  0
  -29.5072  -12.5069   18.2354 C   0  0  0  0  0  0
  -28.0341  -12.3272   18.6496 C   0  0  0  0  0  0
  -27.6384  -13.2295   19.8485 C   0  0  2  0  0  0
  -28.6825  -13.1691   20.9852 C   0  0  0  0  0  0
  -25.2482  -13.8173   20.5687 C   0  0  0  0  0  0
  -24.1785  -13.0426   20.9247 C   0  0  0  0  0  0
  -24.6374  -11.6906   20.8771 C   0  0  0  0  0  0
  -23.9053  -10.4286   21.0417 C   0  0  0  0  0  0
  -24.3608   -9.4200   21.9192 C   0  0  0  0  0  0
  -23.6284   -8.2234   22.0754 C   0  0  0  0  0  0
  -22.4271   -8.0273   21.3538 C   0  0  0  0  0  0
  -21.9905   -9.0248   20.4645 C   0  0  0  0  0  0
  -22.7231  -10.2127   20.3057 C   0  0  0  0  0  0
  -21.6850   -6.0730   22.5276 C   0  0  0  0  0  0
  -21.4021   -6.5635   23.8209 C   0  0  0  0  0  0
  -21.3657   -5.6788   24.9172 C   0  0  0  0  0  0
  -21.6044   -4.3050   24.7226 C   0  0  0  0  0  0
  -21.8819   -3.8142   23.4348 C   0  0  0  0  0  0
  -21.9193   -4.6958   22.3404 C   0  0  0  0  0  0
  -22.7807  -13.5213   21.1894 C   0  0  0  0  0  0
  -22.1659   -4.2142   21.0979 F   0  0  0  0  0  0
  -21.5625   -3.4535   25.7738 F   0  0  0  0  0  0
  -29.9846  -13.5163   20.4020 N   0  0  0  0  0  0
  -26.2901  -12.9381   20.3256 N   0  0  0  0  0  0
  -25.9300  -11.6526   20.5757 N   0  0  0  0  0  0
  -22.0441  -12.8209   22.0442 N   0  0  0  0  0  0
  -25.4141  -15.1884   20.4009 N   0  0  0  0  0  0
  -31.8227  -14.7921   20.1623 O   0  0  0  0  0  0
  -21.6635   -6.8870   21.4234 O   0  0  0  0  0  0
  -22.3501  -14.5513   20.6721 O   0  0  0  0  0  0
  -24.6298  -31.8567   23.1996 C   0  0  0  0  0  0
  -25.9129  -32.4760   23.8341 C   0  0  1  0  0  0
  -27.2185  -27.2722   20.1391 C   0  0  0  0  0  0
  -25.5933  -33.8565   24.2267 N   0  0  0  0  0  0
  -23.4273  -30.4795   21.5410 C   0  0  2  0  0  0
  -24.8769  -28.9291   20.1092 C   0  0  0  0  0  0
  -22.7503  -29.4608   22.4902 C   0  0  0  0  0  0
  -18.0291  -28.1395   22.8487 C   0  0  0  0  0  0
  -24.1482  -36.7280   23.2641 C   0  0  0  0  0  0
  -25.9721  -30.7755   21.3780 C   0  0  0  0  0  0
  -26.0473  -29.3983   20.7208 C   0  0  0  0  0  0
  -27.2242  -28.5831   20.7216 C   0  0  0  0  0  0
  -26.0329  -26.8743   19.4862 C   0  0  0  0  0  0
  -24.8752  -27.6757   19.4781 C   0  0  0  0  0  0
  -23.6464  -29.8146   20.1565 C   0  0  0  0  0  0
  -25.4110  -36.3074   24.0333 C   0  0  1  0  0  0
  -20.5896  -28.3703   23.1273 C   0  0  2  0  0  0
  -20.6778  -26.9419   22.5410 C   0  0  0  0  0  0
  -19.5754  -26.6391   21.5212 C   0  0  0  0  0  0
  -18.1934  -26.7939   22.1627 C   0  0  0  0  0  0
  -19.1543  -28.8866   23.2876 C   0  0  0  0  0  0
  -18.9466  -30.1467   23.8895 C   0  0  0  0  0  0
  -17.6464  -30.6595   24.0566 C   0  0  0  0  0  0
  -25.9051  -34.9447   23.5100 C   0  0  0  0  0  0
  -16.5354  -29.9097   23.6332 C   0  0  0  0  0  0
  -16.7277  -28.6516   23.0357 C   0  0  0  0  0  0
  -26.4504  -31.6584   25.0725 C   0  0  0  0  0  0
  -25.3727  -31.3730   26.1443 C   0  0  0  0  0  0
  -27.0354  -30.3007   24.6203 C   0  0  0  0  0  0
  -27.6058  -32.4322   25.7501 C   0  0  0  0  0  0
  -27.5573  -37.1802   24.8467 C   0  0  0  0  0  0
  -21.4204  -29.3051   22.3658 N   0  0  0  0  0  0
  -26.4282  -37.3776   23.9412 N   0  0  0  0  0  0
  -24.6949  -31.0553   22.0957 N   0  0  0  0  0  0
  -23.4208  -28.8154   23.3002 O   0  0  0  0  0  0
  -28.2974  -26.3609   20.1862 O   0  0  0  0  0  0
  -26.5610  -34.8924   22.4659 O   0  0  0  0  0  0
  -23.5450  -32.1369   23.7302 O   0  0  0  0  0  0
  -29.3624  -18.4086   20.4827 C   0  0  0  0  0  0
  -30.2604  -17.3005   20.7918 C   0  0  0  0  0  0
  -29.8174  -19.7773   20.6592 C   0  0  0  0  0  0
  -31.7949  -18.9172   21.3815 C   0  0  0  0  0  0
  -29.6294  -22.2765   22.3918 C   0  0  0  0  0  0
  -28.0256  -25.2009   22.2670 C   0  0  0  0  0  0
  -28.9228  -23.6873   20.2950 C   0  0  0  0  0  0
  -28.8236  -22.2511   21.0743 C   0  0  1  0  0  0
  -28.0365  -24.9854   20.7452 C   0  0  2  0  0  0
  -31.4812  -17.6388   21.2605 N   0  0  0  0  0  0
  -31.0629  -19.9813   21.1087 N   0  0  0  0  0  0
  -28.0594  -18.1784   20.0275 N   0  0  0  0  0  0
  -33.0343  -19.1698   21.8752 N   0  0  0  0  0  0
  -29.8645  -15.8780   20.6584 N   0  0  0  0  0  0
  -29.0525  -20.9570   20.2953 N   0  0  0  0  0  0
  -31.4696  -12.5674   19.1698 H   0  0  0  0  0  0
  -30.3677  -11.4755   19.9586 H   0  0  0  0  0  0
  -29.7919  -11.7357   17.5181 H   0  0  0  0  0  0
  -29.6325  -13.4636   17.7254 H   0  0  0  0  0  0
  -27.8945  -11.2793   18.9168 H   0  0  0  0  0  0
  -27.3748  -12.5131   17.8012 H   0  0  0  0  0  0
  -27.6309  -14.2488   19.4628 H   0  0  0  0  0  0
  -28.7165  -12.1744   21.4311 H   0  0  0  0  0  0
  -28.4157  -13.8533   21.7924 H   0  0  0  0  0  0
  -25.2751   -9.5684   22.4771 H   0  0  0  0  0  0
  -23.9993   -7.4629   22.7475 H   0  0  0  0  0  0
  -21.0837   -8.8771   19.8950 H   0  0  0  0  0  0
  -22.3693  -10.9668   19.6171 H   0  0  0  0  0  0
  -21.2019   -7.6145   23.9711 H   0  0  0  0  0  0
  -21.1477   -6.0519   25.9074 H   0  0  0  0  0  0
  -22.0602   -2.7603   23.2849 H   0  0  0  0  0  0
  -22.4046  -11.9870   22.4839 H   0  0  0  0  0  0
  -21.1055  -13.1233   22.2634 H   0  0  0  0  0  0
  -24.6249  -15.8221   20.4687 H   0  0  0  0  0  0
  -26.1994  -15.5913   19.9099 H   0  0  0  0  0  0
  -26.7203  -32.5428   23.1092 H   0  0  0  0  0  0
  -25.0110  -33.9696   25.0435 H   0  0  0  0  0  0
  -22.7217  -31.3002   21.3958 H   0  0  0  0  0  0
  -23.3746  -35.9611   23.3308 H   0  0  0  0  0  0
  -24.3565  -36.8889   22.2052 H   0  0  0  0  0  0
  -23.7238  -37.6487   23.6651 H   0  0  0  0  0  0
  -26.1079  -31.5383   20.6097 H   0  0  0  0  0  0
  -26.8495  -30.8259   22.0113 H   0  0  0  0  0  0
  -28.1206  -28.9351   21.2125 H   0  0  0  0  0  0
  -25.9885  -25.9168   18.9887 H   0  0  0  0  0  0
  -23.9834  -27.3150   18.9849 H   0  0  0  0  0  0
  -23.7712  -30.5912   19.4011 H   0  0  0  0  0  0
  -22.7649  -29.2490   19.8499 H   0  0  0  0  0  0
  -25.1295  -36.1922   25.0828 H   0  0  0  0  0  0
  -20.9993  -28.3276   24.1395 H   0  0  0  0  0  0
  -20.5677  -26.2308   23.3611 H   0  0  0  0  0  0
  -21.6649  -26.7445   22.1205 H   0  0  0  0  0  0
  -19.6906  -25.6301   21.1249 H   0  0  0  0  0  0
  -19.6694  -27.3195   20.6737 H   0  0  0  0  0  0
  -17.4203  -26.6686   21.4030 H   0  0  0  0  0  0
  -18.0335  -26.0077   22.9020 H   0  0  0  0  0  0
  -19.7937  -30.7290   24.2260 H   0  0  0  0  0  0
  -17.5017  -31.6275   24.5172 H   0  0  0  0  0  0
  -15.5356  -30.3006   23.7656 H   0  0  0  0  0  0
  -15.8675  -28.0841   22.7076 H   0  0  0  0  0  0
  -24.5914  -30.7062   25.7776 H   0  0  0  0  0  0
  -24.8901  -32.2896   26.4846 H   0  0  0  0  0  0
  -25.8049  -30.8931   27.0233 H   0  0  0  0  0  0
  -26.2941  -29.6746   24.1217 H   0  0  0  0  0  0
  -27.4031  -29.7277   25.4725 H   0  0  0  0  0  0
  -27.8819  -30.4290   23.9451 H   0  0  0  0  0  0
  -27.2669  -33.3628   26.2070 H   0  0  0  0  0  0
  -28.3881  -32.6866   25.0337 H   0  0  0  0  0  0
  -28.0706  -31.8442   26.5425 H   0  0  0  0  0  0
  -28.2607  -38.0085   24.7509 H   0  0  0  0  0  0
  -28.1055  -36.2619   24.6305 H   0  0  0  0  0  0
  -27.2281  -37.1468   25.8867 H   0  0  0  0  0  0
  -20.9373  -29.8773   21.6871 H   0  0  0  0  0  0
  -26.0157  -38.2847   24.1419 H   0  0  0  0  0  0
  -29.4860  -21.3598   22.9650 H   0  0  0  0  0  0
  -29.3441  -23.0849   23.0571 H   0  0  0  0  0  0
  -30.6963  -22.3959   22.2024 H   0  0  0  0  0  0
  -27.6121  -24.3393   22.7889 H   0  0  0  0  0  0
  -27.3962  -26.0450   22.5462 H   0  0  0  0  0  0
  -29.0270  -25.4004   22.6496 H   0  0  0  0  0  0
  -28.6801  -23.5073   19.2472 H   0  0  0  0  0  0
  -29.9721  -23.9837   20.2829 H   0  0  0  0  0  0
  -27.7764  -22.1690   21.3698 H   0  0  0  0  0  0
  -27.0171  -24.6982   20.4906 H   0  0  0  0  0  0
  -27.6416  -17.2750   20.2079 H   0  0  0  0  0  0
  -27.3879  -18.9266   20.1719 H   0  0  0  0  0  0
  -33.4018  -20.0976   21.7144 H   0  0  0  0  0  0
  -33.7069  -18.4168   21.8258 H   0  0  0  0  0  0
  -28.8739  -15.7195   20.7012 H   0  0  0  0  0  0
  -28.2445  -20.6735   19.7525 H   0  0  0  0  0  0
  1 25  1  0  0  0
  1 30  2  0  0  0
  1 84  1  0  0  0
  2  3  1  0  0  0
  2 25  1  0  0  0
  2 86  1  0  0  0
  2 87  1  0  0  0
  3  4  1  0  0  0
  3 88  1  0  0  0
  3 89  1  0  0  0
  4  5  1  0  0  0
  4 90  1  0  0  0
  4 91  1  0  0  0
  5  6  1  0  0  0
  5 26  1  0  0  0
  5 92  1  0  0  0
  6 25  1  0  0  0
  6 93  1  0  0  0
  6 94  1  0  0  0
  7  8  2  0  0  0
  7 26  1  0  0  0
  7 29  1  0  0  0
  8  9  1  0  0  0
  8 22  1  0  0  0
  9 10  1  0  0  0
  9 27  2  0  0  0
 10 11  2  0  0  0
 10 15  1  0  0  0
 11 12  1  0  0  0
 11 95  1  0  0  0
 12 13  2  0  0  0
 12 96  1  0  0  0
 13 14  1  0  0  0
 13 31  1  0  0  0
 14 15  2  0  0  0
 14 97  1  0  0  0
 15 98  1  0  0  0
 16 17  2  0  0  0
 16 21  1  0  0  0
 16 31  1  0  0  0
 17 18  1  0  0  0
 17 99  1  0  0  0
 18 19  2  0  0  0
 18100  1  0  0  0
 19 20  1  0  0  0
 19 24  1  0  0  0
 20 21  2  0  0  0
 20101  1  0  0  0
 21 23  1  0  0  0
 22 28  1  0  0  0
 22 32  2  0  0  0
 26 27  1  0  0  0
 28102  1  0  0  0
 28103  1  0  0  0
 29104  1  0  0  0
 29105  1  0  0  0
 33 34  1  0  0  0
 33 66  1  0  0  0
 33 70  2  0  0  0
 34 36  1  0  0  0
 34 59  1  0  0  0
 34106  1  0  0  0
 35 44  2  0  0  0
 35 45  1  0  0  0
 35 68  1  0  0  0
 36 56  1  0  0  0
 36107  1  0  0  0
 37 39  1  0  0  0
 37 47  1  0  0  0
 37 66  1  0  0  0
 37108  1  0  0  0
 38 43  2  0  0  0
 38 46  1  0  0  0
 38 47  1  0  0  0
 39 64  1  0  0  0
 39 67  2  0  0  0
 40 52  1  0  0  0
 40 53  2  0  0  0
 40 58  1  0  0  0
 41109  1  0  0  0
 41110  1  0  0  0
 41111  1  0  0  0
 41 48  1  0  0  0
 42 43  1  0  0  0
 42 66  1  0  0  0
 42112  1  0  0  0
 42113  1  0  0  0
 43 44  1  0  0  0
 44114  1  0  0  0
 45 46  2  0  0  0
 45115  1  0  0  0
 46116  1  0  0  0
 47117  1  0  0  0
 47118  1  0  0  0
 48 56  1  0  0  0
 48 65  1  0  0  0
 48119  1  0  0  0
 49 50  1  0  0  0
 49 53  1  0  0  0
 49 64  1  0  0  0
 49120  1  0  0  0
 50 51  1  0  0  0
 50121  1  0  0  0
 50122  1  0  0  0
 51 52  1  0  0  0
 51123  1  0  0  0
 51124  1  0  0  0
 52125  1  0  0  0
 52126  1  0  0  0
 53 54  1  0  0  0
 54 55  2  0  0  0
 54127  1  0  0  0
 55 57  1  0  0  0
 55128  1  0  0  0
 56 69  2  0  0  0
 57 58  2  0  0  0
 57129  1  0  0  0
 58130  1  0  0  0
 59 60  1  0  0  0
 59 61  1  0  0  0
 59 62  1  0  0  0
 60131  1  0  0  0
 60132  1  0  0  0
 60133  1  0  0  0
 61134  1  0  0  0
 61135  1  0  0  0
 61136  1  0  0  0
 62137  1  0  0  0
 62138  1  0  0  0
 62139  1  0  0  0
 63 65  1  0  0  0
 63140  1  0  0  0
 63141  1  0  0  0
 63142  1  0  0  0
 64143  1  0  0  0
 65144  1  0  0  0
 68 79  1  0  0  0
 71 72  2  0  0  0
 71 73  1  0  0  0
 71 82  1  0  0  0
 72 80  1  0  0  0
 72 84  1  0  0  0
 73 81  2  0  0  0
 73 85  1  0  0  0
 74 80  2  0  0  0
 74 81  1  0  0  0
 74 83  1  0  0  0
 75145  1  0  0  0
 75146  1  0  0  0
 75147  1  0  0  0
 75 78  1  0  0  0
 76148  1  0  0  0
 76149  1  0  0  0
 76150  1  0  0  0
 76 79  1  0  0  0
 77 78  1  0  0  0
 77 79  1  0  0  0
 77151  1  0  0  0
 77152  1  0  0  0
 78 85  1  0  0  0
 78153  1  0  0  0
 79154  1  0  0  0
 82155  1  0  0  0
 82156  1  0  0  0
 83157  1  0  0  0
 83158  1  0  0  0
 84159  1  0  0  0
 85160  1  0  0  0
M  ISO  4   1 100  68 101  79 101  84 100
M  END
> <chiral flag>
0

> <version>
0

> <s_m_source_file>
/data/baiqing/PycharmProjects/Reinvent-master-3.2/result/LINK_invent/BTK/process_docking_weight1_custom_product_contain_oxygen_bond_distance_aromatic_linkinvent_7_9_3/rearranged_h_0192.sdf

> <i_m_source_file_index>
34

> <r_mmod_Potential_Energy-OPLS-2005>
-387.274871826172

> <r_mmod_Stretch_Energy-OPLS-2005>
126.812347412109

> <r_mmod_Bend_Energy-OPLS-2005>
180.696487426758

> <r_mmod_Torsional_Energy-OPLS-2005>
250.012023925781

> <r_mmod_Improper_Torsional_Energy-OPLS-2005>
16.6467247009277

> <r_mmod_Van_der_Waal_Energy-OPLS-2005>
153.125335693359

> <r_mmod_Electrostatic_Energy-OPLS-2005>
-933.465515136719

> <r_mmod_Solvation_Energy-OPLS-2005>
-262.640258789062

> <b_mmod_Minimization_Converged-OPLS-2005>
0

> <r_mmod_RMS_Derivative-OPLS-2005>
1.21622729301453

$$$$
35
                    3D
 Structure written by MMmdl.
175183  0  0  1  0            999 V2000
  -30.6826  -14.5335   20.5221 C   0  0  0  0  0  0
  -30.4301  -12.3479   19.4480 C   0  0  0  0  0  0
  -29.4980  -12.5169   18.2252 C   0  0  0  0  0  0
  -28.0212  -12.3952   18.6467 C   0  0  0  0  0  0
  -27.6625  -13.2430   19.8934 C   0  0  2  0  0  0
  -28.7017  -13.0408   21.0220 C   0  0  0  0  0  0
  -25.2565  -13.8425   20.5792 C   0  0  0  0  0  0
  -24.1793  -13.0679   20.9157 C   0  0  0  0  0  0
  -24.6329  -11.7145   20.8657 C   0  0  0  0  0  0
  -23.8943  -10.4547   21.0334 C   0  0  0  0  0  0
  -24.3614   -9.4557   21.9151 C   0  0  0  0  0  0
  -23.6360   -8.2552   22.0815 C   0  0  0  0  0  0
  -22.4361   -8.0410   21.3576 C   0  0  0  0  0  0
  -21.9841   -9.0320   20.4680 C   0  0  0  0  0  0
  -22.7051  -10.2263   20.2991 C   0  0  0  0  0  0
  -21.6954   -6.0785   22.5242 C   0  0  0  0  0  0
  -21.4083   -6.5684   23.8134 C   0  0  0  0  0  0
  -21.3654   -5.6826   24.9086 C   0  0  0  0  0  0
  -21.6064   -4.3083   24.7162 C   0  0  0  0  0  0
  -21.8864   -3.8168   23.4309 C   0  0  0  0  0  0
  -21.9276   -4.6977   22.3359 C   0  0  0  0  0  0
  -22.7831  -13.5422   21.1859 C   0  0  0  0  0  0
  -22.1774   -4.2172   21.0947 F   0  0  0  0  0  0
  -21.5590   -3.4577   25.7736 F   0  0  0  0  0  0
  -30.0314  -13.3407   20.4661 N   0  0  0  0  0  0
  -26.2997  -12.9614   20.3461 N   0  0  0  0  0  0
  -25.9249  -11.6748   20.5771 N   0  0  0  0  0  0
  -22.0438  -12.8315   22.0338 N   0  0  0  0  0  0
  -25.4406  -15.2164   20.4442 N   0  0  0  0  0  0
  -31.8224  -14.6945   20.0634 O   0  0  0  0  0  0
  -21.6787   -6.8914   21.4200 O   0  0  0  0  0  0
  -22.3569  -14.5767   20.6799 O   0  0  0  0  0  0
  -24.6166  -31.8705   23.2095 C   0  0  0  0  0  0
  -25.9057  -32.4825   23.8380 C   0  0  1  0  0  0
  -27.2297  -27.4097   20.1042 C   0  0  0  0  0  0
  -25.5906  -33.8614   24.2281 N   0  0  0  0  0  0
  -23.4035  -30.4873   21.5562 C   0  0  2  0  0  0
  -24.8514  -28.9357   20.1380 C   0  0  0  0  0  0
  -22.7348  -29.4684   22.5071 C   0  0  0  0  0  0
  -18.0259  -28.1417   22.8474 C   0  0  0  0  0  0
  -24.1495  -36.7293   23.2633 C   0  0  0  0  0  0
  -25.9338  -30.8217   21.3708 C   0  0  0  0  0  0
  -26.0171  -29.4499   20.7262 C   0  0  0  0  0  0
  -27.2088  -28.6916   20.7075 C   0  0  0  0  0  0
  -26.0565  -26.9168   19.5028 C   0  0  0  0  0  0
  -24.8610  -27.6664   19.5331 C   0  0  0  0  0  0
  -23.6155  -29.8078   20.1794 C   0  0  0  0  0  0
  -25.4127  -36.3081   24.0311 C   0  0  1  0  0  0
  -20.5827  -28.3691   23.1351 C   0  0  2  0  0  0
  -20.6772  -26.9451   22.5419 C   0  0  0  0  0  0
  -19.5739  -26.6421   21.5226 C   0  0  0  0  0  0
  -18.1919  -26.7975   22.1604 C   0  0  0  0  0  0
  -19.1503  -28.8879   23.2905 C   0  0  0  0  0  0
  -18.9453  -30.1466   23.8919 C   0  0  0  0  0  0
  -17.6436  -30.6600   24.0613 C   0  0  0  0  0  0
  -25.9053  -34.9456   23.5080 C   0  0  0  0  0  0
  -16.5332  -29.9109   23.6349 C   0  0  0  0  0  0
  -16.7249  -28.6538   23.0340 C   0  0  0  0  0  0
  -26.4495  -31.6604   25.0708 C   0  0  0  0  0  0
  -25.3758  -31.3707   26.1444 C   0  0  0  0  0  0
  -27.0329  -30.3050   24.6102 C   0  0  0  0  0  0
  -27.6058  -32.4346   25.7468 C   0  0  0  0  0  0
  -27.5580  -37.1782   24.8445 C   0  0  0  0  0  0
  -21.4089  -29.3061   22.3769 N   0  0  0  0  0  0
  -26.4285  -37.3794   23.9403 N   0  0  0  0  0  0
  -24.6709  -31.0729   22.1065 N   0  0  0  0  0  0
  -23.4093  -28.8287   23.3190 O   0  0  0  0  0  0
  -28.3863  -26.6705   20.0157 O   0  0  0  0  0  0
  -26.5610  -34.8922   22.4636 O   0  0  0  0  0  0
  -23.5351  -32.1480   23.7462 O   0  0  0  0  0  0
  -29.8436  -17.9725   17.7727 C   0  0  0  0  0  0
  -29.9904  -16.8723   20.0769 C   0  0  0  0  0  0
  -30.0318  -20.5699   20.4912 C   0  0  0  0  0  0
  -30.3687  -16.7902   18.5821 C   0  0  0  0  0  0
  -30.3560  -19.2191   18.4405 C   0  0  0  0  0  0
  -29.5479  -19.3471   19.7332 C   0  0  1  0  0  0
  -33.4327  -24.5447   20.8678 C   0  0  0  0  0  0
  -31.5499  -23.0842   18.5836 C   0  0  0  0  0  0
  -29.7052  -25.9582   21.7917 C   0  0  0  0  0  0
  -32.3622  -23.4479   20.9633 C   0  0  0  0  0  0
  -28.6900  -24.1816   20.1080 C   0  0  0  0  0  0
  -31.2067  -23.6565   19.9694 C   0  0  2  0  0  0
  -29.8254  -23.1795   20.5293 C   0  0  2  0  0  0
  -28.5270  -25.5376   20.8968 C   0  0  2  0  0  0
  -28.9603  -17.9895   16.8438 N   0  0  0  0  0  0
  -29.6604  -18.1128   20.5832 N   0  3  0  0  0  0
  -31.0070  -20.4266   21.4119 N   0  0  0  0  0  0
  -29.9318  -15.7394   20.8540 N   0  0  0  0  0  0
  -29.5114  -21.7759   20.1272 N   0  3  0  0  0  0
  -31.4730  -12.4761   19.1337 H   0  0  0  0  0  0
  -30.3744  -11.3342   19.8359 H   0  0  0  0  0  0
  -29.7364  -11.7562   17.4840 H   0  0  0  0  0  0
  -29.6806  -13.4712   17.7315 H   0  0  0  0  0  0
  -27.8447  -11.3451   18.8707 H   0  0  0  0  0  0
  -27.3564  -12.6582   17.8204 H   0  0  0  0  0  0
  -27.6939  -14.2933   19.5987 H   0  0  0  0  0  0
  -28.6822  -12.0117   21.3862 H   0  0  0  0  0  0
  -28.4745  -13.6691   21.8900 H   0  0  0  0  0  0
  -25.2816   -9.6249   22.4574 H   0  0  0  0  0  0
  -24.0243   -7.5024   22.7544 H   0  0  0  0  0  0
  -21.0778   -8.8636   19.8987 H   0  0  0  0  0  0
  -22.3386  -10.9739   19.6044 H   0  0  0  0  0  0
  -21.2099   -7.6178   23.9615 H   0  0  0  0  0  0
  -21.1385   -6.0576   25.8978 H   0  0  0  0  0  0
  -22.0647   -2.7600   23.2754 H   0  0  0  0  0  0
  -22.4001  -12.0027   22.4876 H   0  0  0  0  0  0
  -21.1077  -13.1435   22.2574 H   0  0  0  0  0  0
  -24.7003  -15.8957   20.6116 H   0  0  0  0  0  0
  -26.3224  -15.6564   20.2258 H   0  0  0  0  0  0
  -26.7106  -32.5549   23.1123 H   0  0  0  0  0  0
  -25.0055  -33.9804   25.0425 H   0  0  0  0  0  0
  -22.6942  -31.3058   21.4099 H   0  0  0  0  0  0
  -23.3767  -35.9601   23.3248 H   0  0  0  0  0  0
  -24.3623  -36.8980   22.2057 H   0  0  0  0  0  0
  -23.7225  -37.6460   23.6728 H   0  0  0  0  0  0
  -26.0407  -31.5791   20.5952 H   0  0  0  0  0  0
  -26.8228  -30.8812   21.9868 H   0  0  0  0  0  0
  -28.1163  -29.0839   21.1431 H   0  0  0  0  0  0
  -26.0678  -25.9650   18.9951 H   0  0  0  0  0  0
  -23.9638  -27.2601   19.0875 H   0  0  0  0  0  0
  -23.7404  -30.5777   19.4183 H   0  0  0  0  0  0
  -22.7357  -29.2337   19.8819 H   0  0  0  0  0  0
  -25.1310  -36.1903   25.0803 H   0  0  0  0  0  0
  -20.9871  -28.3260   24.1487 H   0  0  0  0  0  0
  -20.5758  -26.2299   23.3599 H   0  0  0  0  0  0
  -21.6664  -26.7587   22.1165 H   0  0  0  0  0  0
  -19.6918  -25.6347   21.1269 H   0  0  0  0  0  0
  -19.6707  -27.3247   20.6779 H   0  0  0  0  0  0
  -17.4201  -26.6739   21.3988 H   0  0  0  0  0  0
  -18.0313  -26.0136   22.9010 H   0  0  0  0  0  0
  -19.7916  -30.7325   24.2279 H   0  0  0  0  0  0
  -17.5001  -31.6291   24.5208 H   0  0  0  0  0  0
  -15.5352  -30.3035   23.7704 H   0  0  0  0  0  0
  -15.8629  -28.0908   22.7015 H   0  0  0  0  0  0
  -24.5919  -30.7095   25.7751 H   0  0  0  0  0  0
  -24.8988  -32.2855   26.4939 H   0  0  0  0  0  0
  -25.8097  -30.8815   27.0159 H   0  0  0  0  0  0
  -26.2870  -29.6786   24.1209 H   0  0  0  0  0  0
  -27.4128  -29.7330   25.4564 H   0  0  0  0  0  0
  -27.8683  -30.4342   23.9228 H   0  0  0  0  0  0
  -27.2670  -33.3638   26.2038 H   0  0  0  0  0  0
  -28.3863  -32.6905   25.0300 H   0  0  0  0  0  0
  -28.0720  -31.8485   26.5383 H   0  0  0  0  0  0
  -28.2530  -38.0147   24.7577 H   0  0  0  0  0  0
  -28.1142  -36.2672   24.6164 H   0  0  0  0  0  0
  -27.2303  -37.1275   25.8849 H   0  0  0  0  0  0
  -20.9291  -29.8672   21.6875 H   0  0  0  0  0  0
  -26.0133  -38.2833   24.1513 H   0  0  0  0  0  0
  -31.4611  -16.8011   18.5186 H   0  0  0  0  0  0
  -30.0545  -15.8634   18.1044 H   0  0  0  0  0  0
  -30.3081  -20.0983   17.7991 H   0  0  0  0  0  0
  -31.4097  -19.0942   18.7000 H   0  0  0  0  0  0
  -28.4983  -19.4836   19.4684 H   0  0  0  0  0  0
  -34.3129  -24.2820   21.4598 H   0  0  0  0  0  0
  -33.0578  -25.5027   21.2301 H   0  0  0  0  0  0
  -33.7571  -24.7002   19.8417 H   0  0  0  0  0  0
  -32.4729  -23.5126   18.1991 H   0  0  0  0  0  0
  -30.7634  -23.2886   17.8529 H   0  0  0  0  0  0
  -31.7113  -22.0068   18.6457 H   0  0  0  0  0  0
  -30.0222  -25.1820   22.4888 H   0  0  0  0  0  0
  -29.4340  -26.8368   22.3779 H   0  0  0  0  0  0
  -30.5679  -26.2455   21.1903 H   0  0  0  0  0  0
  -31.9723  -23.4340   21.9804 H   0  0  0  0  0  0
  -32.8122  -22.4688   20.7865 H   0  0  0  0  0  0
  -27.7370  -23.6516   20.1371 H   0  0  0  0  0  0
  -28.8334  -24.4297   19.0528 H   0  0  0  0  0  0
  -31.1205  -24.7295   19.7899 H   0  0  0  0  0  0
  -29.8476  -23.1587   21.6190 H   0  0  0  0  0  0
  -27.6506  -25.4258   21.5450 H   0  0  0  0  0  0
  -28.5028  -17.1229   16.5699 H   0  0  0  0  0  0
  -29.4791  -18.2489   21.5762 H   0  0  0  0  0  0
  -31.5498  -19.5730   21.4547 H   0  0  0  0  0  0
  -31.2133  -21.1270   22.1034 H   0  0  0  0  0  0
  -29.1758  -15.7176   21.5285 H   0  0  0  0  0  0
  -28.8549  -21.7441   19.3554 H   0  0  0  0  0  0
  1 25  1  0  0  0
  1 30  2  0  0  0
  1 88  1  0  0  0
  2  3  1  0  0  0
  2 25  1  0  0  0
  2 90  1  0  0  0
  2 91  1  0  0  0
  3  4  1  0  0  0
  3 92  1  0  0  0
  3 93  1  0  0  0
  4  5  1  0  0  0
  4 94  1  0  0  0
  4 95  1  0  0  0
  5  6  1  0  0  0
  5 26  1  0  0  0
  5 96  1  0  0  0
  6 25  1  0  0  0
  6 97  1  0  0  0
  6 98  1  0  0  0
  7  8  2  0  0  0
  7 26  1  0  0  0
  7 29  1  0  0  0
  8  9  1  0  0  0
  8 22  1  0  0  0
  9 10  1  0  0  0
  9 27  2  0  0  0
 10 11  2  0  0  0
 10 15  1  0  0  0
 11 12  1  0  0  0
 11 99  1  0  0  0
 12 13  2  0  0  0
 12100  1  0  0  0
 13 14  1  0  0  0
 13 31  1  0  0  0
 14 15  2  0  0  0
 14101  1  0  0  0
 15102  1  0  0  0
 16 17  2  0  0  0
 16 21  1  0  0  0
 16 31  1  0  0  0
 17 18  1  0  0  0
 17103  1  0  0  0
 18 19  2  0  0  0
 18104  1  0  0  0
 19 20  1  0  0  0
 19 24  1  0  0  0
 20 21  2  0  0  0
 20105  1  0  0  0
 21 23  1  0  0  0
 22 28  1  0  0  0
 22 32  2  0  0  0
 26 27  1  0  0  0
 28106  1  0  0  0
 28107  1  0  0  0
 29108  1  0  0  0
 29109  1  0  0  0
 33 34  1  0  0  0
 33 66  1  0  0  0
 33 70  2  0  0  0
 34 36  1  0  0  0
 34 59  1  0  0  0
 34110  1  0  0  0
 35 44  2  0  0  0
 35 45  1  0  0  0
 35 68  1  0  0  0
 36 56  1  0  0  0
 36111  1  0  0  0
 37 39  1  0  0  0
 37 47  1  0  0  0
 37 66  1  0  0  0
 37112  1  0  0  0
 38 43  2  0  0  0
 38 46  1  0  0  0
 38 47  1  0  0  0
 39 64  1  0  0  0
 39 67  2  0  0  0
 40 52  1  0  0  0
 40 53  2  0  0  0
 40 58  1  0  0  0
 41113  1  0  0  0
 41114  1  0  0  0
 41115  1  0  0  0
 41 48  1  0  0  0
 42 43  1  0  0  0
 42 66  1  0  0  0
 42116  1  0  0  0
 42117  1  0  0  0
 43 44  1  0  0  0
 44118  1  0  0  0
 45 46  2  0  0  0
 45119  1  0  0  0
 46120  1  0  0  0
 47121  1  0  0  0
 47122  1  0  0  0
 48 56  1  0  0  0
 48 65  1  0  0  0
 48123  1  0  0  0
 49 50  1  0  0  0
 49 53  1  0  0  0
 49 64  1  0  0  0
 49124  1  0  0  0
 50 51  1  0  0  0
 50125  1  0  0  0
 50126  1  0  0  0
 51 52  1  0  0  0
 51127  1  0  0  0
 51128  1  0  0  0
 52129  1  0  0  0
 52130  1  0  0  0
 53 54  1  0  0  0
 54 55  2  0  0  0
 54131  1  0  0  0
 55 57  1  0  0  0
 55132  1  0  0  0
 56 69  2  0  0  0
 57 58  2  0  0  0
 57133  1  0  0  0
 58134  1  0  0  0
 59 60  1  0  0  0
 59 61  1  0  0  0
 59 62  1  0  0  0
 60135  1  0  0  0
 60136  1  0  0  0
 60137  1  0  0  0
 61138  1  0  0  0
 61139  1  0  0  0
 61140  1  0  0  0
 62141  1  0  0  0
 62142  1  0  0  0
 62143  1  0  0  0
 63 65  1  0  0  0
 63144  1  0  0  0
 63145  1  0  0  0
 63146  1  0  0  0
 64147  1  0  0  0
 65148  1  0  0  0
 68 84  1  0  0  0
 71 74  1  0  0  0
 71 75  1  0  0  0
 71 85  2  0  0  0
 72 74  1  0  0  0
 72 86  2  0  0  0
 72 88  1  0  0  0
 73 87  1  0  0  0
 73 89  2  0  0  0
 73 76  1  0  0  0
 74149  1  0  0  0
 74150  1  0  0  0
 75 76  1  0  0  0
 75151  1  0  0  0
 75152  1  0  0  0
 76 86  1  0  0  0
 76153  1  0  0  0
 77 80  1  0  0  0
 77154  1  0  0  0
 77155  1  0  0  0
 77156  1  0  0  0
 78157  1  0  0  0
 78158  1  0  0  0
 78159  1  0  0  0
 78 82  1  0  0  0
 79160  1  0  0  0
 79161  1  0  0  0
 79162  1  0  0  0
 79 84  1  0  0  0
 80 82  1  0  0  0
 80163  1  0  0  0
 80164  1  0  0  0
 81 84  1  0  0  0
 81165  1  0  0  0
 81166  1  0  0  0
 81 83  1  0  0  0
 82 83  1  0  0  0
 82167  1  0  0  0
 83 89  1  0  0  0
 83168  1  0  0  0
 84169  1  0  0  0
 85170  1  0  0  0
 86171  1  0  0  0
 87172  1  0  0  0
 87173  1  0  0  0
 88174  1  0  0  0
 89175  1  0  0  0
M  CHG  2  86   1  89   1
M  ISO  4   1 100  68 101  84 101  88 100
M  END
> <chiral flag>
0

> <version>
0

> <s_m_source_file>
/data/baiqing/PycharmProjects/Reinvent-master-3.2/result/LINK_invent/BTK/process_docking_weight1_custom_product_contain_oxygen_bond_distance_aromatic_linkinvent_7_9_3/rearranged_h_0192.sdf

> <i_m_source_file_index>
35

> <r_mmod_Potential_Energy-OPLS-2005>
-121.29475402832

> <r_mmod_Stretch_Energy-OPLS-2005>
57.6598892211914

> <r_mmod_Bend_Energy-OPLS-2005>
146.34684753418

> <r_mmod_Torsional_Energy-OPLS-2005>
332.109039306641

> <r_mmod_Improper_Torsional_Energy-OPLS-2005>
10.9535255432129

> <r_mmod_Van_der_Waal_Energy-OPLS-2005>
139.2421875

> <r_mmod_Electrostatic_Energy-OPLS-2005>
179.305648803711

> <r_mmod_Solvation_Energy-OPLS-2005>
-1007.27935791016

> <b_mmod_Minimization_Converged-OPLS-2005>
0

> <r_mmod_RMS_Derivative-OPLS-2005>
12.5789365768433

$$$$
36
                    3D
 Structure written by MMmdl.
157165  0  0  1  0            999 V2000
  -30.7240  -14.4349   20.5621 C   0  0  0  0  0  0
  -30.4146  -12.2744   19.4307 C   0  0  0  0  0  0
  -29.4983  -12.4938   18.2108 C   0  0  0  0  0  0
  -28.0146  -12.3692   18.6164 C   0  0  0  0  0  0
  -27.6627  -13.2068   19.8752 C   0  0  2  0  0  0
  -28.7012  -12.9944   20.9996 C   0  0  0  0  0  0
  -25.2589  -13.8168   20.5647 C   0  0  0  0  0  0
  -24.1847  -13.0446   20.9135 C   0  0  0  0  0  0
  -24.6396  -11.6913   20.8710 C   0  0  0  0  0  0
  -23.9057  -10.4301   21.0396 C   0  0  0  0  0  0
  -24.3613   -9.4219   21.9173 C   0  0  0  0  0  0
  -23.6276   -8.2268   22.0763 C   0  0  0  0  0  0
  -22.4264   -8.0306   21.3549 C   0  0  0  0  0  0
  -21.9894   -9.0271   20.4656 C   0  0  0  0  0  0
  -22.7227  -10.2142   20.3048 C   0  0  0  0  0  0
  -21.6853   -6.0732   22.5264 C   0  0  0  0  0  0
  -21.4026   -6.5625   23.8204 C   0  0  0  0  0  0
  -21.3667   -5.6786   24.9154 C   0  0  0  0  0  0
  -21.6060   -4.3046   24.7213 C   0  0  0  0  0  0
  -21.8827   -3.8129   23.4326 C   0  0  0  0  0  0
  -21.9199   -4.6948   22.3382 C   0  0  0  0  0  0
  -22.7879  -13.5270   21.1795 C   0  0  0  0  0  0
  -22.1668   -4.2126   21.0957 F   0  0  0  0  0  0
  -21.5626   -3.4543   25.7724 F   0  0  0  0  0  0
  -30.0387  -13.2688   20.4470 N   0  0  0  0  0  0
  -26.3033  -12.9344   20.3368 N   0  0  0  0  0  0
  -25.9331  -11.6497   20.5782 N   0  0  0  0  0  0
  -22.0506  -12.8281   22.0347 N   0  0  0  0  0  0
  -25.4309  -15.1881   20.4000 N   0  0  0  0  0  0
  -31.8454  -14.6109   20.0737 O   0  0  0  0  0  0
  -21.6643   -6.8883   21.4243 O   0  0  0  0  0  0
  -22.3572  -14.5564   20.6620 O   0  0  0  0  0  0
  -24.6164  -31.8670   23.2100 C   0  0  0  0  0  0
  -25.9031  -32.4838   23.8395 C   0  0  1  0  0  0
  -27.2445  -27.4202   20.0889 C   0  0  0  0  0  0
  -25.5902  -33.8634   24.2340 N   0  0  0  0  0  0
  -23.4081  -30.4863   21.5502 C   0  0  2  0  0  0
  -24.8564  -28.9558   20.1136 C   0  0  0  0  0  0
  -22.7425  -29.4632   22.4987 C   0  0  0  0  0  0
  -18.0268  -28.1343   22.8486 C   0  0  0  0  0  0
  -24.1493  -36.7310   23.2627 C   0  0  0  0  0  0
  -25.9355  -30.8298   21.3625 C   0  0  0  0  0  0
  -26.0175  -29.4628   20.7105 C   0  0  0  0  0  0
  -27.2129  -28.7039   20.6874 C   0  0  0  0  0  0
  -26.0585  -26.9405   19.4779 C   0  0  0  0  0  0
  -24.8750  -27.6997   19.4874 C   0  0  0  0  0  0
  -23.6207  -29.8209   20.1646 C   0  0  0  0  0  0
  -25.4116  -36.3112   24.0328 C   0  0  1  0  0  0
  -20.5847  -28.3689   23.1324 C   0  0  2  0  0  0
  -20.6780  -26.9434   22.5406 C   0  0  0  0  0  0
  -19.5788  -26.6383   21.5191 C   0  0  0  0  0  0
  -18.1972  -26.7869   22.1648 C   0  0  0  0  0  0
  -19.1504  -28.8833   23.2889 C   0  0  0  0  0  0
  -18.9417  -30.1446   23.8890 C   0  0  0  0  0  0
  -17.6405  -30.6573   24.0518 C   0  0  0  0  0  0
  -25.9030  -34.9477   23.5131 C   0  0  0  0  0  0
  -16.5311  -29.9034   23.6308 C   0  0  0  0  0  0
  -16.7255  -28.6453   23.0342 C   0  0  0  0  0  0
  -26.4455  -31.6629   25.0725 C   0  0  0  0  0  0
  -25.3705  -31.3725   26.1463 C   0  0  0  0  0  0
  -27.0239  -30.3079   24.6042 C   0  0  0  0  0  0
  -27.6054  -32.4310   25.7479 C   0  0  0  0  0  0
  -27.5583  -37.1816   24.8467 C   0  0  0  0  0  0
  -21.4145  -29.3070   22.3761 N   0  0  0  0  0  0
  -26.4303  -37.3798   23.9393 N   0  0  0  0  0  0
  -24.6719  -31.0748   22.1016 N   0  0  0  0  0  0
  -23.4164  -28.8128   23.3017 O   0  0  0  0  0  0
  -28.4254  -26.6913   20.1272 O   0  0  0  0  0  0
  -26.5591  -34.8917   22.4690 O   0  0  0  0  0  0
  -23.5351  -32.1412   23.7505 O   0  0  0  0  0  0
  -29.7543  -17.8395   21.8490 C   0  0  0  0  0  0
  -28.7080  -19.7122   22.3867 C   0  0  0  0  0  0
  -27.5028  -20.9951   19.7935 C   0  0  0  0  0  0
  -30.5393  -16.8403   21.0213 C   0  0  0  0  0  0
  -27.4011  -23.1234   21.1718 C   0  0  0  0  0  0
  -28.3995  -25.2496   19.9660 C   0  0  0  0  0  0
  -28.1580  -21.7698   20.9627 C   0  0  1  0  0  0
  -28.2235  -24.4486   21.2982 C   0  0  1  0  0  0
  -29.3769  -19.0518   21.4266 N   0  0  0  0  0  0
  -28.5462  -19.1220   23.5782 N   0  0  0  0  0  0
  -28.1409  -20.9813   22.2041 N   0  0  0  0  0  0
  -30.0518  -15.4617   21.0977 N   0  0  0  0  0  0
  -27.5044  -25.2782   22.1961 O   0  0  0  0  0  0
  -29.2687  -17.5967   23.5100 S   0  0  0  0  0  0
  -31.4646  -12.3445   19.1378 H   0  0  0  0  0  0
  -30.2881  -11.2676   19.8276 H   0  0  0  0  0  0
  -29.7354  -11.7731   17.4269 H   0  0  0  0  0  0
  -29.6859  -13.4787   17.7793 H   0  0  0  0  0  0
  -27.8082  -11.3151   18.8052 H   0  0  0  0  0  0
  -27.3729  -12.6578   17.7836 H   0  0  0  0  0  0
  -27.7113  -14.2542   19.5776 H   0  0  0  0  0  0
  -28.6594  -11.9699   21.3685 H   0  0  0  0  0  0
  -28.4712  -13.6221   21.8611 H   0  0  0  0  0  0
  -25.2767   -9.5705   22.4725 H   0  0  0  0  0  0
  -23.9991   -7.4684   22.7493 H   0  0  0  0  0  0
  -21.0824   -8.8815   19.8957 H   0  0  0  0  0  0
  -22.3711  -10.9691   19.6148 H   0  0  0  0  0  0
  -21.2031   -7.6134   23.9707 H   0  0  0  0  0  0
  -21.1473   -6.0491   25.9065 H   0  0  0  0  0  0
  -22.0588   -2.7585   23.2827 H   0  0  0  0  0  0
  -22.4124  -11.9951   22.4758 H   0  0  0  0  0  0
  -21.1148  -13.1369   22.2578 H   0  0  0  0  0  0
  -24.6550  -15.8375   20.4730 H   0  0  0  0  0  0
  -26.2665  -15.6151   20.0221 H   0  0  0  0  0  0
  -26.7095  -32.5529   23.1152 H   0  0  0  0  0  0
  -25.0105  -33.9814   25.0529 H   0  0  0  0  0  0
  -22.6971  -31.3019   21.4051 H   0  0  0  0  0  0
  -23.3745  -35.9653   23.3334 H   0  0  0  0  0  0
  -24.3575  -36.8890   22.2027 H   0  0  0  0  0  0
  -23.7250  -37.6530   23.6623 H   0  0  0  0  0  0
  -26.0359  -31.5933   20.5894 H   0  0  0  0  0  0
  -26.8298  -30.8944   21.9714 H   0  0  0  0  0  0
  -28.1138  -29.0959   21.1427 H   0  0  0  0  0  0
  -26.0097  -25.9890   18.9745 H   0  0  0  0  0  0
  -23.9877  -27.3124   19.0022 H   0  0  0  0  0  0
  -23.7390  -30.5921   19.4032 H   0  0  0  0  0  0
  -22.7467  -29.2407   19.8617 H   0  0  0  0  0  0
  -25.1287  -36.1983   25.0818 H   0  0  0  0  0  0
  -20.9875  -28.3207   24.1467 H   0  0  0  0  0  0
  -20.5711  -26.2295   23.3586 H   0  0  0  0  0  0
  -21.6674  -26.7535   22.1206 H   0  0  0  0  0  0
  -19.7038  -25.6284   21.1274 H   0  0  0  0  0  0
  -19.6696  -27.3140   20.6666 H   0  0  0  0  0  0
  -17.4214  -26.6497   21.4099 H   0  0  0  0  0  0
  -18.0487  -26.0012   22.9054 H   0  0  0  0  0  0
  -19.7870  -30.7281   24.2280 H   0  0  0  0  0  0
  -17.4937  -31.6268   24.5081 H   0  0  0  0  0  0
  -15.5309  -30.2917   23.7644 H   0  0  0  0  0  0
  -15.8665  -28.0744   22.7071 H   0  0  0  0  0  0
  -24.5904  -30.7058   25.7794 H   0  0  0  0  0  0
  -24.8861  -32.2870   26.4883 H   0  0  0  0  0  0
  -25.8052  -30.8911   27.0233 H   0  0  0  0  0  0
  -26.2762  -29.6898   24.1057 H   0  0  0  0  0  0
  -27.3998  -29.7252   25.4462 H   0  0  0  0  0  0
  -27.8609  -30.4434   23.9182 H   0  0  0  0  0  0
  -27.2726  -33.3626   26.2057 H   0  0  0  0  0  0
  -28.3859  -32.6830   25.0294 H   0  0  0  0  0  0
  -28.0694  -31.8402   26.5378 H   0  0  0  0  0  0
  -28.2614  -38.0099   24.7475 H   0  0  0  0  0  0
  -28.1069  -36.2622   24.6354 H   0  0  0  0  0  0
  -27.2289  -37.1520   25.8872 H   0  0  0  0  0  0
  -20.9346  -29.8790   21.6968 H   0  0  0  0  0  0
  -26.0196  -38.2886   24.1393 H   0  0  0  0  0  0
  -27.4937  -21.5918   18.8810 H   0  0  0  0  0  0
  -26.4701  -20.7233   20.0162 H   0  0  0  0  0  0
  -28.0315  -20.0794   19.5366 H   0  0  0  0  0  0
  -31.5784  -16.8888   21.3529 H   0  0  0  0  0  0
  -30.5233  -17.1613   19.9783 H   0  0  0  0  0  0
  -26.7650  -23.0124   22.0527 H   0  0  0  0  0  0
  -26.6714  -23.2593   20.3723 H   0  0  0  0  0  0
  -27.7059  -24.9174   19.2025 H   0  0  0  0  0  0
  -29.3668  -24.9717   19.5435 H   0  0  0  0  0  0
  -29.1986  -21.9712   20.7071 H   0  0  0  0  0  0
  -29.1978  -24.2523   21.7520 H   0  0  0  0  0  0
  -27.6579  -21.3700   23.0088 H   0  0  0  0  0  0
  -29.1162  -15.2976   21.4361 H   0  0  0  0  0  0
  -27.8605  -26.1576   22.0875 H   0  0  0  0  0  0
  1 25  1  0  0  0
  1 30  2  0  0  0
  1 82  1  0  0  0
  2  3  1  0  0  0
  2 25  1  0  0  0
  2 85  1  0  0  0
  2 86  1  0  0  0
  3  4  1  0  0  0
  3 87  1  0  0  0
  3 88  1  0  0  0
  4  5  1  0  0  0
  4 89  1  0  0  0
  4 90  1  0  0  0
  5  6  1  0  0  0
  5 26  1  0  0  0
  5 91  1  0  0  0
  6 25  1  0  0  0
  6 92  1  0  0  0
  6 93  1  0  0  0
  7  8  2  0  0  0
  7 26  1  0  0  0
  7 29  1  0  0  0
  8  9  1  0  0  0
  8 22  1  0  0  0
  9 10  1  0  0  0
  9 27  2  0  0  0
 10 11  2  0  0  0
 10 15  1  0  0  0
 11 12  1  0  0  0
 11 94  1  0  0  0
 12 13  2  0  0  0
 12 95  1  0  0  0
 13 14  1  0  0  0
 13 31  1  0  0  0
 14 15  2  0  0  0
 14 96  1  0  0  0
 15 97  1  0  0  0
 16 17  2  0  0  0
 16 21  1  0  0  0
 16 31  1  0  0  0
 17 18  1  0  0  0
 17 98  1  0  0  0
 18 19  2  0  0  0
 18 99  1  0  0  0
 19 20  1  0  0  0
 19 24  1  0  0  0
 20 21  2  0  0  0
 20100  1  0  0  0
 21 23  1  0  0  0
 22 28  1  0  0  0
 22 32  2  0  0  0
 26 27  1  0  0  0
 28101  1  0  0  0
 28102  1  0  0  0
 29103  1  0  0  0
 29104  1  0  0  0
 33 34  1  0  0  0
 33 66  1  0  0  0
 33 70  2  0  0  0
 34 36  1  0  0  0
 34 59  1  0  0  0
 34105  1  0  0  0
 35 44  2  0  0  0
 35 45  1  0  0  0
 35 68  1  0  0  0
 36 56  1  0  0  0
 36106  1  0  0  0
 37 39  1  0  0  0
 37 47  1  0  0  0
 37 66  1  0  0  0
 37107  1  0  0  0
 38 43  2  0  0  0
 38 46  1  0  0  0
 38 47  1  0  0  0
 39 64  1  0  0  0
 39 67  2  0  0  0
 40 52  1  0  0  0
 40 53  2  0  0  0
 40 58  1  0  0  0
 41108  1  0  0  0
 41109  1  0  0  0
 41110  1  0  0  0
 41 48  1  0  0  0
 42 43  1  0  0  0
 42 66  1  0  0  0
 42111  1  0  0  0
 42112  1  0  0  0
 43 44  1  0  0  0
 44113  1  0  0  0
 45 46  2  0  0  0
 45114  1  0  0  0
 46115  1  0  0  0
 47116  1  0  0  0
 47117  1  0  0  0
 48 56  1  0  0  0
 48 65  1  0  0  0
 48118  1  0  0  0
 49 50  1  0  0  0
 49 53  1  0  0  0
 49 64  1  0  0  0
 49119  1  0  0  0
 50 51  1  0  0  0
 50120  1  0  0  0
 50121  1  0  0  0
 51 52  1  0  0  0
 51122  1  0  0  0
 51123  1  0  0  0
 52124  1  0  0  0
 52125  1  0  0  0
 53 54  1  0  0  0
 54 55  2  0  0  0
 54126  1  0  0  0
 55 57  1  0  0  0
 55127  1  0  0  0
 56 69  2  0  0  0
 57 58  2  0  0  0
 57128  1  0  0  0
 58129  1  0  0  0
 59 60  1  0  0  0
 59 61  1  0  0  0
 59 62  1  0  0  0
 60130  1  0  0  0
 60131  1  0  0  0
 60132  1  0  0  0
 61133  1  0  0  0
 61134  1  0  0  0
 61135  1  0  0  0
 62136  1  0  0  0
 62137  1  0  0  0
 62138  1  0  0  0
 63 65  1  0  0  0
 63139  1  0  0  0
 63140  1  0  0  0
 63141  1  0  0  0
 64142  1  0  0  0
 65143  1  0  0  0
 68 76  1  0  0  0
 71 74  1  0  0  0
 71 79  2  0  0  0
 71 84  1  0  0  0
 72 79  1  0  0  0
 72 80  2  0  0  0
 72 81  1  0  0  0
 73144  1  0  0  0
 73145  1  0  0  0
 73146  1  0  0  0
 73 77  1  0  0  0
 74 82  1  0  0  0
 74147  1  0  0  0
 74148  1  0  0  0
 75 77  1  0  0  0
 75 78  1  0  0  0
 75149  1  0  0  0
 75150  1  0  0  0
 76 78  1  0  0  0
 76151  1  0  0  0
 76152  1  0  0  0
 77 81  1  0  0  0
 77153  1  0  0  0
 78 83  1  0  0  0
 78154  1  0  0  0
 80 84  1  0  0  0
 81155  1  0  0  0
 82156  1  0  0  0
 83157  1  0  0  0
M  ISO  4   1 100  68 101  76 101  82 100
M  END
> <chiral flag>
0

> <version>
0

> <s_m_source_file>
/data/baiqing/PycharmProjects/Reinvent-master-3.2/result/LINK_invent/BTK/process_docking_weight1_custom_product_contain_oxygen_bond_distance_aromatic_linkinvent_7_9_3/rearranged_h_0192.sdf

> <i_m_source_file_index>
36

> <r_mmod_Potential_Energy-OPLS-2005>
-159.479095458984

> <r_mmod_Stretch_Energy-OPLS-2005>
40.2473220825195

> <r_mmod_Bend_Energy-OPLS-2005>
136.136184692383

> <r_mmod_Torsional_Energy-OPLS-2005>
237.262283325195

> <r_mmod_Improper_Torsional_Energy-OPLS-2005>
4.10209035873413

> <r_mmod_Van_der_Waal_Energy-OPLS-2005>
139.768920898438

> <r_mmod_Electrostatic_Energy-OPLS-2005>
-495.649383544922

> <r_mmod_Solvation_Energy-OPLS-2005>
-234.35530090332

> <b_mmod_Minimization_Converged-OPLS-2005>
0

> <r_mmod_RMS_Derivative-OPLS-2005>
4.26127433776855

$$$$
37
                    3D
 Structure written by MMmdl.
177185  0  0  1  0            999 V2000
  -30.6602  -14.5347   20.5548 C   0  0  0  0  0  0
  -30.4345  -12.3379   19.4341 C   0  0  0  0  0  0
  -29.5036  -12.5026   18.2125 C   0  0  0  0  0  0
  -28.0245  -12.3497   18.6226 C   0  0  0  0  0  0
  -27.6594  -13.2028   19.8672 C   0  0  2  0  0  0
  -28.6998  -13.0011   20.9922 C   0  0  0  0  0  0
  -25.2592  -13.8121   20.5641 C   0  0  0  0  0  0
  -24.1845  -13.0425   20.9177 C   0  0  0  0  0  0
  -24.6386  -11.6885   20.8719 C   0  0  0  0  0  0
  -23.9041  -10.4285   21.0389 C   0  0  0  0  0  0
  -24.3608   -9.4211   21.9182 C   0  0  0  0  0  0
  -23.6294   -8.2237   22.0760 C   0  0  0  0  0  0
  -22.4282   -8.0265   21.3540 C   0  0  0  0  0  0
  -21.9903   -9.0224   20.4652 C   0  0  0  0  0  0
  -22.7208  -10.2111   20.3053 C   0  0  0  0  0  0
  -21.6847   -6.0738   22.5286 C   0  0  0  0  0  0
  -21.3997   -6.5646   23.8215 C   0  0  0  0  0  0
  -21.3660   -5.6795   24.9175 C   0  0  0  0  0  0
  -21.6057   -4.3052   24.7228 C   0  0  0  0  0  0
  -21.8821   -3.8141   23.4343 C   0  0  0  0  0  0
  -21.9191   -4.6966   22.3403 C   0  0  0  0  0  0
  -22.7878  -13.5243   21.1835 C   0  0  0  0  0  0
  -22.1669   -4.2154   21.0984 F   0  0  0  0  0  0
  -21.5634   -3.4530   25.7737 F   0  0  0  0  0  0
  -30.0290  -13.3286   20.4466 N   0  0  0  0  0  0
  -26.3006  -12.9297   20.3289 N   0  0  0  0  0  0
  -25.9310  -11.6469   20.5731 N   0  0  0  0  0  0
  -22.0511  -12.8236   22.0394 N   0  0  0  0  0  0
  -25.4315  -15.1840   20.4035 N   0  0  0  0  0  0
  -31.7997  -14.7123   20.1096 O   0  0  0  0  0  0
  -21.6644   -6.8871   21.4242 O   0  0  0  0  0  0
  -22.3582  -14.5547   20.6687 O   0  0  0  0  0  0
  -24.6141  -31.8653   23.2058 C   0  0  0  0  0  0
  -25.8997  -32.4826   23.8381 C   0  0  1  0  0  0
  -27.2367  -27.4099   20.1123 C   0  0  0  0  0  0
  -25.5845  -33.8615   24.2327 N   0  0  0  0  0  0
  -23.4079  -30.4911   21.5438 C   0  0  2  0  0  0
  -24.8567  -28.9427   20.1234 C   0  0  0  0  0  0
  -22.7434  -29.4655   22.4920 C   0  0  0  0  0  0
  -18.0305  -28.1402   22.8511 C   0  0  0  0  0  0
  -24.1479  -36.7307   23.2636 C   0  0  0  0  0  0
  -25.9377  -30.8268   21.3594 C   0  0  0  0  0  0
  -26.0173  -29.4512   20.7219 C   0  0  0  0  0  0
  -27.2151  -28.6924   20.7162 C   0  0  0  0  0  0
  -26.0636  -26.9224   19.5064 C   0  0  0  0  0  0
  -24.8723  -27.6764   19.5156 C   0  0  0  0  0  0
  -23.6237  -29.8184   20.1611 C   0  0  0  0  0  0
  -25.4095  -36.3107   24.0354 C   0  0  1  0  0  0
  -20.5907  -28.3667   23.1306 C   0  0  2  0  0  0
  -20.6783  -26.9399   22.5411 C   0  0  0  0  0  0
  -19.5763  -26.6388   21.5224 C   0  0  0  0  0  0
  -18.1944  -26.7961   22.1625 C   0  0  0  0  0  0
  -19.1562  -28.8850   23.2917 C   0  0  0  0  0  0
  -18.9473  -30.1467   23.8918 C   0  0  0  0  0  0
  -17.6479  -30.6627   24.0592 C   0  0  0  0  0  0
  -25.9023  -34.9477   23.5146 C   0  0  0  0  0  0
  -16.5369  -29.9138   23.6338 C   0  0  0  0  0  0
  -16.7297  -28.6549   23.0355 C   0  0  0  0  0  0
  -26.4417  -31.6615   25.0713 C   0  0  0  0  0  0
  -25.3676  -31.3773   26.1483 C   0  0  0  0  0  0
  -27.0203  -30.3063   24.6030 C   0  0  0  0  0  0
  -27.6024  -32.4290   25.7464 C   0  0  0  0  0  0
  -27.5586  -37.1810   24.8469 C   0  0  0  0  0  0
  -21.4158  -29.3043   22.3685 N   0  0  0  0  0  0
  -26.4281  -37.3794   23.9425 N   0  0  0  0  0  0
  -24.6728  -31.0760   22.0962 N   0  0  0  0  0  0
  -23.4204  -28.8182   23.2950 O   0  0  0  0  0  0
  -28.3793  -26.6380   20.0274 O   0  0  0  0  0  0
  -26.5583  -34.8922   22.4714 O   0  0  0  0  0  0
  -23.5323  -32.1369   23.7448 O   0  0  0  0  0  0
  -28.8571  -17.7239   21.2595 C   0  0  0  0  0  0
  -31.0823  -18.9816   20.4076 C   0  0  0  0  0  0
  -30.0079  -16.9608   20.9258 C   0  0  0  0  0  0
  -29.9171  -19.7331   20.7559 C   0  0  0  0  0  0
  -32.8817  -19.1139   18.6189 C   0  0  0  0  0  0
  -33.4708  -19.4904   21.0747 C   0  0  0  0  0  0
  -28.3366  -21.7613   24.8947 C   0  0  0  0  0  0
  -30.6848  -21.2680   25.6720 C   0  0  0  0  0  0
  -29.9913  -26.4440   21.7483 C   0  0  0  0  0  0
  -29.6255  -23.4387   21.8391 C   0  0  0  0  0  0
  -28.8689  -24.2987   20.7764 C   0  0  0  0  0  0
  -30.1988  -21.3337   23.1891 C   0  0  0  0  0  0
  -32.3982  -19.6358   19.9824 C   0  0  0  0  0  0
  -29.8316  -21.9203   24.5723 C   0  0  0  0  0  0
  -29.4340  -21.8790   21.9382 C   0  0  2  0  0  0
  -28.7130  -25.8184   21.1620 C   0  0  2  0  0  0
  -28.8047  -19.0832   21.1787 N   0  0  0  0  0  0
  -31.1183  -17.6216   20.4999 N   0  0  0  0  0  0
  -29.8984  -15.5327   21.0635 N   0  0  0  0  0  0
  -29.8757  -21.1512   20.7348 N   0  0  0  0  0  0
  -31.4786  -12.4491   19.1335 H   0  0  0  0  0  0
  -30.3521  -11.3303   19.8435 H   0  0  0  0  0  0
  -29.7581  -11.7676   17.4480 H   0  0  0  0  0  0
  -29.6573  -13.4822   17.7574 H   0  0  0  0  0  0
  -27.8487  -11.2942   18.8331 H   0  0  0  0  0  0
  -27.3693  -12.6007   17.7872 H   0  0  0  0  0  0
  -27.6987  -14.2467   19.5579 H   0  0  0  0  0  0
  -28.6890  -11.9629   21.3306 H   0  0  0  0  0  0
  -28.4487  -13.5958   21.8711 H   0  0  0  0  0  0
  -25.2768   -9.5696   22.4722 H   0  0  0  0  0  0
  -24.0026   -7.4636   22.7462 H   0  0  0  0  0  0
  -21.0846   -8.8723   19.8939 H   0  0  0  0  0  0
  -22.3675  -10.9640   19.6143 H   0  0  0  0  0  0
  -21.1971   -7.6157   23.9719 H   0  0  0  0  0  0
  -21.1489   -6.0523   25.9087 H   0  0  0  0  0  0
  -22.0591   -2.7604   23.2828 H   0  0  0  0  0  0
  -22.4136  -11.9906   22.4781 H   0  0  0  0  0  0
  -21.1119  -13.1245   22.2582 H   0  0  0  0  0  0
  -24.6471  -15.8228   20.4782 H   0  0  0  0  0  0
  -26.2590  -15.6135   20.0109 H   0  0  0  0  0  0
  -26.7059  -32.5546   23.1148 H   0  0  0  0  0  0
  -24.9989  -33.9770   25.0481 H   0  0  0  0  0  0
  -22.6999  -31.3108   21.3994 H   0  0  0  0  0  0
  -23.3762  -35.9615   23.3271 H   0  0  0  0  0  0
  -24.3609  -36.8950   22.2057 H   0  0  0  0  0  0
  -23.7197  -37.6493   23.6670 H   0  0  0  0  0  0
  -26.0409  -31.5830   20.5786 H   0  0  0  0  0  0
  -26.8301  -30.8945   21.9688 H   0  0  0  0  0  0
  -28.1157  -29.0943   21.1583 H   0  0  0  0  0  0
  -26.0751  -25.9558   19.0211 H   0  0  0  0  0  0
  -23.9802  -27.2836   19.0460 H   0  0  0  0  0  0
  -23.7456  -30.5889   19.3994 H   0  0  0  0  0  0
  -22.7465  -29.2418   19.8591 H   0  0  0  0  0  0
  -25.1288  -36.1965   25.0856 H   0  0  0  0  0  0
  -21.0044  -28.3226   24.1405 H   0  0  0  0  0  0
  -20.5689  -26.2276   23.3595 H   0  0  0  0  0  0
  -21.6655  -26.7444   22.1189 H   0  0  0  0  0  0
  -19.6905  -25.6289   21.1258 H   0  0  0  0  0  0
  -19.6738  -27.3197   20.6755 H   0  0  0  0  0  0
  -17.4229  -26.6746   21.4010 H   0  0  0  0  0  0
  -18.0336  -26.0120   22.9028 H   0  0  0  0  0  0
  -19.7947  -30.7302   24.2261 H   0  0  0  0  0  0
  -17.5047  -31.6310   24.5183 H   0  0  0  0  0  0
  -15.5368  -30.3064   23.7648 H   0  0  0  0  0  0
  -15.8696  -28.0912   22.7002 H   0  0  0  0  0  0
  -24.5814  -30.7154   25.7855 H   0  0  0  0  0  0
  -24.8894  -32.2944   26.4916 H   0  0  0  0  0  0
  -25.8016  -30.8955   27.0246 H   0  0  0  0  0  0
  -26.2717  -29.6883   24.1044 H   0  0  0  0  0  0
  -27.3973  -29.7248   25.4448 H   0  0  0  0  0  0
  -27.8563  -30.4449   23.9172 H   0  0  0  0  0  0
  -27.2709  -33.3624   26.2025 H   0  0  0  0  0  0
  -28.3836  -32.6762   25.0270 H   0  0  0  0  0  0
  -28.0645  -31.8378   26.5379 H   0  0  0  0  0  0
  -28.2598  -38.0108   24.7518 H   0  0  0  0  0  0
  -28.1094  -36.2654   24.6291 H   0  0  0  0  0  0
  -27.2329  -37.1429   25.8874 H   0  0  0  0  0  0
  -20.9282  -29.8812   21.6971 H   0  0  0  0  0  0
  -26.0184  -38.2873   24.1448 H   0  0  0  0  0  0
  -27.9548  -17.2349   21.5989 H   0  0  0  0  0  0
  -32.1248  -19.2695   17.8497 H   0  0  0  0  0  0
  -33.1042  -18.0467   18.6528 H   0  0  0  0  0  0
  -33.7880  -19.6290   18.3019 H   0  0  0  0  0  0
  -33.1417  -19.9534   22.0061 H   0  0  0  0  0  0
  -34.4022  -19.9730   20.7790 H   0  0  0  0  0  0
  -33.6898  -18.4425   21.2842 H   0  0  0  0  0  0
  -28.1013  -22.1722   25.8766 H   0  0  0  0  0  0
  -28.0432  -20.7097   24.8987 H   0  0  0  0  0  0
  -27.7092  -22.2812   24.1705 H   0  0  0  0  0  0
  -30.4705  -21.6961   26.6514 H   0  0  0  0  0  0
  -31.7491  -21.4074   25.4817 H   0  0  0  0  0  0
  -30.4980  -20.1950   25.7354 H   0  0  0  0  0  0
  -30.3030  -25.9492   22.6682 H   0  0  0  0  0  0
  -29.8313  -27.4941   21.9984 H   0  0  0  0  0  0
  -30.8210  -26.3947   21.0439 H   0  0  0  0  0  0
  -29.2943  -23.8488   22.7902 H   0  0  0  0  0  0
  -30.6905  -23.6681   21.7826 H   0  0  0  0  0  0
  -27.8730  -23.8826   20.6144 H   0  0  0  0  0  0
  -29.3882  -24.2092   19.8218 H   0  0  0  0  0  0
  -30.0540  -20.2559   23.2753 H   0  0  0  0  0  0
  -31.2713  -21.4627   23.0307 H   0  0  0  0  0  0
  -32.2336  -20.7041   19.8509 H   0  0  0  0  0  0
  -30.0801  -22.9821   24.5915 H   0  0  0  0  0  0
  -28.3713  -21.6743   22.0650 H   0  0  0  0  0  0
  -27.9275  -25.8943   21.9199 H   0  0  0  0  0  0
  -29.0224  -15.2109   21.4453 H   0  0  0  0  0  0
  -30.6689  -21.5798   20.2728 H   0  0  0  0  0  0
  1 25  1  0  0  0
  1 30  2  0  0  0
  1 89  1  0  0  0
  2  3  1  0  0  0
  2 25  1  0  0  0
  2 91  1  0  0  0
  2 92  1  0  0  0
  3  4  1  0  0  0
  3 93  1  0  0  0
  3 94  1  0  0  0
  4  5  1  0  0  0
  4 95  1  0  0  0
  4 96  1  0  0  0
  5  6  1  0  0  0
  5 26  1  0  0  0
  5 97  1  0  0  0
  6 25  1  0  0  0
  6 98  1  0  0  0
  6 99  1  0  0  0
  7  8  2  0  0  0
  7 26  1  0  0  0
  7 29  1  0  0  0
  8  9  1  0  0  0
  8 22  1  0  0  0
  9 10  1  0  0  0
  9 27  2  0  0  0
 10 11  2  0  0  0
 10 15  1  0  0  0
 11 12  1  0  0  0
 11100  1  0  0  0
 12 13  2  0  0  0
 12101  1  0  0  0
 13 14  1  0  0  0
 13 31  1  0  0  0
 14 15  2  0  0  0
 14102  1  0  0  0
 15103  1  0  0  0
 16 17  2  0  0  0
 16 21  1  0  0  0
 16 31  1  0  0  0
 17 18  1  0  0  0
 17104  1  0  0  0
 18 19  2  0  0  0
 18105  1  0  0  0
 19 20  1  0  0  0
 19 24  1  0  0  0
 20 21  2  0  0  0
 20106  1  0  0  0
 21 23  1  0  0  0
 22 28  1  0  0  0
 22 32  2  0  0  0
 26 27  1  0  0  0
 28107  1  0  0  0
 28108  1  0  0  0
 29109  1  0  0  0
 29110  1  0  0  0
 33 34  1  0  0  0
 33 66  1  0  0  0
 33 70  2  0  0  0
 34 36  1  0  0  0
 34 59  1  0  0  0
 34111  1  0  0  0
 35 44  2  0  0  0
 35 45  1  0  0  0
 35 68  1  0  0  0
 36 56  1  0  0  0
 36112  1  0  0  0
 37 39  1  0  0  0
 37 47  1  0  0  0
 37 66  1  0  0  0
 37113  1  0  0  0
 38 43  2  0  0  0
 38 46  1  0  0  0
 38 47  1  0  0  0
 39 64  1  0  0  0
 39 67  2  0  0  0
 40 52  1  0  0  0
 40 53  2  0  0  0
 40 58  1  0  0  0
 41114  1  0  0  0
 41115  1  0  0  0
 41116  1  0  0  0
 41 48  1  0  0  0
 42 43  1  0  0  0
 42 66  1  0  0  0
 42117  1  0  0  0
 42118  1  0  0  0
 43 44  1  0  0  0
 44119  1  0  0  0
 45 46  2  0  0  0
 45120  1  0  0  0
 46121  1  0  0  0
 47122  1  0  0  0
 47123  1  0  0  0
 48 56  1  0  0  0
 48 65  1  0  0  0
 48124  1  0  0  0
 49 50  1  0  0  0
 49 53  1  0  0  0
 49 64  1  0  0  0
 49125  1  0  0  0
 50 51  1  0  0  0
 50126  1  0  0  0
 50127  1  0  0  0
 51 52  1  0  0  0
 51128  1  0  0  0
 51129  1  0  0  0
 52130  1  0  0  0
 52131  1  0  0  0
 53 54  1  0  0  0
 54 55  2  0  0  0
 54132  1  0  0  0
 55 57  1  0  0  0
 55133  1  0  0  0
 56 69  2  0  0  0
 57 58  2  0  0  0
 57134  1  0  0  0
 58135  1  0  0  0
 59 60  1  0  0  0
 59 61  1  0  0  0
 59 62  1  0  0  0
 60136  1  0  0  0
 60137  1  0  0  0
 60138  1  0  0  0
 61139  1  0  0  0
 61140  1  0  0  0
 61141  1  0  0  0
 62142  1  0  0  0
 62143  1  0  0  0
 62144  1  0  0  0
 63 65  1  0  0  0
 63145  1  0  0  0
 63146  1  0  0  0
 63147  1  0  0  0
 64148  1  0  0  0
 65149  1  0  0  0
 68 86  1  0  0  0
 71 73  2  0  0  0
 71 87  1  0  0  0
 71150  1  0  0  0
 72 74  1  0  0  0
 72 83  1  0  0  0
 72 88  2  0  0  0
 73 88  1  0  0  0
 73 89  1  0  0  0
 74 87  2  0  0  0
 74 90  1  0  0  0
 75151  1  0  0  0
 75152  1  0  0  0
 75153  1  0  0  0
 75 83  1  0  0  0
 76 83  1  0  0  0
 76154  1  0  0  0
 76155  1  0  0  0
 76156  1  0  0  0
 77157  1  0  0  0
 77158  1  0  0  0
 77159  1  0  0  0
 77 84  1  0  0  0
 78 84  1  0  0  0
 78160  1  0  0  0
 78161  1  0  0  0
 78162  1  0  0  0
 79163  1  0  0  0
 79164  1  0  0  0
 79165  1  0  0  0
 79 86  1  0  0  0
 80 81  1  0  0  0
 80166  1  0  0  0
 80167  1  0  0  0
 80 85  1  0  0  0
 81 86  1  0  0  0
 81168  1  0  0  0
 81169  1  0  0  0
 82 84  1  0  0  0
 82 85  1  0  0  0
 82170  1  0  0  0
 82171  1  0  0  0
 83172  1  0  0  0
 84173  1  0  0  0
 85 90  1  0  0  0
 85174  1  0  0  0
 86175  1  0  0  0
 89176  1  0  0  0
 90177  1  0  0  0
M  ISO  4   1 100  68 101  86 101  89 100
M  END
> <chiral flag>
0

> <version>
0

> <s_m_source_file>
/data/baiqing/PycharmProjects/Reinvent-master-3.2/result/LINK_invent/BTK/process_docking_weight1_custom_product_contain_oxygen_bond_distance_aromatic_linkinvent_7_9_3/rearranged_h_0192.sdf

> <i_m_source_file_index>
37

> <r_mmod_Potential_Energy-OPLS-2005>
-31.2510223388672

> <r_mmod_Stretch_Energy-OPLS-2005>
52.7088890075684

> <r_mmod_Bend_Energy-OPLS-2005>
127.16716003418

> <r_mmod_Torsional_Energy-OPLS-2005>
239.483749389648

> <r_mmod_Improper_Torsional_Energy-OPLS-2005>
7.82497119903564

> <r_mmod_Van_der_Waal_Energy-OPLS-2005>
148.545059204102

> <r_mmod_Electrostatic_Energy-OPLS-2005>
-402.73974609375

> <r_mmod_Solvation_Energy-OPLS-2005>
-222.54963684082

> <b_mmod_Minimization_Converged-OPLS-2005>
0

> <r_mmod_RMS_Derivative-OPLS-2005>
3.56648302078247

$$$$
38
                    3D
 Structure written by MMmdl.
178186  0  0  1  0            999 V2000
  -30.6848  -14.5031   20.6031 C   0  0  0  0  0  0
  -30.4338  -12.3366   19.4299 C   0  0  0  0  0  0
  -29.5017  -12.5291   18.2141 C   0  0  0  0  0  0
  -28.0236  -12.3623   18.6219 C   0  0  0  0  0  0
  -27.6611  -13.2001   19.8748 C   0  0  2  0  0  0
  -28.7019  -12.9835   20.9989 C   0  0  0  0  0  0
  -25.2523  -13.8094   20.5633 C   0  0  0  0  0  0
  -24.1778  -13.0381   20.9108 C   0  0  0  0  0  0
  -24.6353  -11.6856   20.8692 C   0  0  0  0  0  0
  -23.9050  -10.4249   21.0401 C   0  0  0  0  0  0
  -24.3603   -9.4172   21.9179 C   0  0  0  0  0  0
  -23.6276   -8.2214   22.0762 C   0  0  0  0  0  0
  -22.4253   -8.0256   21.3560 C   0  0  0  0  0  0
  -21.9887   -9.0229   20.4664 C   0  0  0  0  0  0
  -22.7215  -10.2092   20.3048 C   0  0  0  0  0  0
  -21.6832   -6.0729   22.5291 C   0  0  0  0  0  0
  -21.4005   -6.5638   23.8228 C   0  0  0  0  0  0
  -21.3653   -5.6782   24.9185 C   0  0  0  0  0  0
  -21.6031   -4.3044   24.7228 C   0  0  0  0  0  0
  -21.8809   -3.8147   23.4342 C   0  0  0  0  0  0
  -21.9194   -4.6976   22.3409 C   0  0  0  0  0  0
  -22.7811  -13.5221   21.1788 C   0  0  0  0  0  0
  -22.1655   -4.2173   21.0981 F   0  0  0  0  0  0
  -21.5640   -3.4517   25.7727 F   0  0  0  0  0  0
  -30.0398  -13.3067   20.4657 N   0  0  0  0  0  0
  -26.2996  -12.9287   20.3349 N   0  0  0  0  0  0
  -25.9287  -11.6448   20.5739 N   0  0  0  0  0  0
  -22.0434  -12.8261   22.0365 N   0  0  0  0  0  0
  -25.4139  -15.1815   20.4096 N   0  0  0  0  0  0
  -31.7641  -14.7443   20.0485 O   0  0  0  0  0  0
  -21.6607   -6.8864   21.4258 O   0  0  0  0  0  0
  -22.3509  -14.5544   20.6656 O   0  0  0  0  0  0
  -24.6159  -31.8676   23.2095 C   0  0  0  0  0  0
  -25.9044  -32.4822   23.8397 C   0  0  1  0  0  0
  -27.2303  -27.4059   20.1113 C   0  0  0  0  0  0
  -25.5893  -33.8616   24.2335 N   0  0  0  0  0  0
  -23.4064  -30.4900   21.5498 C   0  0  2  0  0  0
  -24.8563  -28.9506   20.1167 C   0  0  0  0  0  0
  -22.7420  -29.4659   22.4988 C   0  0  0  0  0  0
  -18.0277  -28.1380   22.8488 C   0  0  0  0  0  0
  -24.1480  -36.7304   23.2638 C   0  0  0  0  0  0
  -25.9379  -30.8200   21.3715 C   0  0  0  0  0  0
  -26.0150  -29.4486   20.7281 C   0  0  0  0  0  0
  -27.2053  -28.6793   20.7338 C   0  0  0  0  0  0
  -26.0652  -26.9406   19.4736 C   0  0  0  0  0  0
  -24.8768  -27.6946   19.4871 C   0  0  0  0  0  0
  -23.6189  -29.8216   20.1649 C   0  0  0  0  0  0
  -25.4097  -36.3107   24.0348 C   0  0  1  0  0  0
  -20.5868  -28.3671   23.1317 C   0  0  2  0  0  0
  -20.6767  -26.9405   22.5423 C   0  0  0  0  0  0
  -19.5746  -26.6391   21.5214 C   0  0  0  0  0  0
  -18.1922  -26.7932   22.1624 C   0  0  0  0  0  0
  -19.1526  -28.8842   23.2900 C   0  0  0  0  0  0
  -18.9452  -30.1451   23.8906 C   0  0  0  0  0  0
  -17.6456  -30.6589   24.0571 C   0  0  0  0  0  0
  -25.9027  -34.9476   23.5144 C   0  0  0  0  0  0
  -16.5348  -29.9090   23.6334 C   0  0  0  0  0  0
  -16.7266  -28.6514   23.0347 C   0  0  0  0  0  0
  -26.4466  -31.6595   25.0727 C   0  0  0  0  0  0
  -25.3731  -31.3717   26.1481 C   0  0  0  0  0  0
  -27.0291  -30.3030   24.6115 C   0  0  0  0  0  0
  -27.6063  -32.4298   25.7468 C   0  0  0  0  0  0
  -27.5587  -37.1790   24.8462 C   0  0  0  0  0  0
  -21.4149  -29.3034   22.3719 N   0  0  0  0  0  0
  -26.4280  -37.3792   23.9433 N   0  0  0  0  0  0
  -24.6716  -31.0752   22.1013 N   0  0  0  0  0  0
  -23.4176  -28.8210   23.3049 O   0  0  0  0  0  0
  -28.3545  -26.6025   20.0645 O   0  0  0  0  0  0
  -26.5594  -34.8926   22.4705 O   0  0  0  0  0  0
  -23.5345  -32.1455   23.7461 O   0  0  0  0  0  0
  -29.2122  -18.7277   20.2674 C   0  0  0  0  0  0
  -29.4532  -16.5967   20.8906 C   0  0  0  0  0  0
  -27.5756  -20.7966   16.5129 C   0  0  0  0  0  0
  -30.5985  -21.4681   16.1796 C   0  0  0  0  0  0
  -26.9489  -24.1973   21.3445 C   0  0  0  0  0  0
  -31.6494  -19.8212   18.4486 C   0  0  0  0  0  0
  -30.0236  -22.0985   22.9789 C   0  0  0  0  0  0
  -28.3755  -21.8296   17.3239 C   0  0  0  0  0  0
  -29.3734  -23.4439   20.8811 C   0  0  0  0  0  0
  -28.7816  -26.0207   21.3094 C   0  0  0  0  0  0
  -29.4858  -20.1674   19.7910 C   0  0  2  0  0  0
  -29.8755  -21.4843   17.5438 C   0  0  1  0  0  0
  -28.4395  -24.5080   21.5632 C   0  0  1  0  0  0
  -30.1452  -20.1839   18.3753 C   0  0  1  0  0  0
  -29.4307  -22.0180   21.5588 C   0  0  1  0  0  0
  -30.0783  -17.7866   20.6992 N   0  0  0  0  0  0
  -28.1240  -16.5550   20.7260 N   0  0  0  0  0  0
  -30.0643  -15.4116   21.3787 N   0  0  0  0  0  0
  -30.2147  -20.9994   20.7844 N   0  3  0  0  0  0
  -27.6023  -18.0573   20.1766 S   0  0  0  0  0  0
  -31.4780  -12.4502   19.1311 H   0  0  0  0  0  0
  -30.3480  -11.3221   19.8195 H   0  0  0  0  0  0
  -29.7571  -11.8182   17.4268 H   0  0  0  0  0  0
  -29.6534  -13.5230   17.7900 H   0  0  0  0  0  0
  -27.8394  -11.3051   18.8144 H   0  0  0  0  0  0
  -27.3786  -12.6399   17.7880 H   0  0  0  0  0  0
  -27.7019  -14.2420   19.5635 H   0  0  0  0  0  0
  -28.6850  -11.9439   21.3308 H   0  0  0  0  0  0
  -28.4376  -13.5635   21.8826 H   0  0  0  0  0  0
  -25.2741   -9.5668   22.4755 H   0  0  0  0  0  0
  -23.9989   -7.4610   22.7470 H   0  0  0  0  0  0
  -21.0825   -8.8747   19.8966 H   0  0  0  0  0  0
  -22.3693  -10.9631   19.6156 H   0  0  0  0  0  0
  -21.1972   -7.6133   23.9739 H   0  0  0  0  0  0
  -21.1500   -6.0502   25.9091 H   0  0  0  0  0  0
  -22.0602   -2.7629   23.2819 H   0  0  0  0  0  0
  -22.4017  -11.9940   22.4806 H   0  0  0  0  0  0
  -21.1076  -13.1370   22.2550 H   0  0  0  0  0  0
  -24.6479  -15.8295   20.5474 H   0  0  0  0  0  0
  -26.3073  -15.6452   20.2744 H   0  0  0  0  0  0
  -26.7114  -32.5532   23.1158 H   0  0  0  0  0  0
  -25.0039  -33.9781   25.0479 H   0  0  0  0  0  0
  -22.6957  -31.3071   21.4083 H   0  0  0  0  0  0
  -23.3756  -35.9621   23.3283 H   0  0  0  0  0  0
  -24.3589  -36.8937   22.2056 H   0  0  0  0  0  0
  -23.7212  -37.6496   23.6659 H   0  0  0  0  0  0
  -26.0543  -31.5782   20.5956 H   0  0  0  0  0  0
  -26.8249  -30.8791   21.9906 H   0  0  0  0  0  0
  -28.0983  -29.0591   21.2098 H   0  0  0  0  0  0
  -26.0768  -25.9834   18.9723 H   0  0  0  0  0  0
  -23.9906  -27.3087   19.0020 H   0  0  0  0  0  0
  -23.7302  -30.5962   19.4053 H   0  0  0  0  0  0
  -22.7422  -29.2430   19.8684 H   0  0  0  0  0  0
  -25.1259  -36.1970   25.0839 H   0  0  0  0  0  0
  -20.9960  -28.3234   24.1439 H   0  0  0  0  0  0
  -20.5675  -26.2269   23.3604 H   0  0  0  0  0  0
  -21.6639  -26.7448   22.1218 H   0  0  0  0  0  0
  -19.6906  -25.6304   21.1240 H   0  0  0  0  0  0
  -19.6690  -27.3208   20.6747 H   0  0  0  0  0  0
  -17.4193  -26.6687   21.4021 H   0  0  0  0  0  0
  -18.0315  -26.0073   22.9018 H   0  0  0  0  0  0
  -19.7928  -30.7268   24.2269 H   0  0  0  0  0  0
  -17.5013  -31.6271   24.5176 H   0  0  0  0  0  0
  -15.5347  -30.2995   23.7657 H   0  0  0  0  0  0
  -15.8669  -28.0842   22.7045 H   0  0  0  0  0  0
  -24.5878  -30.7095   25.7819 H   0  0  0  0  0  0
  -24.8946  -32.2880   26.4948 H   0  0  0  0  0  0
  -25.8077  -30.8862   27.0229 H   0  0  0  0  0  0
  -26.2834  -29.6786   24.1178 H   0  0  0  0  0  0
  -27.4063  -29.7272   25.4578 H   0  0  0  0  0  0
  -27.8673  -30.4341   23.9268 H   0  0  0  0  0  0
  -27.2721  -33.3611   26.2049 H   0  0  0  0  0  0
  -28.3856  -32.6830   25.0268 H   0  0  0  0  0  0
  -28.0742  -31.8406   26.5367 H   0  0  0  0  0  0
  -28.2578  -38.0112   24.7556 H   0  0  0  0  0  0
  -28.1104  -36.2650   24.6209 H   0  0  0  0  0  0
  -27.2328  -37.1362   25.8868 H   0  0  0  0  0  0
  -20.9301  -29.8731   21.6924 H   0  0  0  0  0  0
  -26.0173  -38.2868   24.1453 H   0  0  0  0  0  0
  -26.5306  -21.0989   16.4338 H   0  0  0  0  0  0
  -27.5837  -19.8097   16.9724 H   0  0  0  0  0  0
  -27.9580  -20.6966   15.4964 H   0  0  0  0  0  0
  -30.3049  -22.3164   15.5598 H   0  0  0  0  0  0
  -30.3734  -20.5602   15.6188 H   0  0  0  0  0  0
  -31.6817  -21.5308   16.2944 H   0  0  0  0  0  0
  -26.6774  -23.2243   21.7556 H   0  0  0  0  0  0
  -26.6962  -24.1889   20.2849 H   0  0  0  0  0  0
  -26.3149  -24.9384   21.8333 H   0  0  0  0  0  0
  -31.8222  -18.9366   19.0617 H   0  0  0  0  0  0
  -32.2538  -20.6293   18.8613 H   0  0  0  0  0  0
  -32.0554  -19.5771   17.4673 H   0  0  0  0  0  0
  -29.4006  -22.6863   23.6505 H   0  0  0  0  0  0
  -31.0173  -22.5485   22.9695 H   0  0  0  0  0  0
  -30.1078  -21.1122   23.4376 H   0  0  0  0  0  0
  -27.8647  -22.0147   18.2674 H   0  0  0  0  0  0
  -28.3086  -22.7876   16.8062 H   0  0  0  0  0  0
  -30.3881  -23.8435   20.8458 H   0  0  0  0  0  0
  -29.0676  -23.3485   19.8404 H   0  0  0  0  0  0
  -29.8615  -26.1538   21.3745 H   0  0  0  0  0  0
  -28.3788  -26.6020   22.1415 H   0  0  0  0  0  0
  -28.4859  -20.5844   19.6960 H   0  0  0  0  0  0
  -30.3049  -22.3223   18.0950 H   0  0  0  0  0  0
  -28.6025  -24.4092   22.6347 H   0  0  0  0  0  0
  -29.6776  -19.3746   17.8131 H   0  0  0  0  0  0
  -28.4162  -21.6325   21.6760 H   0  0  0  0  0  0
  -29.4278  -14.9261   21.9900 H   0  0  0  0  0  0
  -31.0057  -21.4303   20.3332 H   0  0  0  0  0  0
  -30.5856  -20.3295   21.4406 H   0  0  0  0  0  0
  1 25  1  0  0  0
  1 30  2  0  0  0
  1 88  1  0  0  0
  2  3  1  0  0  0
  2 25  1  0  0  0
  2 91  1  0  0  0
  2 92  1  0  0  0
  3  4  1  0  0  0
  3 93  1  0  0  0
  3 94  1  0  0  0
  4  5  1  0  0  0
  4 95  1  0  0  0
  4 96  1  0  0  0
  5  6  1  0  0  0
  5 26  1  0  0  0
  5 97  1  0  0  0
  6 25  1  0  0  0
  6 98  1  0  0  0
  6 99  1  0  0  0
  7  8  2  0  0  0
  7 26  1  0  0  0
  7 29  1  0  0  0
  8  9  1  0  0  0
  8 22  1  0  0  0
  9 10  1  0  0  0
  9 27  2  0  0  0
 10 11  2  0  0  0
 10 15  1  0  0  0
 11 12  1  0  0  0
 11100  1  0  0  0
 12 13  2  0  0  0
 12101  1  0  0  0
 13 14  1  0  0  0
 13 31  1  0  0  0
 14 15  2  0  0  0
 14102  1  0  0  0
 15103  1  0  0  0
 16 17  2  0  0  0
 16 21  1  0  0  0
 16 31  1  0  0  0
 17 18  1  0  0  0
 17104  1  0  0  0
 18 19  2  0  0  0
 18105  1  0  0  0
 19 20  1  0  0  0
 19 24  1  0  0  0
 20 21  2  0  0  0
 20106  1  0  0  0
 21 23  1  0  0  0
 22 28  1  0  0  0
 22 32  2  0  0  0
 26 27  1  0  0  0
 28107  1  0  0  0
 28108  1  0  0  0
 29109  1  0  0  0
 29110  1  0  0  0
 33 34  1  0  0  0
 33 66  1  0  0  0
 33 70  2  0  0  0
 34 36  1  0  0  0
 34 59  1  0  0  0
 34111  1  0  0  0
 35 44  2  0  0  0
 35 45  1  0  0  0
 35 68  1  0  0  0
 36 56  1  0  0  0
 36112  1  0  0  0
 37 39  1  0  0  0
 37 47  1  0  0  0
 37 66  1  0  0  0
 37113  1  0  0  0
 38 43  2  0  0  0
 38 46  1  0  0  0
 38 47  1  0  0  0
 39 64  1  0  0  0
 39 67  2  0  0  0
 40 52  1  0  0  0
 40 53  2  0  0  0
 40 58  1  0  0  0
 41114  1  0  0  0
 41115  1  0  0  0
 41116  1  0  0  0
 41 48  1  0  0  0
 42 43  1  0  0  0
 42 66  1  0  0  0
 42117  1  0  0  0
 42118  1  0  0  0
 43 44  1  0  0  0
 44119  1  0  0  0
 45 46  2  0  0  0
 45120  1  0  0  0
 46121  1  0  0  0
 47122  1  0  0  0
 47123  1  0  0  0
 48 56  1  0  0  0
 48 65  1  0  0  0
 48124  1  0  0  0
 49 50  1  0  0  0
 49 53  1  0  0  0
 49 64  1  0  0  0
 49125  1  0  0  0
 50 51  1  0  0  0
 50126  1  0  0  0
 50127  1  0  0  0
 51 52  1  0  0  0
 51128  1  0  0  0
 51129  1  0  0  0
 52130  1  0  0  0
 52131  1  0  0  0
 53 54  1  0  0  0
 54 55  2  0  0  0
 54132  1  0  0  0
 55 57  1  0  0  0
 55133  1  0  0  0
 56 69  2  0  0  0
 57 58  2  0  0  0
 57134  1  0  0  0
 58135  1  0  0  0
 59 60  1  0  0  0
 59 61  1  0  0  0
 59 62  1  0  0  0
 60136  1  0  0  0
 60137  1  0  0  0
 60138  1  0  0  0
 61139  1  0  0  0
 61140  1  0  0  0
 61141  1  0  0  0
 62142  1  0  0  0
 62143  1  0  0  0
 62144  1  0  0  0
 63 65  1  0  0  0
 63145  1  0  0  0
 63146  1  0  0  0
 63147  1  0  0  0
 64148  1  0  0  0
 65149  1  0  0  0
 68 80  1  0  0  0
 71 81  1  0  0  0
 71 86  2  0  0  0
 71 90  1  0  0  0
 72 86  1  0  0  0
 72 87  2  0  0  0
 72 88  1  0  0  0
 73 78  1  0  0  0
 73150  1  0  0  0
 73151  1  0  0  0
 73152  1  0  0  0
 74153  1  0  0  0
 74154  1  0  0  0
 74155  1  0  0  0
 74 82  1  0  0  0
 75156  1  0  0  0
 75157  1  0  0  0
 75158  1  0  0  0
 75 83  1  0  0  0
 76159  1  0  0  0
 76160  1  0  0  0
 76161  1  0  0  0
 76 84  1  0  0  0
 77162  1  0  0  0
 77163  1  0  0  0
 77164  1  0  0  0
 77 85  1  0  0  0
 78 82  1  0  0  0
 78165  1  0  0  0
 78166  1  0  0  0
 79 83  1  0  0  0
 79 85  1  0  0  0
 79167  1  0  0  0
 79168  1  0  0  0
 80 83  1  0  0  0
 80169  1  0  0  0
 80170  1  0  0  0
 81 84  1  0  0  0
 81 89  1  0  0  0
 81171  1  0  0  0
 82 84  1  0  0  0
 82172  1  0  0  0
 83173  1  0  0  0
 84174  1  0  0  0
 85 89  1  0  0  0
 85175  1  0  0  0
 87 90  1  0  0  0
 88176  1  0  0  0
 89177  1  0  0  0
 89178  1  0  0  0
M  CHG  1  89   1
M  ISO  4   1 100  68 101  80 101  88 100
M  END
> <chiral flag>
0

> <version>
0

> <s_m_source_file>
/data/baiqing/PycharmProjects/Reinvent-master-3.2/result/LINK_invent/BTK/process_docking_weight1_custom_product_contain_oxygen_bond_distance_aromatic_linkinvent_7_9_3/rearranged_h_0192.sdf

> <i_m_source_file_index>
38

> <r_mmod_Potential_Energy-OPLS-2005>
-189.327911376953

> <r_mmod_Stretch_Energy-OPLS-2005>
50.3825035095215

> <r_mmod_Bend_Energy-OPLS-2005>
149.161392211914

> <r_mmod_Torsional_Energy-OPLS-2005>
302.327026367188

> <r_mmod_Improper_Torsional_Energy-OPLS-2005>
7.43654680252075

> <r_mmod_Van_der_Waal_Energy-OPLS-2005>
108.507118225098

> <r_mmod_Electrostatic_Energy-OPLS-2005>
-389.833129882812

> <r_mmod_Solvation_Energy-OPLS-2005>
-434.086608886719

> <b_mmod_Minimization_Converged-OPLS-2005>
0

> <r_mmod_RMS_Derivative-OPLS-2005>
2.6683189868927

$$$$
39
                    3D
 Structure written by MMmdl.
163171  0  0  1  0            999 V2000
  -30.6964  -14.5360   20.5160 C   0  0  0  0  0  0
  -30.4208  -12.3328   19.4435 C   0  0  0  0  0  0
  -29.4981  -12.4956   18.2172 C   0  0  0  0  0  0
  -28.0209  -12.3530   18.6305 C   0  0  0  0  0  0
  -27.6571  -13.2165   19.8687 C   0  0  2  0  0  0
  -28.7029  -13.0581   20.9976 C   0  0  0  0  0  0
  -25.2577  -13.8193   20.5677 C   0  0  0  0  0  0
  -24.1840  -13.0460   20.9191 C   0  0  0  0  0  0
  -24.6405  -11.6928   20.8746 C   0  0  0  0  0  0
  -23.9076  -10.4310   21.0404 C   0  0  0  0  0  0
  -24.3627   -9.4225   21.9177 C   0  0  0  0  0  0
  -23.6302   -8.2263   22.0755 C   0  0  0  0  0  0
  -22.4284   -8.0295   21.3545 C   0  0  0  0  0  0
  -21.9920   -9.0268   20.4646 C   0  0  0  0  0  0
  -22.7253  -10.2148   20.3050 C   0  0  0  0  0  0
  -21.6864   -6.0746   22.5273 C   0  0  0  0  0  0
  -21.4021   -6.5648   23.8207 C   0  0  0  0  0  0
  -21.3652   -5.6796   24.9163 C   0  0  0  0  0  0
  -21.6042   -4.3061   24.7214 C   0  0  0  0  0  0
  -21.8827   -3.8157   23.4334 C   0  0  0  0  0  0
  -21.9203   -4.6976   22.3395 C   0  0  0  0  0  0
  -22.7864  -13.5246   21.1852 C   0  0  0  0  0  0
  -22.1669   -4.2165   21.0969 F   0  0  0  0  0  0
  -21.5620   -3.4538   25.7724 F   0  0  0  0  0  0
  -30.0252  -13.3530   20.4298 N   0  0  0  0  0  0
  -26.3013  -12.9374   20.3359 N   0  0  0  0  0  0
  -25.9339  -11.6530   20.5797 N   0  0  0  0  0  0
  -22.0505  -12.8227   22.0397 N   0  0  0  0  0  0
  -25.4292  -15.1909   20.4042 N   0  0  0  0  0  0
  -31.8557  -14.6618   20.1155 O   0  0  0  0  0  0
  -21.6649   -6.8890   21.4239 O   0  0  0  0  0  0
  -22.3552  -14.5562   20.6719 O   0  0  0  0  0  0
  -24.6196  -31.8653   23.2084 C   0  0  0  0  0  0
  -25.9067  -32.4810   23.8393 C   0  0  1  0  0  0
  -27.2172  -27.3830   20.1058 C   0  0  0  0  0  0
  -25.5912  -33.8611   24.2322 N   0  0  0  0  0  0
  -23.4099  -30.4914   21.5488 C   0  0  2  0  0  0
  -24.8552  -28.9618   20.1039 C   0  0  0  0  0  0
  -22.7439  -29.4648   22.4949 C   0  0  0  0  0  0
  -18.0282  -28.1383   22.8484 C   0  0  0  0  0  0
  -24.1488  -36.7309   23.2642 C   0  0  0  0  0  0
  -25.9455  -30.8171   21.3697 C   0  0  0  0  0  0
  -26.0199  -29.4523   20.7078 C   0  0  0  0  0  0
  -27.2059  -28.6716   20.7026 C   0  0  0  0  0  0
  -26.0406  -26.9387   19.4614 C   0  0  0  0  0  0
  -24.8643  -27.7091   19.4716 C   0  0  0  0  0  0
  -23.6200  -29.8333   20.1599 C   0  0  0  0  0  0
  -25.4109  -36.3107   24.0342 C   0  0  1  0  0  0
  -20.5878  -28.3676   23.1303 C   0  0  2  0  0  0
  -20.6775  -26.9407   22.5415 C   0  0  0  0  0  0
  -19.5754  -26.6389   21.5215 C   0  0  0  0  0  0
  -18.1928  -26.7928   22.1618 C   0  0  0  0  0  0
  -19.1533  -28.8845   23.2890 C   0  0  0  0  0  0
  -18.9460  -30.1446   23.8905 C   0  0  0  0  0  0
  -17.6463  -30.6587   24.0569 C   0  0  0  0  0  0
  -25.9041  -34.9472   23.5131 C   0  0  0  0  0  0
  -16.5353  -29.9090   23.6332 C   0  0  0  0  0  0
  -16.7269  -28.6509   23.0348 C   0  0  0  0  0  0
  -26.4475  -31.6596   25.0733 C   0  0  0  0  0  0
  -25.3725  -31.3719   26.1471 C   0  0  0  0  0  0
  -27.0315  -30.3037   24.6126 C   0  0  0  0  0  0
  -27.6045  -32.4321   25.7497 C   0  0  0  0  0  0
  -27.5578  -37.1812   24.8464 C   0  0  0  0  0  0
  -21.4158  -29.3043   22.3702 N   0  0  0  0  0  0
  -26.4291  -37.3794   23.9410 N   0  0  0  0  0  0
  -24.6771  -31.0721   22.1005 N   0  0  0  0  0  0
  -23.4192  -28.8185   23.3003 O   0  0  0  0  0  0
  -28.3267  -26.5472   20.2067 O   0  0  0  0  0  0
  -26.5599  -34.8921   22.4689 O   0  0  0  0  0  0
  -23.5374  -32.1427   23.7443 O   0  0  0  0  0  0
  -28.4423  -18.0794   21.8500 C   0  0  0  0  0  0
  -29.5236  -18.1568   21.0075 C   0  0  0  0  0  0
  -28.8967  -20.3859   21.0823 C   0  0  0  0  0  0
  -26.8004  -23.6932   22.3240 C   0  0  0  0  0  0
  -28.0749  -25.7411   23.0866 C   0  0  0  0  0  0
  -30.8274  -22.4236   19.5275 C   0  0  0  0  0  0
  -30.4469  -17.0154   20.5914 C   0  0  0  0  0  0
  -29.4036  -24.2867   20.5403 C   0  0  0  0  0  0
  -27.3089  -25.0849   21.9228 C   0  0  0  0  0  0
  -29.4058  -22.8062   19.9756 C   0  0  2  0  0  0
  -28.0788  -25.1390   20.5572 C   0  0  1  0  0  0
  -29.7482  -19.4842   20.5589 N   0  0  0  0  0  0
  -28.8726  -21.7822   20.8930 N   0  0  0  0  0  0
  -29.9741  -15.6313   20.8447 N   0  0  0  0  0  0
  -27.7107  -19.6392   22.1444 S   0  0  0  0  0  0
  -31.4671  -12.4196   19.1455 H   0  0  0  0  0  0
  -30.3161  -11.3356   19.8729 H   0  0  0  0  0  0
  -29.7451  -11.7525   17.4579 H   0  0  0  0  0  0
  -29.6598  -13.4712   17.7555 H   0  0  0  0  0  0
  -27.8419  -11.2997   18.8482 H   0  0  0  0  0  0
  -27.3688  -12.6038   17.7934 H   0  0  0  0  0  0
  -27.6830  -14.2552   19.5379 H   0  0  0  0  0  0
  -28.6908  -12.0426   21.3955 H   0  0  0  0  0  0
  -28.4713  -13.7115   21.8402 H   0  0  0  0  0  0
  -25.2776   -9.5702   22.4744 H   0  0  0  0  0  0
  -24.0020   -7.4659   22.7477 H   0  0  0  0  0  0
  -21.0853   -8.8785   19.8946 H   0  0  0  0  0  0
  -22.3716  -10.9682   19.6151 H   0  0  0  0  0  0
  -21.2015   -7.6157   23.9710 H   0  0  0  0  0  0
  -21.1455   -6.0521   25.9062 H   0  0  0  0  0  0
  -22.0615   -2.7624   23.2826 H   0  0  0  0  0  0
  -22.4131  -11.9868   22.4742 H   0  0  0  0  0  0
  -21.1120  -13.1240   22.2609 H   0  0  0  0  0  0
  -24.6596  -15.8444   20.4979 H   0  0  0  0  0  0
  -26.2686  -15.6229   20.0393 H   0  0  0  0  0  0
  -26.7136  -32.5500   23.1150 H   0  0  0  0  0  0
  -25.0072  -33.9773   25.0473 H   0  0  0  0  0  0
  -22.7011  -31.3110   21.4119 H   0  0  0  0  0  0
  -23.3750  -35.9641   23.3317 H   0  0  0  0  0  0
  -24.3579  -36.8910   22.2053 H   0  0  0  0  0  0
  -23.7240  -37.6520   23.6645 H   0  0  0  0  0  0
  -26.0670  -31.5855   20.6053 H   0  0  0  0  0  0
  -26.8306  -30.8650   21.9926 H   0  0  0  0  0  0
  -28.0960  -29.0326   21.1989 H   0  0  0  0  0  0
  -26.0038  -25.9833   18.9617 H   0  0  0  0  0  0
  -23.9730  -27.3319   18.9900 H   0  0  0  0  0  0
  -23.7334  -30.6154   19.4086 H   0  0  0  0  0  0
  -22.7411  -29.2612   19.8572 H   0  0  0  0  0  0
  -25.1288  -36.1976   25.0838 H   0  0  0  0  0  0
  -20.9969  -28.3240   24.1423 H   0  0  0  0  0  0
  -20.5694  -26.2277   23.3600 H   0  0  0  0  0  0
  -21.6643  -26.7457   22.1196 H   0  0  0  0  0  0
  -19.6927  -25.6305   21.1236 H   0  0  0  0  0  0
  -19.6702  -27.3204   20.6751 H   0  0  0  0  0  0
  -17.4206  -26.6681   21.4014 H   0  0  0  0  0  0
  -18.0321  -26.0066   22.9011 H   0  0  0  0  0  0
  -19.7938  -30.7258   24.2274 H   0  0  0  0  0  0
  -17.5024  -31.6266   24.5168 H   0  0  0  0  0  0
  -15.5355  -30.3002   23.7655 H   0  0  0  0  0  0
  -15.8664  -28.0840   22.7058 H   0  0  0  0  0  0
  -24.5901  -30.7063   25.7811 H   0  0  0  0  0  0
  -24.8909  -32.2880   26.4904 H   0  0  0  0  0  0
  -25.8062  -30.8903   27.0242 H   0  0  0  0  0  0
  -26.2881  -29.6800   24.1148 H   0  0  0  0  0  0
  -27.4057  -29.7268   25.4593 H   0  0  0  0  0  0
  -27.8724  -30.4368   23.9315 H   0  0  0  0  0  0
  -27.2668  -33.3622   26.2083 H   0  0  0  0  0  0
  -28.3850  -32.6878   25.0320 H   0  0  0  0  0  0
  -28.0715  -31.8439   26.5406 H   0  0  0  0  0  0
  -28.2603  -38.0102   24.7503 H   0  0  0  0  0  0
  -28.1068  -36.2634   24.6301 H   0  0  0  0  0  0
  -27.2292  -37.1478   25.8865 H   0  0  0  0  0  0
  -20.9312  -29.8777   21.6938 H   0  0  0  0  0  0
  -26.0184  -38.2876   24.1402 H   0  0  0  0  0  0
  -28.0433  -17.2056   22.3459 H   0  0  0  0  0  0
  -26.0205  -23.7779   23.0817 H   0  0  0  0  0  0
  -27.5898  -23.0854   22.7634 H   0  0  0  0  0  0
  -26.3657  -23.1623   21.4762 H   0  0  0  0  0  0
  -27.4423  -25.8172   23.9714 H   0  0  0  0  0  0
  -28.3978  -26.7512   22.8342 H   0  0  0  0  0  0
  -28.9588  -25.1700   23.3693 H   0  0  0  0  0  0
  -31.2439  -23.1618   18.8412 H   0  0  0  0  0  0
  -30.8385  -21.4712   18.9966 H   0  0  0  0  0  0
  -31.5084  -22.3403   20.3754 H   0  0  0  0  0  0
  -30.6650  -17.1021   19.5255 H   0  0  0  0  0  0
  -31.4080  -17.1393   21.0937 H   0  0  0  0  0  0
  -30.0738  -24.8524   19.8923 H   0  0  0  0  0  0
  -29.9004  -24.3169   21.5086 H   0  0  0  0  0  0
  -26.3929  -25.6626   21.8044 H   0  0  0  0  0  0
  -28.7742  -22.7945   19.0858 H   0  0  0  0  0  0
  -27.4513  -24.6997   19.7838 H   0  0  0  0  0  0
  -28.1490  -22.1841   21.4796 H   0  0  0  0  0  0
  -29.0164  -15.5031   21.1279 H   0  0  0  0  0  0
  1 25  1  0  0  0
  1 30  2  0  0  0
  1 84  1  0  0  0
  2  3  1  0  0  0
  2 25  1  0  0  0
  2 86  1  0  0  0
  2 87  1  0  0  0
  3  4  1  0  0  0
  3 88  1  0  0  0
  3 89  1  0  0  0
  4  5  1  0  0  0
  4 90  1  0  0  0
  4 91  1  0  0  0
  5  6  1  0  0  0
  5 26  1  0  0  0
  5 92  1  0  0  0
  6 25  1  0  0  0
  6 93  1  0  0  0
  6 94  1  0  0  0
  7  8  2  0  0  0
  7 26  1  0  0  0
  7 29  1  0  0  0
  8  9  1  0  0  0
  8 22  1  0  0  0
  9 10  1  0  0  0
  9 27  2  0  0  0
 10 11  2  0  0  0
 10 15  1  0  0  0
 11 12  1  0  0  0
 11 95  1  0  0  0
 12 13  2  0  0  0
 12 96  1  0  0  0
 13 14  1  0  0  0
 13 31  1  0  0  0
 14 15  2  0  0  0
 14 97  1  0  0  0
 15 98  1  0  0  0
 16 17  2  0  0  0
 16 21  1  0  0  0
 16 31  1  0  0  0
 17 18  1  0  0  0
 17 99  1  0  0  0
 18 19  2  0  0  0
 18100  1  0  0  0
 19 20  1  0  0  0
 19 24  1  0  0  0
 20 21  2  0  0  0
 20101  1  0  0  0
 21 23  1  0  0  0
 22 28  1  0  0  0
 22 32  2  0  0  0
 26 27  1  0  0  0
 28102  1  0  0  0
 28103  1  0  0  0
 29104  1  0  0  0
 29105  1  0  0  0
 33 34  1  0  0  0
 33 66  1  0  0  0
 33 70  2  0  0  0
 34 36  1  0  0  0
 34 59  1  0  0  0
 34106  1  0  0  0
 35 44  2  0  0  0
 35 45  1  0  0  0
 35 68  1  0  0  0
 36 56  1  0  0  0
 36107  1  0  0  0
 37 39  1  0  0  0
 37 47  1  0  0  0
 37 66  1  0  0  0
 37108  1  0  0  0
 38 43  2  0  0  0
 38 46  1  0  0  0
 38 47  1  0  0  0
 39 64  1  0  0  0
 39 67  2  0  0  0
 40 52  1  0  0  0
 40 53  2  0  0  0
 40 58  1  0  0  0
 41109  1  0  0  0
 41110  1  0  0  0
 41111  1  0  0  0
 41 48  1  0  0  0
 42 43  1  0  0  0
 42 66  1  0  0  0
 42112  1  0  0  0
 42113  1  0  0  0
 43 44  1  0  0  0
 44114  1  0  0  0
 45 46  2  0  0  0
 45115  1  0  0  0
 46116  1  0  0  0
 47117  1  0  0  0
 47118  1  0  0  0
 48 56  1  0  0  0
 48 65  1  0  0  0
 48119  1  0  0  0
 49 50  1  0  0  0
 49 53  1  0  0  0
 49 64  1  0  0  0
 49120  1  0  0  0
 50 51  1  0  0  0
 50121  1  0  0  0
 50122  1  0  0  0
 51 52  1  0  0  0
 51123  1  0  0  0
 51124  1  0  0  0
 52125  1  0  0  0
 52126  1  0  0  0
 53 54  1  0  0  0
 54 55  2  0  0  0
 54127  1  0  0  0
 55 57  1  0  0  0
 55128  1  0  0  0
 56 69  2  0  0  0
 57 58  2  0  0  0
 57129  1  0  0  0
 58130  1  0  0  0
 59 60  1  0  0  0
 59 61  1  0  0  0
 59 62  1  0  0  0
 60131  1  0  0  0
 60132  1  0  0  0
 60133  1  0  0  0
 61134  1  0  0  0
 61135  1  0  0  0
 61136  1  0  0  0
 62137  1  0  0  0
 62138  1  0  0  0
 62139  1  0  0  0
 63 65  1  0  0  0
 63140  1  0  0  0
 63141  1  0  0  0
 63142  1  0  0  0
 64143  1  0  0  0
 65144  1  0  0  0
 68 81  1  0  0  0
 71 72  2  0  0  0
 71 85  1  0  0  0
 71145  1  0  0  0
 72 77  1  0  0  0
 72 82  1  0  0  0
 73 82  2  0  0  0
 73 83  1  0  0  0
 73 85  1  0  0  0
 74146  1  0  0  0
 74147  1  0  0  0
 74148  1  0  0  0
 74 79  1  0  0  0
 75 79  1  0  0  0
 75149  1  0  0  0
 75150  1  0  0  0
 75151  1  0  0  0
 76152  1  0  0  0
 76153  1  0  0  0
 76154  1  0  0  0
 76 80  1  0  0  0
 77 84  1  0  0  0
 77155  1  0  0  0
 77156  1  0  0  0
 78 80  1  0  0  0
 78157  1  0  0  0
 78158  1  0  0  0
 78 81  1  0  0  0
 79 81  1  0  0  0
 79159  1  0  0  0
 80 83  1  0  0  0
 80160  1  0  0  0
 81161  1  0  0  0
 83162  1  0  0  0
 84163  1  0  0  0
M  ISO  4   1 100  68 101  81 101  84 100
M  END
> <chiral flag>
0

> <version>
0

> <s_m_source_file>
/data/baiqing/PycharmProjects/Reinvent-master-3.2/result/LINK_invent/BTK/process_docking_weight1_custom_product_contain_oxygen_bond_distance_aromatic_linkinvent_7_9_3/rearranged_h_0192.sdf

> <i_m_source_file_index>
39

> <r_mmod_Potential_Energy-OPLS-2005>
-175.431289672852

> <r_mmod_Stretch_Energy-OPLS-2005>
52.4127922058105

> <r_mmod_Bend_Energy-OPLS-2005>
119.155319213867

> <r_mmod_Torsional_Energy-OPLS-2005>
223.312408447266

> <r_mmod_Improper_Torsional_Energy-OPLS-2005>
6.03205966949463

> <r_mmod_Van_der_Waal_Energy-OPLS-2005>
124.136085510254

> <r_mmod_Electrostatic_Energy-OPLS-2005>
-513.833618164062

> <r_mmod_Solvation_Energy-OPLS-2005>
-216.176528930664

> <b_mmod_Minimization_Converged-OPLS-2005>
0

> <r_mmod_RMS_Derivative-OPLS-2005>
1.14099419116974

$$$$
40
                    3D
 Structure written by MMmdl.
155163  0  0  1  0            999 V2000
  -30.6423  -14.5778   20.4872 C   0  0  0  0  0  0
  -30.4220  -12.3472   19.4470 C   0  0  0  0  0  0
  -29.4970  -12.4815   18.2169 C   0  0  0  0  0  0
  -28.0179  -12.3309   18.6250 C   0  0  0  0  0  0
  -27.6419  -13.2120   19.8466 C   0  0  2  0  0  0
  -28.6810  -13.0668   20.9808 C   0  0  0  0  0  0
  -25.2500  -13.8177   20.5665 C   0  0  0  0  0  0
  -24.1768  -13.0440   20.9193 C   0  0  0  0  0  0
  -24.6323  -11.6912   20.8722 C   0  0  0  0  0  0
  -23.9009  -10.4298   21.0410 C   0  0  0  0  0  0
  -24.3578   -9.4212   21.9187 C   0  0  0  0  0  0
  -23.6266   -8.2239   22.0766 C   0  0  0  0  0  0
  -22.4255   -8.0256   21.3549 C   0  0  0  0  0  0
  -21.9865   -9.0225   20.4659 C   0  0  0  0  0  0
  -22.7182  -10.2113   20.3059 C   0  0  0  0  0  0
  -21.6842   -6.0715   22.5286 C   0  0  0  0  0  0
  -21.4005   -6.5627   23.8214 C   0  0  0  0  0  0
  -21.3665   -5.6790   24.9181 C   0  0  0  0  0  0
  -21.6041   -4.3050   24.7238 C   0  0  0  0  0  0
  -21.8815   -3.8135   23.4361 C   0  0  0  0  0  0
  -21.9187   -4.6945   22.3412 C   0  0  0  0  0  0
  -22.7786  -13.5229   21.1852 C   0  0  0  0  0  0
  -22.1656   -4.2118   21.0994 F   0  0  0  0  0  0
  -21.5633   -3.4545   25.7761 F   0  0  0  0  0  0
  -30.0039  -13.3759   20.4188 N   0  0  0  0  0  0
  -26.2895  -12.9346   20.3207 N   0  0  0  0  0  0
  -25.9239  -11.6508   20.5694 N   0  0  0  0  0  0
  -22.0427  -12.8243   22.0430 N   0  0  0  0  0  0
  -25.4204  -15.1901   20.4099 N   0  0  0  0  0  0
  -31.8163  -14.7152   20.1326 O   0  0  0  0  0  0
  -21.6626   -6.8846   21.4243 O   0  0  0  0  0  0
  -22.3479  -14.5534   20.6694 O   0  0  0  0  0  0
  -24.6167  -31.8635   23.2040 C   0  0  0  0  0  0
  -25.9057  -32.4805   23.8363 C   0  0  1  0  0  0
  -27.2392  -27.3783   20.1251 C   0  0  0  0  0  0
  -25.5906  -33.8604   24.2304 N   0  0  0  0  0  0
  -23.4103  -30.4850   21.5436 C   0  0  2  0  0  0
  -24.8592  -28.9305   20.1251 C   0  0  0  0  0  0
  -22.7399  -29.4701   22.4970 C   0  0  0  0  0  0
  -18.0256  -28.1472   22.8460 C   0  0  0  0  0  0
  -24.1489  -36.7311   23.2641 C   0  0  0  0  0  0
  -25.9414  -30.8109   21.3668 C   0  0  0  0  0  0
  -26.0204  -29.4377   20.7227 C   0  0  0  0  0  0
  -27.2136  -28.6728   20.7120 C   0  0  0  0  0  0
  -26.0619  -26.8928   19.5252 C   0  0  0  0  0  0
  -24.8769  -27.6565   19.5257 C   0  0  0  0  0  0
  -23.6246  -29.8048   20.1647 C   0  0  0  0  0  0
  -25.4118  -36.3113   24.0336 C   0  0  1  0  0  0
  -20.5829  -28.3774   23.1295 C   0  0  2  0  0  0
  -20.6702  -26.9563   22.5322 C   0  0  0  0  0  0
  -19.5708  -26.6710   21.5042 C   0  0  0  0  0  0
  -18.1914  -26.8037   22.1546 C   0  0  0  0  0  0
  -19.1493  -28.8928   23.2937 C   0  0  0  0  0  0
  -18.9407  -30.1468   23.9091 C   0  0  0  0  0  0
  -17.6397  -30.6599   24.0737 C   0  0  0  0  0  0
  -25.9041  -34.9476   23.5108 C   0  0  0  0  0  0
  -16.5313  -29.9159   23.6331 C   0  0  0  0  0  0
  -16.7237  -28.6609   23.0301 C   0  0  0  0  0  0
  -26.4481  -31.6592   25.0702 C   0  0  0  0  0  0
  -25.3727  -31.3705   26.1424 C   0  0  0  0  0  0
  -27.0331  -30.3032   24.6123 C   0  0  0  0  0  0
  -27.6063  -32.4311   25.7457 C   0  0  0  0  0  0
  -27.5589  -37.1806   24.8467 C   0  0  0  0  0  0
  -21.4122  -29.3102   22.3666 N   0  0  0  0  0  0
  -26.4309  -37.3799   23.9398 N   0  0  0  0  0  0
  -24.6741  -31.0699   22.0974 N   0  0  0  0  0  0
  -23.4126  -28.8276   23.3077 O   0  0  0  0  0  0
  -28.4190  -26.6540   20.0732 O   0  0  0  0  0  0
  -26.5618  -34.8927   22.4684 O   0  0  0  0  0  0
  -23.5356  -32.1427   23.7392 O   0  0  0  0  0  0
  -29.3235  -18.2026   20.9588 C   0  0  0  0  0  0
  -28.4255  -18.1633   22.0016 C   0  0  0  0  0  0
  -28.5253  -20.3865   20.9060 C   0  0  0  0  0  0
  -28.1495  -17.0433   22.9521 C   0  0  0  0  0  0
  -30.2817  -17.0800   20.5248 C   0  0  0  0  0  0
  -28.9291  -22.7329   19.6640 C   0  0  0  0  0  0
  -28.4777  -25.2619   20.5187 C   0  0  0  0  0  0
  -28.1685  -24.1159   19.4843 C   0  0  1  0  0  0
  -29.3667  -19.4917   20.3512 N   0  0  0  0  0  0
  -28.3413  -21.7470   20.5823 N   0  0  0  0  0  0
  -29.8633  -15.6636   20.7267 N   0  0  0  0  0  0
  -28.5987  -24.5775   18.2169 O   0  0  0  0  0  0
  -27.5843  -19.6835   22.2092 S   0  0  0  0  0  0
  -31.4696  -12.4512   19.1529 H   0  0  0  0  0  0
  -30.3372  -11.3548   19.8883 H   0  0  0  0  0  0
  -29.7534  -11.7318   17.4665 H   0  0  0  0  0  0
  -29.6469  -13.4520   17.7445 H   0  0  0  0  0  0
  -27.8463  -11.2798   18.8583 H   0  0  0  0  0  0
  -27.3659  -12.5556   17.7792 H   0  0  0  0  0  0
  -27.6589  -14.2435   19.4952 H   0  0  0  0  0  0
  -28.6664  -12.0519   21.3769 H   0  0  0  0  0  0
  -28.4345  -13.7209   21.8195 H   0  0  0  0  0  0
  -25.2718   -9.5687   22.4758 H   0  0  0  0  0  0
  -23.9970   -7.4633   22.7488 H   0  0  0  0  0  0
  -21.0792   -8.8724   19.8974 H   0  0  0  0  0  0
  -22.3628  -10.9635   19.6162 H   0  0  0  0  0  0
  -21.1998   -7.6136   23.9701 H   0  0  0  0  0  0
  -21.1492   -6.0533   25.9080 H   0  0  0  0  0  0
  -22.0590   -2.7591   23.2883 H   0  0  0  0  0  0
  -22.4032  -11.9905   22.4829 H   0  0  0  0  0  0
  -21.1048  -13.1290   22.2638 H   0  0  0  0  0  0
  -24.6467  -15.8374   20.5090 H   0  0  0  0  0  0
  -26.2580  -15.6311   20.0542 H   0  0  0  0  0  0
  -26.7130  -32.5506   23.1122 H   0  0  0  0  0  0
  -25.0048  -33.9756   25.0443 H   0  0  0  0  0  0
  -22.7050  -31.3059   21.3906 H   0  0  0  0  0  0
  -23.3755  -35.9637   23.3307 H   0  0  0  0  0  0
  -24.3585  -36.8918   22.2056 H   0  0  0  0  0  0
  -23.7218  -37.6508   23.6649 H   0  0  0  0  0  0
  -26.0587  -31.5706   20.5931 H   0  0  0  0  0  0
  -26.8266  -30.8696   21.9886 H   0  0  0  0  0  0
  -28.1144  -29.0633   21.1647 H   0  0  0  0  0  0
  -26.0616  -25.9333   19.0311 H   0  0  0  0  0  0
  -23.9903  -27.2521   19.0560 H   0  0  0  0  0  0
  -23.7430  -30.5722   19.4000 H   0  0  0  0  0  0
  -22.7483  -29.2266   19.8670 H   0  0  0  0  0  0
  -25.1286  -36.1995   25.0835 H   0  0  0  0  0  0
  -20.9972  -28.3330   24.1390 H   0  0  0  0  0  0
  -20.5507  -26.2398   23.3451 H   0  0  0  0  0  0
  -21.6614  -26.7655   22.1165 H   0  0  0  0  0  0
  -19.7003  -25.6786   21.0725 H   0  0  0  0  0  0
  -19.6531  -27.3811   20.6790 H   0  0  0  0  0  0
  -18.0460  -26.0137   22.8941 H   0  0  0  0  0  0
  -17.4146  -26.6789   21.3986 H   0  0  0  0  0  0
  -19.7840  -30.7236   24.2650 H   0  0  0  0  0  0
  -17.4971  -31.6195   24.5517 H   0  0  0  0  0  0
  -15.5314  -30.3130   23.7605 H   0  0  0  0  0  0
  -15.8663  -28.0930   22.6944 H   0  0  0  0  0  0
  -24.5907  -30.7065   25.7723 H   0  0  0  0  0  0
  -24.8906  -32.2856   26.4871 H   0  0  0  0  0  0
  -25.8039  -30.8847   27.0184 H   0  0  0  0  0  0
  -26.2892  -29.6761   24.1195 H   0  0  0  0  0  0
  -27.4108  -29.7308   25.4610 H   0  0  0  0  0  0
  -27.8724  -30.4342   23.9289 H   0  0  0  0  0  0
  -27.2716  -33.3614   26.2062 H   0  0  0  0  0  0
  -28.3854  -32.6868   25.0262 H   0  0  0  0  0  0
  -28.0767  -31.8418   26.5335 H   0  0  0  0  0  0
  -28.2615  -38.0100   24.7525 H   0  0  0  0  0  0
  -28.1079  -36.2628   24.6283 H   0  0  0  0  0  0
  -27.2307  -37.1446   25.8873 H   0  0  0  0  0  0
  -20.9333  -29.8656   21.6708 H   0  0  0  0  0  0
  -26.0203  -38.2887   24.1379 H   0  0  0  0  0  0
  -29.0711  -16.5222   23.2097 H   0  0  0  0  0  0
  -27.7287  -17.4226   23.8833 H   0  0  0  0  0  0
  -27.4502  -16.3249   22.5222 H   0  0  0  0  0  0
  -30.5321  -17.2081   19.4699 H   0  0  0  0  0  0
  -31.2181  -17.2166   21.0655 H   0  0  0  0  0  0
  -28.9749  -22.2218   18.6980 H   0  0  0  0  0  0
  -29.9685  -22.9065   19.9487 H   0  0  0  0  0  0
  -29.5049  -25.1228   20.8538 H   0  0  0  0  0  0
  -27.8733  -25.1286   21.4182 H   0  0  0  0  0  0
  -27.0913  -23.9502   19.4229 H   0  0  0  0  0  0
  -27.6463  -22.1655   21.1935 H   0  0  0  0  0  0
  -28.8946  -15.5017   20.9422 H   0  0  0  0  0  0
  -28.3001  -23.9479   17.5694 H   0  0  0  0  0  0
  1 25  1  0  0  0
  1 30  2  0  0  0
  1 81  1  0  0  0
  2  3  1  0  0  0
  2 25  1  0  0  0
  2 84  1  0  0  0
  2 85  1  0  0  0
  3  4  1  0  0  0
  3 86  1  0  0  0
  3 87  1  0  0  0
  4  5  1  0  0  0
  4 88  1  0  0  0
  4 89  1  0  0  0
  5  6  1  0  0  0
  5 26  1  0  0  0
  5 90  1  0  0  0
  6 25  1  0  0  0
  6 91  1  0  0  0
  6 92  1  0  0  0
  7  8  2  0  0  0
  7 26  1  0  0  0
  7 29  1  0  0  0
  8  9  1  0  0  0
  8 22  1  0  0  0
  9 10  1  0  0  0
  9 27  2  0  0  0
 10 11  2  0  0  0
 10 15  1  0  0  0
 11 12  1  0  0  0
 11 93  1  0  0  0
 12 13  2  0  0  0
 12 94  1  0  0  0
 13 14  1  0  0  0
 13 31  1  0  0  0
 14 15  2  0  0  0
 14 95  1  0  0  0
 15 96  1  0  0  0
 16 17  2  0  0  0
 16 21  1  0  0  0
 16 31  1  0  0  0
 17 18  1  0  0  0
 17 97  1  0  0  0
 18 19  2  0  0  0
 18 98  1  0  0  0
 19 20  1  0  0  0
 19 24  1  0  0  0
 20 21  2  0  0  0
 20 99  1  0  0  0
 21 23  1  0  0  0
 22 28  1  0  0  0
 22 32  2  0  0  0
 26 27  1  0  0  0
 28100  1  0  0  0
 28101  1  0  0  0
 29102  1  0  0  0
 29103  1  0  0  0
 33 34  1  0  0  0
 33 66  1  0  0  0
 33 70  2  0  0  0
 34 36  1  0  0  0
 34 59  1  0  0  0
 34104  1  0  0  0
 35 44  2  0  0  0
 35 45  1  0  0  0
 35 68  1  0  0  0
 36 56  1  0  0  0
 36105  1  0  0  0
 37 39  1  0  0  0
 37 47  1  0  0  0
 37 66  1  0  0  0
 37106  1  0  0  0
 38 43  2  0  0  0
 38 46  1  0  0  0
 38 47  1  0  0  0
 39 64  1  0  0  0
 39 67  2  0  0  0
 40 52  1  0  0  0
 40 53  2  0  0  0
 40 58  1  0  0  0
 41107  1  0  0  0
 41108  1  0  0  0
 41109  1  0  0  0
 41 48  1  0  0  0
 42 43  1  0  0  0
 42 66  1  0  0  0
 42110  1  0  0  0
 42111  1  0  0  0
 43 44  1  0  0  0
 44112  1  0  0  0
 45 46  2  0  0  0
 45113  1  0  0  0
 46114  1  0  0  0
 47115  1  0  0  0
 47116  1  0  0  0
 48 56  1  0  0  0
 48 65  1  0  0  0
 48117  1  0  0  0
 49 50  1  0  0  0
 49 53  1  0  0  0
 49 64  1  0  0  0
 49118  1  0  0  0
 50 51  1  0  0  0
 50119  1  0  0  0
 50120  1  0  0  0
 51 52  1  0  0  0
 51121  1  0  0  0
 51122  1  0  0  0
 52123  1  0  0  0
 52124  1  0  0  0
 53 54  1  0  0  0
 54 55  2  0  0  0
 54125  1  0  0  0
 55 57  1  0  0  0
 55126  1  0  0  0
 56 69  2  0  0  0
 57 58  2  0  0  0
 57127  1  0  0  0
 58128  1  0  0  0
 59 60  1  0  0  0
 59 61  1  0  0  0
 59 62  1  0  0  0
 60129  1  0  0  0
 60130  1  0  0  0
 60131  1  0  0  0
 61132  1  0  0  0
 61133  1  0  0  0
 61134  1  0  0  0
 62135  1  0  0  0
 62136  1  0  0  0
 62137  1  0  0  0
 63 65  1  0  0  0
 63138  1  0  0  0
 63139  1  0  0  0
 63140  1  0  0  0
 64141  1  0  0  0
 65142  1  0  0  0
 68 77  1  0  0  0
 71 72  2  0  0  0
 71 75  1  0  0  0
 71 79  1  0  0  0
 72 74  1  0  0  0
 72 83  1  0  0  0
 73 79  2  0  0  0
 73 80  1  0  0  0
 73 83  1  0  0  0
 74143  1  0  0  0
 74144  1  0  0  0
 74145  1  0  0  0
 75 81  1  0  0  0
 75146  1  0  0  0
 75147  1  0  0  0
 76 78  1  0  0  0
 76 80  1  0  0  0
 76148  1  0  0  0
 76149  1  0  0  0
 77 78  1  0  0  0
 77150  1  0  0  0
 77151  1  0  0  0
 78 82  1  0  0  0
 78152  1  0  0  0
 80153  1  0  0  0
 81154  1  0  0  0
 82155  1  0  0  0
M  ISO  4   1 100  68 101  77 101  81 100
M  END
> <chiral flag>
0

> <version>
0

> <s_m_source_file>
/data/baiqing/PycharmProjects/Reinvent-master-3.2/result/LINK_invent/BTK/process_docking_weight1_custom_product_contain_oxygen_bond_distance_aromatic_linkinvent_7_9_3/rearranged_h_0192.sdf

> <i_m_source_file_index>
40

> <r_mmod_Potential_Energy-OPLS-2005>
-174.035659790039

> <r_mmod_Stretch_Energy-OPLS-2005>
52.121410369873

> <r_mmod_Bend_Energy-OPLS-2005>
123.017753601074

> <r_mmod_Torsional_Energy-OPLS-2005>
237.652969360352

> <r_mmod_Improper_Torsional_Energy-OPLS-2005>
6.39590787887573

> <r_mmod_Van_der_Waal_Energy-OPLS-2005>
113.567100524902

> <r_mmod_Electrostatic_Energy-OPLS-2005>
-483.815490722656

> <r_mmod_Solvation_Energy-OPLS-2005>
-251.834533691406

> <b_mmod_Minimization_Converged-OPLS-2005>
0

> <r_mmod_RMS_Derivative-OPLS-2005>
4.35505294799805

$$$$
41
                    3D
 Structure written by MMmdl.
158166  0  0  1  0            999 V2000
  -30.7209  -14.4050   20.6308 C   0  0  0  0  0  0
  -30.4249  -12.2859   19.4020 C   0  0  0  0  0  0
  -29.4905  -12.5178   18.1976 C   0  0  0  0  0  0
  -28.0116  -12.3784   18.6090 C   0  0  0  0  0  0
  -27.6673  -13.1978   19.8806 C   0  0  2  0  0  0
  -28.7064  -12.9282   20.9921 C   0  0  0  0  0  0
  -25.2607  -13.8141   20.5657 C   0  0  0  0  0  0
  -24.1842  -13.0429   20.9149 C   0  0  0  0  0  0
  -24.6381  -11.6893   20.8702 C   0  0  0  0  0  0
  -23.9048  -10.4283   21.0377 C   0  0  0  0  0  0
  -24.3603   -9.4201   21.9166 C   0  0  0  0  0  0
  -23.6274   -8.2236   22.0749 C   0  0  0  0  0  0
  -22.4255   -8.0276   21.3544 C   0  0  0  0  0  0
  -21.9884   -9.0247   20.4646 C   0  0  0  0  0  0
  -22.7216  -10.2121   20.3040 C   0  0  0  0  0  0
  -21.6851   -6.0724   22.5277 C   0  0  0  0  0  0
  -21.4015   -6.5620   23.8209 C   0  0  0  0  0  0
  -21.3652   -5.6779   24.9171 C   0  0  0  0  0  0
  -21.6039   -4.3041   24.7221 C   0  0  0  0  0  0
  -21.8826   -3.8138   23.4346 C   0  0  0  0  0  0
  -21.9196   -4.6953   22.3404 C   0  0  0  0  0  0
  -22.7866  -13.5239   21.1818 C   0  0  0  0  0  0
  -22.1662   -4.2147   21.0976 F   0  0  0  0  0  0
  -21.5629   -3.4525   25.7733 F   0  0  0  0  0  0
  -30.0473  -13.2369   20.4584 N   0  0  0  0  0  0
  -26.3045  -12.9300   20.3370 N   0  0  0  0  0  0
  -25.9305  -11.6467   20.5734 N   0  0  0  0  0  0
  -22.0496  -12.8254   22.0375 N   0  0  0  0  0  0
  -25.4331  -15.1849   20.4052 N   0  0  0  0  0  0
  -31.8034  -14.6488   20.0864 O   0  0  0  0  0  0
  -21.6629   -6.8863   21.4238 O   0  0  0  0  0  0
  -22.3557  -14.5549   20.6661 O   0  0  0  0  0  0
  -24.6122  -31.8690   23.2116 C   0  0  0  0  0  0
  -25.9032  -32.4823   23.8395 C   0  0  1  0  0  0
  -27.2422  -27.4542   20.0698 C   0  0  0  0  0  0
  -25.5894  -33.8616   24.2338 N   0  0  0  0  0  0
  -23.3990  -30.4920   21.5514 C   0  0  2  0  0  0
  -24.8445  -28.9575   20.1152 C   0  0  0  0  0  0
  -22.7404  -29.4650   22.5001 C   0  0  0  0  0  0
  -18.0274  -28.1380   22.8478 C   0  0  0  0  0  0
  -24.1476  -36.7298   23.2630 C   0  0  0  0  0  0
  -25.9260  -30.8330   21.3664 C   0  0  0  0  0  0
  -26.0009  -29.4668   20.7180 C   0  0  0  0  0  0
  -27.1956  -28.7139   20.7065 C   0  0  0  0  0  0
  -26.0616  -26.9510   19.4736 C   0  0  0  0  0  0
  -24.8675  -27.6961   19.4968 C   0  0  0  0  0  0
  -23.6072  -29.8246   20.1651 C   0  0  0  0  0  0
  -25.4092  -36.3099   24.0344 C   0  0  1  0  0  0
  -20.5853  -28.3646   23.1333 C   0  0  2  0  0  0
  -20.6746  -26.9378   22.5437 C   0  0  0  0  0  0
  -19.5740  -26.6379   21.5204 C   0  0  0  0  0  0
  -18.1915  -26.7935   22.1607 C   0  0  0  0  0  0
  -19.1519  -28.8834   23.2908 C   0  0  0  0  0  0
  -18.9447  -30.1443   23.8921 C   0  0  0  0  0  0
  -17.6442  -30.6573   24.0577 C   0  0  0  0  0  0
  -25.9020  -34.9472   23.5138 C   0  0  0  0  0  0
  -16.5339  -29.9081   23.6320 C   0  0  0  0  0  0
  -16.7264  -28.6510   23.0322 C   0  0  0  0  0  0
  -26.4456  -31.6591   25.0716 C   0  0  0  0  0  0
  -25.3736  -31.3733   26.1489 C   0  0  0  0  0  0
  -27.0245  -30.3019   24.6085 C   0  0  0  0  0  0
  -27.6055  -32.4289   25.7471 C   0  0  0  0  0  0
  -27.5578  -37.1791   24.8452 C   0  0  0  0  0  0
  -21.4129  -29.3014   22.3745 N   0  0  0  0  0  0
  -26.4274  -37.3785   23.9421 N   0  0  0  0  0  0
  -24.6638  -31.0799   22.1015 N   0  0  0  0  0  0
  -23.4186  -28.8182   23.3024 O   0  0  0  0  0  0
  -28.4417  -26.7728   20.0583 O   0  0  0  0  0  0
  -26.5578  -34.8924   22.4694 O   0  0  0  0  0  0
  -23.5321  -32.1445   23.7522 O   0  0  0  0  0  0
  -30.7614  -18.8148   20.9063 C   0  0  0  0  0  0
  -29.4526  -18.9895   20.4891 C   0  0  0  0  0  0
  -30.0366  -16.6782   21.1314 C   0  0  0  0  0  0
  -29.2309  -21.1100   19.2908 C   0  0  0  0  0  0
  -27.7929  -21.1960   17.2510 C   0  0  0  0  0  0
  -28.3812  -24.3734   19.4581 C   0  0  0  0  0  0
  -28.5098  -23.3974   18.2724 C   0  0  0  0  0  0
  -28.6817  -25.8207   19.0215 C   0  0  0  0  0  0
  -28.1371  -21.9211   18.5671 C   0  0  2  0  0  0
  -31.0831  -17.5009   21.2580 N   0  0  0  0  0  0
  -31.7384  -19.7987   21.0115 N   0  0  0  0  0  0
  -28.7831  -20.0846   20.0345 N   0  0  0  0  0  0
  -30.0903  -15.2953   21.4079 N   0  0  0  0  0  0
  -30.4193  -21.4078   19.1579 O   0  0  0  0  0  0
  -28.5641  -17.4870   20.6352 S   0  0  0  0  0  0
  -31.4673  -12.3933   19.0962 H   0  0  0  0  0  0
  -30.3308  -11.2640   19.7708 H   0  0  0  0  0  0
  -29.7227  -11.8156   17.3964 H   0  0  0  0  0  0
  -29.6630  -13.5147   17.7905 H   0  0  0  0  0  0
  -27.8100  -11.3205   18.7843 H   0  0  0  0  0  0
  -27.3634  -12.6793   17.7844 H   0  0  0  0  0  0
  -27.7285  -14.2519   19.6089 H   0  0  0  0  0  0
  -28.6735  -11.8770   21.2836 H   0  0  0  0  0  0
  -28.4588  -13.4784   21.9000 H   0  0  0  0  0  0
  -25.2743   -9.5684   22.4739 H   0  0  0  0  0  0
  -23.9995   -7.4630   22.7466 H   0  0  0  0  0  0
  -21.0820   -8.8753   19.8947 H   0  0  0  0  0  0
  -22.3662  -10.9652   19.6146 H   0  0  0  0  0  0
  -21.1998   -7.6129   23.9713 H   0  0  0  0  0  0
  -21.1463   -6.0497   25.9073 H   0  0  0  0  0  0
  -22.0610   -2.7602   23.2843 H   0  0  0  0  0  0
  -22.4079  -11.9906   22.4770 H   0  0  0  0  0  0
  -21.1120  -13.1314   22.2573 H   0  0  0  0  0  0
  -24.6642  -15.8388   20.5061 H   0  0  0  0  0  0
  -26.2820  -15.6229   20.0717 H   0  0  0  0  0  0
  -26.7093  -32.5549   23.1145 H   0  0  0  0  0  0
  -25.0064  -33.9771   25.0504 H   0  0  0  0  0  0
  -22.6854  -31.3071   21.4133 H   0  0  0  0  0  0
  -23.3744  -35.9619   23.3282 H   0  0  0  0  0  0
  -24.3582  -36.8926   22.2046 H   0  0  0  0  0  0
  -23.7222  -37.6500   23.6653 H   0  0  0  0  0  0
  -26.0372  -31.5969   20.5952 H   0  0  0  0  0  0
  -26.8141  -30.8887   21.9842 H   0  0  0  0  0  0
  -28.0899  -29.1037   21.1720 H   0  0  0  0  0  0
  -26.0444  -25.9878   18.9853 H   0  0  0  0  0  0
  -23.9765  -27.3000   19.0288 H   0  0  0  0  0  0
  -23.7145  -30.5971   19.4021 H   0  0  0  0  0  0
  -22.7310  -29.2439   19.8705 H   0  0  0  0  0  0
  -25.1259  -36.1954   25.0834 H   0  0  0  0  0  0
  -20.9954  -28.3209   24.1453 H   0  0  0  0  0  0
  -20.5601  -26.2246   23.3617 H   0  0  0  0  0  0
  -21.6628  -26.7399   22.1265 H   0  0  0  0  0  0
  -19.6889  -25.6296   21.1214 H   0  0  0  0  0  0
  -19.6691  -27.3197   20.6740 H   0  0  0  0  0  0
  -17.4188  -26.6699   21.4003 H   0  0  0  0  0  0
  -18.0302  -26.0082   22.9005 H   0  0  0  0  0  0
  -19.7921  -30.7242   24.2304 H   0  0  0  0  0  0
  -17.5003  -31.6255   24.5184 H   0  0  0  0  0  0
  -15.5335  -30.2971   23.7640 H   0  0  0  0  0  0
  -15.8675  -28.0834   22.7003 H   0  0  0  0  0  0
  -24.5917  -30.7038   25.7882 H   0  0  0  0  0  0
  -24.8908  -32.2899   26.4887 H   0  0  0  0  0  0
  -25.8109  -30.8974   27.0273 H   0  0  0  0  0  0
  -26.2761  -29.6832   24.1115 H   0  0  0  0  0  0
  -27.3968  -29.7210   25.4530 H   0  0  0  0  0  0
  -27.8626  -30.4303   23.9233 H   0  0  0  0  0  0
  -27.2698  -33.3589   26.2065 H   0  0  0  0  0  0
  -28.3848  -32.6839   25.0282 H   0  0  0  0  0  0
  -28.0726  -31.8401   26.5374 H   0  0  0  0  0  0
  -28.2576  -38.0104   24.7523 H   0  0  0  0  0  0
  -28.1088  -36.2644   24.6211 H   0  0  0  0  0  0
  -27.2329  -37.1392   25.8864 H   0  0  0  0  0  0
  -20.9280  -29.8757   21.6993 H   0  0  0  0  0  0
  -26.0164  -38.2857   24.1461 H   0  0  0  0  0  0
  -27.5514  -20.1450   17.4183 H   0  0  0  0  0  0
  -28.6265  -21.2329   16.5480 H   0  0  0  0  0  0
  -26.9283  -21.6465   16.7627 H   0  0  0  0  0  0
  -29.0610  -24.0822   20.2603 H   0  0  0  0  0  0
  -27.3736  -24.3134   19.8699 H   0  0  0  0  0  0
  -29.5174  -23.4551   17.8574 H   0  0  0  0  0  0
  -27.8575  -23.7642   17.4782 H   0  0  0  0  0  0
  -28.1424  -26.0803   18.1083 H   0  0  0  0  0  0
  -29.7358  -25.8918   18.7533 H   0  0  0  0  0  0
  -27.2409  -21.9188   19.1892 H   0  0  0  0  0  0
  -31.5452  -20.6085   20.4205 H   0  0  0  0  0  0
  -32.7038  -19.4930   20.9676 H   0  0  0  0  0  0
  -27.7773  -20.0005   20.0476 H   0  0  0  0  0  0
  -29.2472  -14.9155   21.8079 H   0  0  0  0  0  0
  1 25  1  0  0  0
  1 30  2  0  0  0
  1 83  1  0  0  0
  2  3  1  0  0  0
  2 25  1  0  0  0
  2 86  1  0  0  0
  2 87  1  0  0  0
  3  4  1  0  0  0
  3 88  1  0  0  0
  3 89  1  0  0  0
  4  5  1  0  0  0
  4 90  1  0  0  0
  4 91  1  0  0  0
  5  6  1  0  0  0
  5 26  1  0  0  0
  5 92  1  0  0  0
  6 25  1  0  0  0
  6 93  1  0  0  0
  6 94  1  0  0  0
  7  8  2  0  0  0
  7 26  1  0  0  0
  7 29  1  0  0  0
  8  9  1  0  0  0
  8 22  1  0  0  0
  9 10  1  0  0  0
  9 27  2  0  0  0
 10 11  2  0  0  0
 10 15  1  0  0  0
 11 12  1  0  0  0
 11 95  1  0  0  0
 12 13  2  0  0  0
 12 96  1  0  0  0
 13 14  1  0  0  0
 13 31  1  0  0  0
 14 15  2  0  0  0
 14 97  1  0  0  0
 15 98  1  0  0  0
 16 17  2  0  0  0
 16 21  1  0  0  0
 16 31  1  0  0  0
 17 18  1  0  0  0
 17 99  1  0  0  0
 18 19  2  0  0  0
 18100  1  0  0  0
 19 20  1  0  0  0
 19 24  1  0  0  0
 20 21  2  0  0  0
 20101  1  0  0  0
 21 23  1  0  0  0
 22 28  1  0  0  0
 22 32  2  0  0  0
 26 27  1  0  0  0
 28102  1  0  0  0
 28103  1  0  0  0
 29104  1  0  0  0
 29105  1  0  0  0
 33 34  1  0  0  0
 33 66  1  0  0  0
 33 70  2  0  0  0
 34 36  1  0  0  0
 34 59  1  0  0  0
 34106  1  0  0  0
 35 44  2  0  0  0
 35 45  1  0  0  0
 35 68  1  0  0  0
 36 56  1  0  0  0
 36107  1  0  0  0
 37 39  1  0  0  0
 37 47  1  0  0  0
 37 66  1  0  0  0
 37108  1  0  0  0
 38 43  2  0  0  0
 38 46  1  0  0  0
 38 47  1  0  0  0
 39 64  1  0  0  0
 39 67  2  0  0  0
 40 52  1  0  0  0
 40 53  2  0  0  0
 40 58  1  0  0  0
 41109  1  0  0  0
 41110  1  0  0  0
 41111  1  0  0  0
 41 48  1  0  0  0
 42 43  1  0  0  0
 42 66  1  0  0  0
 42112  1  0  0  0
 42113  1  0  0  0
 43 44  1  0  0  0
 44114  1  0  0  0
 45 46  2  0  0  0
 45115  1  0  0  0
 46116  1  0  0  0
 47117  1  0  0  0
 47118  1  0  0  0
 48 56  1  0  0  0
 48 65  1  0  0  0
 48119  1  0  0  0
 49 50  1  0  0  0
 49 53  1  0  0  0
 49 64  1  0  0  0
 49120  1  0  0  0
 50 51  1  0  0  0
 50121  1  0  0  0
 50122  1  0  0  0
 51 52  1  0  0  0
 51123  1  0  0  0
 51124  1  0  0  0
 52125  1  0  0  0
 52126  1  0  0  0
 53 54  1  0  0  0
 54 55  2  0  0  0
 54127  1  0  0  0
 55 57  1  0  0  0
 55128  1  0  0  0
 56 69  2  0  0  0
 57 58  2  0  0  0
 57129  1  0  0  0
 58130  1  0  0  0
 59 60  1  0  0  0
 59 61  1  0  0  0
 59 62  1  0  0  0
 60131  1  0  0  0
 60132  1  0  0  0
 60133  1  0  0  0
 61134  1  0  0  0
 61135  1  0  0  0
 61136  1  0  0  0
 62137  1  0  0  0
 62138  1  0  0  0
 62139  1  0  0  0
 63 65  1  0  0  0
 63140  1  0  0  0
 63141  1  0  0  0
 63142  1  0  0  0
 64143  1  0  0  0
 65144  1  0  0  0
 68 78  1  0  0  0
 71 72  2  0  0  0
 71 80  1  0  0  0
 71 81  1  0  0  0
 72 82  1  0  0  0
 72 85  1  0  0  0
 73 80  2  0  0  0
 73 83  1  0  0  0
 73 85  1  0  0  0
 74 79  1  0  0  0
 74 82  1  0  0  0
 74 84  2  0  0  0
 75145  1  0  0  0
 75146  1  0  0  0
 75147  1  0  0  0
 75 79  1  0  0  0
 76 77  1  0  0  0
 76 78  1  0  0  0
 76148  1  0  0  0
 76149  1  0  0  0
 77 79  1  0  0  0
 77150  1  0  0  0
 77151  1  0  0  0
 78152  1  0  0  0
 78153  1  0  0  0
 79154  1  0  0  0
 81155  1  0  0  0
 81156  1  0  0  0
 82157  1  0  0  0
 83158  1  0  0  0
M  ISO  4   1 100  68 101  78 101  83 100
M  END
> <chiral flag>
0

> <version>
0

> <s_m_source_file>
/data/baiqing/PycharmProjects/Reinvent-master-3.2/result/LINK_invent/BTK/process_docking_weight1_custom_product_contain_oxygen_bond_distance_aromatic_linkinvent_7_9_3/rearranged_h_0192.sdf

> <i_m_source_file_index>
41

> <r_mmod_Potential_Energy-OPLS-2005>
-252.872833251953

> <r_mmod_Stretch_Energy-OPLS-2005>
33.3510475158691

> <r_mmod_Bend_Energy-OPLS-2005>
111.035339355469

> <r_mmod_Torsional_Energy-OPLS-2005>
243.900329589844

> <r_mmod_Improper_Torsional_Energy-OPLS-2005>
10.2284803390503

> <r_mmod_Van_der_Waal_Energy-OPLS-2005>
136.89924621582

> <r_mmod_Electrostatic_Energy-OPLS-2005>
-546.468994140625

> <r_mmod_Solvation_Energy-OPLS-2005>
-250.418365478516

> <b_mmod_Minimization_Converged-OPLS-2005>
0

> <r_mmod_RMS_Derivative-OPLS-2005>
1.88695526123047

$$$$
42
                    3D
 Structure written by MMmdl.
154162  0  0  1  0            999 V2000
  -30.6936  -14.4490   20.6521 C   0  0  0  0  0  0
  -30.4350  -12.3265   19.3924 C   0  0  0  0  0  0
  -29.4901  -12.5375   18.1914 C   0  0  0  0  0  0
  -28.0117  -12.3892   18.6076 C   0  0  0  0  0  0
  -27.6688  -13.1996   19.8864 C   0  0  2  0  0  0
  -28.7141  -12.9106   20.9861 C   0  0  0  0  0  0
  -25.2625  -13.8143   20.5692 C   0  0  0  0  0  0
  -24.1858  -13.0429   20.9166 C   0  0  0  0  0  0
  -24.6403  -11.6894   20.8732 C   0  0  0  0  0  0
  -23.9064  -10.4287   21.0403 C   0  0  0  0  0  0
  -24.3617   -9.4203   21.9179 C   0  0  0  0  0  0
  -23.6291   -8.2240   22.0753 C   0  0  0  0  0  0
  -22.4271   -8.0281   21.3546 C   0  0  0  0  0  0
  -21.9907   -9.0253   20.4646 C   0  0  0  0  0  0
  -22.7236  -10.2131   20.3053 C   0  0  0  0  0  0
  -21.6850   -6.0733   22.5281 C   0  0  0  0  0  0
  -21.4011   -6.5640   23.8215 C   0  0  0  0  0  0
  -21.3663   -5.6795   24.9178 C   0  0  0  0  0  0
  -21.6049   -4.3057   24.7229 C   0  0  0  0  0  0
  -21.8822   -3.8145   23.4349 C   0  0  0  0  0  0
  -21.9194   -4.6960   22.3404 C   0  0  0  0  0  0
  -22.7880  -13.5235   21.1828 C   0  0  0  0  0  0
  -22.1661   -4.2147   21.0980 F   0  0  0  0  0  0
  -21.5630   -3.4540   25.7739 F   0  0  0  0  0  0
  -30.0374  -13.2702   20.4488 N   0  0  0  0  0  0
  -26.3068  -12.9301   20.3423 N   0  0  0  0  0  0
  -25.9333  -11.6465   20.5774 N   0  0  0  0  0  0
  -22.0515  -12.8232   22.0385 N   0  0  0  0  0  0
  -25.4367  -15.1861   20.4114 N   0  0  0  0  0  0
  -31.7740  -14.6895   20.0973 O   0  0  0  0  0  0
  -21.6639   -6.8875   21.4242 O   0  0  0  0  0  0
  -22.3568  -14.5544   20.6683 O   0  0  0  0  0  0
  -24.6133  -31.8687   23.2104 C   0  0  0  0  0  0
  -25.9029  -32.4828   23.8400 C   0  0  1  0  0  0
  -27.2377  -27.4476   20.0983 C   0  0  0  0  0  0
  -25.5887  -33.8627   24.2335 N   0  0  0  0  0  0
  -23.4011  -30.4905   21.5511 C   0  0  2  0  0  0
  -24.8490  -28.9535   20.1192 C   0  0  0  0  0  0
  -22.7402  -29.4658   22.5007 C   0  0  0  0  0  0
  -18.0269  -28.1372   22.8496 C   0  0  0  0  0  0
  -24.1483  -36.7324   23.2633 C   0  0  0  0  0  0
  -25.9275  -30.8387   21.3601 C   0  0  0  0  0  0
  -26.0080  -29.4719   20.7116 C   0  0  0  0  0  0
  -27.2085  -28.7271   20.6952 C   0  0  0  0  0  0
  -26.0649  -26.9352   19.5072 C   0  0  0  0  0  0
  -24.8710  -27.6831   19.5150 C   0  0  0  0  0  0
  -23.6095  -29.8187   20.1671 C   0  0  0  0  0  0
  -25.4103  -36.3120   24.0338 C   0  0  1  0  0  0
  -20.5858  -28.3657   23.1330 C   0  0  2  0  0  0
  -20.6761  -26.9395   22.5422 C   0  0  0  0  0  0
  -19.5741  -26.6382   21.5218 C   0  0  0  0  0  0
  -18.1917  -26.7921   22.1624 C   0  0  0  0  0  0
  -19.1518  -28.8831   23.2910 C   0  0  0  0  0  0
  -18.9445  -30.1441   23.8915 C   0  0  0  0  0  0
  -17.6447  -30.6579   24.0566 C   0  0  0  0  0  0
  -25.9031  -34.9481   23.5136 C   0  0  0  0  0  0
  -16.5341  -29.9081   23.6322 C   0  0  0  0  0  0
  -16.7261  -28.6498   23.0345 C   0  0  0  0  0  0
  -26.4464  -31.6597   25.0721 C   0  0  0  0  0  0
  -25.3740  -31.3692   26.1473 C   0  0  0  0  0  0
  -27.0288  -30.3042   24.6076 C   0  0  0  0  0  0
  -27.6049  -32.4306   25.7482 C   0  0  0  0  0  0
  -27.5589  -37.1806   24.8456 C   0  0  0  0  0  0
  -21.4133  -29.3026   22.3740 N   0  0  0  0  0  0
  -26.4289  -37.3807   23.9418 N   0  0  0  0  0  0
  -24.6656  -31.0799   22.0996 N   0  0  0  0  0  0
  -23.4179  -28.8206   23.3048 O   0  0  0  0  0  0
  -28.4025  -26.7184   20.0558 O   0  0  0  0  0  0
  -26.5598  -34.8930   22.4700 O   0  0  0  0  0  0
  -23.5329  -32.1432   23.7507 O   0  0  0  0  0  0
  -29.7539  -18.7480   19.7278 C   0  0  0  0  0  0
  -29.9437  -19.4284   20.9131 C   0  0  0  0  0  0
  -30.1281  -16.9390   21.0842 C   0  0  0  0  0  0
  -29.6571  -21.8095   20.3885 C   0  0  0  0  0  0
  -30.8261  -23.5548   21.8117 C   0  0  0  0  0  0
  -30.0871  -15.5187   21.6007 C   0  0  0  0  0  0
  -29.0650  -24.3436   20.1351 C   0  0  0  0  0  0
  -28.4184  -25.5416   20.8717 C   0  0  0  0  0  0
  -29.5161  -23.1886   21.0805 C   0  0  1  0  0  0
  -29.8316  -17.3493   19.8428 N   0  0  0  0  0  0
  -29.8449  -20.7562   21.2078 N   0  0  0  0  0  0
  -29.6009  -21.7116   19.1605 O   0  0  0  0  0  0
  -30.3334  -18.2967   22.1896 S   0  0  0  0  0  0
  -31.4735  -12.4569   19.0824 H   0  0  0  0  0  0
  -30.3661  -11.3009   19.7580 H   0  0  0  0  0  0
  -29.7270  -11.8303   17.3954 H   0  0  0  0  0  0
  -29.6518  -13.5326   17.7746 H   0  0  0  0  0  0
  -27.8175  -11.3296   18.7772 H   0  0  0  0  0  0
  -27.3592  -12.6883   17.7869 H   0  0  0  0  0  0
  -27.7318  -14.2576   19.6305 H   0  0  0  0  0  0
  -28.7036  -11.8461   21.2277 H   0  0  0  0  0  0
  -28.4624  -13.3895   21.9294 H   0  0  0  0  0  0
  -25.2764   -9.5676   22.4750 H   0  0  0  0  0  0
  -24.0002   -7.4634   22.7474 H   0  0  0  0  0  0
  -21.0839   -8.8774   19.8952 H   0  0  0  0  0  0
  -22.3699  -10.9672   19.6161 H   0  0  0  0  0  0
  -21.1999   -7.6148   23.9715 H   0  0  0  0  0  0
  -21.1483   -6.0524   25.9082 H   0  0  0  0  0  0
  -22.0598   -2.7603   23.2853 H   0  0  0  0  0  0
  -22.4127  -11.9891   22.4776 H   0  0  0  0  0  0
  -21.1136  -13.1267   22.2595 H   0  0  0  0  0  0
  -24.6723  -15.8442   20.5181 H   0  0  0  0  0  0
  -26.2969  -15.6250   20.1060 H   0  0  0  0  0  0
  -26.7102  -32.5551   23.1174 H   0  0  0  0  0  0
  -25.0029  -33.9793   25.0473 H   0  0  0  0  0  0
  -22.6889  -31.3063   21.4116 H   0  0  0  0  0  0
  -23.3747  -35.9652   23.3283 H   0  0  0  0  0  0
  -24.3582  -36.8954   22.2051 H   0  0  0  0  0  0
  -23.7227  -37.6520   23.6657 H   0  0  0  0  0  0
  -26.0334  -31.6031   20.5893 H   0  0  0  0  0  0
  -26.8176  -30.8974   21.9748 H   0  0  0  0  0  0
  -28.1080  -29.1270   21.1424 H   0  0  0  0  0  0
  -26.0790  -25.9623   19.0362 H   0  0  0  0  0  0
  -23.9801  -27.2786   19.0548 H   0  0  0  0  0  0
  -23.7147  -30.5916   19.4050 H   0  0  0  0  0  0
  -22.7345  -29.2359   19.8744 H   0  0  0  0  0  0
  -25.1273  -36.1988   25.0830 H   0  0  0  0  0  0
  -20.9953  -28.3217   24.1450 H   0  0  0  0  0  0
  -20.5675  -26.2258   23.3603 H   0  0  0  0  0  0
  -21.6633  -26.7443   22.1214 H   0  0  0  0  0  0
  -19.6902  -25.6299   21.1229 H   0  0  0  0  0  0
  -19.6682  -27.3208   20.6759 H   0  0  0  0  0  0
  -17.4194  -26.6682   21.4018 H   0  0  0  0  0  0
  -18.0308  -26.0053   22.9009 H   0  0  0  0  0  0
  -19.7922  -30.7255   24.2292 H   0  0  0  0  0  0
  -17.5000  -31.6261   24.5160 H   0  0  0  0  0  0
  -15.5341  -30.2987   23.7629 H   0  0  0  0  0  0
  -15.8662  -28.0823   22.7044 H   0  0  0  0  0  0
  -24.5907  -30.7046   25.7807 H   0  0  0  0  0  0
  -24.8935  -32.2841   26.4949 H   0  0  0  0  0  0
  -25.8098  -30.8838   27.0215 H   0  0  0  0  0  0
  -26.2826  -29.6812   24.1130 H   0  0  0  0  0  0
  -27.4063  -29.7266   25.4526 H   0  0  0  0  0  0
  -27.8659  -30.4364   23.9217 H   0  0  0  0  0  0
  -27.2676  -33.3585   26.2111 H   0  0  0  0  0  0
  -28.3833  -32.6895   25.0294 H   0  0  0  0  0  0
  -28.0746  -31.8394   26.5355 H   0  0  0  0  0  0
  -28.2582  -38.0127   24.7548 H   0  0  0  0  0  0
  -28.1107  -36.2664   24.6218 H   0  0  0  0  0  0
  -27.2316  -37.1385   25.8858 H   0  0  0  0  0  0
  -20.9290  -29.8741   21.6960 H   0  0  0  0  0  0
  -26.0178  -38.2879   24.1445 H   0  0  0  0  0  0
  -29.5061  -19.1695   18.7636 H   0  0  0  0  0  0
  -31.1455  -22.7710   22.4987 H   0  0  0  0  0  0
  -30.7154  -24.4606   22.4067 H   0  0  0  0  0  0
  -31.6400  -23.7234   21.1053 H   0  0  0  0  0  0
  -29.0434  -15.3418   21.8344 H   0  0  0  0  0  0
  -30.6271  -15.4728   22.5457 H   0  0  0  0  0  0
  -29.9285  -24.6923   19.5673 H   0  0  0  0  0  0
  -28.3506  -23.9807   19.3949 H   0  0  0  0  0  0
  -28.9894  -25.7922   21.7651 H   0  0  0  0  0  0
  -27.4231  -25.2602   21.2221 H   0  0  0  0  0  0
  -28.7322  -23.0578   21.8287 H   0  0  0  0  0  0
  -29.9172  -20.9895   22.1891 H   0  0  0  0  0  0
  1 25  1  0  0  0
  1 30  2  0  0  0
  1 76  1  0  0  0
  2  3  1  0  0  0
  2 25  1  0  0  0
  2 84  1  0  0  0
  2 85  1  0  0  0
  3  4  1  0  0  0
  3 86  1  0  0  0
  3 87  1  0  0  0
  4  5  1  0  0  0
  4 88  1  0  0  0
  4 89  1  0  0  0
  5  6  1  0  0  0
  5 26  1  0  0  0
  5 90  1  0  0  0
  6 25  1  0  0  0
  6 91  1  0  0  0
  6 92  1  0  0  0
  7  8  2  0  0  0
  7 26  1  0  0  0
  7 29  1  0  0  0
  8  9  1  0  0  0
  8 22  1  0  0  0
  9 10  1  0  0  0
  9 27  2  0  0  0
 10 11  2  0  0  0
 10 15  1  0  0  0
 11 12  1  0  0  0
 11 93  1  0  0  0
 12 13  2  0  0  0
 12 94  1  0  0  0
 13 14  1  0  0  0
 13 31  1  0  0  0
 14 15  2  0  0  0
 14 95  1  0  0  0
 15 96  1  0  0  0
 16 17  2  0  0  0
 16 21  1  0  0  0
 16 31  1  0  0  0
 17 18  1  0  0  0
 17 97  1  0  0  0
 18 19  2  0  0  0
 18 98  1  0  0  0
 19 20  1  0  0  0
 19 24  1  0  0  0
 20 21  2  0  0  0
 20 99  1  0  0  0
 21 23  1  0  0  0
 22 28  1  0  0  0
 22 32  2  0  0  0
 26 27  1  0  0  0
 28100  1  0  0  0
 28101  1  0  0  0
 29102  1  0  0  0
 29103  1  0  0  0
 33 34  1  0  0  0
 33 66  1  0  0  0
 33 70  2  0  0  0
 34 36  1  0  0  0
 34 59  1  0  0  0
 34104  1  0  0  0
 35 44  2  0  0  0
 35 45  1  0  0  0
 35 68  1  0  0  0
 36 56  1  0  0  0
 36105  1  0  0  0
 37 39  1  0  0  0
 37 47  1  0  0  0
 37 66  1  0  0  0
 37106  1  0  0  0
 38 43  2  0  0  0
 38 46  1  0  0  0
 38 47  1  0  0  0
 39 64  1  0  0  0
 39 67  2  0  0  0
 40 52  1  0  0  0
 40 53  2  0  0  0
 40 58  1  0  0  0
 41107  1  0  0  0
 41108  1  0  0  0
 41109  1  0  0  0
 41 48  1  0  0  0
 42 43  1  0  0  0
 42 66  1  0  0  0
 42110  1  0  0  0
 42111  1  0  0  0
 43 44  1  0  0  0
 44112  1  0  0  0
 45 46  2  0  0  0
 45113  1  0  0  0
 46114  1  0  0  0
 47115  1  0  0  0
 47116  1  0  0  0
 48 56  1  0  0  0
 48 65  1  0  0  0
 48117  1  0  0  0
 49 50  1  0  0  0
 49 53  1  0  0  0
 49 64  1  0  0  0
 49118  1  0  0  0
 50 51  1  0  0  0
 50119  1  0  0  0
 50120  1  0  0  0
 51 52  1  0  0  0
 51121  1  0  0  0
 51122  1  0  0  0
 52123  1  0  0  0
 52124  1  0  0  0
 53 54  1  0  0  0
 54 55  2  0  0  0
 54125  1  0  0  0
 55 57  1  0  0  0
 55126  1  0  0  0
 56 69  2  0  0  0
 57 58  2  0  0  0
 57127  1  0  0  0
 58128  1  0  0  0
 59 60  1  0  0  0
 59 61  1  0  0  0
 59 62  1  0  0  0
 60129  1  0  0  0
 60130  1  0  0  0
 60131  1  0  0  0
 61132  1  0  0  0
 61133  1  0  0  0
 61134  1  0  0  0
 62135  1  0  0  0
 62136  1  0  0  0
 62137  1  0  0  0
 63 65  1  0  0  0
 63138  1  0  0  0
 63139  1  0  0  0
 63140  1  0  0  0
 64141  1  0  0  0
 65142  1  0  0  0
 68 78  1  0  0  0
 71 72  2  0  0  0
 71 80  1  0  0  0
 71143  1  0  0  0
 72 81  1  0  0  0
 72 83  1  0  0  0
 73 76  1  0  0  0
 73 80  2  0  0  0
 73 83  1  0  0  0
 74 79  1  0  0  0
 74 81  1  0  0  0
 74 82  2  0  0  0
 75144  1  0  0  0
 75145  1  0  0  0
 75146  1  0  0  0
 75 79  1  0  0  0
 76147  1  0  0  0
 76148  1  0  0  0
 77 78  1  0  0  0
 77 79  1  0  0  0
 77149  1  0  0  0
 77150  1  0  0  0
 78151  1  0  0  0
 78152  1  0  0  0
 79153  1  0  0  0
 81154  1  0  0  0
M  ISO  4   1 100  68 101  76 100  78 101
M  END
> <chiral flag>
0

> <version>
0

> <s_m_source_file>
/data/baiqing/PycharmProjects/Reinvent-master-3.2/result/LINK_invent/BTK/process_docking_weight1_custom_product_contain_oxygen_bond_distance_aromatic_linkinvent_7_9_3/rearranged_h_0192.sdf

> <i_m_source_file_index>
42

> <r_mmod_Potential_Energy-OPLS-2005>
-81.346565246582

> <r_mmod_Stretch_Energy-OPLS-2005>
36.6658020019531

> <r_mmod_Bend_Energy-OPLS-2005>
109.784126281738

> <r_mmod_Torsional_Energy-OPLS-2005>
214.376388549805

> <r_mmod_Improper_Torsional_Energy-OPLS-2005>
2.62163591384888

> <r_mmod_Van_der_Waal_Energy-OPLS-2005>
132.075729370117

> <r_mmod_Electrostatic_Energy-OPLS-2005>
-360.216979980469

> <r_mmod_Solvation_Energy-OPLS-2005>
-226.145690917969

> <b_mmod_Minimization_Converged-OPLS-2005>
0

> <r_mmod_RMS_Derivative-OPLS-2005>
0.719315230846405

$$$$
43
                    3D
 Structure written by MMmdl.
166174  0  0  1  0            999 V2000
  -30.6249  -14.5438   20.5529 C   0  0  0  0  0  0
  -30.4419  -12.3421   19.4339 C   0  0  0  0  0  0
  -29.5050  -12.5130   18.2167 C   0  0  0  0  0  0
  -28.0247  -12.3616   18.6252 C   0  0  0  0  0  0
  -27.6639  -13.1997   19.8803 C   0  0  2  0  0  0
  -28.7048  -12.9724   21.0007 C   0  0  0  0  0  0
  -25.2634  -13.8127   20.5711 C   0  0  0  0  0  0
  -24.1861  -13.0426   20.9176 C   0  0  0  0  0  0
  -24.6394  -11.6886   20.8728 C   0  0  0  0  0  0
  -23.9047  -10.4286   21.0394 C   0  0  0  0  0  0
  -24.3604   -9.4208   21.9175 C   0  0  0  0  0  0
  -23.6294   -8.2247   22.0744 C   0  0  0  0  0  0
  -22.4270   -8.0283   21.3547 C   0  0  0  0  0  0
  -21.9898   -9.0246   20.4640 C   0  0  0  0  0  0
  -22.7220  -10.2136   20.3045 C   0  0  0  0  0  0
  -21.6857   -6.0740   22.5282 C   0  0  0  0  0  0
  -21.4008   -6.5636   23.8218 C   0  0  0  0  0  0
  -21.3663   -5.6787   24.9174 C   0  0  0  0  0  0
  -21.6053   -4.3052   24.7221 C   0  0  0  0  0  0
  -21.8823   -3.8149   23.4339 C   0  0  0  0  0  0
  -21.9193   -4.6968   22.3400 C   0  0  0  0  0  0
  -22.7891  -13.5235   21.1854 C   0  0  0  0  0  0
  -22.1663   -4.2163   21.0978 F   0  0  0  0  0  0
  -21.5637   -3.4520   25.7722 F   0  0  0  0  0  0
  -30.0309  -13.3175   20.4571 N   0  0  0  0  0  0
  -26.3044  -12.9277   20.3378 N   0  0  0  0  0  0
  -25.9324  -11.6446   20.5762 N   0  0  0  0  0  0
  -22.0534  -12.8218   22.0416 N   0  0  0  0  0  0
  -25.4451  -15.1822   20.4178 N   0  0  0  0  0  0
  -31.7435  -14.7804   20.0822 O   0  0  0  0  0  0
  -21.6645   -6.8874   21.4241 O   0  0  0  0  0  0
  -22.3574  -14.5547   20.6710 O   0  0  0  0  0  0
  -24.6180  -31.8654   23.2075 C   0  0  0  0  0  0
  -25.9061  -32.4811   23.8373 C   0  0  1  0  0  0
  -27.2326  -27.3944   20.1027 C   0  0  0  0  0  0
  -25.5901  -33.8610   24.2303 N   0  0  0  0  0  0
  -23.4072  -30.4891   21.5499 C   0  0  2  0  0  0
  -24.8538  -28.9513   20.1148 C   0  0  0  0  0  0
  -22.7425  -29.4649   22.4980 C   0  0  0  0  0  0
  -18.0274  -28.1389   22.8487 C   0  0  0  0  0  0
  -24.1486  -36.7305   23.2639 C   0  0  0  0  0  0
  -25.9406  -30.8209   21.3648 C   0  0  0  0  0  0
  -26.0183  -29.4529   20.7093 C   0  0  0  0  0  0
  -27.2108  -28.6856   20.6932 C   0  0  0  0  0  0
  -26.0444  -26.9194   19.4989 C   0  0  0  0  0  0
  -24.8641  -27.6865   19.5048 C   0  0  0  0  0  0
  -23.6170  -29.8221   20.1646 C   0  0  0  0  0  0
  -25.4108  -36.3104   24.0335 C   0  0  1  0  0  0
  -20.5870  -28.3676   23.1318 C   0  0  2  0  0  0
  -20.6770  -26.9410   22.5421 C   0  0  0  0  0  0
  -19.5743  -26.6392   21.5222 C   0  0  0  0  0  0
  -18.1923  -26.7933   22.1631 C   0  0  0  0  0  0
  -19.1526  -28.8850   23.2898 C   0  0  0  0  0  0
  -18.9452  -30.1459   23.8906 C   0  0  0  0  0  0
  -17.6453  -30.6590   24.0573 C   0  0  0  0  0  0
  -25.9042  -34.9473   23.5120 C   0  0  0  0  0  0
  -16.5347  -29.9094   23.6337 C   0  0  0  0  0  0
  -16.7261  -28.6519   23.0342 C   0  0  0  0  0  0
  -26.4479  -31.6600   25.0713 C   0  0  0  0  0  0
  -25.3733  -31.3715   26.1454 C   0  0  0  0  0  0
  -27.0319  -30.3039   24.6113 C   0  0  0  0  0  0
  -27.6055  -32.4321   25.7472 C   0  0  0  0  0  0
  -27.5581  -37.1799   24.8462 C   0  0  0  0  0  0
  -21.4151  -29.3032   22.3714 N   0  0  0  0  0  0
  -26.4287  -37.3794   23.9419 N   0  0  0  0  0  0
  -24.6741  -31.0725   22.0993 N   0  0  0  0  0  0
  -23.4183  -28.8191   23.3032 O   0  0  0  0  0  0
  -28.3909  -26.6268   20.1220 O   0  0  0  0  0  0
  -26.5609  -34.8932   22.4688 O   0  0  0  0  0  0
  -23.5363  -32.1431   23.7444 O   0  0  0  0  0  0
  -28.0943  -18.3919   19.8679 C   0  0  0  0  0  0
  -28.9504  -19.2418   20.5548 C   0  0  0  0  0  0
  -29.5676  -16.8101   20.6719 C   0  0  0  0  0  0
  -31.5428  -21.7131   24.3445 C   0  0  0  0  0  0
  -28.8361  -22.0095   18.8874 C   0  0  0  0  0  0
  -30.4052  -21.7387   23.3177 C   0  0  0  0  0  0
  -30.5487  -22.8843   22.2986 C   0  0  0  0  0  0
  -29.5550  -24.4351   20.5541 C   0  0  0  0  0  0
  -28.2329  -25.1843   20.2012 C   0  0  0  0  0  0
  -29.4308  -23.0048   21.2217 C   0  0  1  0  0  0
  -29.4502  -21.7382   20.2698 C   0  0  1  0  0  0
  -26.8299  -18.7390   19.1026 C   0  0  0  0  0  0
  -28.4537  -17.0265   19.9666 N   0  0  0  0  0  0
  -28.7457  -20.6052   20.8937 N   0  0  0  0  0  0
  -29.8587  -15.4892   21.1418 N   0  0  0  0  0  0
  -26.4828  -20.0211   19.2201 F   0  0  0  0  0  0
  -26.9740  -18.4871   17.8013 F   0  0  0  0  0  0
  -25.7910  -18.0232   19.5329 F   0  0  0  0  0  0
  -30.3020  -18.3239   21.2337 S   0  0  0  0  0  0
  -31.4829  -12.4731   19.1327 H   0  0  0  0  0  0
  -30.3743  -11.3284   19.8315 H   0  0  0  0  0  0
  -29.7568  -11.7825   17.4462 H   0  0  0  0  0  0
  -29.6625  -13.4968   17.7719 H   0  0  0  0  0  0
  -27.8437  -11.3043   18.8228 H   0  0  0  0  0  0
  -27.3730  -12.6319   17.7942 H   0  0  0  0  0  0
  -27.7059  -14.2478   19.5864 H   0  0  0  0  0  0
  -28.6988  -11.9276   21.3169 H   0  0  0  0  0  0
  -28.4503  -13.5408   21.8972 H   0  0  0  0  0  0
  -25.2757   -9.5690   22.4742 H   0  0  0  0  0  0
  -24.0020   -7.4625   22.7438 H   0  0  0  0  0  0
  -21.0849   -8.8739   19.8937 H   0  0  0  0  0  0
  -22.3668  -10.9664   19.6149 H   0  0  0  0  0  0
  -21.1992   -7.6140   23.9718 H   0  0  0  0  0  0
  -21.1493   -6.0517   25.9079 H   0  0  0  0  0  0
  -22.0606   -2.7614   23.2826 H   0  0  0  0  0  0
  -22.4118  -11.9842   22.4756 H   0  0  0  0  0  0
  -21.1152  -13.1246   22.2632 H   0  0  0  0  0  0
  -24.6908  -15.8501   20.5229 H   0  0  0  0  0  0
  -26.3135  -15.6166   20.1284 H   0  0  0  0  0  0
  -26.7129  -32.5508   23.1130 H   0  0  0  0  0  0
  -25.0042  -33.9771   25.0440 H   0  0  0  0  0  0
  -22.6973  -31.3070   21.4102 H   0  0  0  0  0  0
  -23.3756  -35.9628   23.3296 H   0  0  0  0  0  0
  -24.3581  -36.8926   22.2054 H   0  0  0  0  0  0
  -23.7230  -37.6503   23.6659 H   0  0  0  0  0  0
  -26.0559  -31.5860   20.5956 H   0  0  0  0  0  0
  -26.8279  -30.8745   21.9846 H   0  0  0  0  0  0
  -28.1084  -29.0694   21.1584 H   0  0  0  0  0  0
  -26.0074  -25.9542   19.0170 H   0  0  0  0  0  0
  -23.9690  -27.2965   19.0409 H   0  0  0  0  0  0
  -23.7269  -30.5986   19.4061 H   0  0  0  0  0  0
  -22.7395  -29.2443   19.8680 H   0  0  0  0  0  0
  -25.1287  -36.1960   25.0826 H   0  0  0  0  0  0
  -20.9962  -28.3245   24.1443 H   0  0  0  0  0  0
  -20.5697  -26.2278   23.3608 H   0  0  0  0  0  0
  -21.6635  -26.7464   22.1198 H   0  0  0  0  0  0
  -19.6909  -25.6307   21.1241 H   0  0  0  0  0  0
  -19.6690  -27.3220   20.6768 H   0  0  0  0  0  0
  -17.4195  -26.6682   21.4032 H   0  0  0  0  0  0
  -18.0320  -26.0077   22.9032 H   0  0  0  0  0  0
  -19.7931  -30.7277   24.2271 H   0  0  0  0  0  0
  -17.5012  -31.6274   24.5171 H   0  0  0  0  0  0
  -15.5352  -30.3003   23.7660 H   0  0  0  0  0  0
  -15.8658  -28.0856   22.7036 H   0  0  0  0  0  0
  -24.5885  -30.7098   25.7770 H   0  0  0  0  0  0
  -24.8952  -32.2881   26.4922 H   0  0  0  0  0  0
  -25.8065  -30.8845   27.0200 H   0  0  0  0  0  0
  -26.2875  -29.6783   24.1173 H   0  0  0  0  0  0
  -27.4095  -29.7293   25.4582 H   0  0  0  0  0  0
  -27.8704  -30.4355   23.9269 H   0  0  0  0  0  0
  -27.2676  -33.3605   26.2089 H   0  0  0  0  0  0
  -28.3838  -32.6909   25.0279 H   0  0  0  0  0  0
  -28.0759  -31.8423   26.5350 H   0  0  0  0  0  0
  -28.2592  -38.0104   24.7534 H   0  0  0  0  0  0
  -28.1086  -36.2641   24.6256 H   0  0  0  0  0  0
  -27.2304  -37.1405   25.8864 H   0  0  0  0  0  0
  -20.9318  -29.8741   21.6922 H   0  0  0  0  0  0
  -26.0175  -38.2866   24.1442 H   0  0  0  0  0  0
  -31.3895  -20.9153   25.0715 H   0  0  0  0  0  0
  -31.6105  -22.6539   24.8915 H   0  0  0  0  0  0
  -32.5033  -21.5337   23.8591 H   0  0  0  0  0  0
  -29.3872  -22.7755   18.3440 H   0  0  0  0  0  0
  -27.7987  -22.3373   18.9668 H   0  0  0  0  0  0
  -28.8530  -21.1167   18.2612 H   0  0  0  0  0  0
  -29.4447  -21.8210   23.8290 H   0  0  0  0  0  0
  -30.4073  -20.7753   22.8149 H   0  0  0  0  0  0
  -31.5167  -22.8127   21.8014 H   0  0  0  0  0  0
  -30.5857  -23.8039   22.8842 H   0  0  0  0  0  0
  -30.0598  -25.0992   21.2554 H   0  0  0  0  0  0
  -30.2219  -24.4069   19.6928 H   0  0  0  0  0  0
  -27.4889  -24.9665   20.9693 H   0  0  0  0  0  0
  -27.8465  -24.7912   19.2612 H   0  0  0  0  0  0
  -28.4799  -23.0099   21.7553 H   0  0  0  0  0  0
  -30.4883  -21.4440   20.1078 H   0  0  0  0  0  0
  -27.7794  -20.8344   21.1074 H   0  0  0  0  0  0
  -29.0609  -15.0580   21.5800 H   0  0  0  0  0  0
  1 25  1  0  0  0
  1 30  2  0  0  0
  1 85  1  0  0  0
  2  3  1  0  0  0
  2 25  1  0  0  0
  2 90  1  0  0  0
  2 91  1  0  0  0
  3  4  1  0  0  0
  3 92  1  0  0  0
  3 93  1  0  0  0
  4  5  1  0  0  0
  4 94  1  0  0  0
  4 95  1  0  0  0
  5  6  1  0  0  0
  5 26  1  0  0  0
  5 96  1  0  0  0
  6 25  1  0  0  0
  6 97  1  0  0  0
  6 98  1  0  0  0
  7  8  2  0  0  0
  7 26  1  0  0  0
  7 29  1  0  0  0
  8  9  1  0  0  0
  8 22  1  0  0  0
  9 10  1  0  0  0
  9 27  2  0  0  0
 10 11  2  0  0  0
 10 15  1  0  0  0
 11 12  1  0  0  0
 11 99  1  0  0  0
 12 13  2  0  0  0
 12100  1  0  0  0
 13 14  1  0  0  0
 13 31  1  0  0  0
 14 15  2  0  0  0
 14101  1  0  0  0
 15102  1  0  0  0
 16 17  2  0  0  0
 16 21  1  0  0  0
 16 31  1  0  0  0
 17 18  1  0  0  0
 17103  1  0  0  0
 18 19  2  0  0  0
 18104  1  0  0  0
 19 20  1  0  0  0
 19 24  1  0  0  0
 20 21  2  0  0  0
 20105  1  0  0  0
 21 23  1  0  0  0
 22 28  1  0  0  0
 22 32  2  0  0  0
 26 27  1  0  0  0
 28106  1  0  0  0
 28107  1  0  0  0
 29108  1  0  0  0
 29109  1  0  0  0
 33 34  1  0  0  0
 33 66  1  0  0  0
 33 70  2  0  0  0
 34 36  1  0  0  0
 34 59  1  0  0  0
 34110  1  0  0  0
 35 44  2  0  0  0
 35 45  1  0  0  0
 35 68  1  0  0  0
 36 56  1  0  0  0
 36111  1  0  0  0
 37 39  1  0  0  0
 37 47  1  0  0  0
 37 66  1  0  0  0
 37112  1  0  0  0
 38 43  2  0  0  0
 38 46  1  0  0  0
 38 47  1  0  0  0
 39 64  1  0  0  0
 39 67  2  0  0  0
 40 52  1  0  0  0
 40 53  2  0  0  0
 40 58  1  0  0  0
 41113  1  0  0  0
 41114  1  0  0  0
 41115  1  0  0  0
 41 48  1  0  0  0
 42 43  1  0  0  0
 42 66  1  0  0  0
 42116  1  0  0  0
 42117  1  0  0  0
 43 44  1  0  0  0
 44118  1  0  0  0
 45 46  2  0  0  0
 45119  1  0  0  0
 46120  1  0  0  0
 47121  1  0  0  0
 47122  1  0  0  0
 48 56  1  0  0  0
 48 65  1  0  0  0
 48123  1  0  0  0
 49 50  1  0  0  0
 49 53  1  0  0  0
 49 64  1  0  0  0
 49124  1  0  0  0
 50 51  1  0  0  0
 50125  1  0  0  0
 50126  1  0  0  0
 51 52  1  0  0  0
 51127  1  0  0  0
 51128  1  0  0  0
 52129  1  0  0  0
 52130  1  0  0  0
 53 54  1  0  0  0
 54 55  2  0  0  0
 54131  1  0  0  0
 55 57  1  0  0  0
 55132  1  0  0  0
 56 69  2  0  0  0
 57 58  2  0  0  0
 57133  1  0  0  0
 58134  1  0  0  0
 59 60  1  0  0  0
 59 61  1  0  0  0
 59 62  1  0  0  0
 60135  1  0  0  0
 60136  1  0  0  0
 60137  1  0  0  0
 61138  1  0  0  0
 61139  1  0  0  0
 61140  1  0  0  0
 62141  1  0  0  0
 62142  1  0  0  0
 62143  1  0  0  0
 63 65  1  0  0  0
 63144  1  0  0  0
 63145  1  0  0  0
 63146  1  0  0  0
 64147  1  0  0  0
 65148  1  0  0  0
 68 79  1  0  0  0
 71 72  2  0  0  0
 71 82  1  0  0  0
 71 83  1  0  0  0
 72 84  1  0  0  0
 72 89  1  0  0  0
 73 83  2  0  0  0
 73 85  1  0  0  0
 73 89  1  0  0  0
 74 76  1  0  0  0
 74149  1  0  0  0
 74150  1  0  0  0
 74151  1  0  0  0
 75152  1  0  0  0
 75153  1  0  0  0
 75154  1  0  0  0
 75 81  1  0  0  0
 76 77  1  0  0  0
 76155  1  0  0  0
 76156  1  0  0  0
 77157  1  0  0  0
 77158  1  0  0  0
 77 80  1  0  0  0
 78 79  1  0  0  0
 78 80  1  0  0  0
 78159  1  0  0  0
 78160  1  0  0  0
 79161  1  0  0  0
 79162  1  0  0  0
 80 81  1  0  0  0
 80163  1  0  0  0
 81 84  1  0  0  0
 81164  1  0  0  0
 82 86  1  0  0  0
 82 87  1  0  0  0
 82 88  1  0  0  0
 84165  1  0  0  0
 85166  1  0  0  0
M  ISO  4   1 100  68 101  79 101  85 100
M  END
> <chiral flag>
0

> <version>
0

> <s_m_source_file>
/data/baiqing/PycharmProjects/Reinvent-master-3.2/result/LINK_invent/BTK/process_docking_weight1_custom_product_contain_oxygen_bond_distance_aromatic_linkinvent_7_9_3/rearranged_h_0192.sdf

> <i_m_source_file_index>
43

> <r_mmod_Potential_Energy-OPLS-2005>
144.018203735352

> <r_mmod_Stretch_Energy-OPLS-2005>
51.5210914611816

> <r_mmod_Bend_Energy-OPLS-2005>
122.507171630859

> <r_mmod_Torsional_Energy-OPLS-2005>
292.499450683594

> <r_mmod_Improper_Torsional_Energy-OPLS-2005>
11.7636709213257

> <r_mmod_Van_der_Waal_Energy-OPLS-2005>
121.59326171875

> <r_mmod_Electrostatic_Energy-OPLS-2005>
-285.910949707031

> <r_mmod_Solvation_Energy-OPLS-2005>
-192.209381103516

> <b_mmod_Minimization_Converged-OPLS-2005>
0

> <r_mmod_RMS_Derivative-OPLS-2005>
1.81598031520844

$$$$
44
                    3D
 Structure written by MMmdl.
155163  0  0  1  0            999 V2000
  -30.6423  -14.5778   20.4872 C   0  0  0  0  0  0
  -30.4220  -12.3472   19.4470 C   0  0  0  0  0  0
  -29.4970  -12.4815   18.2169 C   0  0  0  0  0  0
  -28.0179  -12.3309   18.6250 C   0  0  0  0  0  0
  -27.6419  -13.2120   19.8466 C   0  0  2  0  0  0
  -28.6810  -13.0668   20.9808 C   0  0  0  0  0  0
  -25.2500  -13.8177   20.5665 C   0  0  0  0  0  0
  -24.1768  -13.0440   20.9193 C   0  0  0  0  0  0
  -24.6323  -11.6912   20.8722 C   0  0  0  0  0  0
  -23.9009  -10.4298   21.0410 C   0  0  0  0  0  0
  -24.3578   -9.4212   21.9187 C   0  0  0  0  0  0
  -23.6266   -8.2239   22.0766 C   0  0  0  0  0  0
  -22.4255   -8.0256   21.3549 C   0  0  0  0  0  0
  -21.9865   -9.0225   20.4659 C   0  0  0  0  0  0
  -22.7182  -10.2113   20.3059 C   0  0  0  0  0  0
  -21.6842   -6.0715   22.5286 C   0  0  0  0  0  0
  -21.4005   -6.5627   23.8214 C   0  0  0  0  0  0
  -21.3665   -5.6790   24.9181 C   0  0  0  0  0  0
  -21.6041   -4.3050   24.7238 C   0  0  0  0  0  0
  -21.8815   -3.8135   23.4361 C   0  0  0  0  0  0
  -21.9187   -4.6945   22.3412 C   0  0  0  0  0  0
  -22.7786  -13.5229   21.1852 C   0  0  0  0  0  0
  -22.1656   -4.2118   21.0994 F   0  0  0  0  0  0
  -21.5633   -3.4545   25.7761 F   0  0  0  0  0  0
  -30.0039  -13.3759   20.4188 N   0  0  0  0  0  0
  -26.2895  -12.9346   20.3207 N   0  0  0  0  0  0
  -25.9239  -11.6508   20.5694 N   0  0  0  0  0  0
  -22.0427  -12.8243   22.0430 N   0  0  0  0  0  0
  -25.4204  -15.1901   20.4099 N   0  0  0  0  0  0
  -31.8163  -14.7152   20.1326 O   0  0  0  0  0  0
  -21.6626   -6.8846   21.4243 O   0  0  0  0  0  0
  -22.3479  -14.5534   20.6694 O   0  0  0  0  0  0
  -24.6167  -31.8635   23.2040 C   0  0  0  0  0  0
  -25.9057  -32.4805   23.8363 C   0  0  1  0  0  0
  -27.2392  -27.3783   20.1251 C   0  0  0  0  0  0
  -25.5906  -33.8604   24.2304 N   0  0  0  0  0  0
  -23.4103  -30.4850   21.5436 C   0  0  2  0  0  0
  -24.8592  -28.9305   20.1251 C   0  0  0  0  0  0
  -22.7399  -29.4701   22.4970 C   0  0  0  0  0  0
  -18.0256  -28.1472   22.8460 C   0  0  0  0  0  0
  -24.1489  -36.7311   23.2641 C   0  0  0  0  0  0
  -25.9414  -30.8109   21.3668 C   0  0  0  0  0  0
  -26.0204  -29.4377   20.7227 C   0  0  0  0  0  0
  -27.2136  -28.6728   20.7120 C   0  0  0  0  0  0
  -26.0619  -26.8928   19.5252 C   0  0  0  0  0  0
  -24.8769  -27.6565   19.5257 C   0  0  0  0  0  0
  -23.6246  -29.8048   20.1647 C   0  0  0  0  0  0
  -25.4118  -36.3113   24.0336 C   0  0  1  0  0  0
  -20.5829  -28.3774   23.1295 C   0  0  2  0  0  0
  -20.6702  -26.9563   22.5322 C   0  0  0  0  0  0
  -19.5708  -26.6710   21.5042 C   0  0  0  0  0  0
  -18.1914  -26.8037   22.1546 C   0  0  0  0  0  0
  -19.1493  -28.8928   23.2937 C   0  0  0  0  0  0
  -18.9407  -30.1468   23.9091 C   0  0  0  0  0  0
  -17.6397  -30.6599   24.0737 C   0  0  0  0  0  0
  -25.9041  -34.9476   23.5108 C   0  0  0  0  0  0
  -16.5313  -29.9159   23.6331 C   0  0  0  0  0  0
  -16.7237  -28.6609   23.0301 C   0  0  0  0  0  0
  -26.4481  -31.6592   25.0702 C   0  0  0  0  0  0
  -25.3727  -31.3705   26.1424 C   0  0  0  0  0  0
  -27.0331  -30.3032   24.6123 C   0  0  0  0  0  0
  -27.6063  -32.4311   25.7457 C   0  0  0  0  0  0
  -27.5589  -37.1806   24.8467 C   0  0  0  0  0  0
  -21.4122  -29.3102   22.3666 N   0  0  0  0  0  0
  -26.4309  -37.3799   23.9398 N   0  0  0  0  0  0
  -24.6741  -31.0699   22.0974 N   0  0  0  0  0  0
  -23.4126  -28.8276   23.3077 O   0  0  0  0  0  0
  -28.4190  -26.6540   20.0732 O   0  0  0  0  0  0
  -26.5618  -34.8927   22.4684 O   0  0  0  0  0  0
  -23.5356  -32.1427   23.7392 O   0  0  0  0  0  0
  -29.3235  -18.2026   20.9588 C   0  0  0  0  0  0
  -28.4255  -18.1633   22.0016 C   0  0  0  0  0  0
  -28.5253  -20.3865   20.9060 C   0  0  0  0  0  0
  -28.1495  -17.0433   22.9521 C   0  0  0  0  0  0
  -30.2817  -17.0800   20.5248 C   0  0  0  0  0  0
  -28.9291  -22.7329   19.6640 C   0  0  0  0  0  0
  -28.4777  -25.2619   20.5187 C   0  0  0  0  0  0
  -28.1685  -24.1159   19.4843 C   0  0  1  0  0  0
  -29.3667  -19.4917   20.3512 N   0  0  0  0  0  0
  -28.3413  -21.7470   20.5823 N   0  0  0  0  0  0
  -29.8633  -15.6636   20.7267 N   0  0  0  0  0  0
  -28.5987  -24.5775   18.2169 O   0  0  0  0  0  0
  -27.5843  -19.6835   22.2092 S   0  0  0  0  0  0
  -31.4696  -12.4512   19.1529 H   0  0  0  0  0  0
  -30.3372  -11.3548   19.8883 H   0  0  0  0  0  0
  -29.7534  -11.7318   17.4665 H   0  0  0  0  0  0
  -29.6469  -13.4520   17.7445 H   0  0  0  0  0  0
  -27.8463  -11.2798   18.8583 H   0  0  0  0  0  0
  -27.3659  -12.5556   17.7792 H   0  0  0  0  0  0
  -27.6589  -14.2435   19.4952 H   0  0  0  0  0  0
  -28.6664  -12.0519   21.3769 H   0  0  0  0  0  0
  -28.4345  -13.7209   21.8195 H   0  0  0  0  0  0
  -25.2718   -9.5687   22.4758 H   0  0  0  0  0  0
  -23.9970   -7.4633   22.7488 H   0  0  0  0  0  0
  -21.0792   -8.8724   19.8974 H   0  0  0  0  0  0
  -22.3628  -10.9635   19.6162 H   0  0  0  0  0  0
  -21.1998   -7.6136   23.9701 H   0  0  0  0  0  0
  -21.1492   -6.0533   25.9080 H   0  0  0  0  0  0
  -22.0590   -2.7591   23.2883 H   0  0  0  0  0  0
  -22.4032  -11.9905   22.4829 H   0  0  0  0  0  0
  -21.1048  -13.1290   22.2638 H   0  0  0  0  0  0
  -24.6467  -15.8374   20.5090 H   0  0  0  0  0  0
  -26.2580  -15.6311   20.0542 H   0  0  0  0  0  0
  -26.7130  -32.5506   23.1122 H   0  0  0  0  0  0
  -25.0048  -33.9756   25.0443 H   0  0  0  0  0  0
  -22.7050  -31.3059   21.3906 H   0  0  0  0  0  0
  -23.3755  -35.9637   23.3307 H   0  0  0  0  0  0
  -24.3585  -36.8918   22.2056 H   0  0  0  0  0  0
  -23.7218  -37.6508   23.6649 H   0  0  0  0  0  0
  -26.0587  -31.5706   20.5931 H   0  0  0  0  0  0
  -26.8266  -30.8696   21.9886 H   0  0  0  0  0  0
  -28.1144  -29.0633   21.1647 H   0  0  0  0  0  0
  -26.0616  -25.9333   19.0311 H   0  0  0  0  0  0
  -23.9903  -27.2521   19.0560 H   0  0  0  0  0  0
  -23.7430  -30.5722   19.4000 H   0  0  0  0  0  0
  -22.7483  -29.2266   19.8670 H   0  0  0  0  0  0
  -25.1286  -36.1995   25.0835 H   0  0  0  0  0  0
  -20.9972  -28.3330   24.1390 H   0  0  0  0  0  0
  -20.5507  -26.2398   23.3451 H   0  0  0  0  0  0
  -21.6614  -26.7655   22.1165 H   0  0  0  0  0  0
  -19.7003  -25.6786   21.0725 H   0  0  0  0  0  0
  -19.6531  -27.3811   20.6790 H   0  0  0  0  0  0
  -18.0460  -26.0137   22.8941 H   0  0  0  0  0  0
  -17.4146  -26.6789   21.3986 H   0  0  0  0  0  0
  -19.7840  -30.7236   24.2650 H   0  0  0  0  0  0
  -17.4971  -31.6195   24.5517 H   0  0  0  0  0  0
  -15.5314  -30.3130   23.7605 H   0  0  0  0  0  0
  -15.8663  -28.0930   22.6944 H   0  0  0  0  0  0
  -24.5907  -30.7065   25.7723 H   0  0  0  0  0  0
  -24.8906  -32.2856   26.4871 H   0  0  0  0  0  0
  -25.8039  -30.8847   27.0184 H   0  0  0  0  0  0
  -26.2892  -29.6761   24.1195 H   0  0  0  0  0  0
  -27.4108  -29.7308   25.4610 H   0  0  0  0  0  0
  -27.8724  -30.4342   23.9289 H   0  0  0  0  0  0
  -27.2716  -33.3614   26.2062 H   0  0  0  0  0  0
  -28.3854  -32.6868   25.0262 H   0  0  0  0  0  0
  -28.0767  -31.8418   26.5335 H   0  0  0  0  0  0
  -28.2615  -38.0100   24.7525 H   0  0  0  0  0  0
  -28.1079  -36.2628   24.6283 H   0  0  0  0  0  0
  -27.2307  -37.1446   25.8873 H   0  0  0  0  0  0
  -20.9333  -29.8656   21.6708 H   0  0  0  0  0  0
  -26.0203  -38.2887   24.1379 H   0  0  0  0  0  0
  -29.0711  -16.5222   23.2097 H   0  0  0  0  0  0
  -27.7287  -17.4226   23.8833 H   0  0  0  0  0  0
  -27.4502  -16.3249   22.5222 H   0  0  0  0  0  0
  -30.5321  -17.2081   19.4699 H   0  0  0  0  0  0
  -31.2181  -17.2166   21.0655 H   0  0  0  0  0  0
  -28.9749  -22.2218   18.6980 H   0  0  0  0  0  0
  -29.9685  -22.9065   19.9487 H   0  0  0  0  0  0
  -29.5049  -25.1228   20.8538 H   0  0  0  0  0  0
  -27.8733  -25.1286   21.4182 H   0  0  0  0  0  0
  -27.0913  -23.9502   19.4229 H   0  0  0  0  0  0
  -27.6463  -22.1655   21.1935 H   0  0  0  0  0  0
  -28.8946  -15.5017   20.9422 H   0  0  0  0  0  0
  -28.3001  -23.9479   17.5694 H   0  0  0  0  0  0
  1 25  1  0  0  0
  1 30  2  0  0  0
  1 81  1  0  0  0
  2  3  1  0  0  0
  2 25  1  0  0  0
  2 84  1  0  0  0
  2 85  1  0  0  0
  3  4  1  0  0  0
  3 86  1  0  0  0
  3 87  1  0  0  0
  4  5  1  0  0  0
  4 88  1  0  0  0
  4 89  1  0  0  0
  5  6  1  0  0  0
  5 26  1  0  0  0
  5 90  1  0  0  0
  6 25  1  0  0  0
  6 91  1  0  0  0
  6 92  1  0  0  0
  7  8  2  0  0  0
  7 26  1  0  0  0
  7 29  1  0  0  0
  8  9  1  0  0  0
  8 22  1  0  0  0
  9 10  1  0  0  0
  9 27  2  0  0  0
 10 11  2  0  0  0
 10 15  1  0  0  0
 11 12  1  0  0  0
 11 93  1  0  0  0
 12 13  2  0  0  0
 12 94  1  0  0  0
 13 14  1  0  0  0
 13 31  1  0  0  0
 14 15  2  0  0  0
 14 95  1  0  0  0
 15 96  1  0  0  0
 16 17  2  0  0  0
 16 21  1  0  0  0
 16 31  1  0  0  0
 17 18  1  0  0  0
 17 97  1  0  0  0
 18 19  2  0  0  0
 18 98  1  0  0  0
 19 20  1  0  0  0
 19 24  1  0  0  0
 20 21  2  0  0  0
 20 99  1  0  0  0
 21 23  1  0  0  0
 22 28  1  0  0  0
 22 32  2  0  0  0
 26 27  1  0  0  0
 28100  1  0  0  0
 28101  1  0  0  0
 29102  1  0  0  0
 29103  1  0  0  0
 33 34  1  0  0  0
 33 66  1  0  0  0
 33 70  2  0  0  0
 34 36  1  0  0  0
 34 59  1  0  0  0
 34104  1  0  0  0
 35 44  2  0  0  0
 35 45  1  0  0  0
 35 68  1  0  0  0
 36 56  1  0  0  0
 36105  1  0  0  0
 37 39  1  0  0  0
 37 47  1  0  0  0
 37 66  1  0  0  0
 37106  1  0  0  0
 38 43  2  0  0  0
 38 46  1  0  0  0
 38 47  1  0  0  0
 39 64  1  0  0  0
 39 67  2  0  0  0
 40 52  1  0  0  0
 40 53  2  0  0  0
 40 58  1  0  0  0
 41107  1  0  0  0
 41108  1  0  0  0
 41109  1  0  0  0
 41 48  1  0  0  0
 42 43  1  0  0  0
 42 66  1  0  0  0
 42110  1  0  0  0
 42111  1  0  0  0
 43 44  1  0  0  0
 44112  1  0  0  0
 45 46  2  0  0  0
 45113  1  0  0  0
 46114  1  0  0  0
 47115  1  0  0  0
 47116  1  0  0  0
 48 56  1  0  0  0
 48 65  1  0  0  0
 48117  1  0  0  0
 49 50  1  0  0  0
 49 53  1  0  0  0
 49 64  1  0  0  0
 49118  1  0  0  0
 50 51  1  0  0  0
 50119  1  0  0  0
 50120  1  0  0  0
 51 52  1  0  0  0
 51121  1  0  0  0
 51122  1  0  0  0
 52123  1  0  0  0
 52124  1  0  0  0
 53 54  1  0  0  0
 54 55  2  0  0  0
 54125  1  0  0  0
 55 57  1  0  0  0
 55126  1  0  0  0
 56 69  2  0  0  0
 57 58  2  0  0  0
 57127  1  0  0  0
 58128  1  0  0  0
 59 60  1  0  0  0
 59 61  1  0  0  0
 59 62  1  0  0  0
 60129  1  0  0  0
 60130  1  0  0  0
 60131  1  0  0  0
 61132  1  0  0  0
 61133  1  0  0  0
 61134  1  0  0  0
 62135  1  0  0  0
 62136  1  0  0  0
 62137  1  0  0  0
 63 65  1  0  0  0
 63138  1  0  0  0
 63139  1  0  0  0
 63140  1  0  0  0
 64141  1  0  0  0
 65142  1  0  0  0
 68 77  1  0  0  0
 71 72  2  0  0  0
 71 75  1  0  0  0
 71 79  1  0  0  0
 72 74  1  0  0  0
 72 83  1  0  0  0
 73 79  2  0  0  0
 73 80  1  0  0  0
 73 83  1  0  0  0
 74143  1  0  0  0
 74144  1  0  0  0
 74145  1  0  0  0
 75 81  1  0  0  0
 75146  1  0  0  0
 75147  1  0  0  0
 76 78  1  0  0  0
 76 80  1  0  0  0
 76148  1  0  0  0
 76149  1  0  0  0
 77 78  1  0  0  0
 77150  1  0  0  0
 77151  1  0  0  0
 78 82  1  0  0  0
 78152  1  0  0  0
 80153  1  0  0  0
 81154  1  0  0  0
 82155  1  0  0  0
M  ISO  4   1 100  68 101  77 101  81 100
M  END
> <chiral flag>
0

> <version>
0

> <s_m_source_file>
/data/baiqing/PycharmProjects/Reinvent-master-3.2/result/LINK_invent/BTK/process_docking_weight1_custom_product_contain_oxygen_bond_distance_aromatic_linkinvent_7_9_3/rearranged_h_0192.sdf

> <i_m_source_file_index>
44

> <r_mmod_Potential_Energy-OPLS-2005>
-174.035659790039

> <r_mmod_Stretch_Energy-OPLS-2005>
52.121410369873

> <r_mmod_Bend_Energy-OPLS-2005>
123.017753601074

> <r_mmod_Torsional_Energy-OPLS-2005>
237.652969360352

> <r_mmod_Improper_Torsional_Energy-OPLS-2005>
6.39590787887573

> <r_mmod_Van_der_Waal_Energy-OPLS-2005>
113.567100524902

> <r_mmod_Electrostatic_Energy-OPLS-2005>
-483.815490722656

> <r_mmod_Solvation_Energy-OPLS-2005>
-251.834533691406

> <b_mmod_Minimization_Converged-OPLS-2005>
0

> <r_mmod_RMS_Derivative-OPLS-2005>
4.35505294799805

$$$$
45
                    3D
 Structure written by MMmdl.
163171  0  0  1  0            999 V2000
  -30.6769  -14.5143   20.5597 C   0  0  0  0  0  0
  -30.4315  -12.3259   19.4367 C   0  0  0  0  0  0
  -29.5006  -12.4937   18.2168 C   0  0  0  0  0  0
  -28.0218  -12.3533   18.6284 C   0  0  0  0  0  0
  -27.6609  -13.2062   19.8740 C   0  0  2  0  0  0
  -28.7011  -13.0008   20.9984 C   0  0  0  0  0  0
  -25.2590  -13.8164   20.5683 C   0  0  0  0  0  0
  -24.1839  -13.0441   20.9193 C   0  0  0  0  0  0
  -24.6392  -11.6912   20.8744 C   0  0  0  0  0  0
  -23.9059  -10.4297   21.0410 C   0  0  0  0  0  0
  -24.3612   -9.4213   21.9188 C   0  0  0  0  0  0
  -23.6296   -8.2242   22.0756 C   0  0  0  0  0  0
  -22.4274   -8.0278   21.3549 C   0  0  0  0  0  0
  -21.9910   -9.0250   20.4647 C   0  0  0  0  0  0
  -22.7233  -10.2135   20.3058 C   0  0  0  0  0  0
  -21.6844   -6.0741   22.5283 C   0  0  0  0  0  0
  -21.4011   -6.5642   23.8219 C   0  0  0  0  0  0
  -21.3663   -5.6792   24.9177 C   0  0  0  0  0  0
  -21.6048   -4.3058   24.7224 C   0  0  0  0  0  0
  -21.8822   -3.8154   23.4343 C   0  0  0  0  0  0
  -21.9194   -4.6972   22.3401 C   0  0  0  0  0  0
  -22.7864  -13.5240   21.1865 C   0  0  0  0  0  0
  -22.1662   -4.2157   21.0978 F   0  0  0  0  0  0
  -21.5632   -3.4542   25.7743 F   0  0  0  0  0  0
  -30.0305  -13.3186   20.4483 N   0  0  0  0  0  0
  -26.3020  -12.9327   20.3352 N   0  0  0  0  0  0
  -25.9317  -11.6494   20.5765 N   0  0  0  0  0  0
  -22.0494  -12.8220   22.0408 N   0  0  0  0  0  0
  -25.4323  -15.1880   20.4091 N   0  0  0  0  0  0
  -31.8138  -14.6841   20.1057 O   0  0  0  0  0  0
  -21.6630   -6.8881   21.4245 O   0  0  0  0  0  0
  -22.3553  -14.5557   20.6739 O   0  0  0  0  0  0
  -24.6160  -31.8670   23.2096 C   0  0  0  0  0  0
  -25.9043  -32.4816   23.8395 C   0  0  1  0  0  0
  -27.2212  -27.4019   20.0996 C   0  0  0  0  0  0
  -25.5895  -33.8621   24.2331 N   0  0  0  0  0  0
  -23.4052  -30.4928   21.5503 C   0  0  2  0  0  0
  -24.8493  -28.9632   20.1100 C   0  0  0  0  0  0
  -22.7420  -29.4657   22.4972 C   0  0  0  0  0  0
  -18.0286  -28.1361   22.8501 C   0  0  0  0  0  0
  -24.1496  -36.7322   23.2641 C   0  0  0  0  0  0
  -25.9393  -30.8222   21.3701 C   0  0  0  0  0  0
  -26.0129  -29.4577   20.7117 C   0  0  0  0  0  0
  -27.2005  -28.6853   20.7027 C   0  0  0  0  0  0
  -26.0416  -26.9473   19.4629 C   0  0  0  0  0  0
  -24.8611  -27.7091   19.4808 C   0  0  0  0  0  0
  -23.6138  -29.8312   20.1637 C   0  0  0  0  0  0
  -25.4111  -36.3118   24.0348 C   0  0  1  0  0  0
  -20.5878  -28.3656   23.1315 C   0  0  2  0  0  0
  -20.6768  -26.9385   22.5429 C   0  0  0  0  0  0
  -19.5767  -26.6380   21.5208 C   0  0  0  0  0  0
  -18.1932  -26.7917   22.1614 C   0  0  0  0  0  0
  -19.1535  -28.8827   23.2912 C   0  0  0  0  0  0
  -18.9467  -30.1421   23.8937 C   0  0  0  0  0  0
  -17.6466  -30.6575   24.0569 C   0  0  0  0  0  0
  -25.9033  -34.9478   23.5139 C   0  0  0  0  0  0
  -16.5356  -29.9078   23.6329 C   0  0  0  0  0  0
  -16.7270  -28.6486   23.0372 C   0  0  0  0  0  0
  -26.4468  -31.6592   25.0727 C   0  0  0  0  0  0
  -25.3739  -31.3676   26.1480 C   0  0  0  0  0  0
  -27.0287  -30.3030   24.6110 C   0  0  0  0  0  0
  -27.6046  -32.4305   25.7480 C   0  0  0  0  0  0
  -27.5588  -37.1809   24.8465 C   0  0  0  0  0  0
  -21.4146  -29.3030   22.3718 N   0  0  0  0  0  0
  -26.4308  -37.3796   23.9408 N   0  0  0  0  0  0
  -24.6719  -31.0767   22.0996 N   0  0  0  0  0  0
  -23.4190  -28.8182   23.3004 O   0  0  0  0  0  0
  -28.3764  -26.6327   20.1581 O   0  0  0  0  0  0
  -26.5601  -34.8920   22.4703 O   0  0  0  0  0  0
  -23.5349  -32.1431   23.7475 O   0  0  0  0  0  0
  -31.0688  -18.9634   20.5316 C   0  0  0  0  0  0
  -30.0470  -19.4249   21.3332 C   0  0  0  0  0  0
  -30.1290  -16.9380   21.0504 C   0  0  0  0  0  0
  -27.2259  -22.8630   21.9116 C   0  0  0  0  0  0
  -25.1349  -23.2407   23.3563 C   0  0  0  0  0  0
  -28.6993  -24.8009   18.6380 C   0  0  0  0  0  0
  -29.8417  -20.8286   21.8837 C   0  0  0  0  0  0
  -26.4888  -23.7965   22.8781 C   0  0  0  0  0  0
  -29.1294  -24.4901   21.1634 C   0  0  0  0  0  0
  -28.7425  -23.0694   21.7348 C   0  0  2  0  0  0
  -28.2697  -25.1871   20.0593 C   0  0  1  0  0  0
  -31.1005  -17.5651   20.3729 N   0  0  0  0  0  0
  -29.9417  -15.5168   21.0959 N   0  0  0  0  0  0
  -29.2320  -21.8637   20.9936 N   0  3  0  0  0  0
  -26.6075  -21.9890   21.2927 O   0  0  0  0  0  0
  -29.0578  -18.0765   21.8794 S   0  0  0  0  0  0
  -31.4749  -12.4348   19.1354 H   0  0  0  0  0  0
  -30.3513  -11.3195   19.8490 H   0  0  0  0  0  0
  -29.7476  -11.7524   17.4558 H   0  0  0  0  0  0
  -29.6650  -13.4699   17.7579 H   0  0  0  0  0  0
  -27.8385  -11.2986   18.8391 H   0  0  0  0  0  0
  -27.3710  -12.6125   17.7932 H   0  0  0  0  0  0
  -27.7004  -14.2503   19.5632 H   0  0  0  0  0  0
  -28.6847  -11.9660   21.3454 H   0  0  0  0  0  0
  -28.4537  -13.6003   21.8754 H   0  0  0  0  0  0
  -25.2756   -9.5682   22.4767 H   0  0  0  0  0  0
  -24.0016   -7.4620   22.7457 H   0  0  0  0  0  0
  -21.0855   -8.8762   19.8930 H   0  0  0  0  0  0
  -22.3701  -10.9674   19.6164 H   0  0  0  0  0  0
  -21.1996   -7.6150   23.9728 H   0  0  0  0  0  0
  -21.1483   -6.0517   25.9082 H   0  0  0  0  0  0
  -22.0600   -2.7616   23.2837 H   0  0  0  0  0  0
  -22.4094  -11.9878   22.4793 H   0  0  0  0  0  0
  -21.1106  -13.1236   22.2605 H   0  0  0  0  0  0
  -24.6653  -15.8425   20.5148 H   0  0  0  0  0  0
  -26.2798  -15.6229   20.0682 H   0  0  0  0  0  0
  -26.7106  -32.5525   23.1148 H   0  0  0  0  0  0
  -25.0025  -33.9778   25.0463 H   0  0  0  0  0  0
  -22.6955  -31.3112   21.4116 H   0  0  0  0  0  0
  -23.3756  -35.9652   23.3305 H   0  0  0  0  0  0
  -24.3595  -36.8940   22.2055 H   0  0  0  0  0  0
  -23.7242  -37.6526   23.6654 H   0  0  0  0  0  0
  -26.0653  -31.5905   20.6061 H   0  0  0  0  0  0
  -26.8229  -30.8671   21.9948 H   0  0  0  0  0  0
  -28.0955  -29.0563   21.1817 H   0  0  0  0  0  0
  -26.0065  -26.0036   18.9395 H   0  0  0  0  0  0
  -23.9704  -27.3295   19.0007 H   0  0  0  0  0  0
  -23.7218  -30.6075   19.4055 H   0  0  0  0  0  0
  -22.7375  -29.2525   19.8679 H   0  0  0  0  0  0
  -25.1280  -36.1991   25.0841 H   0  0  0  0  0  0
  -20.9968  -28.3212   24.1434 H   0  0  0  0  0  0
  -20.5638  -26.2258   23.3613 H   0  0  0  0  0  0
  -21.6646  -26.7396   22.1247 H   0  0  0  0  0  0
  -19.6927  -25.6299   21.1215 H   0  0  0  0  0  0
  -19.6725  -27.3200   20.6751 H   0  0  0  0  0  0
  -17.4202  -26.6670   21.4013 H   0  0  0  0  0  0
  -18.0337  -26.0044   22.9002 H   0  0  0  0  0  0
  -19.7939  -30.7217   24.2335 H   0  0  0  0  0  0
  -17.5026  -31.6267   24.5153 H   0  0  0  0  0  0
  -15.5359  -30.2994   23.7645 H   0  0  0  0  0  0
  -15.8662  -28.0800   22.7108 H   0  0  0  0  0  0
  -24.5929  -30.7008   25.7817 H   0  0  0  0  0  0
  -24.8906  -32.2809   26.4953 H   0  0  0  0  0  0
  -25.8106  -30.8838   27.0226 H   0  0  0  0  0  0
  -26.2819  -29.6795   24.1185 H   0  0  0  0  0  0
  -27.4064  -29.7271   25.4568 H   0  0  0  0  0  0
  -27.8665  -30.4339   23.9256 H   0  0  0  0  0  0
  -27.2679  -33.3603   26.2071 H   0  0  0  0  0  0
  -28.3836  -32.6864   25.0286 H   0  0  0  0  0  0
  -28.0735  -31.8421   26.5377 H   0  0  0  0  0  0
  -28.2594  -38.0117   24.7519 H   0  0  0  0  0  0
  -28.1095  -36.2647   24.6275 H   0  0  0  0  0  0
  -27.2310  -37.1442   25.8869 H   0  0  0  0  0  0
  -20.9290  -29.8784   21.6981 H   0  0  0  0  0  0
  -26.0209  -38.2884   24.1378 H   0  0  0  0  0  0
  -31.8567  -19.5528   20.0824 H   0  0  0  0  0  0
  -24.6590  -23.9275   24.0573 H   0  0  0  0  0  0
  -25.2602  -22.2843   23.8672 H   0  0  0  0  0  0
  -24.4433  -23.0892   22.5259 H   0  0  0  0  0  0
  -28.0416  -25.2518   17.8945 H   0  0  0  0  0  0
  -28.6772  -23.7220   18.4895 H   0  0  0  0  0  0
  -29.7111  -25.1484   18.4275 H   0  0  0  0  0  0
  -30.8015  -21.2139   22.2302 H   0  0  0  0  0  0
  -29.2310  -20.7426   22.7841 H   0  0  0  0  0  0
  -26.3387  -24.7575   22.3850 H   0  0  0  0  0  0
  -27.1332  -23.9821   23.7373 H   0  0  0  0  0  0
  -30.1803  -24.4960   20.8737 H   0  0  0  0  0  0
  -29.0900  -25.1561   22.0266 H   0  0  0  0  0  0
  -29.1931  -23.0287   22.7271 H   0  0  0  0  0  0
  -27.2424  -24.8711   20.2108 H   0  0  0  0  0  0
  -29.0694  -15.2169   21.5015 H   0  0  0  0  0  0
  -28.3927  -21.4755   20.5824 H   0  0  0  0  0  0
  -29.8741  -22.1154   20.2617 H   0  0  0  0  0  0
  1 25  1  0  0  0
  1 30  2  0  0  0
  1 83  1  0  0  0
  2  3  1  0  0  0
  2 25  1  0  0  0
  2 87  1  0  0  0
  2 88  1  0  0  0
  3  4  1  0  0  0
  3 89  1  0  0  0
  3 90  1  0  0  0
  4  5  1  0  0  0
  4 91  1  0  0  0
  4 92  1  0  0  0
  5  6  1  0  0  0
  5 26  1  0  0  0
  5 93  1  0  0  0
  6 25  1  0  0  0
  6 94  1  0  0  0
  6 95  1  0  0  0
  7  8  2  0  0  0
  7 26  1  0  0  0
  7 29  1  0  0  0
  8  9  1  0  0  0
  8 22  1  0  0  0
  9 10  1  0  0  0
  9 27  2  0  0  0
 10 11  2  0  0  0
 10 15  1  0  0  0
 11 12  1  0  0  0
 11 96  1  0  0  0
 12 13  2  0  0  0
 12 97  1  0  0  0
 13 14  1  0  0  0
 13 31  1  0  0  0
 14 15  2  0  0  0
 14 98  1  0  0  0
 15 99  1  0  0  0
 16 17  2  0  0  0
 16 21  1  0  0  0
 16 31  1  0  0  0
 17 18  1  0  0  0
 17100  1  0  0  0
 18 19  2  0  0  0
 18101  1  0  0  0
 19 20  1  0  0  0
 19 24  1  0  0  0
 20 21  2  0  0  0
 20102  1  0  0  0
 21 23  1  0  0  0
 22 28  1  0  0  0
 22 32  2  0  0  0
 26 27  1  0  0  0
 28103  1  0  0  0
 28104  1  0  0  0
 29105  1  0  0  0
 29106  1  0  0  0
 33 34  1  0  0  0
 33 66  1  0  0  0
 33 70  2  0  0  0
 34 36  1  0  0  0
 34 59  1  0  0  0
 34107  1  0  0  0
 35 44  2  0  0  0
 35 45  1  0  0  0
 35 68  1  0  0  0
 36 56  1  0  0  0
 36108  1  0  0  0
 37 39  1  0  0  0
 37 47  1  0  0  0
 37 66  1  0  0  0
 37109  1  0  0  0
 38 43  2  0  0  0
 38 46  1  0  0  0
 38 47  1  0  0  0
 39 64  1  0  0  0
 39 67  2  0  0  0
 40 52  1  0  0  0
 40 53  2  0  0  0
 40 58  1  0  0  0
 41110  1  0  0  0
 41111  1  0  0  0
 41112  1  0  0  0
 41 48  1  0  0  0
 42 43  1  0  0  0
 42 66  1  0  0  0
 42113  1  0  0  0
 42114  1  0  0  0
 43 44  1  0  0  0
 44115  1  0  0  0
 45 46  2  0  0  0
 45116  1  0  0  0
 46117  1  0  0  0
 47118  1  0  0  0
 47119  1  0  0  0
 48 56  1  0  0  0
 48 65  1  0  0  0
 48120  1  0  0  0
 49 50  1  0  0  0
 49 53  1  0  0  0
 49 64  1  0  0  0
 49121  1  0  0  0
 50 51  1  0  0  0
 50122  1  0  0  0
 50123  1  0  0  0
 51 52  1  0  0  0
 51124  1  0  0  0
 51125  1  0  0  0
 52126  1  0  0  0
 52127  1  0  0  0
 53 54  1  0  0  0
 54 55  2  0  0  0
 54128  1  0  0  0
 55 57  1  0  0  0
 55129  1  0  0  0
 56 69  2  0  0  0
 57 58  2  0  0  0
 57130  1  0  0  0
 58131  1  0  0  0
 59 60  1  0  0  0
 59 61  1  0  0  0
 59 62  1  0  0  0
 60132  1  0  0  0
 60133  1  0  0  0
 60134  1  0  0  0
 61135  1  0  0  0
 61136  1  0  0  0
 61137  1  0  0  0
 62138  1  0  0  0
 62139  1  0  0  0
 62140  1  0  0  0
 63 65  1  0  0  0
 63141  1  0  0  0
 63142  1  0  0  0
 63143  1  0  0  0
 64144  1  0  0  0
 65145  1  0  0  0
 68 81  1  0  0  0
 71 72  2  0  0  0
 71 82  1  0  0  0
 71146  1  0  0  0
 72 77  1  0  0  0
 72 86  1  0  0  0
 73 82  2  0  0  0
 73 83  1  0  0  0
 73 86  1  0  0  0
 74 78  1  0  0  0
 74 80  1  0  0  0
 74 85  2  0  0  0
 75 78  1  0  0  0
 75147  1  0  0  0
 75148  1  0  0  0
 75149  1  0  0  0
 76150  1  0  0  0
 76151  1  0  0  0
 76152  1  0  0  0
 76 81  1  0  0  0
 77 84  1  0  0  0
 77153  1  0  0  0
 77154  1  0  0  0
 78155  1  0  0  0
 78156  1  0  0  0
 79 81  1  0  0  0
 79157  1  0  0  0
 79158  1  0  0  0
 79 80  1  0  0  0
 80 84  1  0  0  0
 80159  1  0  0  0
 81160  1  0  0  0
 83161  1  0  0  0
 84162  1  0  0  0
 84163  1  0  0  0
M  CHG  1  84   1
M  ISO  4   1 100  68 101  81 101  83 100
M  END
> <chiral flag>
0

> <version>
0

> <s_m_source_file>
/data/baiqing/PycharmProjects/Reinvent-master-3.2/result/LINK_invent/BTK/process_docking_weight1_custom_product_contain_oxygen_bond_distance_aromatic_linkinvent_7_9_3/rearranged_h_0192.sdf

> <i_m_source_file_index>
45

> <r_mmod_Potential_Energy-OPLS-2005>
-388.53466796875

> <r_mmod_Stretch_Energy-OPLS-2005>
45.3047218322754

> <r_mmod_Bend_Energy-OPLS-2005>
124.91764831543

> <r_mmod_Torsional_Energy-OPLS-2005>
212.253555297852

> <r_mmod_Improper_Torsional_Energy-OPLS-2005>
3.67400431632996

> <r_mmod_Van_der_Waal_Energy-OPLS-2005>
133.428421020508

> <r_mmod_Electrostatic_Energy-OPLS-2005>
-429.406311035156

> <r_mmod_Solvation_Energy-OPLS-2005>
-498.323913574219

> <b_mmod_Minimization_Converged-OPLS-2005>
0

> <r_mmod_RMS_Derivative-OPLS-2005>
1.69487774372101

$$$$
46
                    3D
 Structure written by MMmdl.
151159  0  0  1  0            999 V2000
  -30.6041  -14.7572   20.4436 C   0  0  0  0  0  0
  -30.4434  -12.4752   19.4580 C   0  0  0  0  0  0
  -29.5029  -12.4958   18.2331 C   0  0  0  0  0  0
  -28.0334  -12.3147   18.6642 C   0  0  0  0  0  0
  -27.6421  -13.2281   19.8553 C   0  0  2  0  0  0
  -28.6935  -13.1679   20.9848 C   0  0  0  0  0  0
  -25.2521  -13.8203   20.5746 C   0  0  0  0  0  0
  -24.1806  -13.0432   20.9241 C   0  0  0  0  0  0
  -24.6409  -11.6922   20.8808 C   0  0  0  0  0  0
  -23.9085  -10.4282   21.0445 C   0  0  0  0  0  0
  -24.3620   -9.4181   21.9215 C   0  0  0  0  0  0
  -23.6282   -8.2222   22.0778 C   0  0  0  0  0  0
  -22.4281   -8.0269   21.3535 C   0  0  0  0  0  0
  -21.9910   -9.0264   20.4660 C   0  0  0  0  0  0
  -22.7260  -10.2132   20.3085 C   0  0  0  0  0  0
  -21.6858   -6.0713   22.5262 C   0  0  0  0  0  0
  -21.4010   -6.5622   23.8191 C   0  0  0  0  0  0
  -21.3657   -5.6780   24.9154 C   0  0  0  0  0  0
  -21.6055   -4.3046   24.7219 C   0  0  0  0  0  0
  -21.8832   -3.8128   23.4346 C   0  0  0  0  0  0
  -21.9187   -4.6934   22.3389 C   0  0  0  0  0  0
  -22.7825  -13.5217   21.1854 C   0  0  0  0  0  0
  -22.1668   -4.2112   21.0974 F   0  0  0  0  0  0
  -21.5626   -3.4550   25.7744 F   0  0  0  0  0  0
  -29.9841  -13.5307   20.3878 N   0  0  0  0  0  0
  -26.2952  -12.9403   20.3348 N   0  0  0  0  0  0
  -25.9344  -11.6552   20.5864 N   0  0  0  0  0  0
  -22.0474  -12.8203   22.0418 N   0  0  0  0  0  0
  -25.4172  -15.1921   20.4124 N   0  0  0  0  0  0
  -31.8015  -14.8449   20.1629 O   0  0  0  0  0  0
  -21.6644   -6.8865   21.4230 O   0  0  0  0  0  0
  -22.3491  -14.5497   20.6664 O   0  0  0  0  0  0
  -24.6280  -31.8529   23.2010 C   0  0  0  0  0  0
  -25.9115  -32.4738   23.8322 C   0  0  1  0  0  0
  -27.2144  -27.2487   20.1211 C   0  0  0  0  0  0
  -25.5910  -33.8547   24.2230 N   0  0  0  0  0  0
  -23.4241  -30.4726   21.5433 C   0  0  2  0  0  0
  -24.8697  -28.9180   20.1058 C   0  0  0  0  0  0
  -22.7463  -29.4578   22.4941 C   0  0  0  0  0  0
  -18.0300  -28.1360   22.8504 C   0  0  0  0  0  0
  -24.1496  -36.7267   23.2645 C   0  0  0  0  0  0
  -25.9691  -30.7606   21.3816 C   0  0  0  0  0  0
  -26.0396  -29.3855   20.7141 C   0  0  0  0  0  0
  -27.2116  -28.5623   20.7072 C   0  0  0  0  0  0
  -26.0166  -26.8406   19.4950 C   0  0  0  0  0  0
  -24.8621  -27.6544   19.4891 C   0  0  0  0  0  0
  -23.6405  -29.8077   20.1573 C   0  0  0  0  0  0
  -25.4141  -36.3059   24.0313 C   0  0  1  0  0  0
  -20.5874  -28.3682   23.1307 C   0  0  2  0  0  0
  -20.6765  -26.9394   22.5437 C   0  0  0  0  0  0
  -19.5764  -26.6365   21.5234 C   0  0  0  0  0  0
  -18.1936  -26.7918   22.1627 C   0  0  0  0  0  0
  -19.1536  -28.8859   23.2884 C   0  0  0  0  0  0
  -18.9456  -30.1477   23.8855 C   0  0  0  0  0  0
  -17.6444  -30.6583   24.0533 C   0  0  0  0  0  0
  -25.9072  -34.9433   23.5082 C   0  0  0  0  0  0
  -16.5352  -29.9039   23.6319 C   0  0  0  0  0  0
  -16.7291  -28.6450   23.0362 C   0  0  0  0  0  0
  -26.4494  -31.6584   25.0721 C   0  0  0  0  0  0
  -25.3700  -31.3752   26.1429 C   0  0  0  0  0  0
  -27.0363  -30.2995   24.6272 C   0  0  0  0  0  0
  -27.6026  -32.4362   25.7501 C   0  0  0  0  0  0
  -27.5575  -37.1806   24.8468 C   0  0  0  0  0  0
  -21.4167  -29.3014   22.3674 N   0  0  0  0  0  0
  -26.4306  -37.3761   23.9397 N   0  0  0  0  0  0
  -24.6920  -31.0487   22.0973 N   0  0  0  0  0  0
  -23.4160  -28.8150   23.3087 O   0  0  0  0  0  0
  -28.3301  -26.3842   20.2087 O   0  0  0  0  0  0
  -26.5628  -34.8902   22.4644 O   0  0  0  0  0  0
  -23.5424  -32.1386   23.7296 O   0  0  0  0  0  0
  -27.4999  -20.3297   20.6436 C   0  0  0  0  0  0
  -28.6800  -20.9221   20.2602 C   0  0  0  0  0  0
  -29.3278  -18.5951   20.4276 C   0  0  0  0  0  0
  -28.2672  -23.7785   21.9084 C   0  0  0  0  0  0
  -30.3046  -17.3466   20.4157 C   0  0  0  0  0  0
  -28.4332  -24.9956   19.6195 C   0  0  0  0  0  0
  -28.1219  -23.5901   20.3951 C   0  0  2  0  0  0
  -29.6854  -19.8966   20.1397 N   0  0  0  0  0  0
  -28.8963  -22.3445   19.9660 N   0  0  0  0  0  0
  -29.8283  -15.8999   20.5835 N   0  0  0  0  0  0
  -27.6171  -18.5734   20.8649 S   0  0  0  0  0  0
  -31.4733  -12.6322   19.1298 H   0  0  0  0  0  0
  -30.4277  -11.5043   19.9513 H   0  0  0  0  0  0
  -29.7907  -11.7124   17.5284 H   0  0  0  0  0  0
  -29.6048  -13.4458   17.7044 H   0  0  0  0  0  0
  -27.9035  -11.2702   18.9484 H   0  0  0  0  0  0
  -27.3599  -12.4836   17.8240 H   0  0  0  0  0  0
  -27.6322  -14.2458   19.4643 H   0  0  0  0  0  0
  -28.7436  -12.1711   21.4272 H   0  0  0  0  0  0
  -28.4354  -13.8462   21.8017 H   0  0  0  0  0  0
  -25.2764   -9.5646   22.4787 H   0  0  0  0  0  0
  -23.9978   -7.4622   22.7516 H   0  0  0  0  0  0
  -21.0825   -8.8804   19.8985 H   0  0  0  0  0  0
  -22.3736  -10.9671   19.6193 H   0  0  0  0  0  0
  -21.2029   -7.6142   23.9676 H   0  0  0  0  0  0
  -21.1463   -6.0526   25.9050 H   0  0  0  0  0  0
  -22.0620   -2.7594   23.2870 H   0  0  0  0  0  0
  -22.4091  -11.9859   22.4777 H   0  0  0  0  0  0
  -21.1112  -13.1233   22.2648 H   0  0  0  0  0  0
  -24.6426  -15.8372   20.5267 H   0  0  0  0  0  0
  -26.2482  -15.6348   20.0398 H   0  0  0  0  0  0
  -26.7135  -32.5363   23.1007 H   0  0  0  0  0  0
  -25.0043  -33.9678   25.0364 H   0  0  0  0  0  0
  -22.7162  -31.2921   21.4011 H   0  0  0  0  0  0
  -23.3755  -35.9592   23.3333 H   0  0  0  0  0  0
  -24.3557  -36.8875   22.2042 H   0  0  0  0  0  0
  -23.7248  -37.6477   23.6669 H   0  0  0  0  0  0
  -26.1218  -31.5339   20.6286 H   0  0  0  0  0  0
  -26.8394  -30.7936   22.0237 H   0  0  0  0  0  0
  -28.1095  -28.9162   21.1944 H   0  0  0  0  0  0
  -25.9366  -25.8615   19.0448 H   0  0  0  0  0  0
  -23.9581  -27.2894   19.0225 H   0  0  0  0  0  0
  -23.7614  -30.5904   19.4067 H   0  0  0  0  0  0
  -22.7573  -29.2431   19.8543 H   0  0  0  0  0  0
  -25.1333  -36.1894   25.0798 H   0  0  0  0  0  0
  -20.9944  -28.3289   24.1438 H   0  0  0  0  0  0
  -20.5716  -26.2307   23.3641 H   0  0  0  0  0  0
  -21.6602  -26.7396   22.1212 H   0  0  0  0  0  0
  -19.6881  -25.6247   21.1302 H   0  0  0  0  0  0
  -19.6715  -27.3178   20.6777 H   0  0  0  0  0  0
  -17.4222  -26.6691   21.4005 H   0  0  0  0  0  0
  -18.0359  -26.0060   22.9012 H   0  0  0  0  0  0
  -19.7904  -30.7347   24.2199 H   0  0  0  0  0  0
  -17.4964  -31.6248   24.5134 H   0  0  0  0  0  0
  -15.5329  -30.2886   23.7621 H   0  0  0  0  0  0
  -15.8725  -28.0731   22.7057 H   0  0  0  0  0  0
  -24.5869  -30.7122   25.7747 H   0  0  0  0  0  0
  -24.8896  -32.2926   26.4839 H   0  0  0  0  0  0
  -25.7983  -30.8918   27.0221 H   0  0  0  0  0  0
  -26.2978  -29.6724   24.1277 H   0  0  0  0  0  0
  -27.3978  -29.7296   25.4842 H   0  0  0  0  0  0
  -27.8878  -30.4246   23.9585 H   0  0  0  0  0  0
  -27.2614  -33.3677   26.2050 H   0  0  0  0  0  0
  -28.3860  -32.6931   25.0349 H   0  0  0  0  0  0
  -28.0691  -31.8529   26.5453 H   0  0  0  0  0  0
  -28.2630  -38.0068   24.7488 H   0  0  0  0  0  0
  -28.1043  -36.2603   24.6365 H   0  0  0  0  0  0
  -27.2275  -37.1532   25.8866 H   0  0  0  0  0  0
  -20.9363  -29.8585   21.6757 H   0  0  0  0  0  0
  -26.0176  -38.2837   24.1382 H   0  0  0  0  0  0
  -26.5452  -20.8179   20.7939 H   0  0  0  0  0  0
  -27.9583  -22.8845   22.4526 H   0  0  0  0  0  0
  -27.6330  -24.5978   22.2586 H   0  0  0  0  0  0
  -29.2999  -24.0064   22.1845 H   0  0  0  0  0  0
  -31.0404  -17.5211   21.2014 H   0  0  0  0  0  0
  -30.8593  -17.3970   19.4771 H   0  0  0  0  0  0
  -27.9275  -24.9775   18.6550 H   0  0  0  0  0  0
  -29.4846  -24.9401   19.3429 H   0  0  0  0  0  0
  -27.0696  -23.3729   20.2044 H   0  0  0  0  0  0
  -29.7879  -22.5488   19.5228 H   0  0  0  0  0  0
  -28.8419  -15.7567   20.7389 H   0  0  0  0  0  0
  1 25  1  0  0  0
  1 30  2  0  0  0
  1 80  1  0  0  0
  2  3  1  0  0  0
  2 25  1  0  0  0
  2 82  1  0  0  0
  2 83  1  0  0  0
  3  4  1  0  0  0
  3 84  1  0  0  0
  3 85  1  0  0  0
  4  5  1  0  0  0
  4 86  1  0  0  0
  4 87  1  0  0  0
  5  6  1  0  0  0
  5 26  1  0  0  0
  5 88  1  0  0  0
  6 25  1  0  0  0
  6 89  1  0  0  0
  6 90  1  0  0  0
  7  8  2  0  0  0
  7 26  1  0  0  0
  7 29  1  0  0  0
  8  9  1  0  0  0
  8 22  1  0  0  0
  9 10  1  0  0  0
  9 27  2  0  0  0
 10 11  2  0  0  0
 10 15  1  0  0  0
 11 12  1  0  0  0
 11 91  1  0  0  0
 12 13  2  0  0  0
 12 92  1  0  0  0
 13 14  1  0  0  0
 13 31  1  0  0  0
 14 15  2  0  0  0
 14 93  1  0  0  0
 15 94  1  0  0  0
 16 17  2  0  0  0
 16 21  1  0  0  0
 16 31  1  0  0  0
 17 18  1  0  0  0
 17 95  1  0  0  0
 18 19  2  0  0  0
 18 96  1  0  0  0
 19 20  1  0  0  0
 19 24  1  0  0  0
 20 21  2  0  0  0
 20 97  1  0  0  0
 21 23  1  0  0  0
 22 28  1  0  0  0
 22 32  2  0  0  0
 26 27  1  0  0  0
 28 98  1  0  0  0
 28 99  1  0  0  0
 29100  1  0  0  0
 29101  1  0  0  0
 33 34  1  0  0  0
 33 66  1  0  0  0
 33 70  2  0  0  0
 34 36  1  0  0  0
 34 59  1  0  0  0
 34102  1  0  0  0
 35 44  2  0  0  0
 35 45  1  0  0  0
 35 68  1  0  0  0
 36 56  1  0  0  0
 36103  1  0  0  0
 37 39  1  0  0  0
 37 47  1  0  0  0
 37 66  1  0  0  0
 37104  1  0  0  0
 38 43  2  0  0  0
 38 46  1  0  0  0
 38 47  1  0  0  0
 39 64  1  0  0  0
 39 67  2  0  0  0
 40 52  1  0  0  0
 40 53  2  0  0  0
 40 58  1  0  0  0
 41105  1  0  0  0
 41106  1  0  0  0
 41107  1  0  0  0
 41 48  1  0  0  0
 42 43  1  0  0  0
 42 66  1  0  0  0
 42108  1  0  0  0
 42109  1  0  0  0
 43 44  1  0  0  0
 44110  1  0  0  0
 45 46  2  0  0  0
 45111  1  0  0  0
 46112  1  0  0  0
 47113  1  0  0  0
 47114  1  0  0  0
 48 56  1  0  0  0
 48 65  1  0  0  0
 48115  1  0  0  0
 49 50  1  0  0  0
 49 53  1  0  0  0
 49 64  1  0  0  0
 49116  1  0  0  0
 50 51  1  0  0  0
 50117  1  0  0  0
 50118  1  0  0  0
 51 52  1  0  0  0
 51119  1  0  0  0
 51120  1  0  0  0
 52121  1  0  0  0
 52122  1  0  0  0
 53 54  1  0  0  0
 54 55  2  0  0  0
 54123  1  0  0  0
 55 57  1  0  0  0
 55124  1  0  0  0
 56 69  2  0  0  0
 57 58  2  0  0  0
 57125  1  0  0  0
 58126  1  0  0  0
 59 60  1  0  0  0
 59 61  1  0  0  0
 59 62  1  0  0  0
 60127  1  0  0  0
 60128  1  0  0  0
 60129  1  0  0  0
 61130  1  0  0  0
 61131  1  0  0  0
 61132  1  0  0  0
 62133  1  0  0  0
 62134  1  0  0  0
 62135  1  0  0  0
 63 65  1  0  0  0
 63136  1  0  0  0
 63137  1  0  0  0
 63138  1  0  0  0
 64139  1  0  0  0
 65140  1  0  0  0
 68 76  1  0  0  0
 71 72  2  0  0  0
 71 81  1  0  0  0
 71141  1  0  0  0
 72 78  1  0  0  0
 72 79  1  0  0  0
 73 75  1  0  0  0
 73 78  2  0  0  0
 73 81  1  0  0  0
 74142  1  0  0  0
 74143  1  0  0  0
 74144  1  0  0  0
 74 77  1  0  0  0
 75 80  1  0  0  0
 75145  1  0  0  0
 75146  1  0  0  0
 76 77  1  0  0  0
 76147  1  0  0  0
 76148  1  0  0  0
 77 79  1  0  0  0
 77149  1  0  0  0
 79150  1  0  0  0
 80151  1  0  0  0
M  ISO  4   1 100  68 101  76 101  80 100
M  END
> <chiral flag>
0

> <version>
0

> <s_m_source_file>
/data/baiqing/PycharmProjects/Reinvent-master-3.2/result/LINK_invent/BTK/process_docking_weight1_custom_product_contain_oxygen_bond_distance_aromatic_linkinvent_7_9_3/rearranged_h_0192.sdf

> <i_m_source_file_index>
46

> <r_mmod_Potential_Energy-OPLS-2005>
-18.4670467376709

> <r_mmod_Stretch_Energy-OPLS-2005>
123.808052062988

> <r_mmod_Bend_Energy-OPLS-2005>
197.42333984375

> <r_mmod_Torsional_Energy-OPLS-2005>
204.858535766602

> <r_mmod_Improper_Torsional_Energy-OPLS-2005>
5.72705221176147

> <r_mmod_Van_der_Waal_Energy-OPLS-2005>
108.983787536621

> <r_mmod_Electrostatic_Energy-OPLS-2005>
-521.886901855469

> <r_mmod_Solvation_Energy-OPLS-2005>
-228.690841674805

> <b_mmod_Minimization_Converged-OPLS-2005>
0

> <r_mmod_RMS_Derivative-OPLS-2005>
4.44613790512085

$$$$
47
                    3D
 Structure written by MMmdl.
178186  0  0  1  0            999 V2000
  -30.6125  -14.7811   20.3803 C   0  0  0  0  0  0
  -30.4144  -12.4435   19.4904 C   0  0  0  0  0  0
  -29.4964  -12.5043   18.2502 C   0  0  0  0  0  0
  -28.0220  -12.3333   18.6495 C   0  0  0  0  0  0
  -27.6372  -13.2347   19.8534 C   0  0  2  0  0  0
  -28.6896  -13.2038   20.9852 C   0  0  0  0  0  0
  -25.2506  -13.8234   20.5748 C   0  0  0  0  0  0
  -24.1799  -13.0470   20.9240 C   0  0  0  0  0  0
  -24.6435  -11.6944   20.8820 C   0  0  0  0  0  0
  -23.9149  -10.4301   21.0462 C   0  0  0  0  0  0
  -24.3697   -9.4229   21.9219 C   0  0  0  0  0  0
  -23.6378   -8.2262   22.0791 C   0  0  0  0  0  0
  -22.4350   -8.0283   21.3581 C   0  0  0  0  0  0
  -21.9968   -9.0272   20.4708 C   0  0  0  0  0  0
  -22.7334  -10.2129   20.3113 C   0  0  0  0  0  0
  -21.6879   -6.0752   22.5320 C   0  0  0  0  0  0
  -21.4008   -6.5675   23.8244 C   0  0  0  0  0  0
  -21.3660   -5.6840   24.9210 C   0  0  0  0  0  0
  -21.6077   -4.3112   24.7283 C   0  0  0  0  0  0
  -21.8806   -3.8191   23.4407 C   0  0  0  0  0  0
  -21.9210   -4.6977   22.3448 C   0  0  0  0  0  0
  -22.7817  -13.5234   21.1907 C   0  0  0  0  0  0
  -22.1661   -4.2156   21.1012 F   0  0  0  0  0  0
  -21.5642   -3.4609   25.7801 F   0  0  0  0  0  0
  -29.9966  -13.5383   20.3991 N   0  0  0  0  0  0
  -26.2957  -12.9433   20.3416 N   0  0  0  0  0  0
  -25.9394  -11.6587   20.5922 N   0  0  0  0  0  0
  -22.0510  -12.8153   22.0404 N   0  0  0  0  0  0
  -25.4148  -15.1951   20.4068 N   0  0  0  0  0  0
  -31.7668  -14.8199   19.9573 O   0  0  0  0  0  0
  -21.6703   -6.8876   21.4263 O   0  0  0  0  0  0
  -22.3473  -14.5550   20.6789 O   0  0  0  0  0  0
  -24.6234  -31.8596   23.1994 C   0  0  0  0  0  0
  -25.9032  -32.4847   23.8367 C   0  0  1  0  0  0
  -27.2507  -27.2856   20.1334 C   0  0  0  0  0  0
  -25.5789  -33.8679   24.2313 N   0  0  0  0  0  0
  -23.4307  -30.4684   21.5461 C   0  0  2  0  0  0
  -24.8855  -28.9099   20.1158 C   0  0  0  0  0  0
  -22.7542  -29.4569   22.4969 C   0  0  0  0  0  0
  -18.0312  -28.1409   22.8531 C   0  0  0  0  0  0
  -24.1463  -36.7303   23.2651 C   0  0  0  0  0  0
  -25.9730  -30.7785   21.3697 C   0  0  0  0  0  0
  -26.0505  -29.3950   20.7293 C   0  0  0  0  0  0
  -27.2220  -28.5857   20.7322 C   0  0  0  0  0  0
  -26.0658  -26.8485   19.4954 C   0  0  0  0  0  0
  -24.9025  -27.6482   19.4924 C   0  0  0  0  0  0
  -23.6425  -29.7798   20.1701 C   0  0  0  0  0  0
  -25.4108  -36.3166   24.0380 C   0  0  1  0  0  0
  -20.5911  -28.3625   23.1386 C   0  0  2  0  0  0
  -20.6825  -26.9337   22.5498 C   0  0  0  0  0  0
  -19.5748  -26.6352   21.5365 C   0  0  0  0  0  0
  -18.1929  -26.7958   22.1717 C   0  0  0  0  0  0
  -19.1589  -28.8831   23.2954 C   0  0  0  0  0  0
  -18.9450  -30.1484   23.8869 C   0  0  0  0  0  0
  -17.6447  -30.6574   24.0560 C   0  0  0  0  0  0
  -25.9023  -34.9504   23.5201 C   0  0  0  0  0  0
  -16.5331  -29.9069   23.6372 C   0  0  0  0  0  0
  -16.7323  -28.6530   23.0344 C   0  0  0  0  0  0
  -26.4413  -31.6645   25.0735 C   0  0  0  0  0  0
  -25.3551  -31.3751   26.1398 C   0  0  0  0  0  0
  -27.0269  -30.3081   24.6114 C   0  0  0  0  0  0
  -27.6009  -32.4379   25.7403 C   0  0  0  0  0  0
  -27.5621  -37.1790   24.8473 C   0  0  0  0  0  0
  -21.4243  -29.2944   22.3751 N   0  0  0  0  0  0
  -26.4322  -37.3842   23.9423 N   0  0  0  0  0  0
  -24.6988  -31.0537   22.0964 N   0  0  0  0  0  0
  -23.4275  -28.8129   23.3078 O   0  0  0  0  0  0
  -28.4020  -26.4851   20.2345 O   0  0  0  0  0  0
  -26.5669  -34.8981   22.4818 O   0  0  0  0  0  0
  -23.5365  -32.1352   23.7312 O   0  0  0  0  0  0
  -31.1406  -19.2868   22.3165 C   0  0  0  0  0  0
  -31.4055  -18.1427   21.5357 C   0  0  0  0  0  0
  -30.3156  -17.7055   20.7165 C   0  0  0  0  0  0
  -29.5638  -20.0078   20.8354 C   0  0  0  0  0  0
  -33.4821  -19.1996   19.0268 C   0  0  0  0  0  0
  -29.2370  -22.4517   20.1676 C   0  0  0  0  0  0
  -33.0723  -20.6650   16.9565 C   0  0  0  0  0  0
  -34.2498  -22.0179   21.9639 C   0  0  0  0  0  0
  -36.0257  -20.7192   23.1415 C   0  0  0  0  0  0
  -33.4695  -16.7174   21.2457 C   0  0  0  0  0  0
  -29.7947  -16.1647   20.6401 C   0  0  0  0  0  0
  -33.5588  -20.5972   18.4081 C   0  0  0  0  0  0
  -28.3496  -23.7582   20.4704 C   0  0  0  0  0  0
  -34.7750  -19.6081   21.2187 C   0  0  0  0  0  0
  -28.5916  -25.1314   19.6395 C   0  0  0  0  0  0
  -33.4121  -19.2024   20.5720 C   0  0  2  0  0  0
  -34.6850  -20.6054   22.4023 C   0  0  0  0  0  0
  -30.3105  -20.2515   21.8974 N   0  0  0  0  0  0
  -29.4228  -18.7272   20.3432 N   0  0  0  0  0  0
  -28.8031  -21.1501   20.4193 N   0  0  0  0  0  0
  -32.7806  -18.0043   21.1963 N   0  0  0  0  0  0
  -33.4778  -18.1879   18.3151 O   0  0  0  0  0  0
  -30.3647  -22.6522   19.6777 O   0  0  0  0  0  0
  -31.4565  -12.5208   19.1844 H   0  0  0  0  0  0
  -30.3222  -11.4776   19.9887 H   0  0  0  0  0  0
  -29.7824  -11.7367   17.5290 H   0  0  0  0  0  0
  -29.6229  -13.4696   17.7546 H   0  0  0  0  0  0
  -27.8619  -11.2784   18.8853 H   0  0  0  0  0  0
  -27.3701  -12.5499   17.8044 H   0  0  0  0  0  0
  -27.6172  -14.2567   19.4726 H   0  0  0  0  0  0
  -28.7263  -12.2252   21.4656 H   0  0  0  0  0  0
  -28.4246  -13.9113   21.7726 H   0  0  0  0  0  0
  -25.2810   -9.5737   22.4852 H   0  0  0  0  0  0
  -24.0165   -7.4639   22.7494 H   0  0  0  0  0  0
  -21.0911   -8.8773   19.8990 H   0  0  0  0  0  0
  -22.3774  -10.9687   19.6257 H   0  0  0  0  0  0
  -21.1935   -7.6165   23.9727 H   0  0  0  0  0  0
  -21.1500   -6.0581   25.9107 H   0  0  0  0  0  0
  -22.0566   -2.7665   23.2929 H   0  0  0  0  0  0
  -22.4220  -11.9835   22.4762 H   0  0  0  0  0  0
  -21.1126  -13.1132   22.2722 H   0  0  0  0  0  0
  -24.6459  -15.8442   20.5220 H   0  0  0  0  0  0
  -26.2599  -15.6435   20.0801 H   0  0  0  0  0  0
  -26.7116  -32.5482   23.1141 H   0  0  0  0  0  0
  -24.9884  -33.9759   25.0408 H   0  0  0  0  0  0
  -22.7269  -31.2872   21.3848 H   0  0  0  0  0  0
  -23.3836  -35.9520   23.3325 H   0  0  0  0  0  0
  -24.3536  -36.8924   22.2057 H   0  0  0  0  0  0
  -23.7106  -37.6462   23.6661 H   0  0  0  0  0  0
  -26.0940  -31.5221   20.5830 H   0  0  0  0  0  0
  -26.8752  -30.8546   21.9740 H   0  0  0  0  0  0
  -28.1123  -28.9402   21.2321 H   0  0  0  0  0  0
  -26.0157  -25.8744   19.0327 H   0  0  0  0  0  0
  -24.0105  -27.2777   19.0137 H   0  0  0  0  0  0
  -23.7266  -30.5363   19.3917 H   0  0  0  0  0  0
  -22.7683  -29.1765   19.9029 H   0  0  0  0  0  0
  -25.1271  -36.2099   25.0881 H   0  0  0  0  0  0
  -21.0062  -28.3221   24.1496 H   0  0  0  0  0  0
  -20.5876  -26.2181   23.3676 H   0  0  0  0  0  0
  -21.6646  -26.7449   22.1098 H   0  0  0  0  0  0
  -19.6883  -25.6316   21.1292 H   0  0  0  0  0  0
  -19.6704  -27.3274   20.6991 H   0  0  0  0  0  0
  -17.4224  -26.6844   21.4083 H   0  0  0  0  0  0
  -18.0130  -26.0102   22.9079 H   0  0  0  0  0  0
  -19.7892  -30.7433   24.2099 H   0  0  0  0  0  0
  -17.4931  -31.6193   24.5271 H   0  0  0  0  0  0
  -15.5316  -30.2933   23.7677 H   0  0  0  0  0  0
  -15.8744  -28.0886   22.6976 H   0  0  0  0  0  0
  -24.5748  -30.7131   25.7673 H   0  0  0  0  0  0
  -24.8627  -32.2841   26.4811 H   0  0  0  0  0  0
  -25.7692  -30.8875   27.0216 H   0  0  0  0  0  0
  -26.2824  -29.6848   24.1124 H   0  0  0  0  0  0
  -27.4070  -29.7351   25.4596 H   0  0  0  0  0  0
  -27.8653  -30.4582   23.9315 H   0  0  0  0  0  0
  -27.2780  -33.3825   26.1849 H   0  0  0  0  0  0
  -28.3777  -32.6754   25.0107 H   0  0  0  0  0  0
  -28.0715  -31.8550   26.5346 H   0  0  0  0  0  0
  -28.2648  -38.0091   24.7637 H   0  0  0  0  0  0
  -28.1114  -36.2642   24.6188 H   0  0  0  0  0  0
  -27.2304  -37.1334   25.8860 H   0  0  0  0  0  0
  -20.9477  -29.8546   21.6817 H   0  0  0  0  0  0
  -26.0270  -38.2950   24.1411 H   0  0  0  0  0  0
  -31.8884  -19.6506   23.0030 H   0  0  0  0  0  0
  -33.1643  -21.6911   16.5913 H   0  0  0  0  0  0
  -32.0212  -20.3678   16.8904 H   0  0  0  0  0  0
  -33.6549  -20.0097   16.3019 H   0  0  0  0  0  0
  -33.9811  -22.6017   22.8471 H   0  0  0  0  0  0
  -33.3844  -22.0287   21.2969 H   0  0  0  0  0  0
  -35.0587  -22.5436   21.4472 H   0  0  0  0  0  0
  -36.0035  -21.5421   23.8638 H   0  0  0  0  0  0
  -36.8528  -20.9224   22.4552 H   0  0  0  0  0  0
  -36.2708  -19.8125   23.6934 H   0  0  0  0  0  0
  -33.7664  -16.3849   20.2429 H   0  0  0  0  0  0
  -32.8643  -15.9547   21.7347 H   0  0  0  0  0  0
  -34.3830  -16.7593   21.8437 H   0  0  0  0  0  0
  -29.0116  -16.1786   19.8847 H   0  0  0  0  0  0
  -29.2731  -16.0148   21.5804 H   0  0  0  0  0  0
  -34.5878  -20.9481   18.4689 H   0  0  0  0  0  0
  -32.9563  -21.2747   19.0199 H   0  0  0  0  0  0
  -28.5532  -24.0051   21.5183 H   0  0  0  0  0  0
  -27.2915  -23.4902   20.4350 H   0  0  0  0  0  0
  -35.4053  -20.0873   20.4658 H   0  0  0  0  0  0
  -35.3444  -18.7277   21.5184 H   0  0  0  0  0  0
  -28.0814  -25.0825   18.6748 H   0  0  0  0  0  0
  -29.6505  -25.1451   19.3645 H   0  0  0  0  0  0
  -32.7722  -20.0573   20.7654 H   0  0  0  0  0  0
  -33.9597  -20.2257   23.1182 H   0  0  0  0  0  0
  -27.8002  -21.0262   20.5339 H   0  0  0  0  0  0
  1 25  1  0  0  0
  1 30  2  0  0  0
  1 81  1  0  0  0
  2  3  1  0  0  0
  2 25  1  0  0  0
  2 94  1  0  0  0
  2 95  1  0  0  0
  3  4  1  0  0  0
  3 96  1  0  0  0
  3 97  1  0  0  0
  4  5  1  0  0  0
  4 98  1  0  0  0
  4 99  1  0  0  0
  5  6  1  0  0  0
  5 26  1  0  0  0
  5100  1  0  0  0
  6 25  1  0  0  0
  6101  1  0  0  0
  6102  1  0  0  0
  7  8  2  0  0  0
  7 26  1  0  0  0
  7 29  1  0  0  0
  8  9  1  0  0  0
  8 22  1  0  0  0
  9 10  1  0  0  0
  9 27  2  0  0  0
 10 11  2  0  0  0
 10 15  1  0  0  0
 11 12  1  0  0  0
 11103  1  0  0  0
 12 13  2  0  0  0
 12104  1  0  0  0
 13 14  1  0  0  0
 13 31  1  0  0  0
 14 15  2  0  0  0
 14105  1  0  0  0
 15106  1  0  0  0
 16 17  2  0  0  0
 16 21  1  0  0  0
 16 31  1  0  0  0
 17 18  1  0  0  0
 17107  1  0  0  0
 18 19  2  0  0  0
 18108  1  0  0  0
 19 20  1  0  0  0
 19 24  1  0  0  0
 20 21  2  0  0  0
 20109  1  0  0  0
 21 23  1  0  0  0
 22 28  1  0  0  0
 22 32  2  0  0  0
 26 27  1  0  0  0
 28110  1  0  0  0
 28111  1  0  0  0
 29112  1  0  0  0
 29113  1  0  0  0
 33 34  1  0  0  0
 33 66  1  0  0  0
 33 70  2  0  0  0
 34 36  1  0  0  0
 34 59  1  0  0  0
 34114  1  0  0  0
 35 44  2  0  0  0
 35 45  1  0  0  0
 35 68  1  0  0  0
 36 56  1  0  0  0
 36115  1  0  0  0
 37 39  1  0  0  0
 37 47  1  0  0  0
 37 66  1  0  0  0
 37116  1  0  0  0
 38 43  2  0  0  0
 38 46  1  0  0  0
 38 47  1  0  0  0
 39 64  1  0  0  0
 39 67  2  0  0  0
 40 52  1  0  0  0
 40 53  2  0  0  0
 40 58  1  0  0  0
 41117  1  0  0  0
 41118  1  0  0  0
 41119  1  0  0  0
 41 48  1  0  0  0
 42 43  1  0  0  0
 42 66  1  0  0  0
 42120  1  0  0  0
 42121  1  0  0  0
 43 44  1  0  0  0
 44122  1  0  0  0
 45 46  2  0  0  0
 45123  1  0  0  0
 46124  1  0  0  0
 47125  1  0  0  0
 47126  1  0  0  0
 48 56  1  0  0  0
 48 65  1  0  0  0
 48127  1  0  0  0
 49 50  1  0  0  0
 49 53  1  0  0  0
 49 64  1  0  0  0
 49128  1  0  0  0
 50 51  1  0  0  0
 50129  1  0  0  0
 50130  1  0  0  0
 51 52  1  0  0  0
 51131  1  0  0  0
 51132  1  0  0  0
 52133  1  0  0  0
 52134  1  0  0  0
 53 54  1  0  0  0
 54 55  2  0  0  0
 54135  1  0  0  0
 55 57  1  0  0  0
 55136  1  0  0  0
 56 69  2  0  0  0
 57 58  2  0  0  0
 57137  1  0  0  0
 58138  1  0  0  0
 59 60  1  0  0  0
 59 61  1  0  0  0
 59 62  1  0  0  0
 60139  1  0  0  0
 60140  1  0  0  0
 60141  1  0  0  0
 61142  1  0  0  0
 61143  1  0  0  0
 61144  1  0  0  0
 62145  1  0  0  0
 62146  1  0  0  0
 62147  1  0  0  0
 63 65  1  0  0  0
 63148  1  0  0  0
 63149  1  0  0  0
 63150  1  0  0  0
 64151  1  0  0  0
 65152  1  0  0  0
 68 85  1  0  0  0
 71 72  2  0  0  0
 71 88  1  0  0  0
 71153  1  0  0  0
 72 73  1  0  0  0
 72 91  1  0  0  0
 73 81  1  0  0  0
 73 89  2  0  0  0
 74 88  2  0  0  0
 74 89  1  0  0  0
 74 90  1  0  0  0
 75 82  1  0  0  0
 75 86  1  0  0  0
 75 92  2  0  0  0
 76 83  1  0  0  0
 76 90  1  0  0  0
 76 93  2  0  0  0
 77 82  1  0  0  0
 77154  1  0  0  0
 77155  1  0  0  0
 77156  1  0  0  0
 78157  1  0  0  0
 78158  1  0  0  0
 78159  1  0  0  0
 78 87  1  0  0  0
 79 87  1  0  0  0
 79160  1  0  0  0
 79161  1  0  0  0
 79162  1  0  0  0
 80 91  1  0  0  0
 80163  1  0  0  0
 80164  1  0  0  0
 80165  1  0  0  0
 81166  1  0  0  0
 81167  1  0  0  0
 82168  1  0  0  0
 82169  1  0  0  0
 83 85  1  0  0  0
 83170  1  0  0  0
 83171  1  0  0  0
 84 87  1  0  0  0
 84172  1  0  0  0
 84173  1  0  0  0
 84 86  1  0  0  0
 85174  1  0  0  0
 85175  1  0  0  0
 86 91  1  0  0  0
 86176  1  0  0  0
 87177  1  0  0  0
 90178  1  0  0  0
M  ISO  4   1 100  68 101  81 100  85 101
M  END
> <chiral flag>
0

> <version>
0

> <s_m_source_file>
/data/baiqing/PycharmProjects/Reinvent-master-3.2/result/LINK_invent/BTK/process_docking_weight1_custom_product_contain_oxygen_bond_distance_aromatic_linkinvent_7_9_3/rearranged_h_0192.sdf

> <i_m_source_file_index>
47

> <r_mmod_Potential_Energy-OPLS-2005>
220.606719970703

> <r_mmod_Stretch_Energy-OPLS-2005>
148.462341308594

> <r_mmod_Bend_Energy-OPLS-2005>
261.782928466797

> <r_mmod_Torsional_Energy-OPLS-2005>
373.021697998047

> <r_mmod_Improper_Torsional_Energy-OPLS-2005>
21.8644313812256

> <r_mmod_Van_der_Waal_Energy-OPLS-2005>
145.177642822266

> <r_mmod_Electrostatic_Energy-OPLS-2005>
-556.506896972656

> <r_mmod_Solvation_Energy-OPLS-2005>
-260.176971435547

> <b_mmod_Minimization_Converged-OPLS-2005>
0

> <r_mmod_RMS_Derivative-OPLS-2005>
10.385892868042

$$$$
48
                    3D
 Structure written by MMmdl.
153161  0  0  1  0            999 V2000
  -30.6730  -14.6519   20.4869 C   0  0  0  0  0  0
  -30.4191  -12.4045   19.4581 C   0  0  0  0  0  0
  -29.4990  -12.4964   18.2238 C   0  0  0  0  0  0
  -28.0239  -12.3403   18.6389 C   0  0  0  0  0  0
  -27.6432  -13.2302   19.8531 C   0  0  2  0  0  0
  -28.6892  -13.1413   20.9854 C   0  0  0  0  0  0
  -25.2514  -13.8201   20.5701 C   0  0  0  0  0  0
  -24.1799  -13.0444   20.9204 C   0  0  0  0  0  0
  -24.6387  -11.6922   20.8746 C   0  0  0  0  0  0
  -23.9067  -10.4295   21.0405 C   0  0  0  0  0  0
  -24.3616   -9.4211   21.9185 C   0  0  0  0  0  0
  -23.6291   -8.2246   22.0756 C   0  0  0  0  0  0
  -22.4277   -8.0280   21.3542 C   0  0  0  0  0  0
  -21.9909   -9.0254   20.4647 C   0  0  0  0  0  0
  -22.7236  -10.2135   20.3057 C   0  0  0  0  0  0
  -21.6854   -6.0736   22.5277 C   0  0  0  0  0  0
  -21.4014   -6.5640   23.8209 C   0  0  0  0  0  0
  -21.3659   -5.6793   24.9171 C   0  0  0  0  0  0
  -21.6045   -4.3056   24.7222 C   0  0  0  0  0  0
  -21.8821   -3.8147   23.4343 C   0  0  0  0  0  0
  -21.9194   -4.6964   22.3398 C   0  0  0  0  0  0
  -22.7824  -13.5228   21.1864 C   0  0  0  0  0  0
  -22.1664   -4.2150   21.0976 F   0  0  0  0  0  0
  -21.5627   -3.4540   25.7735 F   0  0  0  0  0  0
  -29.9963  -13.4624   20.4007 N   0  0  0  0  0  0
  -26.2942  -12.9409   20.3305 N   0  0  0  0  0  0
  -25.9317  -11.6550   20.5759 N   0  0  0  0  0  0
  -22.0472  -12.8215   22.0417 N   0  0  0  0  0  0
  -25.4208  -15.1923   20.4115 N   0  0  0  0  0  0
  -31.8586  -14.7149   20.1550 O   0  0  0  0  0  0
  -21.6642   -6.8877   21.4238 O   0  0  0  0  0  0
  -22.3506  -14.5531   20.6709 O   0  0  0  0  0  0
  -24.6262  -31.8603   23.2023 C   0  0  0  0  0  0
  -25.9104  -32.4787   23.8360 C   0  0  1  0  0  0
  -27.2134  -27.3140   20.1252 C   0  0  0  0  0  0
  -25.5920  -33.8588   24.2285 N   0  0  0  0  0  0
  -23.4210  -30.4838   21.5450 C   0  0  2  0  0  0
  -24.8672  -28.9414   20.1084 C   0  0  0  0  0  0
  -22.7486  -29.4618   22.4928 C   0  0  0  0  0  0
  -18.0288  -28.1378   22.8480 C   0  0  0  0  0  0
  -24.1490  -36.7295   23.2641 C   0  0  0  0  0  0
  -25.9627  -30.7898   21.3753 C   0  0  0  0  0  0
  -26.0365  -29.4175   20.7167 C   0  0  0  0  0  0
  -27.2166  -28.6153   20.7151 C   0  0  0  0  0  0
  -26.0310  -26.9000   19.4761 C   0  0  0  0  0  0
  -24.8662  -27.6882   19.4773 C   0  0  0  0  0  0
  -23.6365  -29.8227   20.1587 C   0  0  0  0  0  0
  -25.4114  -36.3092   24.0333 C   0  0  1  0  0  0
  -20.5891  -28.3684   23.1274 C   0  0  2  0  0  0
  -20.6783  -26.9409   22.5403 C   0  0  0  0  0  0
  -19.5756  -26.6376   21.5205 C   0  0  0  0  0  0
  -18.1932  -26.7921   22.1616 C   0  0  0  0  0  0
  -19.1543  -28.8851   23.2868 C   0  0  0  0  0  0
  -18.9468  -30.1454   23.8885 C   0  0  0  0  0  0
  -17.6466  -30.6582   24.0561 C   0  0  0  0  0  0
  -25.9051  -34.9457   23.5112 C   0  0  0  0  0  0
  -16.5356  -29.9077   23.6335 C   0  0  0  0  0  0
  -16.7276  -28.6497   23.0353 C   0  0  0  0  0  0
  -26.4489  -31.6597   25.0731 C   0  0  0  0  0  0
  -25.3722  -31.3737   26.1460 C   0  0  0  0  0  0
  -27.0339  -30.3025   24.6180 C   0  0  0  0  0  0
  -27.6050  -32.4337   25.7502 C   0  0  0  0  0  0
  -27.5582  -37.1804   24.8467 C   0  0  0  0  0  0
  -21.4200  -29.3035   22.3667 N   0  0  0  0  0  0
  -26.4295  -37.3784   23.9411 N   0  0  0  0  0  0
  -24.6887  -31.0611   22.0977 N   0  0  0  0  0  0
  -23.4206  -28.8160   23.3011 O   0  0  0  0  0  0
  -28.3007  -26.4281   20.1688 O   0  0  0  0  0  0
  -26.5620  -34.8924   22.4680 O   0  0  0  0  0  0
  -23.5421  -32.1406   23.7337 O   0  0  0  0  0  0
  -30.6133  -19.5610   19.8723 C   0  0  0  0  0  0
  -30.1191  -20.8970   19.8637 C   0  0  0  0  0  0
  -29.9371  -18.5499   20.6093 C   0  0  0  0  0  0
  -28.9506  -21.1874   20.6012 C   0  0  0  0  0  0
  -28.2155  -25.2266   22.2527 C   0  0  0  0  0  0
  -30.6412  -17.1636   20.8741 C   0  0  0  0  0  0
  -28.8512  -23.8021   20.2065 C   0  0  0  0  0  0
  -28.0357  -25.0769   20.7335 C   0  0  2  0  0  0
  -28.7968  -18.8898   21.2772 N   0  0  0  0  0  0
  -28.3230  -20.1639   21.2589 N   0  0  0  0  0  0
  -28.3650  -22.4842   20.7353 N   0  0  0  0  0  0
  -29.9837  -15.8084   20.7605 N   0  0  0  0  0  0
  -31.4620  -12.5041   19.1531 H   0  0  0  0  0  0
  -30.3387  -11.4235   19.9288 H   0  0  0  0  0  0
  -29.7656  -11.7284   17.4963 H   0  0  0  0  0  0
  -29.6425  -13.4556   17.7234 H   0  0  0  0  0  0
  -27.8629  -11.2901   18.8857 H   0  0  0  0  0  0
  -27.3691  -12.5564   17.7937 H   0  0  0  0  0  0
  -27.6463  -14.2574   19.4880 H   0  0  0  0  0  0
  -28.7047  -12.1420   21.4227 H   0  0  0  0  0  0
  -28.4398  -13.8268   21.7967 H   0  0  0  0  0  0
  -25.2758   -9.5693   22.4759 H   0  0  0  0  0  0
  -24.0004   -7.4641   22.7474 H   0  0  0  0  0  0
  -21.0845   -8.8769   19.8951 H   0  0  0  0  0  0
  -22.3691  -10.9673   19.6168 H   0  0  0  0  0  0
  -21.2006   -7.6149   23.9710 H   0  0  0  0  0  0
  -21.1481   -6.0524   25.9073 H   0  0  0  0  0  0
  -22.0600   -2.7610   23.2842 H   0  0  0  0  0  0
  -22.4092  -11.9874   22.4801 H   0  0  0  0  0  0
  -21.1091  -13.1240   22.2633 H   0  0  0  0  0  0
  -24.6556  -15.8480   20.5255 H   0  0  0  0  0  0
  -26.2716  -15.6330   20.0853 H   0  0  0  0  0  0
  -26.7183  -32.5458   23.1116 H   0  0  0  0  0  0
  -25.0076  -33.9745   25.0436 H   0  0  0  0  0  0
  -22.7145  -31.3038   21.4032 H   0  0  0  0  0  0
  -23.3755  -35.9626   23.3309 H   0  0  0  0  0  0
  -24.3580  -36.8908   22.2055 H   0  0  0  0  0  0
  -23.7238  -37.6496   23.6660 H   0  0  0  0  0  0
  -26.0964  -31.5533   20.6078 H   0  0  0  0  0  0
  -26.8427  -30.8370   22.0056 H   0  0  0  0  0  0
  -28.1132  -28.9710   21.2042 H   0  0  0  0  0  0
  -25.9950  -25.9427   18.9760 H   0  0  0  0  0  0
  -23.9732  -27.3195   18.9905 H   0  0  0  0  0  0
  -23.7578  -30.6023   19.4051 H   0  0  0  0  0  0
  -22.7567  -29.2533   19.8538 H   0  0  0  0  0  0
  -25.1292  -36.1953   25.0827 H   0  0  0  0  0  0
  -20.9982  -28.3260   24.1391 H   0  0  0  0  0  0
  -20.5694  -26.2292   23.3604 H   0  0  0  0  0  0
  -21.6650  -26.7441   22.1190 H   0  0  0  0  0  0
  -19.6921  -25.6283   21.1238 H   0  0  0  0  0  0
  -19.6700  -27.3189   20.6738 H   0  0  0  0  0  0
  -17.4208  -26.6674   21.4010 H   0  0  0  0  0  0
  -18.0325  -26.0064   22.9017 H   0  0  0  0  0  0
  -19.7949  -30.7268   24.2249 H   0  0  0  0  0  0
  -17.5024  -31.6264   24.5159 H   0  0  0  0  0  0
  -15.5354  -30.2973   23.7669 H   0  0  0  0  0  0
  -15.8677  -28.0810   22.7073 H   0  0  0  0  0  0
  -24.5894  -30.7090   25.7789 H   0  0  0  0  0  0
  -24.8914  -32.2904   26.4883 H   0  0  0  0  0  0
  -25.8040  -30.8916   27.0239 H   0  0  0  0  0  0
  -26.2918  -29.6773   24.1202 H   0  0  0  0  0  0
  -27.4048  -29.7282   25.4679 H   0  0  0  0  0  0
  -27.8781  -30.4326   23.9405 H   0  0  0  0  0  0
  -27.2663  -33.3644   26.2067 H   0  0  0  0  0  0
  -28.3860  -32.6884   25.0327 H   0  0  0  0  0  0
  -28.0717  -31.8470   26.5424 H   0  0  0  0  0  0
  -28.2597  -38.0104   24.7515 H   0  0  0  0  0  0
  -28.1080  -36.2632   24.6292 H   0  0  0  0  0  0
  -27.2301  -37.1452   25.8871 H   0  0  0  0  0  0
  -20.9382  -29.8756   21.6876 H   0  0  0  0  0  0
  -26.0177  -38.2860   24.1416 H   0  0  0  0  0  0
  -31.5402  -19.3348   19.3657 H   0  0  0  0  0  0
  -30.6479  -21.6738   19.3325 H   0  0  0  0  0  0
  -27.9777  -24.3031   22.7805 H   0  0  0  0  0  0
  -27.5636  -26.0026   22.6539 H   0  0  0  0  0  0
  -29.2422  -25.4953   22.5017 H   0  0  0  0  0  0
  -31.0438  -17.2239   21.8861 H   0  0  0  0  0  0
  -31.5213  -17.1656   20.2301 H   0  0  0  0  0  0
  -28.7893  -23.7681   19.1177 H   0  0  0  0  0  0
  -29.9077  -23.9180   20.4502 H   0  0  0  0  0  0
  -26.9898  -24.8196   20.5736 H   0  0  0  0  0  0
  -27.5314  -22.5179   21.3112 H   0  0  0  0  0  0
  -28.9973  -15.7509   20.9612 H   0  0  0  0  0  0
  1 25  1  0  0  0
  1 30  2  0  0  0
  1 82  1  0  0  0
  2  3  1  0  0  0
  2 25  1  0  0  0
  2 83  1  0  0  0
  2 84  1  0  0  0
  3  4  1  0  0  0
  3 85  1  0  0  0
  3 86  1  0  0  0
  4  5  1  0  0  0
  4 87  1  0  0  0
  4 88  1  0  0  0
  5  6  1  0  0  0
  5 26  1  0  0  0
  5 89  1  0  0  0
  6 25  1  0  0  0
  6 90  1  0  0  0
  6 91  1  0  0  0
  7  8  2  0  0  0
  7 26  1  0  0  0
  7 29  1  0  0  0
  8  9  1  0  0  0
  8 22  1  0  0  0
  9 10  1  0  0  0
  9 27  2  0  0  0
 10 11  2  0  0  0
 10 15  1  0  0  0
 11 12  1  0  0  0
 11 92  1  0  0  0
 12 13  2  0  0  0
 12 93  1  0  0  0
 13 14  1  0  0  0
 13 31  1  0  0  0
 14 15  2  0  0  0
 14 94  1  0  0  0
 15 95  1  0  0  0
 16 17  2  0  0  0
 16 21  1  0  0  0
 16 31  1  0  0  0
 17 18  1  0  0  0
 17 96  1  0  0  0
 18 19  2  0  0  0
 18 97  1  0  0  0
 19 20  1  0  0  0
 19 24  1  0  0  0
 20 21  2  0  0  0
 20 98  1  0  0  0
 21 23  1  0  0  0
 22 28  1  0  0  0
 22 32  2  0  0  0
 26 27  1  0  0  0
 28 99  1  0  0  0
 28100  1  0  0  0
 29101  1  0  0  0
 29102  1  0  0  0
 33 34  1  0  0  0
 33 66  1  0  0  0
 33 70  2  0  0  0
 34 36  1  0  0  0
 34 59  1  0  0  0
 34103  1  0  0  0
 35 44  2  0  0  0
 35 45  1  0  0  0
 35 68  1  0  0  0
 36 56  1  0  0  0
 36104  1  0  0  0
 37 39  1  0  0  0
 37 47  1  0  0  0
 37 66  1  0  0  0
 37105  1  0  0  0
 38 43  2  0  0  0
 38 46  1  0  0  0
 38 47  1  0  0  0
 39 64  1  0  0  0
 39 67  2  0  0  0
 40 52  1  0  0  0
 40 53  2  0  0  0
 40 58  1  0  0  0
 41106  1  0  0  0
 41107  1  0  0  0
 41108  1  0  0  0
 41 48  1  0  0  0
 42 43  1  0  0  0
 42 66  1  0  0  0
 42109  1  0  0  0
 42110  1  0  0  0
 43 44  1  0  0  0
 44111  1  0  0  0
 45 46  2  0  0  0
 45112  1  0  0  0
 46113  1  0  0  0
 47114  1  0  0  0
 47115  1  0  0  0
 48 56  1  0  0  0
 48 65  1  0  0  0
 48116  1  0  0  0
 49 50  1  0  0  0
 49 53  1  0  0  0
 49 64  1  0  0  0
 49117  1  0  0  0
 50 51  1  0  0  0
 50118  1  0  0  0
 50119  1  0  0  0
 51 52  1  0  0  0
 51120  1  0  0  0
 51121  1  0  0  0
 52122  1  0  0  0
 52123  1  0  0  0
 53 54  1  0  0  0
 54 55  2  0  0  0
 54124  1  0  0  0
 55 57  1  0  0  0
 55125  1  0  0  0
 56 69  2  0  0  0
 57 58  2  0  0  0
 57126  1  0  0  0
 58127  1  0  0  0
 59 60  1  0  0  0
 59 61  1  0  0  0
 59 62  1  0  0  0
 60128  1  0  0  0
 60129  1  0  0  0
 60130  1  0  0  0
 61131  1  0  0  0
 61132  1  0  0  0
 61133  1  0  0  0
 62134  1  0  0  0
 62135  1  0  0  0
 62136  1  0  0  0
 63 65  1  0  0  0
 63137  1  0  0  0
 63138  1  0  0  0
 63139  1  0  0  0
 64140  1  0  0  0
 65141  1  0  0  0
 68 78  1  0  0  0
 71 72  2  0  0  0
 71 73  1  0  0  0
 71142  1  0  0  0
 72 74  1  0  0  0
 72143  1  0  0  0
 73 76  1  0  0  0
 73 79  2  0  0  0
 74 80  2  0  0  0
 74 81  1  0  0  0
 75144  1  0  0  0
 75145  1  0  0  0
 75146  1  0  0  0
 75 78  1  0  0  0
 76 82  1  0  0  0
 76147  1  0  0  0
 76148  1  0  0  0
 77 78  1  0  0  0
 77 81  1  0  0  0
 77149  1  0  0  0
 77150  1  0  0  0
 78151  1  0  0  0
 79 80  1  0  0  0
 81152  1  0  0  0
 82153  1  0  0  0
M  ISO  4   1 100  68 101  78 101  82 100
M  END
> <chiral flag>
0

> <version>
0

> <s_m_source_file>
/data/baiqing/PycharmProjects/Reinvent-master-3.2/result/LINK_invent/BTK/process_docking_weight1_custom_product_contain_oxygen_bond_distance_aromatic_linkinvent_7_9_3/rearranged_h_0192.sdf

> <i_m_source_file_index>
48

> <r_mmod_Potential_Energy-OPLS-2005>
-79.2836532592773

> <r_mmod_Stretch_Energy-OPLS-2005>
81.6030654907227

> <r_mmod_Bend_Energy-OPLS-2005>
163.682113647461

> <r_mmod_Torsional_Energy-OPLS-2005>
216.548248291016

> <r_mmod_Improper_Torsional_Energy-OPLS-2005>
5.36620426177979

> <r_mmod_Van_der_Waal_Energy-OPLS-2005>
146.364486694336

> <r_mmod_Electrostatic_Energy-OPLS-2005>
-519.1396484375

> <r_mmod_Solvation_Energy-OPLS-2005>
-231.063674926758

> <b_mmod_Minimization_Converged-OPLS-2005>
0

> <r_mmod_RMS_Derivative-OPLS-2005>
0.837666928768158

$$$$
49
                    3D
 Structure written by MMmdl.
155163  0  0  1  0            999 V2000
  -30.6621  -14.5513   20.4374 C   0  0  0  0  0  0
  -30.4275  -12.3215   19.4504 C   0  0  0  0  0  0
  -29.5046  -12.4590   18.2218 C   0  0  0  0  0  0
  -28.0241  -12.3292   18.6333 C   0  0  0  0  0  0
  -27.6528  -13.2098   19.8565 C   0  0  2  0  0  0
  -28.6962  -13.0659   20.9873 C   0  0  0  0  0  0
  -25.2552  -13.8182   20.5648 C   0  0  0  0  0  0
  -24.1834  -13.0452   20.9178 C   0  0  0  0  0  0
  -24.6402  -11.6919   20.8748 C   0  0  0  0  0  0
  -23.9065  -10.4301   21.0400 C   0  0  0  0  0  0
  -24.3624   -9.4215   21.9180 C   0  0  0  0  0  0
  -23.6312   -8.2237   22.0729 C   0  0  0  0  0  0
  -22.4273   -8.0287   21.3536 C   0  0  0  0  0  0
  -21.9906   -9.0265   20.4650 C   0  0  0  0  0  0
  -22.7216  -10.2161   20.3066 C   0  0  0  0  0  0
  -21.6860   -6.0737   22.5270 C   0  0  0  0  0  0
  -21.4025   -6.5641   23.8211 C   0  0  0  0  0  0
  -21.3674   -5.6778   24.9177 C   0  0  0  0  0  0
  -21.6045   -4.3044   24.7213 C   0  0  0  0  0  0
  -21.8826   -3.8136   23.4333 C   0  0  0  0  0  0
  -21.9201   -4.6958   22.3395 C   0  0  0  0  0  0
  -22.7863  -13.5260   21.1854 C   0  0  0  0  0  0
  -22.1649   -4.2161   21.0976 F   0  0  0  0  0  0
  -21.5634   -3.4526   25.7720 F   0  0  0  0  0  0
  -30.0219  -13.3489   20.4223 N   0  0  0  0  0  0
  -26.2977  -12.9350   20.3259 N   0  0  0  0  0  0
  -25.9328  -11.6528   20.5750 N   0  0  0  0  0  0
  -22.0486  -12.8303   22.0449 N   0  0  0  0  0  0
  -25.4269  -15.1889   20.3985 N   0  0  0  0  0  0
  -31.8585  -14.6647   20.1482 O   0  0  0  0  0  0
  -21.6643   -6.8877   21.4228 O   0  0  0  0  0  0
  -22.3566  -14.5556   20.6678 O   0  0  0  0  0  0
  -24.6266  -31.8628   23.2102 C   0  0  0  0  0  0
  -25.9107  -32.4805   23.8427 C   0  0  1  0  0  0
  -27.2110  -27.3437   20.0469 C   0  0  0  0  0  0
  -25.5904  -33.8616   24.2308 N   0  0  0  0  0  0
  -23.4177  -30.4916   21.5576 C   0  0  2  0  0  0
  -24.8557  -28.9619   20.1149 C   0  0  0  0  0  0
  -22.7495  -29.4625   22.4984 C   0  0  0  0  0  0
  -18.0277  -28.1367   22.8475 C   0  0  0  0  0  0
  -24.1486  -36.7314   23.2649 C   0  0  0  0  0  0
  -25.9675  -30.7914   21.3895 C   0  0  0  0  0  0
  -26.0356  -29.4297   20.7083 C   0  0  0  0  0  0
  -27.2194  -28.6322   20.6651 C   0  0  0  0  0  0
  -25.9889  -26.9267   19.4644 C   0  0  0  0  0  0
  -24.8316  -27.7132   19.4914 C   0  0  0  0  0  0
  -23.6313  -29.8446   20.1688 C   0  0  0  0  0  0
  -25.4108  -36.3100   24.0334 C   0  0  1  0  0  0
  -20.5881  -28.3665   23.1289 C   0  0  2  0  0  0
  -20.6750  -26.9390   22.5408 C   0  0  0  0  0  0
  -19.5727  -26.6365   21.5199 C   0  0  0  0  0  0
  -18.1906  -26.7917   22.1612 C   0  0  0  0  0  0
  -19.1539  -28.8828   23.2868 C   0  0  0  0  0  0
  -18.9470  -30.1424   23.8896 C   0  0  0  0  0  0
  -17.6467  -30.6570   24.0557 C   0  0  0  0  0  0
  -25.9053  -34.9468   23.5123 C   0  0  0  0  0  0
  -16.5344  -29.9076   23.6320 C   0  0  0  0  0  0
  -16.7263  -28.6487   23.0348 C   0  0  0  0  0  0
  -26.4462  -31.6645   25.0828 C   0  0  0  0  0  0
  -25.3685  -31.3847   26.1572 C   0  0  0  0  0  0
  -27.0314  -30.3048   24.6350 C   0  0  0  0  0  0
  -27.6010  -32.4410   25.7571 C   0  0  0  0  0  0
  -27.5590  -37.1811   24.8447 C   0  0  0  0  0  0
  -21.4213  -29.3021   22.3717 N   0  0  0  0  0  0
  -26.4283  -37.3797   23.9415 N   0  0  0  0  0  0
  -24.6898  -31.0647   22.1069 N   0  0  0  0  0  0
  -23.4232  -28.8132   23.3022 O   0  0  0  0  0  0
  -28.3341  -26.4971   20.0143 O   0  0  0  0  0  0
  -26.5628  -34.8913   22.4698 O   0  0  0  0  0  0
  -23.5413  -32.1435   23.7399 O   0  0  0  0  0  0
  -29.3780  -16.9904   17.2928 C   0  0  0  0  0  0
  -29.0747  -18.3354   17.5428 C   0  0  0  0  0  0
  -29.0838  -18.7667   18.8906 C   0  0  0  0  0  0
  -29.6660  -16.5863   19.5250 C   0  0  0  0  0  0
  -29.3204  -21.2498   19.3509 C   0  0  0  0  0  0
  -28.7307  -19.2382   16.3659 C   0  0  0  0  0  0
  -28.4849  -22.5237   19.6882 C   0  0  0  0  0  0
  -29.1489  -23.9577   19.6478 C   0  0  0  0  0  0
  -28.0651  -25.0952   19.6506 C   0  0  0  0  0  0
  -29.6615  -16.1353   18.2783 N   0  0  0  0  0  0
  -29.3541  -17.8501   19.8671 N   0  0  0  0  0  0
  -28.6212  -20.0953   19.1812 N   0  0  0  0  0  0
  -29.8646  -15.6450   20.5257 N   0  0  0  0  0  0
  -30.5494  -21.3210   19.2541 O   0  0  0  0  0  0
  -31.4718  -12.4232   19.1452 H   0  0  0  0  0  0
  -30.3416  -11.3290   19.8951 H   0  0  0  0  0  0
  -29.7532  -11.6923   17.4850 H   0  0  0  0  0  0
  -29.6729  -13.4171   17.7290 H   0  0  0  0  0  0
  -27.8490  -11.2797   18.8723 H   0  0  0  0  0  0
  -27.3731  -12.5587   17.7885 H   0  0  0  0  0  0
  -27.6720  -14.2401   19.5050 H   0  0  0  0  0  0
  -28.6765  -12.0548   21.3977 H   0  0  0  0  0  0
  -28.4643  -13.7399   21.8149 H   0  0  0  0  0  0
  -25.2775   -9.5711   22.4757 H   0  0  0  0  0  0
  -24.0045   -7.4625   22.7426 H   0  0  0  0  0  0
  -21.0828   -8.8796   19.8977 H   0  0  0  0  0  0
  -22.3645  -10.9720   19.6198 H   0  0  0  0  0  0
  -21.2015   -7.6141   23.9735 H   0  0  0  0  0  0
  -21.1483   -6.0496   25.9096 H   0  0  0  0  0  0
  -22.0593   -2.7590   23.2823 H   0  0  0  0  0  0
  -22.4075  -12.0019   22.4941 H   0  0  0  0  0  0
  -21.1109  -13.1355   22.2601 H   0  0  0  0  0  0
  -24.6531  -15.8381   20.4967 H   0  0  0  0  0  0
  -26.2610  -15.6204   20.0237 H   0  0  0  0  0  0
  -26.7189  -32.5444   23.1186 H   0  0  0  0  0  0
  -24.9988  -33.9769   25.0409 H   0  0  0  0  0  0
  -22.7103  -31.3126   21.4214 H   0  0  0  0  0  0
  -23.3741  -35.9652   23.3302 H   0  0  0  0  0  0
  -24.3569  -36.8953   22.2066 H   0  0  0  0  0  0
  -23.7234  -37.6514   23.6676 H   0  0  0  0  0  0
  -26.1231  -31.5713   20.6429 H   0  0  0  0  0  0
  -26.8381  -30.8133   22.0353 H   0  0  0  0  0  0
  -28.1331  -28.9937   21.1183 H   0  0  0  0  0  0
  -25.8650  -25.9805   18.9629 H   0  0  0  0  0  0
  -23.9261  -27.3489   19.0266 H   0  0  0  0  0  0
  -23.7594  -30.6284   19.4216 H   0  0  0  0  0  0
  -22.7495  -29.2842   19.8556 H   0  0  0  0  0  0
  -25.1290  -36.1972   25.0822 H   0  0  0  0  0  0
  -20.9934  -28.3195   24.1429 H   0  0  0  0  0  0
  -20.5595  -26.2278   23.3601 H   0  0  0  0  0  0
  -21.6624  -26.7375   22.1231 H   0  0  0  0  0  0
  -19.6877  -25.6276   21.1228 H   0  0  0  0  0  0
  -19.6663  -27.3173   20.6726 H   0  0  0  0  0  0
  -17.4181  -26.6653   21.4020 H   0  0  0  0  0  0
  -18.0300  -26.0050   22.8998 H   0  0  0  0  0  0
  -19.7946  -30.7219   24.2280 H   0  0  0  0  0  0
  -17.5032  -31.6258   24.5161 H   0  0  0  0  0  0
  -15.5353  -30.2983   23.7643 H   0  0  0  0  0  0
  -15.8661  -28.0801   22.7084 H   0  0  0  0  0  0
  -24.5704  -30.7383   25.7909 H   0  0  0  0  0  0
  -24.9068  -32.3067   26.5126 H   0  0  0  0  0  0
  -25.7962  -30.8882   27.0293 H   0  0  0  0  0  0
  -26.2950  -29.6830   24.1244 H   0  0  0  0  0  0
  -27.3834  -29.7284   25.4923 H   0  0  0  0  0  0
  -27.8895  -30.4318   23.9736 H   0  0  0  0  0  0
  -27.2558  -33.3627   26.2268 H   0  0  0  0  0  0
  -28.3725  -32.7141   25.0362 H   0  0  0  0  0  0
  -28.0800  -31.8517   26.5398 H   0  0  0  0  0  0
  -28.2596  -38.0125   24.7510 H   0  0  0  0  0  0
  -28.1097  -36.2660   24.6230 H   0  0  0  0  0  0
  -27.2326  -37.1423   25.8854 H   0  0  0  0  0  0
  -20.9394  -29.8834   21.7008 H   0  0  0  0  0  0
  -26.0174  -38.2875   24.1422 H   0  0  0  0  0  0
  -29.3648  -16.5805   16.2914 H   0  0  0  0  0  0
  -29.0398  -18.7727   15.4273 H   0  0  0  0  0  0
  -29.2481  -20.1949   16.4331 H   0  0  0  0  0  0
  -27.6553  -19.4159   16.3097 H   0  0  0  0  0  0
  -28.0794  -22.3663   20.6878 H   0  0  0  0  0  0
  -27.6259  -22.5260   19.0180 H   0  0  0  0  0  0
  -29.7581  -24.0473   18.7445 H   0  0  0  0  0  0
  -29.8296  -24.0676   20.4901 H   0  0  0  0  0  0
  -27.2575  -24.7478   20.2997 H   0  0  0  0  0  0
  -27.6776  -25.0767   18.6303 H   0  0  0  0  0  0
  -27.6153  -20.1881   19.2243 H   0  0  0  0  0  0
  -29.0662  -15.5404   21.1261 H   0  0  0  0  0  0
  1 25  1  0  0  0
  1 30  2  0  0  0
  1 83  1  0  0  0
  2  3  1  0  0  0
  2 25  1  0  0  0
  2 85  1  0  0  0
  2 86  1  0  0  0
  3  4  1  0  0  0
  3 87  1  0  0  0
  3 88  1  0  0  0
  4  5  1  0  0  0
  4 89  1  0  0  0
  4 90  1  0  0  0
  5  6  1  0  0  0
  5 26  1  0  0  0
  5 91  1  0  0  0
  6 25  1  0  0  0
  6 92  1  0  0  0
  6 93  1  0  0  0
  7  8  2  0  0  0
  7 26  1  0  0  0
  7 29  1  0  0  0
  8  9  1  0  0  0
  8 22  1  0  0  0
  9 10  1  0  0  0
  9 27  2  0  0  0
 10 11  2  0  0  0
 10 15  1  0  0  0
 11 12  1  0  0  0
 11 94  1  0  0  0
 12 13  2  0  0  0
 12 95  1  0  0  0
 13 14  1  0  0  0
 13 31  1  0  0  0
 14 15  2  0  0  0
 14 96  1  0  0  0
 15 97  1  0  0  0
 16 17  2  0  0  0
 16 21  1  0  0  0
 16 31  1  0  0  0
 17 18  1  0  0  0
 17 98  1  0  0  0
 18 19  2  0  0  0
 18 99  1  0  0  0
 19 20  1  0  0  0
 19 24  1  0  0  0
 20 21  2  0  0  0
 20100  1  0  0  0
 21 23  1  0  0  0
 22 28  1  0  0  0
 22 32  2  0  0  0
 26 27  1  0  0  0
 28101  1  0  0  0
 28102  1  0  0  0
 29103  1  0  0  0
 29104  1  0  0  0
 33 34  1  0  0  0
 33 66  1  0  0  0
 33 70  2  0  0  0
 34 36  1  0  0  0
 34 59  1  0  0  0
 34105  1  0  0  0
 35 44  2  0  0  0
 35 45  1  0  0  0
 35 68  1  0  0  0
 36 56  1  0  0  0
 36106  1  0  0  0
 37 39  1  0  0  0
 37 47  1  0  0  0
 37 66  1  0  0  0
 37107  1  0  0  0
 38 43  2  0  0  0
 38 46  1  0  0  0
 38 47  1  0  0  0
 39 64  1  0  0  0
 39 67  2  0  0  0
 40 52  1  0  0  0
 40 53  2  0  0  0
 40 58  1  0  0  0
 41108  1  0  0  0
 41109  1  0  0  0
 41110  1  0  0  0
 41 48  1  0  0  0
 42 43  1  0  0  0
 42 66  1  0  0  0
 42111  1  0  0  0
 42112  1  0  0  0
 43 44  1  0  0  0
 44113  1  0  0  0
 45 46  2  0  0  0
 45114  1  0  0  0
 46115  1  0  0  0
 47116  1  0  0  0
 47117  1  0  0  0
 48 56  1  0  0  0
 48 65  1  0  0  0
 48118  1  0  0  0
 49 50  1  0  0  0
 49 53  1  0  0  0
 49 64  1  0  0  0
 49119  1  0  0  0
 50 51  1  0  0  0
 50120  1  0  0  0
 50121  1  0  0  0
 51 52  1  0  0  0
 51122  1  0  0  0
 51123  1  0  0  0
 52124  1  0  0  0
 52125  1  0  0  0
 53 54  1  0  0  0
 54 55  2  0  0  0
 54126  1  0  0  0
 55 57  1  0  0  0
 55127  1  0  0  0
 56 69  2  0  0  0
 57 58  2  0  0  0
 57128  1  0  0  0
 58129  1  0  0  0
 59 60  1  0  0  0
 59 61  1  0  0  0
 59 62  1  0  0  0
 60130  1  0  0  0
 60131  1  0  0  0
 60132  1  0  0  0
 61133  1  0  0  0
 61134  1  0  0  0
 61135  1  0  0  0
 62136  1  0  0  0
 62137  1  0  0  0
 62138  1  0  0  0
 63 65  1  0  0  0
 63139  1  0  0  0
 63140  1  0  0  0
 63141  1  0  0  0
 64142  1  0  0  0
 65143  1  0  0  0
 68 79  1  0  0  0
 71 72  2  0  0  0
 71 80  1  0  0  0
 71144  1  0  0  0
 72 73  1  0  0  0
 72 76  1  0  0  0
 73 81  2  0  0  0
 73 82  1  0  0  0
 74 80  2  0  0  0
 74 81  1  0  0  0
 74 83  1  0  0  0
 75 77  1  0  0  0
 75 82  1  0  0  0
 75 84  2  0  0  0
 76145  1  0  0  0
 76146  1  0  0  0
 76147  1  0  0  0
 77 78  1  0  0  0
 77148  1  0  0  0
 77149  1  0  0  0
 78 79  1  0  0  0
 78150  1  0  0  0
 78151  1  0  0  0
 79152  1  0  0  0
 79153  1  0  0  0
 82154  1  0  0  0
 83155  1  0  0  0
M  ISO  4   1 100  68 101  79 101  83 100
M  END
> <chiral flag>
0

> <version>
0

> <s_m_source_file>
/data/baiqing/PycharmProjects/Reinvent-master-3.2/result/LINK_invent/BTK/process_docking_weight1_custom_product_contain_oxygen_bond_distance_aromatic_linkinvent_7_9_3/rearranged_h_0192.sdf

> <i_m_source_file_index>
49

> <r_mmod_Potential_Energy-OPLS-2005>
-402.319549560547

> <r_mmod_Stretch_Energy-OPLS-2005>
57.0019454956055

> <r_mmod_Bend_Energy-OPLS-2005>
130.033798217773

> <r_mmod_Torsional_Energy-OPLS-2005>
281.471801757812

> <r_mmod_Improper_Torsional_Energy-OPLS-2005>
9.98703289031982

> <r_mmod_Van_der_Waal_Energy-OPLS-2005>
163.10823059082

> <r_mmod_Electrostatic_Energy-OPLS-2005>
-820.917663574219

> <r_mmod_Solvation_Energy-OPLS-2005>
-262.324462890625

> <b_mmod_Minimization_Converged-OPLS-2005>
0

> <r_mmod_RMS_Derivative-OPLS-2005>
4.94189023971558

$$$$
50
                    3D
 Structure written by MMmdl.
151159  0  0  1  0            999 V2000
  -30.6097  -14.7566   20.4550 C   0  0  0  0  0  0
  -30.4327  -12.4598   19.4851 C   0  0  0  0  0  0
  -29.5134  -12.5095   18.2442 C   0  0  0  0  0  0
  -28.0396  -12.3313   18.6553 C   0  0  0  0  0  0
  -27.6429  -13.2335   19.8543 C   0  0  2  0  0  0
  -28.6856  -13.1739   20.9934 C   0  0  0  0  0  0
  -25.2507  -13.8199   20.5696 C   0  0  0  0  0  0
  -24.1801  -13.0439   20.9208 C   0  0  0  0  0  0
  -24.6396  -11.6919   20.8747 C   0  0  0  0  0  0
  -23.9074  -10.4293   21.0407 C   0  0  0  0  0  0
  -24.3624   -9.4207   21.9185 C   0  0  0  0  0  0
  -23.6298   -8.2243   22.0754 C   0  0  0  0  0  0
  -22.4280   -8.0282   21.3546 C   0  0  0  0  0  0
  -21.9917   -9.0254   20.4646 C   0  0  0  0  0  0
  -22.7246  -10.2133   20.3055 C   0  0  0  0  0  0
  -21.6853   -6.0737   22.5278 C   0  0  0  0  0  0
  -21.4013   -6.5642   23.8211 C   0  0  0  0  0  0
  -21.3657   -5.6795   24.9173 C   0  0  0  0  0  0
  -21.6045   -4.3057   24.7223 C   0  0  0  0  0  0
  -21.8820   -3.8148   23.4346 C   0  0  0  0  0  0
  -21.9194   -4.6966   22.3401 C   0  0  0  0  0  0
  -22.7822  -13.5220   21.1867 C   0  0  0  0  0  0
  -22.1663   -4.2151   21.0979 F   0  0  0  0  0  0
  -21.5628   -3.4540   25.7736 F   0  0  0  0  0  0
  -29.9892  -13.5255   20.4166 N   0  0  0  0  0  0
  -26.2940  -12.9412   20.3296 N   0  0  0  0  0  0
  -25.9330  -11.6551   20.5762 N   0  0  0  0  0  0
  -22.0472  -12.8205   22.0422 N   0  0  0  0  0  0
  -25.4188  -15.1923   20.4104 N   0  0  0  0  0  0
  -31.7875  -14.8538   20.1013 O   0  0  0  0  0  0
  -21.6642   -6.8881   21.4242 O   0  0  0  0  0  0
  -22.3506  -14.5526   20.6715 O   0  0  0  0  0  0
  -24.6338  -31.8538   23.1988 C   0  0  0  0  0  0
  -25.9159  -32.4746   23.8333 C   0  0  1  0  0  0
  -27.2135  -27.2390   20.1305 C   0  0  0  0  0  0
  -25.5949  -33.8550   24.2253 N   0  0  0  0  0  0
  -23.4310  -30.4784   21.5421 C   0  0  2  0  0  0
  -24.8786  -28.9287   20.1061 C   0  0  0  0  0  0
  -22.7516  -29.4595   22.4896 C   0  0  0  0  0  0
  -18.0291  -28.1392   22.8482 C   0  0  0  0  0  0
  -24.1485  -36.7269   23.2643 C   0  0  0  0  0  0
  -25.9803  -30.7588   21.3850 C   0  0  0  0  0  0
  -26.0506  -29.3810   20.7249 C   0  0  0  0  0  0
  -27.2185  -28.5474   20.7306 C   0  0  0  0  0  0
  -26.0237  -26.8776   19.4553 C   0  0  0  0  0  0
  -24.8721  -27.6859   19.4594 C   0  0  0  0  0  0
  -23.6503  -29.8175   20.1565 C   0  0  0  0  0  0
  -25.4114  -36.3062   24.0327 C   0  0  1  0  0  0
  -20.5899  -28.3704   23.1257 C   0  0  2  0  0  0
  -20.6779  -26.9418   22.5404 C   0  0  0  0  0  0
  -19.5754  -26.6385   21.5210 C   0  0  0  0  0  0
  -18.1933  -26.7935   22.1621 C   0  0  0  0  0  0
  -19.1547  -28.8866   23.2863 C   0  0  0  0  0  0
  -18.9469  -30.1467   23.8885 C   0  0  0  0  0  0
  -17.6468  -30.6593   24.0563 C   0  0  0  0  0  0
  -25.9059  -34.9434   23.5088 C   0  0  0  0  0  0
  -16.5356  -29.9090   23.6340 C   0  0  0  0  0  0
  -16.7277  -28.6507   23.0359 C   0  0  0  0  0  0
  -26.4518  -31.6580   25.0731 C   0  0  0  0  0  0
  -25.3730  -31.3736   26.1443 C   0  0  0  0  0  0
  -27.0381  -30.2995   24.6241 C   0  0  0  0  0  0
  -27.6064  -32.4335   25.7506 C   0  0  0  0  0  0
  -27.5569  -37.1793   24.8473 C   0  0  0  0  0  0
  -21.4219  -29.3047   22.3643 N   0  0  0  0  0  0
  -26.4284  -37.3764   23.9412 N   0  0  0  0  0  0
  -24.7008  -31.0487   22.0977 N   0  0  0  0  0  0
  -23.4208  -28.8128   23.2996 O   0  0  0  0  0  0
  -28.2859  -26.3097   20.2246 O   0  0  0  0  0  0
  -26.5630  -34.8914   22.4657 O   0  0  0  0  0  0
  -23.5482  -32.1371   23.7269 O   0  0  0  0  0  0
  -29.2857  -21.0612   22.2787 C   0  0  0  0  0  0
  -29.7090  -18.6840   20.9282 C   0  0  0  0  0  0
  -29.1934  -21.0794   20.8630 C   0  0  0  0  0  0
  -29.7822  -18.7905   22.3423 C   0  0  0  0  0  0
  -28.8827  -23.6919   20.6236 C   0  0  0  0  0  0
  -30.1136  -17.3299   20.1629 C   0  0  0  0  0  0
  -28.0420  -24.8495   19.8892 C   0  0  0  0  0  0
  -29.5666  -19.9483   23.0014 N   0  0  0  0  0  0
  -29.4035  -19.8520   20.2128 N   0  0  0  0  0  0
  -30.1112  -17.7213   23.1622 N   0  0  0  0  0  0
  -28.7910  -22.3588   20.2134 N   0  0  0  0  0  0
  -29.8424  -15.8966   20.6594 N   0  0  0  0  0  0
  -29.6183  -24.0221   21.5582 O   0  0  0  0  0  0
  -31.4747  -12.5794   19.1836 H   0  0  0  0  0  0
  -30.3752  -11.4839   19.9696 H   0  0  0  0  0  0
  -29.7985  -11.7352   17.5306 H   0  0  0  0  0  0
  -29.6394  -13.4632   17.7290 H   0  0  0  0  0  0
  -27.8985  -11.2830   18.9206 H   0  0  0  0  0  0
  -27.3828  -12.5201   17.8052 H   0  0  0  0  0  0
  -27.6367  -14.2541   19.4710 H   0  0  0  0  0  0
  -28.7198  -12.1783   21.4381 H   0  0  0  0  0  0
  -28.4174  -13.8596   21.7988 H   0  0  0  0  0  0
  -25.2769   -9.5682   22.4760 H   0  0  0  0  0  0
  -24.0003   -7.4634   22.7473 H   0  0  0  0  0  0
  -21.0850   -8.8774   19.8951 H   0  0  0  0  0  0
  -22.3706  -10.9672   19.6163 H   0  0  0  0  0  0
  -21.2004   -7.6150   23.9715 H   0  0  0  0  0  0
  -21.1478   -6.0525   25.9077 H   0  0  0  0  0  0
  -22.0601   -2.7611   23.2844 H   0  0  0  0  0  0
  -22.4097  -11.9865   22.4801 H   0  0  0  0  0  0
  -21.1088  -13.1221   22.2634 H   0  0  0  0  0  0
  -24.6481  -15.8431   20.5163 H   0  0  0  0  0  0
  -26.2615  -15.6324   20.0642 H   0  0  0  0  0  0
  -26.7220  -32.5388   23.1067 H   0  0  0  0  0  0
  -25.0111  -33.9686   25.0407 H   0  0  0  0  0  0
  -22.7283  -31.3017   21.3969 H   0  0  0  0  0  0
  -23.3753  -35.9597   23.3319 H   0  0  0  0  0  0
  -24.3568  -36.8879   22.2055 H   0  0  0  0  0  0
  -23.7231  -37.6471   23.6658 H   0  0  0  0  0  0
  -26.1253  -31.5192   20.6164 H   0  0  0  0  0  0
  -26.8557  -30.8051   22.0208 H   0  0  0  0  0  0
  -28.1091  -28.8831   21.2431 H   0  0  0  0  0  0
  -25.9405  -25.9424   18.9236 H   0  0  0  0  0  0
  -23.9796  -27.3400   18.9564 H   0  0  0  0  0  0
  -23.7762  -30.5966   19.4036 H   0  0  0  0  0  0
  -22.7682  -29.2536   19.8481 H   0  0  0  0  0  0
  -25.1294  -36.1904   25.0817 H   0  0  0  0  0  0
  -20.9988  -28.3285   24.1379 H   0  0  0  0  0  0
  -20.5682  -26.2313   23.3611 H   0  0  0  0  0  0
  -21.6643  -26.7440   22.1190 H   0  0  0  0  0  0
  -19.6916  -25.6296   21.1243 H   0  0  0  0  0  0
  -19.6692  -27.3195   20.6740 H   0  0  0  0  0  0
  -17.4199  -26.6684   21.4026 H   0  0  0  0  0  0
  -18.0332  -26.0079   22.9021 H   0  0  0  0  0  0
  -19.7947  -30.7285   24.2246 H   0  0  0  0  0  0
  -17.5025  -31.6275   24.5166 H   0  0  0  0  0  0
  -15.5359  -30.2992   23.7681 H   0  0  0  0  0  0
  -15.8672  -28.0826   22.7087 H   0  0  0  0  0  0
  -24.5918  -30.7070   25.7771 H   0  0  0  0  0  0
  -24.8909  -32.2909   26.4838 H   0  0  0  0  0  0
  -25.8044  -30.8937   27.0237 H   0  0  0  0  0  0
  -26.2976  -29.6730   24.1255 H   0  0  0  0  0  0
  -27.4049  -29.7270   25.4772 H   0  0  0  0  0  0
  -27.8862  -30.4272   23.9510 H   0  0  0  0  0  0
  -27.2664  -33.3650   26.2044 H   0  0  0  0  0  0
  -28.3897  -32.6872   25.0348 H   0  0  0  0  0  0
  -28.0709  -31.8483   26.5453 H   0  0  0  0  0  0
  -28.2598  -38.0080   24.7504 H   0  0  0  0  0  0
  -28.1052  -36.2610   24.6319 H   0  0  0  0  0  0
  -27.2286  -37.1466   25.8876 H   0  0  0  0  0  0
  -20.9408  -29.8768   21.6842 H   0  0  0  0  0  0
  -26.0162  -38.2836   24.1414 H   0  0  0  0  0  0
  -29.0958  -21.9449   22.8685 H   0  0  0  0  0  0
  -31.1868  -17.4150   19.9893 H   0  0  0  0  0  0
  -29.6669  -17.3913   19.1706 H   0  0  0  0  0  0
  -27.0156  -24.5870   20.1435 H   0  0  0  0  0  0
  -28.1442  -24.7206   18.8115 H   0  0  0  0  0  0
  -30.4748  -16.8699   22.7501 H   0  0  0  0  0  0
  -30.3683  -17.8806   24.1291 H   0  0  0  0  0  0
  -28.2998  -22.2362   19.3400 H   0  0  0  0  0  0
  -28.8967  -15.7257   20.9656 H   0  0  0  0  0  0
  1 25  1  0  0  0
  1 30  2  0  0  0
  1 82  1  0  0  0
  2  3  1  0  0  0
  2 25  1  0  0  0
  2 84  1  0  0  0
  2 85  1  0  0  0
  3  4  1  0  0  0
  3 86  1  0  0  0
  3 87  1  0  0  0
  4  5  1  0  0  0
  4 88  1  0  0  0
  4 89  1  0  0  0
  5  6  1  0  0  0
  5 26  1  0  0  0
  5 90  1  0  0  0
  6 25  1  0  0  0
  6 91  1  0  0  0
  6 92  1  0  0  0
  7  8  2  0  0  0
  7 26  1  0  0  0
  7 29  1  0  0  0
  8  9  1  0  0  0
  8 22  1  0  0  0
  9 10  1  0  0  0
  9 27  2  0  0  0
 10 11  2  0  0  0
 10 15  1  0  0  0
 11 12  1  0  0  0
 11 93  1  0  0  0
 12 13  2  0  0  0
 12 94  1  0  0  0
 13 14  1  0  0  0
 13 31  1  0  0  0
 14 15  2  0  0  0
 14 95  1  0  0  0
 15 96  1  0  0  0
 16 17  2  0  0  0
 16 21  1  0  0  0
 16 31  1  0  0  0
 17 18  1  0  0  0
 17 97  1  0  0  0
 18 19  2  0  0  0
 18 98  1  0  0  0
 19 20  1  0  0  0
 19 24  1  0  0  0
 20 21  2  0  0  0
 20 99  1  0  0  0
 21 23  1  0  0  0
 22 28  1  0  0  0
 22 32  2  0  0  0
 26 27  1  0  0  0
 28100  1  0  0  0
 28101  1  0  0  0
 29102  1  0  0  0
 29103  1  0  0  0
 33 34  1  0  0  0
 33 66  1  0  0  0
 33 70  2  0  0  0
 34 36  1  0  0  0
 34 59  1  0  0  0
 34104  1  0  0  0
 35 44  2  0  0  0
 35 45  1  0  0  0
 35 68  1  0  0  0
 36 56  1  0  0  0
 36105  1  0  0  0
 37 39  1  0  0  0
 37 47  1  0  0  0
 37 66  1  0  0  0
 37106  1  0  0  0
 38 43  2  0  0  0
 38 46  1  0  0  0
 38 47  1  0  0  0
 39 64  1  0  0  0
 39 67  2  0  0  0
 40 52  1  0  0  0
 40 53  2  0  0  0
 40 58  1  0  0  0
 41107  1  0  0  0
 41108  1  0  0  0
 41109  1  0  0  0
 41 48  1  0  0  0
 42 43  1  0  0  0
 42 66  1  0  0  0
 42110  1  0  0  0
 42111  1  0  0  0
 43 44  1  0  0  0
 44112  1  0  0  0
 45 46  2  0  0  0
 45113  1  0  0  0
 46114  1  0  0  0
 47115  1  0  0  0
 47116  1  0  0  0
 48 56  1  0  0  0
 48 65  1  0  0  0
 48117  1  0  0  0
 49 50  1  0  0  0
 49 53  1  0  0  0
 49 64  1  0  0  0
 49118  1  0  0  0
 50 51  1  0  0  0
 50119  1  0  0  0
 50120  1  0  0  0
 51 52  1  0  0  0
 51121  1  0  0  0
 51122  1  0  0  0
 52123  1  0  0  0
 52124  1  0  0  0
 53 54  1  0  0  0
 54 55  2  0  0  0
 54125  1  0  0  0
 55 57  1  0  0  0
 55126  1  0  0  0
 56 69  2  0  0  0
 57 58  2  0  0  0
 57127  1  0  0  0
 58128  1  0  0  0
 59 60  1  0  0  0
 59 61  1  0  0  0
 59 62  1  0  0  0
 60129  1  0  0  0
 60130  1  0  0  0
 60131  1  0  0  0
 61132  1  0  0  0
 61133  1  0  0  0
 61134  1  0  0  0
 62135  1  0  0  0
 62136  1  0  0  0
 62137  1  0  0  0
 63 65  1  0  0  0
 63138  1  0  0  0
 63139  1  0  0  0
 63140  1  0  0  0
 64141  1  0  0  0
 65142  1  0  0  0
 68 77  1  0  0  0
 71 73  2  0  0  0
 71 78  1  0  0  0
 71143  1  0  0  0
 72 74  1  0  0  0
 72 76  1  0  0  0
 72 79  2  0  0  0
 73 79  1  0  0  0
 73 81  1  0  0  0
 74 78  2  0  0  0
 74 80  1  0  0  0
 75 77  1  0  0  0
 75 81  1  0  0  0
 75 83  2  0  0  0
 76 82  1  0  0  0
 76144  1  0  0  0
 76145  1  0  0  0
 77146  1  0  0  0
 77147  1  0  0  0
 80148  1  0  0  0
 80149  1  0  0  0
 81150  1  0  0  0
 82151  1  0  0  0
M  ISO  4   1 100  68 101  77 101  82 100
M  END
> <chiral flag>
0

> <version>
0

> <s_m_source_file>
/data/baiqing/PycharmProjects/Reinvent-master-3.2/result/LINK_invent/BTK/process_docking_weight1_custom_product_contain_oxygen_bond_distance_aromatic_linkinvent_7_9_3/rearranged_h_0192.sdf

> <i_m_source_file_index>
50

> <r_mmod_Potential_Energy-OPLS-2005>
66.5163421630859

> <r_mmod_Stretch_Energy-OPLS-2005>
140.596405029297

> <r_mmod_Bend_Energy-OPLS-2005>
178.023193359375

> <r_mmod_Torsional_Energy-OPLS-2005>
221.764083862305

> <r_mmod_Improper_Torsional_Energy-OPLS-2005>
8.44220352172852

> <r_mmod_Van_der_Waal_Energy-OPLS-2005>
147.832015991211

> <r_mmod_Electrostatic_Energy-OPLS-2005>
-462.226440429688

> <r_mmod_Solvation_Energy-OPLS-2005>
-265.453887939453

> <b_mmod_Minimization_Converged-OPLS-2005>
0

> <r_mmod_RMS_Derivative-OPLS-2005>
0.543070673942566

$$$$
51
                    3D
 Structure written by MMmdl.
164172  0  0  1  0            999 V2000
  -30.6728  -14.5565   20.5839 C   0  0  0  0  0  0
  -30.4304  -12.3658   19.4429 C   0  0  0  0  0  0
  -29.5047  -12.5139   18.2180 C   0  0  0  0  0  0
  -28.0254  -12.3614   18.6219 C   0  0  0  0  0  0
  -27.6539  -13.2156   19.8651 C   0  0  2  0  0  0
  -28.6914  -13.0371   20.9928 C   0  0  0  0  0  0
  -25.2503  -13.8145   20.5558 C   0  0  0  0  0  0
  -24.1812  -13.0425   20.9174 C   0  0  0  0  0  0
  -24.6378  -11.6906   20.8731 C   0  0  0  0  0  0
  -23.9020  -10.4304   21.0397 C   0  0  0  0  0  0
  -24.3580   -9.4213   21.9137 C   0  0  0  0  0  0
  -23.6285   -8.2245   22.0700 C   0  0  0  0  0  0
  -22.4247   -8.0264   21.3523 C   0  0  0  0  0  0
  -21.9850   -9.0250   20.4677 C   0  0  0  0  0  0
  -22.7157  -10.2155   20.3103 C   0  0  0  0  0  0
  -21.6848   -6.0723   22.5272 C   0  0  0  0  0  0
  -21.4006   -6.5603   23.8212 C   0  0  0  0  0  0
  -21.3698   -5.6762   24.9188 C   0  0  0  0  0  0
  -21.6073   -4.3039   24.7247 C   0  0  0  0  0  0
  -21.8800   -3.8121   23.4356 C   0  0  0  0  0  0
  -21.9179   -4.6942   22.3407 C   0  0  0  0  0  0
  -22.7830  -13.5219   21.1823 C   0  0  0  0  0  0
  -22.1631   -4.2117   21.1005 F   0  0  0  0  0  0
  -21.5681   -3.4526   25.7766 F   0  0  0  0  0  0
  -30.0123  -13.3698   20.4395 N   0  0  0  0  0  0
  -26.2967  -12.9360   20.3287 N   0  0  0  0  0  0
  -25.9303  -11.6500   20.5748 N   0  0  0  0  0  0
  -22.0498  -12.8302   22.0468 N   0  0  0  0  0  0
  -25.4035  -15.1870   20.3753 N   0  0  0  0  0  0
  -31.8229  -14.7192   20.1715 O   0  0  0  0  0  0
  -21.6633   -6.8851   21.4227 O   0  0  0  0  0  0
  -22.3525  -14.5493   20.6625 O   0  0  0  0  0  0
  -24.6236  -31.8619   23.2025 C   0  0  0  0  0  0
  -25.9094  -32.4778   23.8345 C   0  0  1  0  0  0
  -27.2187  -27.3431   20.1246 C   0  0  0  0  0  0
  -25.5946  -33.8579   24.2287 N   0  0  0  0  0  0
  -23.4154  -30.4848   21.5487 C   0  0  2  0  0  0
  -24.8594  -28.9327   20.1227 C   0  0  0  0  0  0
  -22.7455  -29.4634   22.4978 C   0  0  0  0  0  0
  -18.0282  -28.1383   22.8489 C   0  0  0  0  0  0
  -24.1489  -36.7258   23.2634 C   0  0  0  0  0  0
  -25.9527  -30.7984   21.3698 C   0  0  0  0  0  0
  -26.0265  -29.4244   20.7198 C   0  0  0  0  0  0
  -27.2144  -28.6400   20.7097 C   0  0  0  0  0  0
  -26.0359  -26.8855   19.5124 C   0  0  0  0  0  0
  -24.8626  -27.6659   19.5138 C   0  0  0  0  0  0
  -23.6265  -29.8115   20.1663 C   0  0  0  0  0  0
  -25.4123  -36.3074   24.0327 C   0  0  1  0  0  0
  -20.5875  -28.3680   23.1297 C   0  0  2  0  0  0
  -20.6771  -26.9410   22.5422 C   0  0  0  0  0  0
  -19.5752  -26.6385   21.5213 C   0  0  0  0  0  0
  -18.1930  -26.7926   22.1617 C   0  0  0  0  0  0
  -19.1531  -28.8849   23.2886 C   0  0  0  0  0  0
  -18.9453  -30.1453   23.8902 C   0  0  0  0  0  0
  -17.6455  -30.6591   24.0556 C   0  0  0  0  0  0
  -25.9068  -34.9449   23.5109 C   0  0  0  0  0  0
  -16.5348  -29.9091   23.6330 C   0  0  0  0  0  0
  -16.7267  -28.6504   23.0363 C   0  0  0  0  0  0
  -26.4516  -31.6581   25.0695 C   0  0  0  0  0  0
  -25.3752  -31.3729   26.1427 C   0  0  0  0  0  0
  -27.0346  -30.3002   24.6115 C   0  0  0  0  0  0
  -27.6081  -32.4314   25.7469 C   0  0  0  0  0  0
  -27.5582  -37.1785   24.8472 C   0  0  0  0  0  0
  -21.4173  -29.3025   22.3691 N   0  0  0  0  0  0
  -26.4293  -37.3768   23.9422 N   0  0  0  0  0  0
  -24.6827  -31.0655   22.0968 N   0  0  0  0  0  0
  -23.4189  -28.8184   23.3057 O   0  0  0  0  0  0
  -28.3409  -26.5218   20.0876 O   0  0  0  0  0  0
  -26.5611  -34.8919   22.4661 O   0  0  0  0  0  0
  -23.5405  -32.1412   23.7371 O   0  0  0  0  0  0
  -28.0324  -17.8523   20.9875 C   0  0  0  0  0  0
  -29.4051  -18.1303   21.0998 C   0  0  0  0  0  0
  -27.1830  -18.9444   20.7813 C   0  0  0  0  0  0
  -28.9299  -20.4063   20.8179 C   0  0  0  0  0  0
  -28.3963  -22.5470   18.6144 C   0  0  0  0  0  0
  -27.9567  -23.9387   20.7492 C   0  0  0  0  0  0
  -31.0834  -17.1426   22.7520 C   0  0  0  0  0  0
  -28.4216  -25.4289   21.0604 C   0  0  0  0  0  0
  -30.4549  -16.9970   21.3394 C   0  0  1  0  0  0
  -28.9257  -22.9250   20.0108 C   0  0  1  0  0  0
  -29.8319  -19.4304   21.0234 N   0  0  0  0  0  0
  -27.6244  -20.2080   20.7000 N   0  0  0  0  0  0
  -25.8175  -18.7611   20.6485 N   0  0  0  0  0  0
  -29.4082  -21.7275   20.7717 N   0  0  0  0  0  0
  -29.9785  -15.5924   21.1212 N   0  0  0  0  0  0
  -32.1042  -16.1292   23.0953 N   0  3  0  0  0  0
  -31.4737  -12.4851   19.1419 H   0  0  0  0  0  0
  -30.3558  -11.3605   19.8663 H   0  0  0  0  0  0
  -29.7682  -11.7772   17.4586 H   0  0  0  0  0  0
  -29.6628  -13.4932   17.7629 H   0  0  0  0  0  0
  -27.8471  -11.3067   18.8330 H   0  0  0  0  0  0
  -27.3820  -12.6144   17.7788 H   0  0  0  0  0  0
  -27.6907  -14.2599   19.5514 H   0  0  0  0  0  0
  -28.6877  -12.0055   21.3497 H   0  0  0  0  0  0
  -28.4369  -13.6520   21.8565 H   0  0  0  0  0  0
  -25.2698   -9.5692   22.4731 H   0  0  0  0  0  0
  -24.0058   -7.4645   22.7384 H   0  0  0  0  0  0
  -21.0773   -8.8746   19.8998 H   0  0  0  0  0  0
  -22.3544  -10.9734   19.6303 H   0  0  0  0  0  0
  -21.1942   -7.6097   23.9741 H   0  0  0  0  0  0
  -21.1551   -6.0487   25.9100 H   0  0  0  0  0  0
  -22.0532   -2.7569   23.2879 H   0  0  0  0  0  0
  -22.4093  -12.0073   22.5063 H   0  0  0  0  0  0
  -21.1132  -13.1407   22.2637 H   0  0  0  0  0  0
  -26.1904  -15.5912   19.8846 H   0  0  0  0  0  0
  -24.5622  -15.7498   20.3073 H   0  0  0  0  0  0
  -26.7148  -32.5467   23.1085 H   0  0  0  0  0  0
  -25.0135  -33.9730   25.0459 H   0  0  0  0  0  0
  -22.7069  -31.3032   21.4041 H   0  0  0  0  0  0
  -23.3766  -35.9574   23.3318 H   0  0  0  0  0  0
  -24.3565  -36.8850   22.2039 H   0  0  0  0  0  0
  -23.7216  -37.6459   23.6637 H   0  0  0  0  0  0
  -26.0829  -31.5621   20.6016 H   0  0  0  0  0  0
  -26.8332  -30.8478   21.9976 H   0  0  0  0  0  0
  -28.1181  -29.0177   21.1654 H   0  0  0  0  0  0
  -26.0187  -25.9129   19.0423 H   0  0  0  0  0  0
  -23.9621  -27.2814   19.0538 H   0  0  0  0  0  0
  -23.7434  -30.5839   19.4058 H   0  0  0  0  0  0
  -22.7463  -29.2393   19.8641 H   0  0  0  0  0  0
  -25.1298  -36.1933   25.0812 H   0  0  0  0  0  0
  -20.9963  -28.3255   24.1412 H   0  0  0  0  0  0
  -20.5682  -26.2278   23.3614 H   0  0  0  0  0  0
  -21.6640  -26.7455   22.1202 H   0  0  0  0  0  0
  -19.6927  -25.6297   21.1236 H   0  0  0  0  0  0
  -19.6696  -27.3197   20.6748 H   0  0  0  0  0  0
  -17.4203  -26.6670   21.4023 H   0  0  0  0  0  0
  -18.0339  -26.0062   22.9007 H   0  0  0  0  0  0
  -19.7931  -30.7266   24.2272 H   0  0  0  0  0  0
  -17.5013  -31.6271   24.5153 H   0  0  0  0  0  0
  -15.5352  -30.2997   23.7658 H   0  0  0  0  0  0
  -15.8658  -28.0821   22.7101 H   0  0  0  0  0  0
  -24.5920  -30.7083   25.7774 H   0  0  0  0  0  0
  -24.8954  -32.2901   26.4843 H   0  0  0  0  0  0
  -25.8079  -30.8918   27.0199 H   0  0  0  0  0  0
  -26.2892  -29.6752   24.1169 H   0  0  0  0  0  0
  -27.4106  -29.7263   25.4601 H   0  0  0  0  0  0
  -27.8750  -30.4311   23.9287 H   0  0  0  0  0  0
  -27.2688  -33.3607   26.2059 H   0  0  0  0  0  0
  -28.3885  -32.6880   25.0292 H   0  0  0  0  0  0
  -28.0742  -31.8410   26.5367 H   0  0  0  0  0  0
  -28.2620  -38.0066   24.7517 H   0  0  0  0  0  0
  -28.1066  -36.2599   24.6323 H   0  0  0  0  0  0
  -27.2287  -37.1448   25.8871 H   0  0  0  0  0  0
  -20.9374  -29.8690   21.6839 H   0  0  0  0  0  0
  -26.0183  -38.2844   24.1438 H   0  0  0  0  0  0
  -27.6459  -16.8486   21.0681 H   0  0  0  0  0  0
  -28.1676  -23.4376   18.0282 H   0  0  0  0  0  0
  -27.4754  -21.9645   18.6711 H   0  0  0  0  0  0
  -29.1257  -21.9660   18.0498 H   0  0  0  0  0  0
  -26.9935  -23.9743   20.2394 H   0  0  0  0  0  0
  -27.7181  -23.4895   21.7137 H   0  0  0  0  0  0
  -30.3037  -17.1087   23.5145 H   0  0  0  0  0  0
  -31.5411  -18.1293   22.8357 H   0  0  0  0  0  0
  -29.4563  -25.3924   21.4032 H   0  0  0  0  0  0
  -27.8648  -25.7551   21.9417 H   0  0  0  0  0  0
  -31.2435  -17.1923   20.6097 H   0  0  0  0  0  0
  -29.8447  -23.4815   19.8257 H   0  0  0  0  0  0
  -25.4163  -17.8916   20.9802 H   0  0  0  0  0  0
  -25.2232  -19.5682   20.7810 H   0  0  0  0  0  0
  -30.4049  -21.7638   20.9531 H   0  0  0  0  0  0
  -29.0095  -15.4187   21.3350 H   0  0  0  0  0  0
  -32.6234  -16.4446   23.8960 H   0  0  0  0  0  0
  -32.7570  -15.9874   22.3438 H   0  0  0  0  0  0
  -31.6825  -15.2485   23.3321 H   0  0  0  0  0  0
  1 25  1  0  0  0
  1 30  2  0  0  0
  1 85  1  0  0  0
  2  3  1  0  0  0
  2 25  1  0  0  0
  2 87  1  0  0  0
  2 88  1  0  0  0
  3  4  1  0  0  0
  3 89  1  0  0  0
  3 90  1  0  0  0
  4  5  1  0  0  0
  4 91  1  0  0  0
  4 92  1  0  0  0
  5  6  1  0  0  0
  5 26  1  0  0  0
  5 93  1  0  0  0
  6 25  1  0  0  0
  6 94  1  0  0  0
  6 95  1  0  0  0
  7  8  2  0  0  0
  7 26  1  0  0  0
  7 29  1  0  0  0
  8  9  1  0  0  0
  8 22  1  0  0  0
  9 10  1  0  0  0
  9 27  2  0  0  0
 10 11  2  0  0  0
 10 15  1  0  0  0
 11 12  1  0  0  0
 11 96  1  0  0  0
 12 13  2  0  0  0
 12 97  1  0  0  0
 13 14  1  0  0  0
 13 31  1  0  0  0
 14 15  2  0  0  0
 14 98  1  0  0  0
 15 99  1  0  0  0
 16 17  2  0  0  0
 16 21  1  0  0  0
 16 31  1  0  0  0
 17 18  1  0  0  0
 17100  1  0  0  0
 18 19  2  0  0  0
 18101  1  0  0  0
 19 20  1  0  0  0
 19 24  1  0  0  0
 20 21  2  0  0  0
 20102  1  0  0  0
 21 23  1  0  0  0
 22 28  1  0  0  0
 22 32  2  0  0  0
 26 27  1  0  0  0
 28103  1  0  0  0
 28104  1  0  0  0
 29105  1  0  0  0
 29106  1  0  0  0
 33 34  1  0  0  0
 33 66  1  0  0  0
 33 70  2  0  0  0
 34 36  1  0  0  0
 34 59  1  0  0  0
 34107  1  0  0  0
 35 44  2  0  0  0
 35 45  1  0  0  0
 35 68  1  0  0  0
 36 56  1  0  0  0
 36108  1  0  0  0
 37 39  1  0  0  0
 37 47  1  0  0  0
 37 66  1  0  0  0
 37109  1  0  0  0
 38 43  2  0  0  0
 38 46  1  0  0  0
 38 47  1  0  0  0
 39 64  1  0  0  0
 39 67  2  0  0  0
 40 52  1  0  0  0
 40 53  2  0  0  0
 40 58  1  0  0  0
 41110  1  0  0  0
 41111  1  0  0  0
 41112  1  0  0  0
 41 48  1  0  0  0
 42 43  1  0  0  0
 42 66  1  0  0  0
 42113  1  0  0  0
 42114  1  0  0  0
 43 44  1  0  0  0
 44115  1  0  0  0
 45 46  2  0  0  0
 45116  1  0  0  0
 46117  1  0  0  0
 47118  1  0  0  0
 47119  1  0  0  0
 48 56  1  0  0  0
 48 65  1  0  0  0
 48120  1  0  0  0
 49 50  1  0  0  0
 49 53  1  0  0  0
 49 64  1  0  0  0
 49121  1  0  0  0
 50 51  1  0  0  0
 50122  1  0  0  0
 50123  1  0  0  0
 51 52  1  0  0  0
 51124  1  0  0  0
 51125  1  0  0  0
 52126  1  0  0  0
 52127  1  0  0  0
 53 54  1  0  0  0
 54 55  2  0  0  0
 54128  1  0  0  0
 55 57  1  0  0  0
 55129  1  0  0  0
 56 69  2  0  0  0
 57 58  2  0  0  0
 57130  1  0  0  0
 58131  1  0  0  0
 59 60  1  0  0  0
 59 61  1  0  0  0
 59 62  1  0  0  0
 60132  1  0  0  0
 60133  1  0  0  0
 60134  1  0  0  0
 61135  1  0  0  0
 61136  1  0  0  0
 61137  1  0  0  0
 62138  1  0  0  0
 62139  1  0  0  0
 62140  1  0  0  0
 63 65  1  0  0  0
 63141  1  0  0  0
 63142  1  0  0  0
 63143  1  0  0  0
 64144  1  0  0  0
 65145  1  0  0  0
 68 78  1  0  0  0
 71 72  2  0  0  0
 71 73  1  0  0  0
 71146  1  0  0  0
 72 79  1  0  0  0
 72 81  1  0  0  0
 73 82  2  0  0  0
 73 83  1  0  0  0
 74 81  2  0  0  0
 74 82  1  0  0  0
 74 84  1  0  0  0
 75147  1  0  0  0
 75148  1  0  0  0
 75149  1  0  0  0
 75 80  1  0  0  0
 76 78  1  0  0  0
 76 80  1  0  0  0
 76150  1  0  0  0
 76151  1  0  0  0
 77 86  1  0  0  0
 77152  1  0  0  0
 77153  1  0  0  0
 77 79  1  0  0  0
 78154  1  0  0  0
 78155  1  0  0  0
 79 85  1  0  0  0
 79156  1  0  0  0
 80 84  1  0  0  0
 80157  1  0  0  0
 83158  1  0  0  0
 83159  1  0  0  0
 84160  1  0  0  0
 85161  1  0  0  0
 86162  1  0  0  0
 86163  1  0  0  0
 86164  1  0  0  0
M  CHG  1  86   1
M  ISO  4   1 100  68 101  78 101  85 100
M  END
> <chiral flag>
0

> <version>
0

> <s_m_source_file>
/data/baiqing/PycharmProjects/Reinvent-master-3.2/result/LINK_invent/BTK/process_docking_weight1_custom_product_contain_oxygen_bond_distance_aromatic_linkinvent_7_9_3/rearranged_h_0192.sdf

> <i_m_source_file_index>
51

> <r_mmod_Potential_Energy-OPLS-2005>
-1006.56842041016

> <r_mmod_Stretch_Energy-OPLS-2005>
63.2875328063965

> <r_mmod_Bend_Energy-OPLS-2005>
151.553665161133

> <r_mmod_Torsional_Energy-OPLS-2005>
265.725494384766

> <r_mmod_Improper_Torsional_Energy-OPLS-2005>
9.42042064666748

> <r_mmod_Van_der_Waal_Energy-OPLS-2005>
142.04963684082

> <r_mmod_Electrostatic_Energy-OPLS-2005>
-1140.43615722656

> <r_mmod_Solvation_Energy-OPLS-2005>
-529.682983398438

> <b_mmod_Minimization_Converged-OPLS-2005>
0

> <r_mmod_RMS_Derivative-OPLS-2005>
4.10119104385376

$$$$
52
                    3D
 Structure written by MMmdl.
155163  0  0  1  0            999 V2000
  -30.6588  -14.5730   20.4785 C   0  0  0  0  0  0
  -30.4256  -12.3407   19.4417 C   0  0  0  0  0  0
  -29.5004  -12.4890   18.2142 C   0  0  0  0  0  0
  -28.0241  -12.3408   18.6310 C   0  0  0  0  0  0
  -27.6557  -13.2103   19.8631 C   0  0  2  0  0  0
  -28.7012  -13.0576   20.9908 C   0  0  0  0  0  0
  -25.2579  -13.8160   20.5635 C   0  0  0  0  0  0
  -24.1842  -13.0440   20.9183 C   0  0  0  0  0  0
  -24.6403  -11.6910   20.8761 C   0  0  0  0  0  0
  -23.9063  -10.4287   21.0433 C   0  0  0  0  0  0
  -24.3623   -9.4207   21.9202 C   0  0  0  0  0  0
  -23.6299   -8.2242   22.0772 C   0  0  0  0  0  0
  -22.4277   -8.0280   21.3556 C   0  0  0  0  0  0
  -21.9918   -9.0256   20.4659 C   0  0  0  0  0  0
  -22.7250  -10.2133   20.3069 C   0  0  0  0  0  0
  -21.6847   -6.0736   22.5289 C   0  0  0  0  0  0
  -21.4013   -6.5644   23.8217 C   0  0  0  0  0  0
  -21.3651   -5.6799   24.9178 C   0  0  0  0  0  0
  -21.6039   -4.3062   24.7234 C   0  0  0  0  0  0
  -21.8817   -3.8151   23.4351 C   0  0  0  0  0  0
  -21.9196   -4.6965   22.3407 C   0  0  0  0  0  0
  -22.7864  -13.5241   21.1844 C   0  0  0  0  0  0
  -22.1664   -4.2147   21.0988 F   0  0  0  0  0  0
  -21.5622   -3.4548   25.7741 F   0  0  0  0  0  0
  -30.0219  -13.3652   20.4213 N   0  0  0  0  0  0
  -26.3009  -12.9333   20.3330 N   0  0  0  0  0  0
  -25.9331  -11.6489   20.5791 N   0  0  0  0  0  0
  -22.0506  -12.8236   22.0393 N   0  0  0  0  0  0
  -25.4325  -15.1866   20.3939 N   0  0  0  0  0  0
  -31.8307  -14.6948   20.1080 O   0  0  0  0  0  0
  -21.6645   -6.8880   21.4243 O   0  0  0  0  0  0
  -22.3562  -14.5562   20.6698 O   0  0  0  0  0  0
  -24.6209  -31.8595   23.2027 C   0  0  0  0  0  0
  -25.9064  -32.4791   23.8347 C   0  0  1  0  0  0
  -27.2420  -27.3654   20.1046 C   0  0  0  0  0  0
  -25.5890  -33.8601   24.2269 N   0  0  0  0  0  0
  -23.4143  -30.4783   21.5450 C   0  0  2  0  0  0
  -24.8615  -28.9347   20.1078 C   0  0  0  0  0  0
  -22.7437  -29.4604   22.4970 C   0  0  0  0  0  0
  -18.0258  -28.1382   22.8497 C   0  0  0  0  0  0
  -24.1493  -36.7301   23.2654 C   0  0  0  0  0  0
  -25.9478  -30.7997   21.3684 C   0  0  0  0  0  0
  -26.0214  -29.4282   20.7160 C   0  0  0  0  0  0
  -27.2069  -28.6491   20.7177 C   0  0  0  0  0  0
  -26.0600  -26.8997   19.4891 C   0  0  0  0  0  0
  -24.8797  -27.6709   19.4918 C   0  0  0  0  0  0
  -23.6237  -29.8042   20.1615 C   0  0  0  0  0  0
  -25.4120  -36.3097   24.0332 C   0  0  1  0  0  0
  -20.5861  -28.3654   23.1317 C   0  0  2  0  0  0
  -20.6764  -26.9382   22.5430 C   0  0  0  0  0  0
  -19.5747  -26.6362   21.5238 C   0  0  0  0  0  0
  -18.1906  -26.7932   22.1597 C   0  0  0  0  0  0
  -19.1518  -28.8836   23.2897 C   0  0  0  0  0  0
  -18.9440  -30.1449   23.8896 C   0  0  0  0  0  0
  -17.6449  -30.6590   24.0570 C   0  0  0  0  0  0
  -25.9039  -34.9468   23.5098 C   0  0  0  0  0  0
  -16.5334  -29.9093   23.6350 C   0  0  0  0  0  0
  -16.7246  -28.6512   23.0353 C   0  0  0  0  0  0
  -26.4466  -31.6608   25.0716 C   0  0  0  0  0  0
  -25.3708  -31.3750   26.1461 C   0  0  0  0  0  0
  -27.0316  -30.3050   24.6136 C   0  0  0  0  0  0
  -27.6041  -32.4343   25.7468 C   0  0  0  0  0  0
  -27.5589  -37.1805   24.8463 C   0  0  0  0  0  0
  -21.4152  -29.3020   22.3731 N   0  0  0  0  0  0
  -26.4305  -37.3782   23.9410 N   0  0  0  0  0  0
  -24.6796  -31.0634   22.0949 N   0  0  0  0  0  0
  -23.4175  -28.8136   23.3042 O   0  0  0  0  0  0
  -28.4100  -26.6086   20.1604 O   0  0  0  0  0  0
  -26.5633  -34.8933   22.4678 O   0  0  0  0  0  0
  -23.5381  -32.1350   23.7392 O   0  0  0  0  0  0
  -29.0914  -18.0407   20.9094 C   0  0  0  0  0  0
  -29.6713  -19.2493   20.5794 C   0  0  0  0  0  0
  -30.0799  -17.0544   20.5795 C   0  0  0  0  0  0
  -29.0353  -20.6052   20.8450 C   0  0  0  0  0  0
  -31.9947  -19.8575   19.6276 C   0  0  0  0  0  0
  -29.2505  -23.1511   20.6401 C   0  0  0  0  0  0
  -28.6112  -25.4340   19.3203 C   0  0  0  0  0  0
  -28.1988  -23.9856   19.8144 C   0  0  1  0  0  0
  -31.1699  -17.6219   20.0669 N   0  0  0  0  0  0
  -30.9360  -18.9664   20.0728 N   0  0  0  0  0  0
  -29.8719  -15.6398   20.7923 N   0  0  0  0  0  0
  -29.4937  -21.7258   20.2315 N   0  0  0  0  0  0
  -28.0847  -20.6742   21.6277 O   0  0  0  0  0  0
  -27.8702  -23.2121   18.6729 O   0  0  0  0  0  0
  -31.4717  -12.4341   19.1432 H   0  0  0  0  0  0
  -30.3281  -11.3440   19.8760 H   0  0  0  0  0  0
  -29.7518  -11.7407   17.4616 H   0  0  0  0  0  0
  -29.6547  -13.4606   17.7409 H   0  0  0  0  0  0
  -27.8555  -11.2881   18.8612 H   0  0  0  0  0  0
  -27.3666  -12.5754   17.7937 H   0  0  0  0  0  0
  -27.6803  -14.2457   19.5244 H   0  0  0  0  0  0
  -28.6932  -12.0412   21.3889 H   0  0  0  0  0  0
  -28.4610  -13.7071   21.8337 H   0  0  0  0  0  0
  -25.2771   -9.5665   22.4777 H   0  0  0  0  0  0
  -24.0002   -7.4623   22.7485 H   0  0  0  0  0  0
  -21.0856   -8.8774   19.8960 H   0  0  0  0  0  0
  -22.3731  -10.9663   19.6172 H   0  0  0  0  0  0
  -21.2008   -7.6159   23.9717 H   0  0  0  0  0  0
  -21.1465   -6.0535   25.9076 H   0  0  0  0  0  0
  -22.0599   -2.7612   23.2859 H   0  0  0  0  0  0
  -22.4114  -11.9871   22.4736 H   0  0  0  0  0  0
  -21.1137  -13.1274   22.2628 H   0  0  0  0  0  0
  -24.6559  -15.8357   20.4536 H   0  0  0  0  0  0
  -26.2616  -15.6013   19.9897 H   0  0  0  0  0  0
  -26.7138  -32.5461   23.1110 H   0  0  0  0  0  0
  -25.0104  -33.9782   25.0462 H   0  0  0  0  0  0
  -22.7077  -31.2963   21.3979 H   0  0  0  0  0  0
  -23.3776  -35.9612   23.3293 H   0  0  0  0  0  0
  -24.3598  -36.8921   22.2069 H   0  0  0  0  0  0
  -23.7211  -37.6489   23.6680 H   0  0  0  0  0  0
  -26.0744  -31.5606   20.5962 H   0  0  0  0  0  0
  -26.8334  -30.8519   21.9913 H   0  0  0  0  0  0
  -28.0960  -29.0254   21.2038 H   0  0  0  0  0  0
  -26.0247  -25.9262   19.0218 H   0  0  0  0  0  0
  -23.9861  -27.2817   19.0225 H   0  0  0  0  0  0
  -23.7266  -30.5738   19.3960 H   0  0  0  0  0  0
  -22.7488  -29.2181   19.8733 H   0  0  0  0  0  0
  -25.1296  -36.1961   25.0822 H   0  0  0  0  0  0
  -20.9924  -28.3198   24.1436 H   0  0  0  0  0  0
  -20.5667  -26.2248   23.3614 H   0  0  0  0  0  0
  -21.6626  -26.7422   22.1199 H   0  0  0  0  0  0
  -19.6930  -25.6270   21.1256 H   0  0  0  0  0  0
  -19.6725  -27.3190   20.6787 H   0  0  0  0  0  0
  -17.4197  -26.6700   21.3980 H   0  0  0  0  0  0
  -18.0258  -26.0066   22.8972 H   0  0  0  0  0  0
  -19.7934  -30.7263   24.2228 H   0  0  0  0  0  0
  -17.5024  -31.6288   24.5157 H   0  0  0  0  0  0
  -15.5346  -30.3008   23.7718 H   0  0  0  0  0  0
  -15.8618  -28.0868   22.7051 H   0  0  0  0  0  0
  -24.5870  -30.7104   25.7812 H   0  0  0  0  0  0
  -24.8937  -32.2928   26.4904 H   0  0  0  0  0  0
  -25.8043  -30.8922   27.0226 H   0  0  0  0  0  0
  -26.2872  -29.6803   24.1192 H   0  0  0  0  0  0
  -27.4089  -29.7297   25.4597 H   0  0  0  0  0  0
  -27.8692  -30.4377   23.9289 H   0  0  0  0  0  0
  -27.2665  -33.3661   26.2017 H   0  0  0  0  0  0
  -28.3862  -32.6859   25.0295 H   0  0  0  0  0  0
  -28.0704  -31.8488   26.5398 H   0  0  0  0  0  0
  -28.2594  -38.0114   24.7514 H   0  0  0  0  0  0
  -28.1078  -36.2643   24.6259 H   0  0  0  0  0  0
  -27.2312  -37.1392   25.8865 H   0  0  0  0  0  0
  -20.9308  -29.8772   21.6980 H   0  0  0  0  0  0
  -26.0182  -38.2858   24.1420 H   0  0  0  0  0  0
  -28.1122  -17.9027   21.3434 H   0  0  0  0  0  0
  -32.1984  -20.5990   20.4005 H   0  0  0  0  0  0
  -31.7023  -20.3594   18.7050 H   0  0  0  0  0  0
  -32.9158  -19.3008   19.4403 H   0  0  0  0  0  0
  -28.9624  -23.1833   21.6927 H   0  0  0  0  0  0
  -30.2161  -23.6588   20.6052 H   0  0  0  0  0  0
  -28.1476  -25.6359   18.3535 H   0  0  0  0  0  0
  -29.6748  -25.4119   19.0793 H   0  0  0  0  0  0
  -27.2829  -24.0615   20.4011 H   0  0  0  0  0  0
  -28.9506  -15.3871   21.1096 H   0  0  0  0  0  0
  -30.2306  -21.5888   19.5538 H   0  0  0  0  0  0
  -27.9375  -22.3018   18.9486 H   0  0  0  0  0  0
  1 25  1  0  0  0
  1 30  2  0  0  0
  1 81  1  0  0  0
  2  3  1  0  0  0
  2 25  1  0  0  0
  2 85  1  0  0  0
  2 86  1  0  0  0
  3  4  1  0  0  0
  3 87  1  0  0  0
  3 88  1  0  0  0
  4  5  1  0  0  0
  4 89  1  0  0  0
  4 90  1  0  0  0
  5  6  1  0  0  0
  5 26  1  0  0  0
  5 91  1  0  0  0
  6 25  1  0  0  0
  6 92  1  0  0  0
  6 93  1  0  0  0
  7  8  2  0  0  0
  7 26  1  0  0  0
  7 29  1  0  0  0
  8  9  1  0  0  0
  8 22  1  0  0  0
  9 10  1  0  0  0
  9 27  2  0  0  0
 10 11  2  0  0  0
 10 15  1  0  0  0
 11 12  1  0  0  0
 11 94  1  0  0  0
 12 13  2  0  0  0
 12 95  1  0  0  0
 13 14  1  0  0  0
 13 31  1  0  0  0
 14 15  2  0  0  0
 14 96  1  0  0  0
 15 97  1  0  0  0
 16 17  2  0  0  0
 16 21  1  0  0  0
 16 31  1  0  0  0
 17 18  1  0  0  0
 17 98  1  0  0  0
 18 19  2  0  0  0
 18 99  1  0  0  0
 19 20  1  0  0  0
 19 24  1  0  0  0
 20 21  2  0  0  0
 20100  1  0  0  0
 21 23  1  0  0  0
 22 28  1  0  0  0
 22 32  2  0  0  0
 26 27  1  0  0  0
 28101  1  0  0  0
 28102  1  0  0  0
 29103  1  0  0  0
 29104  1  0  0  0
 33 34  1  0  0  0
 33 66  1  0  0  0
 33 70  2  0  0  0
 34 36  1  0  0  0
 34 59  1  0  0  0
 34105  1  0  0  0
 35 44  2  0  0  0
 35 45  1  0  0  0
 35 68  1  0  0  0
 36 56  1  0  0  0
 36106  1  0  0  0
 37 39  1  0  0  0
 37 47  1  0  0  0
 37 66  1  0  0  0
 37107  1  0  0  0
 38 43  2  0  0  0
 38 46  1  0  0  0
 38 47  1  0  0  0
 39 64  1  0  0  0
 39 67  2  0  0  0
 40 52  1  0  0  0
 40 53  2  0  0  0
 40 58  1  0  0  0
 41108  1  0  0  0
 41109  1  0  0  0
 41110  1  0  0  0
 41 48  1  0  0  0
 42 43  1  0  0  0
 42 66  1  0  0  0
 42111  1  0  0  0
 42112  1  0  0  0
 43 44  1  0  0  0
 44113  1  0  0  0
 45 46  2  0  0  0
 45114  1  0  0  0
 46115  1  0  0  0
 47116  1  0  0  0
 47117  1  0  0  0
 48 56  1  0  0  0
 48 65  1  0  0  0
 48118  1  0  0  0
 49 50  1  0  0  0
 49 53  1  0  0  0
 49 64  1  0  0  0
 49119  1  0  0  0
 50 51  1  0  0  0
 50120  1  0  0  0
 50121  1  0  0  0
 51 52  1  0  0  0
 51122  1  0  0  0
 51123  1  0  0  0
 52124  1  0  0  0
 52125  1  0  0  0
 53 54  1  0  0  0
 54 55  2  0  0  0
 54126  1  0  0  0
 55 57  1  0  0  0
 55127  1  0  0  0
 56 69  2  0  0  0
 57 58  2  0  0  0
 57128  1  0  0  0
 58129  1  0  0  0
 59 60  1  0  0  0
 59 61  1  0  0  0
 59 62  1  0  0  0
 60130  1  0  0  0
 60131  1  0  0  0
 60132  1  0  0  0
 61133  1  0  0  0
 61134  1  0  0  0
 61135  1  0  0  0
 62136  1  0  0  0
 62137  1  0  0  0
 62138  1  0  0  0
 63 65  1  0  0  0
 63139  1  0  0  0
 63140  1  0  0  0
 63141  1  0  0  0
 64142  1  0  0  0
 65143  1  0  0  0
 68 77  1  0  0  0
 71 72  2  0  0  0
 71 73  1  0  0  0
 71144  1  0  0  0
 72 74  1  0  0  0
 72 80  1  0  0  0
 73 79  2  0  0  0
 73 81  1  0  0  0
 74 82  1  0  0  0
 74 83  2  0  0  0
 75 80  1  0  0  0
 75145  1  0  0  0
 75146  1  0  0  0
 75147  1  0  0  0
 76 78  1  0  0  0
 76 82  1  0  0  0
 76148  1  0  0  0
 76149  1  0  0  0
 77 78  1  0  0  0
 77150  1  0  0  0
 77151  1  0  0  0
 78 84  1  0  0  0
 78152  1  0  0  0
 79 80  1  0  0  0
 81153  1  0  0  0
 82154  1  0  0  0
 84155  1  0  0  0
M  ISO  4   1 100  68 101  77 101  81 100
M  END
> <chiral flag>
0

> <version>
0

> <s_m_source_file>
/data/baiqing/PycharmProjects/Reinvent-master-3.2/result/LINK_invent/BTK/process_docking_weight1_custom_product_contain_oxygen_bond_distance_aromatic_linkinvent_7_9_3/rearranged_h_0192.sdf

> <i_m_source_file_index>
52

> <r_mmod_Potential_Energy-OPLS-2005>
-107.665679931641

> <r_mmod_Stretch_Energy-OPLS-2005>
57.9254493713379

> <r_mmod_Bend_Energy-OPLS-2005>
143.889572143555

> <r_mmod_Torsional_Energy-OPLS-2005>
244.626251220703

> <r_mmod_Improper_Torsional_Energy-OPLS-2005>
5.44786977767944

> <r_mmod_Van_der_Waal_Energy-OPLS-2005>
129.540740966797

> <r_mmod_Electrostatic_Energy-OPLS-2005>
-446.319915771484

> <r_mmod_Solvation_Energy-OPLS-2005>
-273.356903076172

> <b_mmod_Minimization_Converged-OPLS-2005>
0

> <r_mmod_RMS_Derivative-OPLS-2005>
3.11387634277344

$$$$
53
                    3D
 Structure written by MMmdl.
155163  0  0  1  0            999 V2000
  -30.6724  -14.5310   20.4753 C   0  0  0  0  0  0
  -30.4157  -12.3116   19.4523 C   0  0  0  0  0  0
  -29.5048  -12.4896   18.2187 C   0  0  0  0  0  0
  -28.0187  -12.3667   18.6157 C   0  0  0  0  0  0
  -27.6540  -13.2195   19.8624 C   0  0  2  0  0  0
  -28.6930  -13.0516   20.9952 C   0  0  0  0  0  0
  -25.2560  -13.8200   20.5702 C   0  0  0  0  0  0
  -24.1832  -13.0456   20.9189 C   0  0  0  0  0  0
  -24.6405  -11.6923   20.8742 C   0  0  0  0  0  0
  -23.9087  -10.4310   21.0382 C   0  0  0  0  0  0
  -24.3646   -9.4221   21.9162 C   0  0  0  0  0  0
  -23.6313   -8.2257   22.0743 C   0  0  0  0  0  0
  -22.4304   -8.0295   21.3516 C   0  0  0  0  0  0
  -21.9922   -9.0279   20.4637 C   0  0  0  0  0  0
  -22.7249  -10.2147   20.3027 C   0  0  0  0  0  0
  -21.6868   -6.0735   22.5276 C   0  0  0  0  0  0
  -21.4035   -6.5644   23.8203 C   0  0  0  0  0  0
  -21.3651   -5.6785   24.9167 C   0  0  0  0  0  0
  -21.6042   -4.3050   24.7211 C   0  0  0  0  0  0
  -21.8814   -3.8144   23.4331 C   0  0  0  0  0  0
  -21.9209   -4.6968   22.3385 C   0  0  0  0  0  0
  -22.7843  -13.5241   21.1848 C   0  0  0  0  0  0
  -22.1660   -4.2136   21.0971 F   0  0  0  0  0  0
  -21.5628   -3.4534   25.7727 F   0  0  0  0  0  0
  -30.0219  -13.3360   20.4345 N   0  0  0  0  0  0
  -26.2990  -12.9382   20.3305 N   0  0  0  0  0  0
  -25.9323  -11.6531   20.5736 N   0  0  0  0  0  0
  -22.0497  -12.8232   22.0410 N   0  0  0  0  0  0
  -25.4274  -15.1920   20.4111 N   0  0  0  0  0  0
  -31.8562  -14.6418   20.1404 O   0  0  0  0  0  0
  -21.6653   -6.8894   21.4239 O   0  0  0  0  0  0
  -22.3516  -14.5517   20.6669 O   0  0  0  0  0  0
  -24.6165  -31.8663   23.2062 C   0  0  0  0  0  0
  -25.9038  -32.4813   23.8375 C   0  0  1  0  0  0
  -27.2159  -27.3981   20.1200 C   0  0  0  0  0  0
  -25.5886  -33.8616   24.2276 N   0  0  0  0  0  0
  -23.4073  -30.4880   21.5473 C   0  0  2  0  0  0
  -24.8512  -28.9487   20.1147 C   0  0  0  0  0  0
  -22.7418  -29.4658   22.4970 C   0  0  0  0  0  0
  -18.0271  -28.1393   22.8485 C   0  0  0  0  0  0
  -24.1483  -36.7322   23.2638 C   0  0  0  0  0  0
  -25.9402  -30.8206   21.3692 C   0  0  0  0  0  0
  -26.0140  -29.4552   20.7117 C   0  0  0  0  0  0
  -27.2047  -28.6879   20.7065 C   0  0  0  0  0  0
  -26.0398  -26.9099   19.5208 C   0  0  0  0  0  0
  -24.8606  -27.6774   19.5133 C   0  0  0  0  0  0
  -23.6175  -29.8208   20.1623 C   0  0  0  0  0  0
  -25.4107  -36.3109   24.0323 C   0  0  1  0  0  0
  -20.5867  -28.3685   23.1309 C   0  0  2  0  0  0
  -20.6762  -26.9423   22.5416 C   0  0  0  0  0  0
  -19.5743  -26.6383   21.5215 C   0  0  0  0  0  0
  -18.1918  -26.7932   22.1623 C   0  0  0  0  0  0
  -19.1525  -28.8844   23.2895 C   0  0  0  0  0  0
  -18.9458  -30.1451   23.8894 C   0  0  0  0  0  0
  -17.6471  -30.6601   24.0572 C   0  0  0  0  0  0
  -25.9045  -34.9483   23.5101 C   0  0  0  0  0  0
  -16.5355  -29.9119   23.6330 C   0  0  0  0  0  0
  -16.7266  -28.6543   23.0330 C   0  0  0  0  0  0
  -26.4437  -31.6630   25.0746 C   0  0  0  0  0  0
  -25.3693  -31.3802   26.1504 C   0  0  0  0  0  0
  -27.0292  -30.3048   24.6222 C   0  0  0  0  0  0
  -27.5994  -32.4385   25.7515 C   0  0  0  0  0  0
  -27.5588  -37.1802   24.8442 C   0  0  0  0  0  0
  -21.4146  -29.3054   22.3715 N   0  0  0  0  0  0
  -26.4276  -37.3810   23.9425 N   0  0  0  0  0  0
  -24.6723  -31.0736   22.0987 N   0  0  0  0  0  0
  -23.4158  -28.8192   23.3029 O   0  0  0  0  0  0
  -28.3438  -26.6048   20.1266 O   0  0  0  0  0  0
  -26.5635  -34.8957   22.4684 O   0  0  0  0  0  0
  -23.5348  -32.1432   23.7425 O   0  0  0  0  0  0
  -30.5615  -16.9962   18.7725 C   0  0  0  0  0  0
  -30.7568  -18.2414   18.1593 C   0  0  0  0  0  0
  -30.4130  -19.4172   18.8445 C   0  0  0  0  0  0
  -30.0404  -16.9241   20.0839 C   0  0  0  0  0  0
  -29.8256  -19.2910   20.1257 C   0  0  0  0  0  0
  -28.2042  -24.0344   20.1585 C   0  0  0  0  0  0
  -28.5103  -21.3861   20.4069 C   0  0  0  0  0  0
  -28.2552  -25.3974   20.9272 C   0  0  0  0  0  0
  -28.8555  -22.8271   20.9185 C   0  0  1  0  0  0
  -29.6383  -18.0706   20.7126 N   0  0  0  0  0  0
  -29.9008  -15.6272   20.6971 N   0  0  0  0  0  0
  -29.4975  -20.4179   20.9111 N   0  0  0  0  0  0
  -30.2735  -22.9446   20.8514 O   0  0  0  0  0  0
  -31.3044  -18.3015   16.9195 F   0  0  0  0  0  0
  -30.7642  -20.9497   18.1135 Cl  0  0  0  0  0  0
  -31.4654  -12.3913   19.1671 H   0  0  0  0  0  0
  -30.2985  -11.3140   19.8777 H   0  0  0  0  0  0
  -29.7544  -11.7439   17.4620 H   0  0  0  0  0  0
  -29.6879  -13.4643   17.7598 H   0  0  0  0  0  0
  -27.8168  -11.3145   18.8167 H   0  0  0  0  0  0
  -27.3795  -12.6414   17.7738 H   0  0  0  0  0  0
  -27.6828  -14.2606   19.5409 H   0  0  0  0  0  0
  -28.6672  -12.0365   21.3914 H   0  0  0  0  0  0
  -28.4641  -13.7081   21.8354 H   0  0  0  0  0  0
  -25.2775   -9.5726   22.4743 H   0  0  0  0  0  0
  -24.0028   -7.4657   22.7467 H   0  0  0  0  0  0
  -21.0835   -8.8788   19.8962 H   0  0  0  0  0  0
  -22.3677  -10.9695   19.6152 H   0  0  0  0  0  0
  -21.2021   -7.6147   23.9709 H   0  0  0  0  0  0
  -21.1482   -6.0513   25.9068 H   0  0  0  0  0  0
  -22.0603   -2.7612   23.2828 H   0  0  0  0  0  0
  -22.4109  -11.9909   22.4822 H   0  0  0  0  0  0
  -21.1094  -13.1255   22.2600 H   0  0  0  0  0  0
  -24.6660  -15.8507   20.5404 H   0  0  0  0  0  0
  -26.2782  -15.6387   20.0939 H   0  0  0  0  0  0
  -26.7126  -32.5498   23.1157 H   0  0  0  0  0  0
  -24.9973  -33.9762   25.0376 H   0  0  0  0  0  0
  -22.6991  -31.3066   21.4035 H   0  0  0  0  0  0
  -23.3759  -35.9640   23.3259 H   0  0  0  0  0  0
  -24.3585  -36.8979   22.2060 H   0  0  0  0  0  0
  -23.7203  -37.6495   23.6700 H   0  0  0  0  0  0
  -26.0676  -31.5890   20.6061 H   0  0  0  0  0  0
  -26.8223  -30.8602   21.9985 H   0  0  0  0  0  0
  -28.1031  -29.0652   21.1747 H   0  0  0  0  0  0
  -26.0361  -25.9283   19.0698 H   0  0  0  0  0  0
  -23.9667  -27.2762   19.0544 H   0  0  0  0  0  0
  -23.7353  -30.5940   19.4013 H   0  0  0  0  0  0
  -22.7416  -29.2438   19.8606 H   0  0  0  0  0  0
  -25.1281  -36.1948   25.0809 H   0  0  0  0  0  0
  -20.9956  -28.3256   24.1432 H   0  0  0  0  0  0
  -20.5649  -26.2316   23.3614 H   0  0  0  0  0  0
  -21.6636  -26.7462   22.1219 H   0  0  0  0  0  0
  -19.6912  -25.6294   21.1243 H   0  0  0  0  0  0
  -19.6662  -27.3196   20.6746 H   0  0  0  0  0  0
  -17.4185  -26.6667   21.4023 H   0  0  0  0  0  0
  -18.0333  -26.0077   22.9032 H   0  0  0  0  0  0
  -19.7936  -30.7253   24.2253 H   0  0  0  0  0  0
  -17.5045  -31.6264   24.5204 H   0  0  0  0  0  0
  -15.5362  -30.3032   23.7662 H   0  0  0  0  0  0
  -15.8665  -28.0886   22.7025 H   0  0  0  0  0  0
  -24.5775  -30.7259   25.7834 H   0  0  0  0  0  0
  -24.9001  -32.3014   26.4985 H   0  0  0  0  0  0
  -25.8008  -30.8896   27.0242 H   0  0  0  0  0  0
  -26.2896  -29.6825   24.1177 H   0  0  0  0  0  0
  -27.3892  -29.7272   25.4746 H   0  0  0  0  0  0
  -27.8791  -30.4303   23.9511 H   0  0  0  0  0  0
  -27.2553  -33.3642   26.2148 H   0  0  0  0  0  0
  -28.3775  -32.7042   25.0348 H   0  0  0  0  0  0
  -28.0729  -31.8511   26.5395 H   0  0  0  0  0  0
  -28.2559  -38.0149   24.7589 H   0  0  0  0  0  0
  -28.1126  -36.2691   24.6133 H   0  0  0  0  0  0
  -27.2341  -37.1286   25.8847 H   0  0  0  0  0  0
  -20.9332  -29.8772   21.6917 H   0  0  0  0  0  0
  -26.0150  -38.2870   24.1485 H   0  0  0  0  0  0
  -30.8400  -16.1106   18.2211 H   0  0  0  0  0  0
  -28.6742  -24.1453   19.1828 H   0  0  0  0  0  0
  -27.1568  -23.8037   19.9563 H   0  0  0  0  0  0
  -28.4651  -21.3737   19.3174 H   0  0  0  0  0  0
  -27.5201  -21.0864   20.7597 H   0  0  0  0  0  0
  -29.1342  -25.4032   21.5695 H   0  0  0  0  0  0
  -27.4137  -25.4382   21.6223 H   0  0  0  0  0  0
  -28.5653  -22.8861   21.9680 H   0  0  0  0  0  0
  -29.0341  -15.4660   21.1850 H   0  0  0  0  0  0
  -30.3079  -21.0389   20.9711 H   0  0  0  0  0  0
  -30.5261  -23.7571   21.2796 H   0  0  0  0  0  0
  1 25  1  0  0  0
  1 30  2  0  0  0
  1 81  1  0  0  0
  2  3  1  0  0  0
  2 25  1  0  0  0
  2 86  1  0  0  0
  2 87  1  0  0  0
  3  4  1  0  0  0
  3 88  1  0  0  0
  3 89  1  0  0  0
  4  5  1  0  0  0
  4 90  1  0  0  0
  4 91  1  0  0  0
  5  6  1  0  0  0
  5 26  1  0  0  0
  5 92  1  0  0  0
  6 25  1  0  0  0
  6 93  1  0  0  0
  6 94  1  0  0  0
  7  8  2  0  0  0
  7 26  1  0  0  0
  7 29  1  0  0  0
  8  9  1  0  0  0
  8 22  1  0  0  0
  9 10  1  0  0  0
  9 27  2  0  0  0
 10 11  2  0  0  0
 10 15  1  0  0  0
 11 12  1  0  0  0
 11 95  1  0  0  0
 12 13  2  0  0  0
 12 96  1  0  0  0
 13 14  1  0  0  0
 13 31  1  0  0  0
 14 15  2  0  0  0
 14 97  1  0  0  0
 15 98  1  0  0  0
 16 17  2  0  0  0
 16 21  1  0  0  0
 16 31  1  0  0  0
 17 18  1  0  0  0
 17 99  1  0  0  0
 18 19  2  0  0  0
 18100  1  0  0  0
 19 20  1  0  0  0
 19 24  1  0  0  0
 20 21  2  0  0  0
 20101  1  0  0  0
 21 23  1  0  0  0
 22 28  1  0  0  0
 22 32  2  0  0  0
 26 27  1  0  0  0
 28102  1  0  0  0
 28103  1  0  0  0
 29104  1  0  0  0
 29105  1  0  0  0
 33 34  1  0  0  0
 33 66  1  0  0  0
 33 70  2  0  0  0
 34 36  1  0  0  0
 34 59  1  0  0  0
 34106  1  0  0  0
 35 44  2  0  0  0
 35 45  1  0  0  0
 35 68  1  0  0  0
 36 56  1  0  0  0
 36107  1  0  0  0
 37 39  1  0  0  0
 37 47  1  0  0  0
 37 66  1  0  0  0
 37108  1  0  0  0
 38 43  2  0  0  0
 38 46  1  0  0  0
 38 47  1  0  0  0
 39 64  1  0  0  0
 39 67  2  0  0  0
 40 52  1  0  0  0
 40 53  2  0  0  0
 40 58  1  0  0  0
 41109  1  0  0  0
 41110  1  0  0  0
 41111  1  0  0  0
 41 48  1  0  0  0
 42 43  1  0  0  0
 42 66  1  0  0  0
 42112  1  0  0  0
 42113  1  0  0  0
 43 44  1  0  0  0
 44114  1  0  0  0
 45 46  2  0  0  0
 45115  1  0  0  0
 46116  1  0  0  0
 47117  1  0  0  0
 47118  1  0  0  0
 48 56  1  0  0  0
 48 65  1  0  0  0
 48119  1  0  0  0
 49 50  1  0  0  0
 49 53  1  0  0  0
 49 64  1  0  0  0
 49120  1  0  0  0
 50 51  1  0  0  0
 50121  1  0  0  0
 50122  1  0  0  0
 51 52  1  0  0  0
 51123  1  0  0  0
 51124  1  0  0  0
 52125  1  0  0  0
 52126  1  0  0  0
 53 54  1  0  0  0
 54 55  2  0  0  0
 54127  1  0  0  0
 55 57  1  0  0  0
 55128  1  0  0  0
 56 69  2  0  0  0
 57 58  2  0  0  0
 57129  1  0  0  0
 58130  1  0  0  0
 59 60  1  0  0  0
 59 61  1  0  0  0
 59 62  1  0  0  0
 60131  1  0  0  0
 60132  1  0  0  0
 60133  1  0  0  0
 61134  1  0  0  0
 61135  1  0  0  0
 61136  1  0  0  0
 62137  1  0  0  0
 62138  1  0  0  0
 62139  1  0  0  0
 63 65  1  0  0  0
 63140  1  0  0  0
 63141  1  0  0  0
 63142  1  0  0  0
 64143  1  0  0  0
 65144  1  0  0  0
 68 78  1  0  0  0
 71 72  2  0  0  0
 71 74  1  0  0  0
 71145  1  0  0  0
 72 73  1  0  0  0
 72 84  1  0  0  0
 73 75  2  0  0  0
 73 85  1  0  0  0
 74 80  2  0  0  0
 74 81  1  0  0  0
 75 80  1  0  0  0
 75 82  1  0  0  0
 76 78  1  0  0  0
 76 79  1  0  0  0
 76146  1  0  0  0
 76147  1  0  0  0
 77 79  1  0  0  0
 77 82  1  0  0  0
 77148  1  0  0  0
 77149  1  0  0  0
 78150  1  0  0  0
 78151  1  0  0  0
 79 83  1  0  0  0
 79152  1  0  0  0
 81153  1  0  0  0
 82154  1  0  0  0
 83155  1  0  0  0
M  ISO  4   1 100  68 101  78 101  81 100
M  END
> <chiral flag>
0

> <version>
0

> <s_m_source_file>
/data/baiqing/PycharmProjects/Reinvent-master-3.2/result/LINK_invent/BTK/process_docking_weight1_custom_product_contain_oxygen_bond_distance_aromatic_linkinvent_7_9_3/rearranged_h_0192.sdf

> <i_m_source_file_index>
53

> <r_mmod_Potential_Energy-OPLS-2005>
-154.030700683594

> <r_mmod_Stretch_Energy-OPLS-2005>
47.1569862365723

> <r_mmod_Bend_Energy-OPLS-2005>
113.518203735352

> <r_mmod_Torsional_Energy-OPLS-2005>
317.626312255859

> <r_mmod_Improper_Torsional_Energy-OPLS-2005>
12.7152967453003

> <r_mmod_Van_der_Waal_Energy-OPLS-2005>
157.189849853516

> <r_mmod_Electrostatic_Energy-OPLS-2005>
-590.881774902344

> <r_mmod_Solvation_Energy-OPLS-2005>
-236.604537963867

> <b_mmod_Minimization_Converged-OPLS-2005>
0

> <r_mmod_RMS_Derivative-OPLS-2005>
3.69584560394287

$$$$
54
                    3D
 Structure written by MMmdl.
162170  0  0  1  0            999 V2000
  -30.5701  -14.8121   20.4738 C   0  0  0  0  0  0
  -30.4275  -12.4956   19.5198 C   0  0  0  0  0  0
  -29.5246  -12.5276   18.2647 C   0  0  0  0  0  0
  -28.0482  -12.3378   18.6600 C   0  0  0  0  0  0
  -27.6376  -13.2404   19.8543 C   0  0  2  0  0  0
  -28.6653  -13.1963   21.0053 C   0  0  0  0  0  0
  -25.2455  -13.8221   20.5687 C   0  0  0  0  0  0
  -24.1751  -13.0449   20.9228 C   0  0  0  0  0  0
  -24.6373  -11.6937   20.8706 C   0  0  0  0  0  0
  -23.9028  -10.4306   21.0349 C   0  0  0  0  0  0
  -24.3603   -9.4233   21.9141 C   0  0  0  0  0  0
  -23.6285   -8.2265   22.0746 C   0  0  0  0  0  0
  -22.4247   -8.0280   21.3559 C   0  0  0  0  0  0
  -21.9861   -9.0230   20.4653 C   0  0  0  0  0  0
  -22.7188  -10.2131   20.3020 C   0  0  0  0  0  0
  -21.6869   -6.0715   22.5262 C   0  0  0  0  0  0
  -21.4041   -6.5623   23.8191 C   0  0  0  0  0  0
  -21.3666   -5.6775   24.9161 C   0  0  0  0  0  0
  -21.6040   -4.3031   24.7205 C   0  0  0  0  0  0
  -21.8815   -3.8119   23.4320 C   0  0  0  0  0  0
  -21.9209   -4.6941   22.3391 C   0  0  0  0  0  0
  -22.7773  -13.5238   21.1873 C   0  0  0  0  0  0
  -22.1659   -4.2137   21.0959 F   0  0  0  0  0  0
  -21.5631   -3.4507   25.7717 F   0  0  0  0  0  0
  -29.9667  -13.5667   20.4414 N   0  0  0  0  0  0
  -26.2859  -12.9435   20.3236 N   0  0  0  0  0  0
  -25.9285  -11.6571   20.5709 N   0  0  0  0  0  0
  -22.0408  -12.8225   22.0429 N   0  0  0  0  0  0
  -25.4150  -15.1938   20.4187 N   0  0  0  0  0  0
  -31.7490  -14.9052   20.1122 O   0  0  0  0  0  0
  -21.6651   -6.8842   21.4221 O   0  0  0  0  0  0
  -22.3443  -14.5503   20.6688 O   0  0  0  0  0  0
  -24.6309  -31.8537   23.1945 C   0  0  0  0  0  0
  -25.9115  -32.4748   23.8321 C   0  0  1  0  0  0
  -27.2257  -27.2382   20.1660 C   0  0  0  0  0  0
  -25.5900  -33.8547   24.2246 N   0  0  0  0  0  0
  -23.4356  -30.4737   21.5340 C   0  0  2  0  0  0
  -24.8887  -28.9138   20.1118 C   0  0  0  0  0  0
  -22.7524  -29.4581   22.4834 C   0  0  0  0  0  0
  -18.0330  -28.1400   22.8512 C   0  0  0  0  0  0
  -24.1482  -36.7286   23.2641 C   0  0  0  0  0  0
  -25.9787  -30.7652   21.3765 C   0  0  0  0  0  0
  -26.0570  -29.3798   20.7307 C   0  0  0  0  0  0
  -27.2282  -28.5529   20.7493 C   0  0  0  0  0  0
  -26.0409  -26.8463   19.5078 C   0  0  0  0  0  0
  -24.8851  -27.6540   19.4911 C   0  0  0  0  0  0
  -23.6623  -29.8045   20.1505 C   0  0  0  0  0  0
  -25.4102  -36.3047   24.0322 C   0  0  1  0  0  0
  -20.5920  -28.3695   23.1276 C   0  0  2  0  0  0
  -20.6799  -26.9403   22.5423 C   0  0  0  0  0  0
  -19.5752  -26.6390   21.5239 C   0  0  0  0  0  0
  -18.1937  -26.7958   22.1658 C   0  0  0  0  0  0
  -19.1571  -28.8871   23.2895 C   0  0  0  0  0  0
  -18.9483  -30.1470   23.8894 C   0  0  0  0  0  0
  -17.6460  -30.6587   24.0583 C   0  0  0  0  0  0
  -25.9036  -34.9427   23.5092 C   0  0  0  0  0  0
  -16.5367  -29.9084   23.6338 C   0  0  0  0  0  0
  -16.7305  -28.6514   23.0346 C   0  0  0  0  0  0
  -26.4482  -31.6564   25.0705 C   0  0  0  0  0  0
  -25.3708  -31.3742   26.1423 C   0  0  0  0  0  0
  -27.0331  -30.2983   24.6186 C   0  0  0  0  0  0
  -27.6032  -32.4293   25.7500 C   0  0  0  0  0  0
  -27.5563  -37.1805   24.8461 C   0  0  0  0  0  0
  -21.4212  -29.3045   22.3636 N   0  0  0  0  0  0
  -26.4271  -37.3745   23.9398 N   0  0  0  0  0  0
  -24.7017  -31.0502   22.0920 N   0  0  0  0  0  0
  -23.4215  -28.8137   23.2959 O   0  0  0  0  0  0
  -28.3021  -26.3125   20.1961 O   0  0  0  0  0  0
  -26.5616  -34.8927   22.4667 O   0  0  0  0  0  0
  -23.5460  -32.1344   23.7234 O   0  0  0  0  0  0
  -29.3327  -18.7065   20.5296 C   0  0  0  0  0  0
  -28.5968  -20.7841   20.7955 C   0  0  0  0  0  0
  -31.1208  -18.3021   17.0584 C   0  0  0  0  0  0
  -28.5198  -23.4731   18.6357 C   0  0  0  0  0  0
  -28.3686  -25.0703   22.2426 C   0  0  0  0  0  0
  -30.5168  -16.9497   17.4571 C   0  0  0  0  0  0
  -29.4176  -17.1188   18.5196 C   0  0  0  0  0  0
  -29.9582  -17.3350   19.9620 C   0  0  2  0  0  0
  -28.7671  -23.5373   20.1515 C   0  0  1  0  0  0
  -28.0619  -24.9148   20.7401 C   0  0  2  0  0  0
  -29.6082  -20.0280   20.1970 N   0  0  0  0  0  0
  -27.7561  -20.0014   21.4702 N   0  0  0  0  0  0
  -28.3117  -22.2397   20.8196 N   0  0  0  0  0  0
  -29.7972  -15.9633   20.6701 N   0  0  0  0  0  0
  -28.2051  -18.6678   21.2853 O   0  0  0  0  0  0
  -31.4750  -12.6212   19.2342 H   0  0  0  0  0  0
  -30.3741  -11.5233   20.0111 H   0  0  0  0  0  0
  -29.8282  -11.7494   17.5617 H   0  0  0  0  0  0
  -29.6525  -13.4818   17.7465 H   0  0  0  0  0  0
  -27.9091  -11.2877   18.9303 H   0  0  0  0  0  0
  -27.4025  -12.5267   17.8019 H   0  0  0  0  0  0
  -27.6247  -14.2561   19.4620 H   0  0  0  0  0  0
  -28.7056  -12.2055   21.4593 H   0  0  0  0  0  0
  -28.3742  -13.8830   21.8018 H   0  0  0  0  0  0
  -25.2747   -9.5726   22.4707 H   0  0  0  0  0  0
  -24.0035   -7.4627   22.7435 H   0  0  0  0  0  0
  -21.0813   -8.8709   19.8928 H   0  0  0  0  0  0
  -22.3618  -10.9655   19.6112 H   0  0  0  0  0  0
  -21.2052   -7.6123   23.9705 H   0  0  0  0  0  0
  -21.1496   -6.0498   25.9077 H   0  0  0  0  0  0
  -22.0603   -2.7587   23.2810 H   0  0  0  0  0  0
  -22.4091  -11.9931   22.4855 H   0  0  0  0  0  0
  -21.1018  -13.1227   22.2607 H   0  0  0  0  0  0
  -24.6486  -15.8467   20.5335 H   0  0  0  0  0  0
  -26.2578  -15.6358   20.0744 H   0  0  0  0  0  0
  -26.7198  -32.5443   23.1095 H   0  0  0  0  0  0
  -25.0031  -33.9665   25.0387 H   0  0  0  0  0  0
  -22.7311  -31.2940   21.3775 H   0  0  0  0  0  0
  -23.3716  -35.9651   23.3331 H   0  0  0  0  0  0
  -24.3592  -36.8881   22.2051 H   0  0  0  0  0  0
  -23.7274  -37.6511   23.6673 H   0  0  0  0  0  0
  -26.1069  -31.5191   20.5971 H   0  0  0  0  0  0
  -26.8601  -30.8324   22.0015 H   0  0  0  0  0  0
  -28.1192  -28.9026   21.2548 H   0  0  0  0  0  0
  -26.0070  -25.8846   19.0167 H   0  0  0  0  0  0
  -23.9913  -27.2832   19.0086 H   0  0  0  0  0  0
  -23.8016  -30.5784   19.3921 H   0  0  0  0  0  0
  -22.7831  -29.2370   19.8382 H   0  0  0  0  0  0
  -25.1300  -36.1889   25.0818 H   0  0  0  0  0  0
  -21.0055  -28.3289   24.1375 H   0  0  0  0  0  0
  -20.5675  -26.2312   23.3653 H   0  0  0  0  0  0
  -21.6671  -26.7392   22.1219 H   0  0  0  0  0  0
  -19.6880  -25.6292   21.1275 H   0  0  0  0  0  0
  -19.6690  -27.3216   20.6789 H   0  0  0  0  0  0
  -17.4214  -26.6730   21.4047 H   0  0  0  0  0  0
  -18.0279  -26.0094   22.9044 H   0  0  0  0  0  0
  -19.7929  -30.7315   24.2233 H   0  0  0  0  0  0
  -17.5008  -31.6263   24.5182 H   0  0  0  0  0  0
  -15.5355  -30.2985   23.7640 H   0  0  0  0  0  0
  -15.8730  -28.0848   22.7021 H   0  0  0  0  0  0
  -24.5890  -30.7060   25.7786 H   0  0  0  0  0  0
  -24.8869  -32.2912   26.4789 H   0  0  0  0  0  0
  -25.8012  -30.8977   27.0231 H   0  0  0  0  0  0
  -26.2912  -29.6734   24.1170 H   0  0  0  0  0  0
  -27.3979  -29.7241   25.4711 H   0  0  0  0  0  0
  -27.8819  -30.4275   23.9464 H   0  0  0  0  0  0
  -27.2631  -33.3605   26.2063 H   0  0  0  0  0  0
  -28.3874  -32.6806   25.0344 H   0  0  0  0  0  0
  -28.0663  -31.8396   26.5425 H   0  0  0  0  0  0
  -28.2580  -38.0095   24.7464 H   0  0  0  0  0  0
  -28.1052  -36.2617   24.6332 H   0  0  0  0  0  0
  -27.2302  -37.1521   25.8873 H   0  0  0  0  0  0
  -20.9378  -29.8794   21.6879 H   0  0  0  0  0  0
  -26.0143  -38.2819   24.1384 H   0  0  0  0  0  0
  -31.9988  -18.1835   16.4228 H   0  0  0  0  0  0
  -31.4266  -18.8703   17.9348 H   0  0  0  0  0  0
  -30.3863  -18.9044   16.5180 H   0  0  0  0  0  0
  -27.4594  -23.3527   18.4051 H   0  0  0  0  0  0
  -29.0518  -22.6462   18.1704 H   0  0  0  0  0  0
  -28.8570  -24.3884   18.1446 H   0  0  0  0  0  0
  -27.7705  -25.8709   22.6811 H   0  0  0  0  0  0
  -29.4169  -25.3201   22.4065 H   0  0  0  0  0  0
  -28.1427  -24.1717   22.8167 H   0  0  0  0  0  0
  -31.2900  -16.2615   17.8144 H   0  0  0  0  0  0
  -30.0895  -16.4849   16.5667 H   0  0  0  0  0  0
  -28.7569  -16.2507   18.4926 H   0  0  0  0  0  0
  -28.7751  -17.9459   18.2204 H   0  0  0  0  0  0
  -31.0321  -17.5280   19.9231 H   0  0  0  0  0  0
  -29.8429  -23.6133   20.3108 H   0  0  0  0  0  0
  -26.9904  -24.7313   20.6812 H   0  0  0  0  0  0
  -27.5043  -22.4275   21.4015 H   0  0  0  0  0  0
  -28.8917  -15.8190   21.0917 H   0  0  0  0  0  0
  1 25  1  0  0  0
  1 30  2  0  0  0
  1 84  1  0  0  0
  2  3  1  0  0  0
  2 25  1  0  0  0
  2 86  1  0  0  0
  2 87  1  0  0  0
  3  4  1  0  0  0
  3 88  1  0  0  0
  3 89  1  0  0  0
  4  5  1  0  0  0
  4 90  1  0  0  0
  4 91  1  0  0  0
  5  6  1  0  0  0
  5 26  1  0  0  0
  5 92  1  0  0  0
  6 25  1  0  0  0
  6 93  1  0  0  0
  6 94  1  0  0  0
  7  8  2  0  0  0
  7 26  1  0  0  0
  7 29  1  0  0  0
  8  9  1  0  0  0
  8 22  1  0  0  0
  9 10  1  0  0  0
  9 27  2  0  0  0
 10 11  2  0  0  0
 10 15  1  0  0  0
 11 12  1  0  0  0
 11 95  1  0  0  0
 12 13  2  0  0  0
 12 96  1  0  0  0
 13 14  1  0  0  0
 13 31  1  0  0  0
 14 15  2  0  0  0
 14 97  1  0  0  0
 15 98  1  0  0  0
 16 17  2  0  0  0
 16 21  1  0  0  0
 16 31  1  0  0  0
 17 18  1  0  0  0
 17 99  1  0  0  0
 18 19  2  0  0  0
 18100  1  0  0  0
 19 20  1  0  0  0
 19 24  1  0  0  0
 20 21  2  0  0  0
 20101  1  0  0  0
 21 23  1  0  0  0
 22 28  1  0  0  0
 22 32  2  0  0  0
 26 27  1  0  0  0
 28102  1  0  0  0
 28103  1  0  0  0
 29104  1  0  0  0
 29105  1  0  0  0
 33 34  1  0  0  0
 33 66  1  0  0  0
 33 70  2  0  0  0
 34 36  1  0  0  0
 34 59  1  0  0  0
 34106  1  0  0  0
 35 44  2  0  0  0
 35 45  1  0  0  0
 35 68  1  0  0  0
 36 56  1  0  0  0
 36107  1  0  0  0
 37 39  1  0  0  0
 37 47  1  0  0  0
 37 66  1  0  0  0
 37108  1  0  0  0
 38 43  2  0  0  0
 38 46  1  0  0  0
 38 47  1  0  0  0
 39 64  1  0  0  0
 39 67  2  0  0  0
 40 52  1  0  0  0
 40 53  2  0  0  0
 40 58  1  0  0  0
 41109  1  0  0  0
 41110  1  0  0  0
 41111  1  0  0  0
 41 48  1  0  0  0
 42 43  1  0  0  0
 42 66  1  0  0  0
 42112  1  0  0  0
 42113  1  0  0  0
 43 44  1  0  0  0
 44114  1  0  0  0
 45 46  2  0  0  0
 45115  1  0  0  0
 46116  1  0  0  0
 47117  1  0  0  0
 47118  1  0  0  0
 48 56  1  0  0  0
 48 65  1  0  0  0
 48119  1  0  0  0
 49 50  1  0  0  0
 49 53  1  0  0  0
 49 64  1  0  0  0
 49120  1  0  0  0
 50 51  1  0  0  0
 50121  1  0  0  0
 50122  1  0  0  0
 51 52  1  0  0  0
 51123  1  0  0  0
 51124  1  0  0  0
 52125  1  0  0  0
 52126  1  0  0  0
 53 54  1  0  0  0
 54 55  2  0  0  0
 54127  1  0  0  0
 55 57  1  0  0  0
 55128  1  0  0  0
 56 69  2  0  0  0
 57 58  2  0  0  0
 57129  1  0  0  0
 58130  1  0  0  0
 59 60  1  0  0  0
 59 61  1  0  0  0
 59 62  1  0  0  0
 60131  1  0  0  0
 60132  1  0  0  0
 60133  1  0  0  0
 61134  1  0  0  0
 61135  1  0  0  0
 61136  1  0  0  0
 62137  1  0  0  0
 62138  1  0  0  0
 62139  1  0  0  0
 63 65  1  0  0  0
 63140  1  0  0  0
 63141  1  0  0  0
 63142  1  0  0  0
 64143  1  0  0  0
 65144  1  0  0  0
 68 80  1  0  0  0
 71 78  1  0  0  0
 71 81  2  0  0  0
 71 85  1  0  0  0
 72 81  1  0  0  0
 72 82  2  0  0  0
 72 83  1  0  0  0
 73 76  1  0  0  0
 73145  1  0  0  0
 73146  1  0  0  0
 73147  1  0  0  0
 74148  1  0  0  0
 74149  1  0  0  0
 74150  1  0  0  0
 74 79  1  0  0  0
 75151  1  0  0  0
 75152  1  0  0  0
 75153  1  0  0  0
 75 80  1  0  0  0
 76 77  1  0  0  0
 76154  1  0  0  0
 76155  1  0  0  0
 77156  1  0  0  0
 77157  1  0  0  0
 77 78  1  0  0  0
 78 84  1  0  0  0
 78158  1  0  0  0
 79 80  1  0  0  0
 79 83  1  0  0  0
 79159  1  0  0  0
 80160  1  0  0  0
 82 85  1  0  0  0
 83161  1  0  0  0
 84162  1  0  0  0
M  ISO  4   1 100  68 101  80 101  84 100
M  END
> <chiral flag>
0

> <version>
0

> <s_m_source_file>
/data/baiqing/PycharmProjects/Reinvent-master-3.2/result/LINK_invent/BTK/process_docking_weight1_custom_product_contain_oxygen_bond_distance_aromatic_linkinvent_7_9_3/rearranged_h_0192.sdf

> <i_m_source_file_index>
54

> <r_mmod_Potential_Energy-OPLS-2005>
53.8870048522949

> <r_mmod_Stretch_Energy-OPLS-2005>
154.362609863281

> <r_mmod_Bend_Energy-OPLS-2005>
249.763076782227

> <r_mmod_Torsional_Energy-OPLS-2005>
244.011260986328

> <r_mmod_Improper_Torsional_Energy-OPLS-2005>
7.80309629440308

> <r_mmod_Van_der_Waal_Energy-OPLS-2005>
102.600677490234

> <r_mmod_Electrostatic_Energy-OPLS-2005>
-590.370971679688

> <r_mmod_Solvation_Energy-OPLS-2005>
-225.17936706543

> <b_mmod_Minimization_Converged-OPLS-2005>
0

> <r_mmod_RMS_Derivative-OPLS-2005>
5.70524168014526

$$$$
55
                    3D
 Structure written by MMmdl.
160168  0  0  1  0            999 V2000
  -30.7009  -14.5280   20.5000 C   0  0  0  0  0  0
  -30.4110  -12.3188   19.4436 C   0  0  0  0  0  0
  -29.4933  -12.4859   18.2155 C   0  0  0  0  0  0
  -28.0152  -12.3497   18.6267 C   0  0  0  0  0  0
  -27.6517  -13.2170   19.8625 C   0  0  2  0  0  0
  -28.6953  -13.0587   20.9916 C   0  0  0  0  0  0
  -25.2540  -13.8185   20.5684 C   0  0  0  0  0  0
  -24.1814  -13.0445   20.9189 C   0  0  0  0  0  0
  -24.6381  -11.6917   20.8744 C   0  0  0  0  0  0
  -23.9062  -10.4298   21.0406 C   0  0  0  0  0  0
  -24.3613   -9.4214   21.9185 C   0  0  0  0  0  0
  -23.6295   -8.2246   22.0751 C   0  0  0  0  0  0
  -22.4279   -8.0281   21.3544 C   0  0  0  0  0  0
  -21.9911   -9.0256   20.4645 C   0  0  0  0  0  0
  -22.7231  -10.2136   20.3058 C   0  0  0  0  0  0
  -21.6846   -6.0740   22.5284 C   0  0  0  0  0  0
  -21.4010   -6.5642   23.8219 C   0  0  0  0  0  0
  -21.3661   -5.6793   24.9177 C   0  0  0  0  0  0
  -21.6044   -4.3060   24.7227 C   0  0  0  0  0  0
  -21.8816   -3.8151   23.4350 C   0  0  0  0  0  0
  -21.9191   -4.6968   22.3404 C   0  0  0  0  0  0
  -22.7834  -13.5229   21.1860 C   0  0  0  0  0  0
  -22.1658   -4.2154   21.0984 F   0  0  0  0  0  0
  -21.5632   -3.4540   25.7741 F   0  0  0  0  0  0
  -30.0205  -13.3474   20.4247 N   0  0  0  0  0  0
  -26.2977  -12.9375   20.3329 N   0  0  0  0  0  0
  -25.9308  -11.6525   20.5764 N   0  0  0  0  0  0
  -22.0481  -12.8227   22.0417 N   0  0  0  0  0  0
  -25.4254  -15.1912   20.4105 N   0  0  0  0  0  0
  -31.8751  -14.5911   20.1287 O   0  0  0  0  0  0
  -21.6635   -6.8881   21.4248 O   0  0  0  0  0  0
  -22.3520  -14.5538   20.6706 O   0  0  0  0  0  0
  -24.6178  -31.8666   23.2073 C   0  0  0  0  0  0
  -25.9063  -32.4814   23.8378 C   0  0  1  0  0  0
  -27.2250  -27.3919   20.0931 C   0  0  0  0  0  0
  -25.5910  -33.8615   24.2313 N   0  0  0  0  0  0
  -23.4061  -30.4925   21.5494 C   0  0  2  0  0  0
  -24.8477  -28.9551   20.1142 C   0  0  0  0  0  0
  -22.7420  -29.4669   22.4971 C   0  0  0  0  0  0
  -18.0278  -28.1377   22.8493 C   0  0  0  0  0  0
  -24.1482  -36.7309   23.2640 C   0  0  0  0  0  0
  -25.9403  -30.8189   21.3652 C   0  0  0  0  0  0
  -26.0129  -29.4517   20.7092 C   0  0  0  0  0  0
  -27.2019  -28.6792   20.6928 C   0  0  0  0  0  0
  -26.0296  -26.9206   19.4999 C   0  0  0  0  0  0
  -24.8527  -27.6904   19.5074 C   0  0  0  0  0  0
  -23.6144  -29.8284   20.1635 C   0  0  0  0  0  0
  -25.4109  -36.3110   24.0334 C   0  0  1  0  0  0
  -20.5870  -28.3674   23.1300 C   0  0  2  0  0  0
  -20.6762  -26.9400   22.5419 C   0  0  0  0  0  0
  -19.5744  -26.6381   21.5211 C   0  0  0  0  0  0
  -18.1924  -26.7923   22.1626 C   0  0  0  0  0  0
  -19.1528  -28.8839   23.2898 C   0  0  0  0  0  0
  -18.9458  -30.1444   23.8911 C   0  0  0  0  0  0
  -17.6461  -30.6582   24.0564 C   0  0  0  0  0  0
  -25.9041  -34.9478   23.5125 C   0  0  0  0  0  0
  -16.5347  -29.9090   23.6326 C   0  0  0  0  0  0
  -16.7267  -28.6507   23.0352 C   0  0  0  0  0  0
  -26.4481  -31.6601   25.0722 C   0  0  0  0  0  0
  -25.3737  -31.3715   26.1469 C   0  0  0  0  0  0
  -27.0308  -30.3035   24.6117 C   0  0  0  0  0  0
  -27.6050  -32.4322   25.7488 C   0  0  0  0  0  0
  -27.5579  -37.1812   24.8469 C   0  0  0  0  0  0
  -21.4141  -29.3044   22.3706 N   0  0  0  0  0  0
  -26.4291  -37.3799   23.9411 N   0  0  0  0  0  0
  -24.6735  -31.0749   22.0983 N   0  0  0  0  0  0
  -23.4178  -28.8206   23.3014 O   0  0  0  0  0  0
  -28.4009  -26.6490   20.1124 O   0  0  0  0  0  0
  -26.5605  -34.8934   22.4684 O   0  0  0  0  0  0
  -23.5369  -32.1423   23.7458 O   0  0  0  0  0  0
  -31.5138  -17.5104   20.2153 C   0  0  0  0  0  0
  -31.7082  -18.8846   20.0320 C   0  0  0  0  0  0
  -30.2465  -17.0414   20.6268 C   0  0  0  0  0  0
  -29.5582  -19.2788   20.6395 C   0  0  0  0  0  0
  -33.0367  -19.4336   19.5576 C   0  0  0  0  0  0
  -27.8885  -21.7264   22.6290 C   0  0  0  0  0  0
  -28.3679  -22.6905   20.2622 C   0  0  0  0  0  0
  -28.4268  -25.2690   19.6511 C   0  0  0  0  0  0
  -28.7018  -21.5808   21.3298 C   0  0  1  0  0  0
  -28.1972  -24.1803   20.7528 C   0  0  1  0  0  0
  -30.7228  -19.7683   20.2541 N   0  0  0  0  0  0
  -29.2753  -17.9822   20.8271 N   0  0  0  0  0  0
  -29.9715  -15.6317   20.8258 N   0  0  0  0  0  0
  -28.5353  -20.1982   20.8255 N   0  0  0  0  0  0
  -26.8599  -24.3151   21.2111 O   0  0  0  0  0  0
  -31.4584  -12.3893   19.1434 H   0  0  0  0  0  0
  -30.2974  -11.3238   19.8765 H   0  0  0  0  0  0
  -29.7388  -11.7407   17.4571 H   0  0  0  0  0  0
  -29.6611  -13.4608   17.7547 H   0  0  0  0  0  0
  -27.8304  -11.2974   18.8461 H   0  0  0  0  0  0
  -27.3651  -12.6002   17.7877 H   0  0  0  0  0  0
  -27.6766  -14.2540   19.5284 H   0  0  0  0  0  0
  -28.6759  -12.0419   21.3872 H   0  0  0  0  0  0
  -28.4632  -13.7114   21.8346 H   0  0  0  0  0  0
  -25.2759   -9.5688   22.4754 H   0  0  0  0  0  0
  -24.0005   -7.4634   22.7466 H   0  0  0  0  0  0
  -21.0841   -8.8771   19.8947 H   0  0  0  0  0  0
  -22.3691  -10.9676   19.6166 H   0  0  0  0  0  0
  -21.1995   -7.6147   23.9723 H   0  0  0  0  0  0
  -21.1488   -6.0523   25.9082 H   0  0  0  0  0  0
  -22.0592   -2.7614   23.2847 H   0  0  0  0  0  0
  -22.4091  -11.9891   22.4816 H   0  0  0  0  0  0
  -21.1095  -13.1257   22.2619 H   0  0  0  0  0  0
  -24.6596  -15.8453   20.5271 H   0  0  0  0  0  0
  -26.2755  -15.6356   20.0880 H   0  0  0  0  0  0
  -26.7127  -32.5498   23.1130 H   0  0  0  0  0  0
  -25.0057  -33.9768   25.0457 H   0  0  0  0  0  0
  -22.6963  -31.3111   21.4121 H   0  0  0  0  0  0
  -23.3747  -35.9639   23.3312 H   0  0  0  0  0  0
  -24.3578  -36.8914   22.2055 H   0  0  0  0  0  0
  -23.7232  -37.6513   23.6648 H   0  0  0  0  0  0
  -26.0589  -31.5824   20.5951 H   0  0  0  0  0  0
  -26.8258  -30.8695   21.9873 H   0  0  0  0  0  0
  -28.1015  -29.0636   21.1520 H   0  0  0  0  0  0
  -25.9602  -25.9488   19.0380 H   0  0  0  0  0  0
  -23.9539  -27.2982   19.0502 H   0  0  0  0  0  0
  -23.7268  -30.6047   19.4054 H   0  0  0  0  0  0
  -22.7351  -29.2540   19.8655 H   0  0  0  0  0  0
  -25.1284  -36.1971   25.0827 H   0  0  0  0  0  0
  -20.9976  -28.3245   24.1412 H   0  0  0  0  0  0
  -20.5656  -26.2280   23.3613 H   0  0  0  0  0  0
  -21.6635  -26.7427   22.1217 H   0  0  0  0  0  0
  -19.6902  -25.6295   21.1237 H   0  0  0  0  0  0
  -19.6685  -27.3196   20.6745 H   0  0  0  0  0  0
  -17.4193  -26.6674   21.4030 H   0  0  0  0  0  0
  -18.0327  -26.0060   22.9019 H   0  0  0  0  0  0
  -19.7934  -30.7257   24.2285 H   0  0  0  0  0  0
  -17.5017  -31.6266   24.5161 H   0  0  0  0  0  0
  -15.5353  -30.3000   23.7636 H   0  0  0  0  0  0
  -15.8668  -28.0829   22.7059 H   0  0  0  0  0  0
  -24.5911  -30.7064   25.7808 H   0  0  0  0  0  0
  -24.8936  -32.2876   26.4918 H   0  0  0  0  0  0
  -25.8093  -30.8885   27.0223 H   0  0  0  0  0  0
  -26.2855  -29.6806   24.1160 H   0  0  0  0  0  0
  -27.4053  -29.7270   25.4583 H   0  0  0  0  0  0
  -27.8701  -30.4347   23.9283 H   0  0  0  0  0  0
  -27.2663  -33.3608   26.2091 H   0  0  0  0  0  0
  -28.3847  -32.6905   25.0310 H   0  0  0  0  0  0
  -28.0730  -31.8431   26.5383 H   0  0  0  0  0  0
  -28.2608  -38.0096   24.7508 H   0  0  0  0  0  0
  -28.1056  -36.2630   24.6298 H   0  0  0  0  0  0
  -27.2297  -37.1471   25.8872 H   0  0  0  0  0  0
  -20.9294  -29.8773   21.6937 H   0  0  0  0  0  0
  -26.0178  -38.2874   24.1409 H   0  0  0  0  0  0
  -32.3496  -16.8555   20.0223 H   0  0  0  0  0  0
  -33.1271  -19.3168   18.4777 H   0  0  0  0  0  0
  -33.8636  -18.8994   20.0271 H   0  0  0  0  0  0
  -33.1391  -20.4927   19.7966 H   0  0  0  0  0  0
  -28.1018  -22.6704   23.1325 H   0  0  0  0  0  0
  -28.1356  -20.9369   23.3408 H   0  0  0  0  0  0
  -26.8149  -21.6760   22.4431 H   0  0  0  0  0  0
  -27.4803  -22.4021   19.6968 H   0  0  0  0  0  0
  -29.1776  -22.6689   19.5315 H   0  0  0  0  0  0
  -27.8093  -25.0918   18.7729 H   0  0  0  0  0  0
  -29.4408  -25.1251   19.2754 H   0  0  0  0  0  0
  -29.7469  -21.7147   21.6131 H   0  0  0  0  0  0
  -28.8901  -24.3730   21.5730 H   0  0  0  0  0  0
  -29.0343  -15.4265   21.1296 H   0  0  0  0  0  0
  -27.6562  -19.7585   21.0671 H   0  0  0  0  0  0
  -26.7441  -23.7308   21.9514 H   0  0  0  0  0  0
  1 25  1  0  0  0
  1 30  2  0  0  0
  1 83  1  0  0  0
  2  3  1  0  0  0
  2 25  1  0  0  0
  2 86  1  0  0  0
  2 87  1  0  0  0
  3  4  1  0  0  0
  3 88  1  0  0  0
  3 89  1  0  0  0
  4  5  1  0  0  0
  4 90  1  0  0  0
  4 91  1  0  0  0
  5  6  1  0  0  0
  5 26  1  0  0  0
  5 92  1  0  0  0
  6 25  1  0  0  0
  6 93  1  0  0  0
  6 94  1  0  0  0
  7  8  2  0  0  0
  7 26  1  0  0  0
  7 29  1  0  0  0
  8  9  1  0  0  0
  8 22  1  0  0  0
  9 10  1  0  0  0
  9 27  2  0  0  0
 10 11  2  0  0  0
 10 15  1  0  0  0
 11 12  1  0  0  0
 11 95  1  0  0  0
 12 13  2  0  0  0
 12 96  1  0  0  0
 13 14  1  0  0  0
 13 31  1  0  0  0
 14 15  2  0  0  0
 14 97  1  0  0  0
 15 98  1  0  0  0
 16 17  2  0  0  0
 16 21  1  0  0  0
 16 31  1  0  0  0
 17 18  1  0  0  0
 17 99  1  0  0  0
 18 19  2  0  0  0
 18100  1  0  0  0
 19 20  1  0  0  0
 19 24  1  0  0  0
 20 21  2  0  0  0
 20101  1  0  0  0
 21 23  1  0  0  0
 22 28  1  0  0  0
 22 32  2  0  0  0
 26 27  1  0  0  0
 28102  1  0  0  0
 28103  1  0  0  0
 29104  1  0  0  0
 29105  1  0  0  0
 33 34  1  0  0  0
 33 66  1  0  0  0
 33 70  2  0  0  0
 34 36  1  0  0  0
 34 59  1  0  0  0
 34106  1  0  0  0
 35 44  2  0  0  0
 35 45  1  0  0  0
 35 68  1  0  0  0
 36 56  1  0  0  0
 36107  1  0  0  0
 37 39  1  0  0  0
 37 47  1  0  0  0
 37 66  1  0  0  0
 37108  1  0  0  0
 38 43  2  0  0  0
 38 46  1  0  0  0
 38 47  1  0  0  0
 39 64  1  0  0  0
 39 67  2  0  0  0
 40 52  1  0  0  0
 40 53  2  0  0  0
 40 58  1  0  0  0
 41109  1  0  0  0
 41110  1  0  0  0
 41111  1  0  0  0
 41 48  1  0  0  0
 42 43  1  0  0  0
 42 66  1  0  0  0
 42112  1  0  0  0
 42113  1  0  0  0
 43 44  1  0  0  0
 44114  1  0  0  0
 45 46  2  0  0  0
 45115  1  0  0  0
 46116  1  0  0  0
 47117  1  0  0  0
 47118  1  0  0  0
 48 56  1  0  0  0
 48 65  1  0  0  0
 48119  1  0  0  0
 49 50  1  0  0  0
 49 53  1  0  0  0
 49 64  1  0  0  0
 49120  1  0  0  0
 50 51  1  0  0  0
 50121  1  0  0  0
 50122  1  0  0  0
 51 52  1  0  0  0
 51123  1  0  0  0
 51124  1  0  0  0
 52125  1  0  0  0
 52126  1  0  0  0
 53 54  1  0  0  0
 54 55  2  0  0  0
 54127  1  0  0  0
 55 57  1  0  0  0
 55128  1  0  0  0
 56 69  2  0  0  0
 57 58  2  0  0  0
 57129  1  0  0  0
 58130  1  0  0  0
 59 60  1  0  0  0
 59 61  1  0  0  0
 59 62  1  0  0  0
 60131  1  0  0  0
 60132  1  0  0  0
 60133  1  0  0  0
 61134  1  0  0  0
 61135  1  0  0  0
 61136  1  0  0  0
 62137  1  0  0  0
 62138  1  0  0  0
 62139  1  0  0  0
 63 65  1  0  0  0
 63140  1  0  0  0
 63141  1  0  0  0
 63142  1  0  0  0
 64143  1  0  0  0
 65144  1  0  0  0
 68 78  1  0  0  0
 71 72  2  0  0  0
 71 73  1  0  0  0
 71145  1  0  0  0
 72 75  1  0  0  0
 72 81  1  0  0  0
 73 82  2  0  0  0
 73 83  1  0  0  0
 74 81  2  0  0  0
 74 82  1  0  0  0
 74 84  1  0  0  0
 75146  1  0  0  0
 75147  1  0  0  0
 75148  1  0  0  0
 76149  1  0  0  0
 76150  1  0  0  0
 76151  1  0  0  0
 76 79  1  0  0  0
 77 79  1  0  0  0
 77 80  1  0  0  0
 77152  1  0  0  0
 77153  1  0  0  0
 78 80  1  0  0  0
 78154  1  0  0  0
 78155  1  0  0  0
 79 84  1  0  0  0
 79156  1  0  0  0
 80 85  1  0  0  0
 80157  1  0  0  0
 83158  1  0  0  0
 84159  1  0  0  0
 85160  1  0  0  0
M  ISO  4   1 100  68 101  78 101  83 100
M  END
> <chiral flag>
0

> <version>
0

> <s_m_source_file>
/data/baiqing/PycharmProjects/Reinvent-master-3.2/result/LINK_invent/BTK/process_docking_weight1_custom_product_contain_oxygen_bond_distance_aromatic_linkinvent_7_9_3/rearranged_h_0192.sdf

> <i_m_source_file_index>
55

> <r_mmod_Potential_Energy-OPLS-2005>
-458.140563964844

> <r_mmod_Stretch_Energy-OPLS-2005>
51.119743347168

> <r_mmod_Bend_Energy-OPLS-2005>
131.14208984375

> <r_mmod_Torsional_Energy-OPLS-2005>
218.480880737305

> <r_mmod_Improper_Torsional_Energy-OPLS-2005>
6.35639953613281

> <r_mmod_Van_der_Waal_Energy-OPLS-2005>
165.939025878906

> <r_mmod_Electrostatic_Energy-OPLS-2005>
-811.039245605469

> <r_mmod_Solvation_Energy-OPLS-2005>
-243.994354248047

> <b_mmod_Minimization_Converged-OPLS-2005>
0

> <r_mmod_RMS_Derivative-OPLS-2005>
1.60118448734283

$$$$
56
                    3D
 Structure written by MMmdl.
161169  0  0  1  0            999 V2000
  -30.6149  -14.7710   20.4681 C   0  0  0  0  0  0
  -30.4385  -12.4718   19.5001 C   0  0  0  0  0  0
  -29.5231  -12.5190   18.2579 C   0  0  0  0  0  0
  -28.0484  -12.3328   18.6630 C   0  0  0  0  0  0
  -27.6457  -13.2363   19.8610 C   0  0  2  0  0  0
  -28.6849  -13.1867   21.0027 C   0  0  0  0  0  0
  -25.2525  -13.8206   20.5687 C   0  0  0  0  0  0
  -24.1812  -13.0457   20.9201 C   0  0  0  0  0  0
  -24.6397  -11.6935   20.8733 C   0  0  0  0  0  0
  -23.9090  -10.4304   21.0380 C   0  0  0  0  0  0
  -24.3627   -9.4230   21.9172 C   0  0  0  0  0  0
  -23.6311   -8.2266   22.0745 C   0  0  0  0  0  0
  -22.4289   -8.0292   21.3556 C   0  0  0  0  0  0
  -21.9918   -9.0255   20.4650 C   0  0  0  0  0  0
  -22.7243  -10.2143   20.3058 C   0  0  0  0  0  0
  -21.6857   -6.0732   22.5258 C   0  0  0  0  0  0
  -21.4026   -6.5640   23.8194 C   0  0  0  0  0  0
  -21.3680   -5.6792   24.9153 C   0  0  0  0  0  0
  -21.6050   -4.3055   24.7203 C   0  0  0  0  0  0
  -21.8828   -3.8150   23.4323 C   0  0  0  0  0  0
  -21.9208   -4.6965   22.3379 C   0  0  0  0  0  0
  -22.7835  -13.5244   21.1852 C   0  0  0  0  0  0
  -22.1664   -4.2157   21.0951 F   0  0  0  0  0  0
  -21.5641   -3.4533   25.7716 F   0  0  0  0  0  0
  -29.9927  -13.5390   20.4307 N   0  0  0  0  0  0
  -26.2962  -12.9422   20.3310 N   0  0  0  0  0  0
  -25.9329  -11.6565   20.5756 N   0  0  0  0  0  0
  -22.0487  -12.8248   22.0423 N   0  0  0  0  0  0
  -25.4212  -15.1926   20.4077 N   0  0  0  0  0  0
  -31.7847  -14.8655   20.0881 O   0  0  0  0  0  0
  -21.6669   -6.8871   21.4221 O   0  0  0  0  0  0
  -22.3538  -14.5534   20.6668 O   0  0  0  0  0  0
  -24.6311  -31.8563   23.1955 C   0  0  0  0  0  0
  -25.9118  -32.4778   23.8325 C   0  0  1  0  0  0
  -27.2284  -27.2536   20.1446 C   0  0  0  0  0  0
  -25.5904  -33.8576   24.2256 N   0  0  0  0  0  0
  -23.4284  -30.4745   21.5409 C   0  0  2  0  0  0
  -24.8785  -28.9177   20.1076 C   0  0  0  0  0  0
  -22.7513  -29.4592   22.4927 C   0  0  0  0  0  0
  -18.0282  -28.1405   22.8465 C   0  0  0  0  0  0
  -24.1479  -36.7289   23.2640 C   0  0  0  0  0  0
  -25.9730  -30.7680   21.3733 C   0  0  0  0  0  0
  -26.0475  -29.3869   20.7202 C   0  0  0  0  0  0
  -27.2243  -28.5690   20.7215 C   0  0  0  0  0  0
  -26.0359  -26.8549   19.4968 C   0  0  0  0  0  0
  -24.8792  -27.6633   19.4796 C   0  0  0  0  0  0
  -23.6460  -29.8026   20.1574 C   0  0  0  0  0  0
  -25.4113  -36.3091   24.0326 C   0  0  1  0  0  0
  -20.5885  -28.3708   23.1270 C   0  0  2  0  0  0
  -20.6779  -26.9424   22.5418 C   0  0  0  0  0  0
  -19.5778  -26.6385   21.5203 C   0  0  0  0  0  0
  -18.1944  -26.7950   22.1591 C   0  0  0  0  0  0
  -19.1540  -28.8872   23.2865 C   0  0  0  0  0  0
  -18.9465  -30.1470   23.8895 C   0  0  0  0  0  0
  -17.6470  -30.6597   24.0557 C   0  0  0  0  0  0
  -25.9061  -34.9452   23.5112 C   0  0  0  0  0  0
  -16.5356  -29.9100   23.6330 C   0  0  0  0  0  0
  -16.7270  -28.6517   23.0348 C   0  0  0  0  0  0
  -26.4479  -31.6602   25.0717 C   0  0  0  0  0  0
  -25.3681  -31.3747   26.1422 C   0  0  0  0  0  0
  -27.0316  -30.3026   24.6183 C   0  0  0  0  0  0
  -27.6070  -32.4313   25.7464 C   0  0  0  0  0  0
  -27.5583  -37.1798   24.8461 C   0  0  0  0  0  0
  -21.4212  -29.3048   22.3664 N   0  0  0  0  0  0
  -26.4290  -37.3788   23.9402 N   0  0  0  0  0  0
  -24.6965  -31.0513   22.0935 N   0  0  0  0  0  0
  -23.4200  -28.8153   23.3041 O   0  0  0  0  0  0
  -28.3272  -26.3600   20.2323 O   0  0  0  0  0  0
  -26.5656  -34.8918   22.4694 O   0  0  0  0  0  0
  -23.5461  -32.1371   23.7252 O   0  0  0  0  0  0
  -30.0305  -20.0416   22.9756 C   0  0  0  0  0  0
  -30.1744  -18.7760   22.3640 C   0  0  0  0  0  0
  -29.8568  -18.7004   20.9881 C   0  0  0  0  0  0
  -29.3967  -21.0692   21.0255 C   0  0  0  0  0  0
  -32.7696  -16.6373   23.7779 C   0  0  0  0  0  0
  -29.2053  -24.0812   22.2596 C   0  0  0  0  0  0
  -30.1054  -17.3405   20.1721 C   0  0  0  0  0  0
  -31.8828  -17.8805   23.8342 C   0  0  0  0  0  0
  -28.1155  -24.8702   20.0934 C   0  0  0  0  0  0
  -29.1443  -23.7890   20.7454 C   0  0  2  0  0  0
  -29.6616  -21.1538   22.3129 N   0  0  0  0  0  0
  -29.4686  -19.8824   20.3443 N   0  0  0  0  0  0
  -30.6557  -17.6651   23.0791 N   0  0  0  0  0  0
  -28.9787  -22.2979   20.3863 N   0  0  0  0  0  0
  -29.8667  -15.9165   20.7124 N   0  0  0  0  0  0
  -31.4803  -12.5960   19.1986 H   0  0  0  0  0  0
  -30.3828  -11.4963   19.9858 H   0  0  0  0  0  0
  -29.8157  -11.7465   17.5457 H   0  0  0  0  0  0
  -29.6481  -13.4757   17.7479 H   0  0  0  0  0  0
  -27.9091  -11.2842   18.9273 H   0  0  0  0  0  0
  -27.3962  -12.5226   17.8098 H   0  0  0  0  0  0
  -27.6398  -14.2556   19.4779 H   0  0  0  0  0  0
  -28.7209  -12.1941   21.4553 H   0  0  0  0  0  0
  -28.4137  -13.8779   21.8032 H   0  0  0  0  0  0
  -25.2770   -9.5726   22.4750 H   0  0  0  0  0  0
  -24.0024   -7.4682   22.7477 H   0  0  0  0  0  0
  -21.0853   -8.8781   19.8967 H   0  0  0  0  0  0
  -22.3680  -10.9687   19.6186 H   0  0  0  0  0  0
  -21.1995   -7.6142   23.9692 H   0  0  0  0  0  0
  -21.1504   -6.0518   25.9064 H   0  0  0  0  0  0
  -22.0588   -2.7605   23.2813 H   0  0  0  0  0  0
  -22.4089  -11.9920   22.4842 H   0  0  0  0  0  0
  -21.1099  -13.1288   22.2599 H   0  0  0  0  0  0
  -24.6490  -15.8425   20.5064 H   0  0  0  0  0  0
  -26.2615  -15.6293   20.0503 H   0  0  0  0  0  0
  -26.7183  -32.5444   23.1077 H   0  0  0  0  0  0
  -24.9982  -33.9711   25.0353 H   0  0  0  0  0  0
  -22.7259  -31.2968   21.3945 H   0  0  0  0  0  0
  -23.3752  -35.9612   23.3305 H   0  0  0  0  0  0
  -24.3568  -36.8916   22.2057 H   0  0  0  0  0  0
  -23.7198  -37.6473   23.6669 H   0  0  0  0  0  0
  -26.1057  -31.5250   20.5982 H   0  0  0  0  0  0
  -26.8545  -30.8291   21.9997 H   0  0  0  0  0  0
  -28.1185  -28.9266   21.2101 H   0  0  0  0  0  0
  -25.9762  -25.8922   19.0106 H   0  0  0  0  0  0
  -23.9858  -27.3063   18.9836 H   0  0  0  0  0  0
  -23.7607  -30.5777   19.3989 H   0  0  0  0  0  0
  -22.7659  -29.2297   19.8591 H   0  0  0  0  0  0
  -25.1297  -36.1960   25.0816 H   0  0  0  0  0  0
  -20.9962  -28.3291   24.1399 H   0  0  0  0  0  0
  -20.5650  -26.2330   23.3630 H   0  0  0  0  0  0
  -21.6662  -26.7447   22.1242 H   0  0  0  0  0  0
  -19.6949  -25.6282   21.1270 H   0  0  0  0  0  0
  -19.6737  -27.3160   20.6707 H   0  0  0  0  0  0
  -17.4223  -26.6672   21.3985 H   0  0  0  0  0  0
  -18.0343  -26.0096   22.8993 H   0  0  0  0  0  0
  -19.7948  -30.7275   24.2269 H   0  0  0  0  0  0
  -17.5027  -31.6284   24.5167 H   0  0  0  0  0  0
  -15.5356  -30.3016   23.7662 H   0  0  0  0  0  0
  -15.8658  -28.0835   22.7086 H   0  0  0  0  0  0
  -24.5872  -30.7097   25.7712 H   0  0  0  0  0  0
  -24.8840  -32.2907   26.4821 H   0  0  0  0  0  0
  -25.7961  -30.8922   27.0217 H   0  0  0  0  0  0
  -26.2888  -29.6785   24.1204 H   0  0  0  0  0  0
  -27.3998  -29.7287   25.4696 H   0  0  0  0  0  0
  -27.8764  -30.4311   23.9416 H   0  0  0  0  0  0
  -27.2730  -33.3604   26.2088 H   0  0  0  0  0  0
  -28.3843  -32.6882   25.0257 H   0  0  0  0  0  0
  -28.0785  -31.8400   26.5328 H   0  0  0  0  0  0
  -28.2628  -38.0079   24.7528 H   0  0  0  0  0  0
  -28.1064  -36.2619   24.6276 H   0  0  0  0  0  0
  -27.2318  -37.1433   25.8871 H   0  0  0  0  0  0
  -20.9418  -29.8743   21.6832 H   0  0  0  0  0  0
  -26.0192  -38.2865   24.1418 H   0  0  0  0  0  0
  -30.2488  -20.1777   24.0254 H   0  0  0  0  0  0
  -33.6866  -16.7945   24.3469 H   0  0  0  0  0  0
  -33.0552  -16.3940   22.7531 H   0  0  0  0  0  0
  -32.2714  -15.7678   24.2076 H   0  0  0  0  0  0
  -29.2607  -25.1553   22.4472 H   0  0  0  0  0  0
  -30.0987  -23.6573   22.7159 H   0  0  0  0  0  0
  -28.3335  -23.7038   22.7942 H   0  0  0  0  0  0
  -31.1487  -17.3899   19.8547 H   0  0  0  0  0  0
  -29.5242  -17.4136   19.2526 H   0  0  0  0  0  0
  -32.4463  -18.7276   23.4346 H   0  0  0  0  0  0
  -31.6405  -18.1175   24.8737 H   0  0  0  0  0  0
  -27.1348  -24.6272   20.5045 H   0  0  0  0  0  0
  -28.0416  -24.6674   19.0262 H   0  0  0  0  0  0
  -30.1265  -24.0549   20.3544 H   0  0  0  0  0  0
  -30.6345  -16.7861   22.5638 H   0  0  0  0  0  0
  -28.7965  -22.1627   19.3983 H   0  0  0  0  0  0
  -28.9427  -15.7660   21.0897 H   0  0  0  0  0  0
  1 25  1  0  0  0
  1 30  2  0  0  0
  1 85  1  0  0  0
  2  3  1  0  0  0
  2 25  1  0  0  0
  2 86  1  0  0  0
  2 87  1  0  0  0
  3  4  1  0  0  0
  3 88  1  0  0  0
  3 89  1  0  0  0
  4  5  1  0  0  0
  4 90  1  0  0  0
  4 91  1  0  0  0
  5  6  1  0  0  0
  5 26  1  0  0  0
  5 92  1  0  0  0
  6 25  1  0  0  0
  6 93  1  0  0  0
  6 94  1  0  0  0
  7  8  2  0  0  0
  7 26  1  0  0  0
  7 29  1  0  0  0
  8  9  1  0  0  0
  8 22  1  0  0  0
  9 10  1  0  0  0
  9 27  2  0  0  0
 10 11  2  0  0  0
 10 15  1  0  0  0
 11 12  1  0  0  0
 11 95  1  0  0  0
 12 13  2  0  0  0
 12 96  1  0  0  0
 13 14  1  0  0  0
 13 31  1  0  0  0
 14 15  2  0  0  0
 14 97  1  0  0  0
 15 98  1  0  0  0
 16 17  2  0  0  0
 16 21  1  0  0  0
 16 31  1  0  0  0
 17 18  1  0  0  0
 17 99  1  0  0  0
 18 19  2  0  0  0
 18100  1  0  0  0
 19 20  1  0  0  0
 19 24  1  0  0  0
 20 21  2  0  0  0
 20101  1  0  0  0
 21 23  1  0  0  0
 22 28  1  0  0  0
 22 32  2  0  0  0
 26 27  1  0  0  0
 28102  1  0  0  0
 28103  1  0  0  0
 29104  1  0  0  0
 29105  1  0  0  0
 33 34  1  0  0  0
 33 66  1  0  0  0
 33 70  2  0  0  0
 34 36  1  0  0  0
 34 59  1  0  0  0
 34106  1  0  0  0
 35 44  2  0  0  0
 35 45  1  0  0  0
 35 68  1  0  0  0
 36 56  1  0  0  0
 36107  1  0  0  0
 37 39  1  0  0  0
 37 47  1  0  0  0
 37 66  1  0  0  0
 37108  1  0  0  0
 38 43  2  0  0  0
 38 46  1  0  0  0
 38 47  1  0  0  0
 39 64  1  0  0  0
 39 67  2  0  0  0
 40 52  1  0  0  0
 40 53  2  0  0  0
 40 58  1  0  0  0
 41109  1  0  0  0
 41110  1  0  0  0
 41111  1  0  0  0
 41 48  1  0  0  0
 42 43  1  0  0  0
 42 66  1  0  0  0
 42112  1  0  0  0
 42113  1  0  0  0
 43 44  1  0  0  0
 44114  1  0  0  0
 45 46  2  0  0  0
 45115  1  0  0  0
 46116  1  0  0  0
 47117  1  0  0  0
 47118  1  0  0  0
 48 56  1  0  0  0
 48 65  1  0  0  0
 48119  1  0  0  0
 49 50  1  0  0  0
 49 53  1  0  0  0
 49 64  1  0  0  0
 49120  1  0  0  0
 50 51  1  0  0  0
 50121  1  0  0  0
 50122  1  0  0  0
 51 52  1  0  0  0
 51123  1  0  0  0
 51124  1  0  0  0
 52125  1  0  0  0
 52126  1  0  0  0
 53 54  1  0  0  0
 54 55  2  0  0  0
 54127  1  0  0  0
 55 57  1  0  0  0
 55128  1  0  0  0
 56 69  2  0  0  0
 57 58  2  0  0  0
 57129  1  0  0  0
 58130  1  0  0  0
 59 60  1  0  0  0
 59 61  1  0  0  0
 59 62  1  0  0  0
 60131  1  0  0  0
 60132  1  0  0  0
 60133  1  0  0  0
 61134  1  0  0  0
 61135  1  0  0  0
 61136  1  0  0  0
 62137  1  0  0  0
 62138  1  0  0  0
 62139  1  0  0  0
 63 65  1  0  0  0
 63140  1  0  0  0
 63141  1  0  0  0
 63142  1  0  0  0
 64143  1  0  0  0
 65144  1  0  0  0
 68 79  1  0  0  0
 71 72  2  0  0  0
 71 81  1  0  0  0
 71145  1  0  0  0
 72 73  1  0  0  0
 72 83  1  0  0  0
 73 77  1  0  0  0
 73 82  2  0  0  0
 74 81  2  0  0  0
 74 82  1  0  0  0
 74 84  1  0  0  0
 75 78  1  0  0  0
 75146  1  0  0  0
 75147  1  0  0  0
 75148  1  0  0  0
 76149  1  0  0  0
 76150  1  0  0  0
 76151  1  0  0  0
 76 80  1  0  0  0
 77 85  1  0  0  0
 77152  1  0  0  0
 77153  1  0  0  0
 78 83  1  0  0  0
 78154  1  0  0  0
 78155  1  0  0  0
 79 80  1  0  0  0
 79156  1  0  0  0
 79157  1  0  0  0
 80 84  1  0  0  0
 80158  1  0  0  0
 83159  1  0  0  0
 84160  1  0  0  0
 85161  1  0  0  0
M  ISO  4   1 100  68 101  79 101  85 100
M  END
> <chiral flag>
0

> <version>
0

> <s_m_source_file>
/data/baiqing/PycharmProjects/Reinvent-master-3.2/result/LINK_invent/BTK/process_docking_weight1_custom_product_contain_oxygen_bond_distance_aromatic_linkinvent_7_9_3/rearranged_h_0192.sdf

> <i_m_source_file_index>
56

> <r_mmod_Potential_Energy-OPLS-2005>
-372.112060546875

> <r_mmod_Stretch_Energy-OPLS-2005>
137.514175415039

> <r_mmod_Bend_Energy-OPLS-2005>
188.751052856445

> <r_mmod_Torsional_Energy-OPLS-2005>
206.81413269043

> <r_mmod_Improper_Torsional_Energy-OPLS-2005>
11.5930614471436

> <r_mmod_Van_der_Waal_Energy-OPLS-2005>
148.127059936523

> <r_mmod_Electrostatic_Energy-OPLS-2005>
-910.031311035156

> <r_mmod_Solvation_Energy-OPLS-2005>
-248.780502319336

> <b_mmod_Minimization_Converged-OPLS-2005>
0

> <r_mmod_RMS_Derivative-OPLS-2005>
3.61808967590332

$$$$
57
                    3D
 Structure written by MMmdl.
162170  0  0  1  0            999 V2000
  -30.7380  -14.4617   20.5449 C   0  0  0  0  0  0
  -30.4179  -12.2797   19.4493 C   0  0  0  0  0  0
  -29.5016  -12.4600   18.2232 C   0  0  0  0  0  0
  -28.0208  -12.3361   18.6347 C   0  0  0  0  0  0
  -27.6623  -13.2035   19.8714 C   0  0  2  0  0  0
  -28.7056  -13.0155   20.9994 C   0  0  0  0  0  0
  -25.2600  -13.8152   20.5653 C   0  0  0  0  0  0
  -24.1839  -13.0438   20.9182 C   0  0  0  0  0  0
  -24.6392  -11.6907   20.8733 C   0  0  0  0  0  0
  -23.9057  -10.4289   21.0404 C   0  0  0  0  0  0
  -24.3612   -9.4186   21.9169 C   0  0  0  0  0  0
  -23.6278   -8.2221   22.0740 C   0  0  0  0  0  0
  -22.4243   -8.0261   21.3537 C   0  0  0  0  0  0
  -21.9886   -9.0240   20.4630 C   0  0  0  0  0  0
  -22.7240  -10.2114   20.3044 C   0  0  0  0  0  0
  -21.6822   -6.0723   22.5275 C   0  0  0  0  0  0
  -21.4003   -6.5631   23.8207 C   0  0  0  0  0  0
  -21.3657   -5.6788   24.9179 C   0  0  0  0  0  0
  -21.6037   -4.3054   24.7222 C   0  0  0  0  0  0
  -21.8807   -3.8139   23.4342 C   0  0  0  0  0  0
  -21.9169   -4.6956   22.3393 C   0  0  0  0  0  0
  -22.7868  -13.5237   21.1855 C   0  0  0  0  0  0
  -22.1624   -4.2150   21.0969 F   0  0  0  0  0  0
  -21.5633   -3.4540   25.7737 F   0  0  0  0  0  0
  -30.0357  -13.2994   20.4373 N   0  0  0  0  0  0
  -26.3027  -12.9304   20.3365 N   0  0  0  0  0  0
  -25.9320  -11.6481   20.5802 N   0  0  0  0  0  0
  -22.0534  -12.8209   22.0423 N   0  0  0  0  0  0
  -25.4315  -15.1851   20.3958 N   0  0  0  0  0  0
  -31.8800  -14.5685   20.0963 O   0  0  0  0  0  0
  -21.6613   -6.8859   21.4229 O   0  0  0  0  0  0
  -22.3539  -14.5551   20.6716 O   0  0  0  0  0  0
  -24.6199  -31.8652   23.2093 C   0  0  0  0  0  0
  -25.9091  -32.4798   23.8387 C   0  0  1  0  0  0
  -27.2378  -27.4145   20.0832 C   0  0  0  0  0  0
  -25.5920  -33.8597   24.2315 N   0  0  0  0  0  0
  -23.4079  -30.4923   21.5517 C   0  0  2  0  0  0
  -24.8523  -28.9609   20.1137 C   0  0  0  0  0  0
  -22.7408  -29.4679   22.4981 C   0  0  0  0  0  0
  -18.0285  -28.1367   22.8499 C   0  0  0  0  0  0
  -24.1486  -36.7323   23.2634 C   0  0  0  0  0  0
  -25.9404  -30.8268   21.3647 C   0  0  0  0  0  0
  -26.0175  -29.4613   20.7064 C   0  0  0  0  0  0
  -27.2117  -28.6984   20.6856 C   0  0  0  0  0  0
  -26.0453  -26.9447   19.4781 C   0  0  0  0  0  0
  -24.8621  -27.7010   19.4981 C   0  0  0  0  0  0
  -23.6155  -29.8278   20.1658 C   0  0  0  0  0  0
  -25.4106  -36.3111   24.0338 C   0  0  1  0  0  0
  -20.5869  -28.3677   23.1302 C   0  0  2  0  0  0
  -20.6778  -26.9406   22.5417 C   0  0  0  0  0  0
  -19.5752  -26.6384   21.5212 C   0  0  0  0  0  0
  -18.1930  -26.7919   22.1625 C   0  0  0  0  0  0
  -19.1529  -28.8842   23.2901 C   0  0  0  0  0  0
  -18.9456  -30.1446   23.8913 C   0  0  0  0  0  0
  -17.6456  -30.6576   24.0576 C   0  0  0  0  0  0
  -25.9041  -34.9468   23.5123 C   0  0  0  0  0  0
  -16.5346  -29.9080   23.6319 C   0  0  0  0  0  0
  -16.7276  -28.6488   23.0349 C   0  0  0  0  0  0
  -26.4485  -31.6574   25.0726 C   0  0  0  0  0  0
  -25.3757  -31.3670   26.1477 C   0  0  0  0  0  0
  -27.0307  -30.3012   24.6117 C   0  0  0  0  0  0
  -27.6043  -32.4298   25.7499 C   0  0  0  0  0  0
  -27.5581  -37.1818   24.8453 C   0  0  0  0  0  0
  -21.4138  -29.3043   22.3695 N   0  0  0  0  0  0
  -26.4282  -37.3799   23.9414 N   0  0  0  0  0  0
  -24.6752  -31.0753   22.1002 N   0  0  0  0  0  0
  -23.4156  -28.8237   23.3059 O   0  0  0  0  0  0
  -28.4010  -26.6527   20.1010 O   0  0  0  0  0  0
  -26.5584  -34.8924   22.4678 O   0  0  0  0  0  0
  -23.5393  -32.1393   23.7492 O   0  0  0  0  0  0
  -31.6034  -19.0922   20.9805 C   0  0  0  0  0  0
  -30.2383  -19.1717   21.1372 C   0  0  0  0  0  0
  -30.5118  -16.8842   21.0058 C   0  0  0  0  0  0
  -27.6001  -19.5495   23.0353 C   0  0  0  0  0  0
  -31.0473  -22.3142   21.9978 C   0  0  0  0  0  0
  -28.7915  -20.4840   22.7581 C   0  0  0  0  0  0
  -29.0080  -22.8714   20.5334 C   0  0  0  0  0  0
  -28.2494  -25.2349   19.8586 C   0  0  0  0  0  0
  -29.3791  -20.4242   21.3210 C   0  0  1  0  0  0
  -30.0703  -21.7862   20.9198 C   0  0  2  0  0  0
  -29.4669  -24.3325   20.2207 C   0  0  2  0  0  0
  -29.6389  -17.8946   21.1275 N   0  0  0  0  0  0
  -30.0597  -15.5315   21.0047 N   0  0  0  0  0  0
  -30.3705  -24.3013   19.1255 O   0  0  0  0  0  0
  -32.1786  -17.4493   20.8704 S   0  0  0  0  0  0
  -31.4677  -12.3422   19.1573 H   0  0  0  0  0  0
  -30.2955  -11.2814   19.8770 H   0  0  0  0  0  0
  -29.7420  -11.7082   17.4707 H   0  0  0  0  0  0
  -29.6892  -13.4304   17.7612 H   0  0  0  0  0  0
  -27.8388  -11.2846   18.8635 H   0  0  0  0  0  0
  -27.3722  -12.5783   17.7925 H   0  0  0  0  0  0
  -27.6962  -14.2437   19.5514 H   0  0  0  0  0  0
  -28.6844  -11.9876   21.3665 H   0  0  0  0  0  0
  -28.4740  -13.6413   21.8618 H   0  0  0  0  0  0
  -25.2757   -9.5658   22.4741 H   0  0  0  0  0  0
  -24.0013   -7.4619   22.7456 H   0  0  0  0  0  0
  -21.0828   -8.8744   19.8914 H   0  0  0  0  0  0
  -22.3714  -10.9642   19.6142 H   0  0  0  0  0  0
  -21.1989   -7.6143   23.9708 H   0  0  0  0  0  0
  -21.1517   -6.0534   25.9085 H   0  0  0  0  0  0
  -22.0606   -2.7609   23.2863 H   0  0  0  0  0  0
  -22.4205  -11.9875   22.4761 H   0  0  0  0  0  0
  -21.1134  -13.1179   22.2632 H   0  0  0  0  0  0
  -24.6558  -15.8359   20.4638 H   0  0  0  0  0  0
  -26.2720  -15.6066   20.0179 H   0  0  0  0  0  0
  -26.7177  -32.5507   23.1161 H   0  0  0  0  0  0
  -25.0089  -33.9729   25.0474 H   0  0  0  0  0  0
  -22.7017  -31.3123   21.4121 H   0  0  0  0  0  0
  -23.3743  -35.9657   23.3270 H   0  0  0  0  0  0
  -24.3595  -36.8955   22.2053 H   0  0  0  0  0  0
  -23.7221  -37.6521   23.6654 H   0  0  0  0  0  0
  -26.0568  -31.5996   20.6026 H   0  0  0  0  0  0
  -26.8259  -30.8756   21.9859 H   0  0  0  0  0  0
  -28.1102  -29.0866   21.1448 H   0  0  0  0  0  0
  -25.9974  -25.9893   18.9773 H   0  0  0  0  0  0
  -23.9686  -27.3076   19.0337 H   0  0  0  0  0  0
  -23.7224  -30.6029   19.4057 H   0  0  0  0  0  0
  -22.7388  -29.2480   19.8706 H   0  0  0  0  0  0
  -25.1290  -36.1967   25.0828 H   0  0  0  0  0  0
  -20.9975  -28.3255   24.1416 H   0  0  0  0  0  0
  -20.5695  -26.2281   23.3611 H   0  0  0  0  0  0
  -21.6652  -26.7451   22.1198 H   0  0  0  0  0  0
  -19.6914  -25.6301   21.1225 H   0  0  0  0  0  0
  -19.6686  -27.3213   20.6758 H   0  0  0  0  0  0
  -17.4204  -26.6693   21.4016 H   0  0  0  0  0  0
  -18.0318  -26.0041   22.9001 H   0  0  0  0  0  0
  -19.7934  -30.7269   24.2273 H   0  0  0  0  0  0
  -17.5010  -31.6258   24.5180 H   0  0  0  0  0  0
  -15.5351  -30.2995   23.7622 H   0  0  0  0  0  0
  -15.8678  -28.0824   22.7047 H   0  0  0  0  0  0
  -24.5939  -30.6998   25.7829 H   0  0  0  0  0  0
  -24.8954  -32.2818   26.4964 H   0  0  0  0  0  0
  -25.8148  -30.8827   27.0209 H   0  0  0  0  0  0
  -26.2857  -29.6778   24.1163 H   0  0  0  0  0  0
  -27.4036  -29.7246   25.4588 H   0  0  0  0  0  0
  -27.8708  -30.4309   23.9291 H   0  0  0  0  0  0
  -27.2637  -33.3564   26.2139 H   0  0  0  0  0  0
  -28.3834  -32.6913   25.0323 H   0  0  0  0  0  0
  -28.0733  -31.8384   26.5371 H   0  0  0  0  0  0
  -28.2580  -38.0137   24.7552 H   0  0  0  0  0  0
  -28.1097  -36.2675   24.6219 H   0  0  0  0  0  0
  -27.2311  -37.1404   25.8856 H   0  0  0  0  0  0
  -20.9291  -29.8744   21.6900 H   0  0  0  0  0  0
  -26.0167  -38.2868   24.1445 H   0  0  0  0  0  0
  -32.3164  -19.9022   20.9320 H   0  0  0  0  0  0
  -27.2895  -19.6333   24.0781 H   0  0  0  0  0  0
  -27.8379  -18.5025   22.8580 H   0  0  0  0  0  0
  -26.7423  -19.8070   22.4136 H   0  0  0  0  0  0
  -31.6445  -23.1410   21.6116 H   0  0  0  0  0  0
  -31.7487  -21.5531   22.3367 H   0  0  0  0  0  0
  -30.5198  -22.6804   22.8780 H   0  0  0  0  0  0
  -29.5849  -20.2888   23.4798 H   0  0  0  0  0  0
  -28.4402  -21.4903   22.9751 H   0  0  0  0  0  0
  -28.2885  -22.9428   21.3478 H   0  0  0  0  0  0
  -28.4311  -22.4971   19.6858 H   0  0  0  0  0  0
  -27.4124  -24.8940   20.4728 H   0  0  0  0  0  0
  -27.9619  -25.0540   18.8219 H   0  0  0  0  0  0
  -28.5358  -20.3148   20.6371 H   0  0  0  0  0  0
  -30.6501  -21.5995   20.0141 H   0  0  0  0  0  0
  -29.9680  -24.7541   21.0944 H   0  0  0  0  0  0
  -29.1017  -15.3797   21.2705 H   0  0  0  0  0  0
  -29.9028  -23.9613   18.3679 H   0  0  0  0  0  0
  1 25  1  0  0  0
  1 30  2  0  0  0
  1 83  1  0  0  0
  2  3  1  0  0  0
  2 25  1  0  0  0
  2 86  1  0  0  0
  2 87  1  0  0  0
  3  4  1  0  0  0
  3 88  1  0  0  0
  3 89  1  0  0  0
  4  5  1  0  0  0
  4 90  1  0  0  0
  4 91  1  0  0  0
  5  6  1  0  0  0
  5 26  1  0  0  0
  5 92  1  0  0  0
  6 25  1  0  0  0
  6 93  1  0  0  0
  6 94  1  0  0  0
  7  8  2  0  0  0
  7 26  1  0  0  0
  7 29  1  0  0  0
  8  9  1  0  0  0
  8 22  1  0  0  0
  9 10  1  0  0  0
  9 27  2  0  0  0
 10 11  2  0  0  0
 10 15  1  0  0  0
 11 12  1  0  0  0
 11 95  1  0  0  0
 12 13  2  0  0  0
 12 96  1  0  0  0
 13 14  1  0  0  0
 13 31  1  0  0  0
 14 15  2  0  0  0
 14 97  1  0  0  0
 15 98  1  0  0  0
 16 17  2  0  0  0
 16 21  1  0  0  0
 16 31  1  0  0  0
 17 18  1  0  0  0
 17 99  1  0  0  0
 18 19  2  0  0  0
 18100  1  0  0  0
 19 20  1  0  0  0
 19 24  1  0  0  0
 20 21  2  0  0  0
 20101  1  0  0  0
 21 23  1  0  0  0
 22 28  1  0  0  0
 22 32  2  0  0  0
 26 27  1  0  0  0
 28102  1  0  0  0
 28103  1  0  0  0
 29104  1  0  0  0
 29105  1  0  0  0
 33 34  1  0  0  0
 33 66  1  0  0  0
 33 70  2  0  0  0
 34 36  1  0  0  0
 34 59  1  0  0  0
 34106  1  0  0  0
 35 44  2  0  0  0
 35 45  1  0  0  0
 35 68  1  0  0  0
 36 56  1  0  0  0
 36107  1  0  0  0
 37 39  1  0  0  0
 37 47  1  0  0  0
 37 66  1  0  0  0
 37108  1  0  0  0
 38 43  2  0  0  0
 38 46  1  0  0  0
 38 47  1  0  0  0
 39 64  1  0  0  0
 39 67  2  0  0  0
 40 52  1  0  0  0
 40 53  2  0  0  0
 40 58  1  0  0  0
 41109  1  0  0  0
 41110  1  0  0  0
 41111  1  0  0  0
 41 48  1  0  0  0
 42 43  1  0  0  0
 42 66  1  0  0  0
 42112  1  0  0  0
 42113  1  0  0  0
 43 44  1  0  0  0
 44114  1  0  0  0
 45 46  2  0  0  0
 45115  1  0  0  0
 46116  1  0  0  0
 47117  1  0  0  0
 47118  1  0  0  0
 48 56  1  0  0  0
 48 65  1  0  0  0
 48119  1  0  0  0
 49 50  1  0  0  0
 49 53  1  0  0  0
 49 64  1  0  0  0
 49120  1  0  0  0
 50 51  1  0  0  0
 50121  1  0  0  0
 50122  1  0  0  0
 51 52  1  0  0  0
 51123  1  0  0  0
 51124  1  0  0  0
 52125  1  0  0  0
 52126  1  0  0  0
 53 54  1  0  0  0
 54 55  2  0  0  0
 54127  1  0  0  0
 55 57  1  0  0  0
 55128  1  0  0  0
 56 69  2  0  0  0
 57 58  2  0  0  0
 57129  1  0  0  0
 58130  1  0  0  0
 59 60  1  0  0  0
 59 61  1  0  0  0
 59 62  1  0  0  0
 60131  1  0  0  0
 60132  1  0  0  0
 60133  1  0  0  0
 61134  1  0  0  0
 61135  1  0  0  0
 61136  1  0  0  0
 62137  1  0  0  0
 62138  1  0  0  0
 62139  1  0  0  0
 63 65  1  0  0  0
 63140  1  0  0  0
 63141  1  0  0  0
 63142  1  0  0  0
 64143  1  0  0  0
 65144  1  0  0  0
 68 78  1  0  0  0
 71 72  2  0  0  0
 71 85  1  0  0  0
 71145  1  0  0  0
 72 79  1  0  0  0
 72 82  1  0  0  0
 73 82  2  0  0  0
 73 83  1  0  0  0
 73 85  1  0  0  0
 74 76  1  0  0  0
 74146  1  0  0  0
 74147  1  0  0  0
 74148  1  0  0  0
 75149  1  0  0  0
 75150  1  0  0  0
 75151  1  0  0  0
 75 80  1  0  0  0
 76152  1  0  0  0
 76153  1  0  0  0
 76 79  1  0  0  0
 77 80  1  0  0  0
 77 81  1  0  0  0
 77154  1  0  0  0
 77155  1  0  0  0
 78 81  1  0  0  0
 78156  1  0  0  0
 78157  1  0  0  0
 79 80  1  0  0  0
 79158  1  0  0  0
 80159  1  0  0  0
 81 84  1  0  0  0
 81160  1  0  0  0
 83161  1  0  0  0
 84162  1  0  0  0
M  ISO  4   1 100  68 101  78 101  83 100
M  END
> <chiral flag>
0

> <version>
0

> <s_m_source_file>
/data/baiqing/PycharmProjects/Reinvent-master-3.2/result/LINK_invent/BTK/process_docking_weight1_custom_product_contain_oxygen_bond_distance_aromatic_linkinvent_7_9_3/rearranged_h_0192.sdf

> <i_m_source_file_index>
57

> <r_mmod_Potential_Energy-OPLS-2005>
-87.8552322387695

> <r_mmod_Stretch_Energy-OPLS-2005>
44.7455406188965

> <r_mmod_Bend_Energy-OPLS-2005>
109.709869384766

> <r_mmod_Torsional_Energy-OPLS-2005>
213.288192749023

> <r_mmod_Improper_Torsional_Energy-OPLS-2005>
4.09875774383545

> <r_mmod_Van_der_Waal_Energy-OPLS-2005>
144.640716552734

> <r_mmod_Electrostatic_Energy-OPLS-2005>
-400.731506347656

> <r_mmod_Solvation_Energy-OPLS-2005>
-221.012390136719

> <b_mmod_Minimization_Converged-OPLS-2005>
0

> <r_mmod_RMS_Derivative-OPLS-2005>
3.29250383377075

$$$$
58
                    3D
 Structure written by MMmdl.
165173  0  0  1  0            999 V2000
  -30.6363  -14.5676   20.5294 C   0  0  0  0  0  0
  -30.4388  -12.3613   19.4132 C   0  0  0  0  0  0
  -29.4980  -12.5149   18.1990 C   0  0  0  0  0  0
  -28.0197  -12.3604   18.6129 C   0  0  0  0  0  0
  -27.6566  -13.2068   19.8610 C   0  0  2  0  0  0
  -28.7044  -13.0132   20.9776 C   0  0  0  0  0  0
  -25.2609  -13.8148   20.5678 C   0  0  0  0  0  0
  -24.1867  -13.0423   20.9175 C   0  0  0  0  0  0
  -24.6409  -11.6899   20.8717 C   0  0  0  0  0  0
  -23.9051  -10.4293   21.0390 C   0  0  0  0  0  0
  -24.3604   -9.4205   21.9170 C   0  0  0  0  0  0
  -23.6280   -8.2243   22.0759 C   0  0  0  0  0  0
  -22.4267   -8.0270   21.3554 C   0  0  0  0  0  0
  -21.9896   -9.0245   20.4650 C   0  0  0  0  0  0
  -22.7222  -10.2125   20.3052 C   0  0  0  0  0  0
  -21.6857   -6.0714   22.5268 C   0  0  0  0  0  0
  -21.4018   -6.5630   23.8198 C   0  0  0  0  0  0
  -21.3668   -5.6787   24.9164 C   0  0  0  0  0  0
  -21.6055   -4.3056   24.7221 C   0  0  0  0  0  0
  -21.8825   -3.8137   23.4346 C   0  0  0  0  0  0
  -21.9209   -4.6947   22.3396 C   0  0  0  0  0  0
  -22.7897  -13.5228   21.1836 C   0  0  0  0  0  0
  -22.1677   -4.2133   21.0974 F   0  0  0  0  0  0
  -21.5630   -3.4536   25.7734 F   0  0  0  0  0  0
  -30.0199  -13.3564   20.4122 N   0  0  0  0  0  0
  -26.3019  -12.9305   20.3289 N   0  0  0  0  0  0
  -25.9326  -11.6471   20.5706 N   0  0  0  0  0  0
  -22.0545  -12.8211   22.0393 N   0  0  0  0  0  0
  -25.4335  -15.1859   20.4088 N   0  0  0  0  0  0
  -31.8100  -14.7541   20.2031 O   0  0  0  0  0  0
  -21.6649   -6.8851   21.4230 O   0  0  0  0  0  0
  -22.3575  -14.5524   20.6683 O   0  0  0  0  0  0
  -24.6197  -31.8604   23.2048 C   0  0  0  0  0  0
  -25.9059  -32.4786   23.8362 C   0  0  1  0  0  0
  -27.2464  -27.3803   20.1374 C   0  0  0  0  0  0
  -25.5886  -33.8588   24.2258 N   0  0  0  0  0  0
  -23.4137  -30.4791   21.5444 C   0  0  2  0  0  0
  -24.8678  -28.9335   20.1175 C   0  0  0  0  0  0
  -22.7462  -29.4616   22.4971 C   0  0  0  0  0  0
  -18.0267  -28.1396   22.8482 C   0  0  0  0  0  0
  -24.1488  -36.7318   23.2640 C   0  0  0  0  0  0
  -25.9465  -30.8110   21.3682 C   0  0  0  0  0  0
  -26.0273  -29.4398   20.7206 C   0  0  0  0  0  0
  -27.2221  -28.6751   20.7177 C   0  0  0  0  0  0
  -26.0716  -26.8969   19.5260 C   0  0  0  0  0  0
  -24.8883  -27.6656   19.5104 C   0  0  0  0  0  0
  -23.6276  -29.8001   20.1634 C   0  0  0  0  0  0
  -25.4109  -36.3083   24.0317 C   0  0  1  0  0  0
  -20.5870  -28.3677   23.1296 C   0  0  2  0  0  0
  -20.6769  -26.9402   22.5419 C   0  0  0  0  0  0
  -19.5749  -26.6377   21.5220 C   0  0  0  0  0  0
  -18.1920  -26.7937   22.1618 C   0  0  0  0  0  0
  -19.1525  -28.8858   23.2872 C   0  0  0  0  0  0
  -18.9451  -30.1469   23.8879 C   0  0  0  0  0  0
  -17.6457  -30.6595   24.0558 C   0  0  0  0  0  0
  -25.9034  -34.9458   23.5088 C   0  0  0  0  0  0
  -16.5342  -29.9084   23.6355 C   0  0  0  0  0  0
  -16.7260  -28.6514   23.0342 C   0  0  0  0  0  0
  -26.4476  -31.6617   25.0733 C   0  0  0  0  0  0
  -25.3712  -31.3745   26.1467 C   0  0  0  0  0  0
  -27.0350  -30.3048   24.6202 C   0  0  0  0  0  0
  -27.6024  -32.4400   25.7478 C   0  0  0  0  0  0
  -27.5578  -37.1802   24.8457 C   0  0  0  0  0  0
  -21.4180  -29.3022   22.3704 N   0  0  0  0  0  0
  -26.4291  -37.3780   23.9402 N   0  0  0  0  0  0
  -24.6771  -31.0684   22.0959 N   0  0  0  0  0  0
  -23.4194  -28.8136   23.3021 O   0  0  0  0  0  0
  -28.4040  -26.6185   20.0966 O   0  0  0  0  0  0
  -26.5620  -34.8930   22.4664 O   0  0  0  0  0  0
  -23.5377  -32.1385   23.7404 O   0  0  0  0  0  0
  -29.5265  -19.4238   20.2602 C   0  0  0  0  0  0
  -28.9930  -21.5985   20.4937 C   0  0  0  0  0  0
  -30.6178  -18.2945   16.2337 C   0  0  0  0  0  0
  -32.6059  -18.5002   17.7617 C   0  0  0  0  0  0
  -29.6936  -25.6884   21.8581 C   0  0  0  0  0  0
  -30.3811  -17.6123   18.6723 C   0  0  0  0  0  0
  -30.0387  -17.0123   21.2342 C   0  0  0  0  0  0
  -28.6381  -24.0865   20.1241 C   0  0  0  0  0  0
  -30.3541  -18.1099   20.1414 C   0  0  2  0  0  0
  -31.0702  -18.5771   17.6746 C   0  0  0  0  0  0
  -28.4870  -25.4314   20.9364 C   0  0  2  0  0  0
  -29.9405  -20.6442   20.6710 N   0  0  0  0  0  0
  -27.8137  -21.2250   19.9813 N   0  0  0  0  0  0
  -29.2148  -22.9392   20.8753 N   0  0  0  0  0  0
  -29.8014  -15.5893   20.8513 N   0  0  0  0  0  0
  -27.8622  -19.5519   19.7221 S   0  0  0  0  0  0
  -31.4782  -12.4962   19.1086 H   0  0  0  0  0  0
  -30.3743  -11.3553   19.8281 H   0  0  0  0  0  0
  -29.7444  -11.7832   17.4291 H   0  0  0  0  0  0
  -29.6453  -13.4960   17.7443 H   0  0  0  0  0  0
  -27.8362  -11.3030   18.8082 H   0  0  0  0  0  0
  -27.3671  -12.6305   17.7821 H   0  0  0  0  0  0
  -27.6840  -14.2482   19.5406 H   0  0  0  0  0  0
  -28.7042  -11.9775   21.3181 H   0  0  0  0  0  0
  -28.4656  -13.6102   21.8586 H   0  0  0  0  0  0
  -25.2753   -9.5687   22.4724 H   0  0  0  0  0  0
  -24.0005   -7.4638   22.7483 H   0  0  0  0  0  0
  -21.0837   -8.8745   19.8939 H   0  0  0  0  0  0
  -22.3676  -10.9653   19.6154 H   0  0  0  0  0  0
  -21.1992   -7.6137   23.9683 H   0  0  0  0  0  0
  -21.1493   -6.0528   25.9063 H   0  0  0  0  0  0
  -22.0599   -2.7597   23.2852 H   0  0  0  0  0  0
  -22.4198  -11.9873   22.4750 H   0  0  0  0  0  0
  -21.1151  -13.1221   22.2588 H   0  0  0  0  0  0
  -24.6619  -15.8358   20.5101 H   0  0  0  0  0  0
  -26.2701  -15.6222   20.0442 H   0  0  0  0  0  0
  -26.7115  -32.5487   23.1109 H   0  0  0  0  0  0
  -25.0037  -33.9749   25.0397 H   0  0  0  0  0  0
  -22.7028  -31.2951   21.3951 H   0  0  0  0  0  0
  -23.3737  -35.9661   23.3309 H   0  0  0  0  0  0
  -24.3568  -36.8961   22.2052 H   0  0  0  0  0  0
  -23.7275  -37.6529   23.6688 H   0  0  0  0  0  0
  -26.0754  -31.5711   20.5969 H   0  0  0  0  0  0
  -26.8287  -30.8615   21.9972 H   0  0  0  0  0  0
  -28.1238  -29.0667   21.1677 H   0  0  0  0  0  0
  -26.0781  -25.9219   19.0565 H   0  0  0  0  0  0
  -24.0020  -27.2732   19.0307 H   0  0  0  0  0  0
  -23.7263  -30.5687   19.3951 H   0  0  0  0  0  0
  -22.7543  -29.2102   19.8792 H   0  0  0  0  0  0
  -25.1289  -36.1923   25.0808 H   0  0  0  0  0  0
  -20.9932  -28.3249   24.1426 H   0  0  0  0  0  0
  -20.5703  -26.2275   23.3611 H   0  0  0  0  0  0
  -21.6630  -26.7460   22.1191 H   0  0  0  0  0  0
  -19.6919  -25.6283   21.1265 H   0  0  0  0  0  0
  -19.6698  -27.3172   20.6743 H   0  0  0  0  0  0
  -17.4190  -26.6674   21.4013 H   0  0  0  0  0  0
  -18.0306  -26.0078   22.9016 H   0  0  0  0  0  0
  -19.7920  -30.7292   24.2235 H   0  0  0  0  0  0
  -17.5003  -31.6286   24.5139 H   0  0  0  0  0  0
  -15.5342  -30.2961   23.7746 H   0  0  0  0  0  0
  -15.8649  -28.0856   22.7044 H   0  0  0  0  0  0
  -24.5846  -30.7147   25.7799 H   0  0  0  0  0  0
  -24.8931  -32.2905   26.4944 H   0  0  0  0  0  0
  -25.8014  -30.8878   27.0218 H   0  0  0  0  0  0
  -26.2946  -29.6755   24.1259 H   0  0  0  0  0  0
  -27.4091  -29.7364   25.4727 H   0  0  0  0  0  0
  -27.8779  -30.4357   23.9412 H   0  0  0  0  0  0
  -27.2608  -33.3687   26.2062 H   0  0  0  0  0  0
  -28.3795  -32.7008   25.0279 H   0  0  0  0  0  0
  -28.0740  -31.8545   26.5380 H   0  0  0  0  0  0
  -28.2581  -38.0111   24.7522 H   0  0  0  0  0  0
  -28.1095  -36.2648   24.6264 H   0  0  0  0  0  0
  -27.2307  -37.1439   25.8864 H   0  0  0  0  0  0
  -20.9375  -29.8704   21.6872 H   0  0  0  0  0  0
  -26.0172  -38.2856   24.1389 H   0  0  0  0  0  0
  -31.0998  -18.9703   15.5269 H   0  0  0  0  0  0
  -29.5416  -18.4220   16.1185 H   0  0  0  0  0  0
  -30.8638  -17.2755   15.9335 H   0  0  0  0  0  0
  -33.0774  -19.2014   17.0718 H   0  0  0  0  0  0
  -32.9678  -17.5024   17.5096 H   0  0  0  0  0  0
  -32.9734  -18.7392   18.7597 H   0  0  0  0  0  0
  -29.8094  -24.8974   22.6011 H   0  0  0  0  0  0
  -29.5794  -26.6225   22.4081 H   0  0  0  0  0  0
  -30.6210  -25.7537   21.2878 H   0  0  0  0  0  0
  -29.3528  -17.4268   18.3586 H   0  0  0  0  0  0
  -30.8842  -16.6503   18.5995 H   0  0  0  0  0  0
  -29.1336  -17.3202   21.7605 H   0  0  0  0  0  0
  -30.8132  -17.0374   22.0036 H   0  0  0  0  0  0
  -29.2976  -24.2696   19.2746 H   0  0  0  0  0  0
  -27.6719  -23.8197   19.6959 H   0  0  0  0  0  0
  -31.3764  -18.4131   20.3657 H   0  0  0  0  0  0
  -30.7734  -19.6033   17.9018 H   0  0  0  0  0  0
  -27.6045  -25.3614   21.5766 H   0  0  0  0  0  0
  -30.1193  -23.1132   21.2976 H   0  0  0  0  0  0
  -28.8482  -15.2849   20.9785 H   0  0  0  0  0  0
  1 25  1  0  0  0
  1 30  2  0  0  0
  1 85  1  0  0  0
  2  3  1  0  0  0
  2 25  1  0  0  0
  2 87  1  0  0  0
  2 88  1  0  0  0
  3  4  1  0  0  0
  3 89  1  0  0  0
  3 90  1  0  0  0
  4  5  1  0  0  0
  4 91  1  0  0  0
  4 92  1  0  0  0
  5  6  1  0  0  0
  5 26  1  0  0  0
  5 93  1  0  0  0
  6 25  1  0  0  0
  6 94  1  0  0  0
  6 95  1  0  0  0
  7  8  2  0  0  0
  7 26  1  0  0  0
  7 29  1  0  0  0
  8  9  1  0  0  0
  8 22  1  0  0  0
  9 10  1  0  0  0
  9 27  2  0  0  0
 10 11  2  0  0  0
 10 15  1  0  0  0
 11 12  1  0  0  0
 11 96  1  0  0  0
 12 13  2  0  0  0
 12 97  1  0  0  0
 13 14  1  0  0  0
 13 31  1  0  0  0
 14 15  2  0  0  0
 14 98  1  0  0  0
 15 99  1  0  0  0
 16 17  2  0  0  0
 16 21  1  0  0  0
 16 31  1  0  0  0
 17 18  1  0  0  0
 17100  1  0  0  0
 18 19  2  0  0  0
 18101  1  0  0  0
 19 20  1  0  0  0
 19 24  1  0  0  0
 20 21  2  0  0  0
 20102  1  0  0  0
 21 23  1  0  0  0
 22 28  1  0  0  0
 22 32  2  0  0  0
 26 27  1  0  0  0
 28103  1  0  0  0
 28104  1  0  0  0
 29105  1  0  0  0
 29106  1  0  0  0
 33 34  1  0  0  0
 33 66  1  0  0  0
 33 70  2  0  0  0
 34 36  1  0  0  0
 34 59  1  0  0  0
 34107  1  0  0  0
 35 44  2  0  0  0
 35 45  1  0  0  0
 35 68  1  0  0  0
 36 56  1  0  0  0
 36108  1  0  0  0
 37 39  1  0  0  0
 37 47  1  0  0  0
 37 66  1  0  0  0
 37109  1  0  0  0
 38 43  2  0  0  0
 38 46  1  0  0  0
 38 47  1  0  0  0
 39 64  1  0  0  0
 39 67  2  0  0  0
 40 52  1  0  0  0
 40 53  2  0  0  0
 40 58  1  0  0  0
 41110  1  0  0  0
 41111  1  0  0  0
 41112  1  0  0  0
 41 48  1  0  0  0
 42 43  1  0  0  0
 42 66  1  0  0  0
 42113  1  0  0  0
 42114  1  0  0  0
 43 44  1  0  0  0
 44115  1  0  0  0
 45 46  2  0  0  0
 45116  1  0  0  0
 46117  1  0  0  0
 47118  1  0  0  0
 47119  1  0  0  0
 48 56  1  0  0  0
 48 65  1  0  0  0
 48120  1  0  0  0
 49 50  1  0  0  0
 49 53  1  0  0  0
 49 64  1  0  0  0
 49121  1  0  0  0
 50 51  1  0  0  0
 50122  1  0  0  0
 50123  1  0  0  0
 51 52  1  0  0  0
 51124  1  0  0  0
 51125  1  0  0  0
 52126  1  0  0  0
 52127  1  0  0  0
 53 54  1  0  0  0
 54 55  2  0  0  0
 54128  1  0  0  0
 55 57  1  0  0  0
 55129  1  0  0  0
 56 69  2  0  0  0
 57 58  2  0  0  0
 57130  1  0  0  0
 58131  1  0  0  0
 59 60  1  0  0  0
 59 61  1  0  0  0
 59 62  1  0  0  0
 60132  1  0  0  0
 60133  1  0  0  0
 60134  1  0  0  0
 61135  1  0  0  0
 61136  1  0  0  0
 61137  1  0  0  0
 62138  1  0  0  0
 62139  1  0  0  0
 62140  1  0  0  0
 63 65  1  0  0  0
 63141  1  0  0  0
 63142  1  0  0  0
 63143  1  0  0  0
 64144  1  0  0  0
 65145  1  0  0  0
 68 81  1  0  0  0
 71 79  1  0  0  0
 71 82  2  0  0  0
 71 86  1  0  0  0
 72 82  1  0  0  0
 72 83  2  0  0  0
 72 84  1  0  0  0
 73146  1  0  0  0
 73147  1  0  0  0
 73148  1  0  0  0
 73 80  1  0  0  0
 74 80  1  0  0  0
 74149  1  0  0  0
 74150  1  0  0  0
 74151  1  0  0  0
 75152  1  0  0  0
 75153  1  0  0  0
 75154  1  0  0  0
 75 81  1  0  0  0
 76 80  1  0  0  0
 76155  1  0  0  0
 76156  1  0  0  0
 76 79  1  0  0  0
 77 79  1  0  0  0
 77 85  1  0  0  0
 77157  1  0  0  0
 77158  1  0  0  0
 78 81  1  0  0  0
 78 84  1  0  0  0
 78159  1  0  0  0
 78160  1  0  0  0
 79161  1  0  0  0
 80162  1  0  0  0
 81163  1  0  0  0
 83 86  1  0  0  0
 84164  1  0  0  0
 85165  1  0  0  0
M  ISO  4   1 100  68 101  81 101  85 100
M  END
> <chiral flag>
0

> <version>
0

> <s_m_source_file>
/data/baiqing/PycharmProjects/Reinvent-master-3.2/result/LINK_invent/BTK/process_docking_weight1_custom_product_contain_oxygen_bond_distance_aromatic_linkinvent_7_9_3/rearranged_h_0192.sdf

> <i_m_source_file_index>
58

> <r_mmod_Potential_Energy-OPLS-2005>
-136.602035522461

> <r_mmod_Stretch_Energy-OPLS-2005>
53.7534446716309

> <r_mmod_Bend_Energy-OPLS-2005>
146.832763671875

> <r_mmod_Torsional_Energy-OPLS-2005>
232.79753112793

> <r_mmod_Improper_Torsional_Energy-OPLS-2005>
7.22110605239868

> <r_mmod_Van_der_Waal_Energy-OPLS-2005>
113.124694824219

> <r_mmod_Electrostatic_Energy-OPLS-2005>
-500.219604492188

> <r_mmod_Solvation_Energy-OPLS-2005>
-217.587188720703

> <b_mmod_Minimization_Converged-OPLS-2005>
0

> <r_mmod_RMS_Derivative-OPLS-2005>
2.7362048625946

$$$$
59
                    3D
 Structure written by MMmdl.
154162  0  0  1  0            999 V2000
  -27.5747  -17.4864   20.5192 C   0  0  0  0  0  0
  -29.3823  -14.8936   19.5458 C   0  0  0  0  0  0
  -29.2890  -13.5170   18.6180 C   0  0  0  0  0  0
  -28.2413  -12.5199   19.0928 C   0  0  0  0  0  0
  -27.3243  -13.4321   19.8839 C   0  0  2  0  0  0
  -27.9026  -14.4182   20.9579 C   0  0  0  0  0  0
  -25.0490  -13.8088   20.5588 C   0  0  0  0  0  0
  -24.0485  -13.0022   20.9498 C   0  0  0  0  0  0
  -24.5650  -11.6697   20.8997 C   0  0  0  0  0  0
  -23.8690  -10.4033   21.0525 C   0  0  0  0  0  0
  -24.3416   -9.4035   21.9262 C   0  0  0  0  0  0
  -23.6181   -8.2047   22.0776 C   0  0  0  0  0  0
  -22.4177   -8.0074   21.3536 C   0  0  0  0  0  0
  -21.9737   -8.9985   20.4631 C   0  0  0  0  0  0
  -22.6968  -10.1884   20.3079 C   0  0  0  0  0  0
  -21.6791   -6.0625   22.5294 C   0  0  0  0  0  0
  -21.3968   -6.5575   23.8207 C   0  0  0  0  0  0
  -21.3648   -5.6760   24.9189 C   0  0  0  0  0  0
  -21.6052   -4.3019   24.7258 C   0  0  0  0  0  0
  -21.8831   -3.8080   23.4385 C   0  0  0  0  0  0
  -21.9176   -4.6873   22.3428 C   0  0  0  0  0  0
  -22.6632  -13.4742   21.2158 C   0  0  0  0  0  0
  -22.1659   -4.2065   21.1004 F   0  0  0  0  0  0
  -21.5636   -3.4523   25.7778 F   0  0  0  0  0  0
  -28.0658  -15.7965   20.2445 N   0  0  0  0  0  0
  -26.0995  -12.9576   20.3368 N   0  0  0  0  0  0
  -25.8545  -11.6587   20.5866 N   0  0  0  0  0  0
  -21.9469  -12.7798   22.0849 N   0  0  0  0  0  0
  -25.1308  -15.1853   20.3363 N   0  0  0  0  0  0
  -28.9294  -17.4741   20.5384 O   0  0  0  0  0  0
  -21.6557   -6.8703   21.4231 O   0  0  0  0  0  0
  -22.2404  -14.5075   20.6975 O   0  0  0  0  0  0
  -24.6239  -31.9034   23.2234 C   0  0  0  0  0  0
  -25.9146  -32.5053   23.8499 C   0  0  1  0  0  0
  -27.1317  -27.5358   20.0423 C   0  0  0  0  0  0
  -25.5884  -33.8782   24.2400 N   0  0  0  0  0  0
  -23.4602  -30.3852   21.6946 C   0  0  2  0  0  0
  -24.8505  -29.0963   19.9905 C   0  0  0  0  0  0
  -23.2410  -29.2628   22.7504 C   0  0  0  0  0  0
  -18.8865  -26.3437   23.2611 C   0  0  0  0  0  0
  -24.1466  -36.7455   23.2626 C   0  0  0  0  0  0
  -25.9323  -30.8933   21.3719 C   0  0  0  0  0  0
  -25.9977  -29.5748   20.6389 C   0  0  0  0  0  0
  -27.1648  -28.7957   20.6630 C   0  0  0  0  0  0
  -26.0754  -27.1578   19.2031 C   0  0  0  0  0  0
  -24.9103  -27.9375   19.1924 C   0  0  0  0  0  0
  -23.5602  -29.8356   20.2393 C   0  0  0  0  0  0
  -25.4063  -36.3199   24.0327 C   0  0  1  0  0  0
  -21.2884  -27.9581   23.9277 C   0  0  2  0  0  0
  -21.5915  -26.4826   23.8965 C   0  0  0  0  0  0
  -20.5468  -25.2798   23.8413 C   0  0  0  0  0  0
  -19.0519  -25.1804   23.7339 C   0  0  0  0  0  0
  -19.9815  -27.8454   23.4188 C   0  0  0  0  0  0
  -19.8631  -29.1476   22.3913 C   0  0  0  0  0  0
  -19.0506  -29.0195   21.0709 C   0  0  0  0  0  0
  -25.8999  -34.9585   23.5141 C   0  0  0  0  0  0
  -18.1405  -27.6659   20.6827 C   0  0  0  0  0  0
  -17.9214  -26.2852   21.7287 C   0  0  0  0  0  0
  -26.4599  -31.6788   25.0797 C   0  0  0  0  0  0
  -25.3872  -31.3584   26.1471 C   0  0  0  0  0  0
  -27.0742  -30.3372   24.6167 C   0  0  0  0  0  0
  -27.6097  -32.4645   25.7560 C   0  0  0  0  0  0
  -27.5574  -37.1849   24.8415 C   0  0  0  0  0  0
  -22.0540  -28.8645   23.0093 N   0  0  0  0  0  0
  -26.4253  -37.3865   23.9415 N   0  0  0  0  0  0
  -24.6785  -31.1249   22.1111 N   0  0  0  0  0  0
  -24.1254  -28.7343   23.3787 O   0  0  0  0  0  0
  -27.7929  -26.5212   20.6200 O   0  0  0  0  0  0
  -26.5577  -34.9006   22.4708 O   0  0  0  0  0  0
  -23.5439  -32.1543   23.7782 O   0  0  0  0  0  0
  -22.6245  -23.3961   21.0296 C   0  0  0  0  0  0
  -20.2322  -26.4823   21.4801 C   0  0  0  0  0  0
  -22.9000  -25.9476   21.0333 C   0  0  0  0  0  0
  -27.7946  -25.0827   22.4894 C   0  0  0  0  0  0
  -24.2816  -21.0786   21.0472 C   0  0  0  0  0  0
  -25.4702  -25.6181   21.6172 C   0  0  0  0  0  0
  -26.9657  -26.1779   21.8044 C   0  0  2  0  0  0
  -21.0215  -24.6021   21.3191 N   0  0  0  0  0  0
  -23.2840  -24.5862   20.8328 N   0  0  0  0  0  0
  -21.6530  -26.8042   21.1481 N   0  0  0  0  0  0
  -17.8513  -28.1911   22.8392 N   0  0  0  0  0  0
  -24.1865  -26.4523   21.4572 N   0  0  0  0  0  0
  -25.9835  -18.9962   20.6632 N   0  0  0  0  0  0
  -29.8293  -15.6188   18.8637 H   0  0  0  0  0  0
  -30.1919  -14.7795   20.2728 H   0  0  0  0  0  0
  -30.2656  -13.0411   18.5300 H   0  0  0  0  0  0
  -29.0262  -13.8192   17.6039 H   0  0  0  0  0  0
  -28.6806  -11.7647   19.7443 H   0  0  0  0  0  0
  -27.7340  -12.0160   18.2686 H   0  0  0  0  0  0
  -26.9786  -14.0545   19.0525 H   0  0  0  0  0  0
  -28.7367  -14.0031   21.5338 H   0  0  0  0  0  0
  -27.1948  -14.6084   21.7645 H   0  0  0  0  0  0
  -25.2517   -9.5635   22.4879 H   0  0  0  0  0  0
  -23.9901   -7.4455   22.7502 H   0  0  0  0  0  0
  -21.0681   -8.8451   19.8933 H   0  0  0  0  0  0
  -22.3380  -10.9437   19.6224 H   0  0  0  0  0  0
  -21.1948   -7.6088   23.9676 H   0  0  0  0  0  0
  -21.1466   -6.0504   25.9085 H   0  0  0  0  0  0
  -22.0623   -2.7542   23.2911 H   0  0  0  0  0  0
  -22.3184  -11.9472   22.5173 H   0  0  0  0  0  0
  -21.0121  -13.0825   22.3211 H   0  0  0  0  0  0
  -24.2451  -15.6714   20.2452 H   0  0  0  0  0  0
  -25.8226  -15.4917   19.6656 H   0  0  0  0  0  0
  -26.7260  -32.5757   23.1319 H   0  0  0  0  0  0
  -24.9820  -33.9907   25.0398 H   0  0  0  0  0  0
  -22.5968  -31.0529   21.7241 H   0  0  0  0  0  0
  -23.3678  -35.9830   23.3226 H   0  0  0  0  0  0
  -24.3609  -36.9140   22.2060 H   0  0  0  0  0  0
  -23.7270  -37.6663   23.6687 H   0  0  0  0  0  0
  -26.0640  -31.7075   20.6578 H   0  0  0  0  0  0
  -26.8113  -30.8954   22.0046 H   0  0  0  0  0  0
  -27.9895  -29.0645   21.3082 H   0  0  0  0  0  0
  -26.0587  -26.1772   18.7489 H   0  0  0  0  0  0
  -24.0340  -27.5877   18.6632 H   0  0  0  0  0  0
  -23.4863  -30.6582   19.5285 H   0  0  0  0  0  0
  -22.7158  -29.1763   20.0321 H   0  0  0  0  0  0
  -25.1229  -36.2045   25.0816 H   0  0  0  0  0  0
  -21.2566  -28.3655   24.9416 H   0  0  0  0  0  0
  -22.0143  -26.3807   24.8992 H   0  0  0  0  0  0
  -22.5256  -26.2417   23.4192 H   0  0  0  0  0  0
  -21.0368  -24.3324   23.6208 H   0  0  0  0  0  0
  -20.5625  -25.0567   24.9099 H   0  0  0  0  0  0
  -18.7381  -24.3744   23.0690 H   0  0  0  0  0  0
  -18.5396  -25.0681   24.6927 H   0  0  0  0  0  0
  -20.2575  -30.1449   22.5919 H   0  0  0  0  0  0
  -19.0166  -29.8627   20.3965 H   0  0  0  0  0  0
  -17.6060  -27.6790   19.7444 H   0  0  0  0  0  0
  -17.3381  -25.4264   21.4215 H   0  0  0  0  0  0
  -24.6001  -30.7149   25.7525 H   0  0  0  0  0  0
  -24.9157  -32.2606   26.5373 H   0  0  0  0  0  0
  -25.8218  -30.8272   26.9951 H   0  0  0  0  0  0
  -26.3549  -29.6962   24.1114 H   0  0  0  0  0  0
  -27.4584  -29.7669   25.4634 H   0  0  0  0  0  0
  -27.9171  -30.4960   23.9439 H   0  0  0  0  0  0
  -27.2805  -33.4234   26.1588 H   0  0  0  0  0  0
  -28.4117  -32.6768   25.0461 H   0  0  0  0  0  0
  -28.0510  -31.9125   26.5864 H   0  0  0  0  0  0
  -28.2476  -38.0257   24.7570 H   0  0  0  0  0  0
  -28.1181  -36.2793   24.6047 H   0  0  0  0  0  0
  -27.2342  -37.1277   25.8825 H   0  0  0  0  0  0
  -21.3956  -29.2859   22.3692 H   0  0  0  0  0  0
  -26.0144  -38.2924   24.1488 H   0  0  0  0  0  0
  -27.7594  -24.1527   21.9204 H   0  0  0  0  0  0
  -27.4195  -24.8694   23.4922 H   0  0  0  0  0  0
  -28.8439  -25.3664   22.5813 H   0  0  0  0  0  0
  -23.4143  -20.4308   20.9247 H   0  0  0  0  0  0
  -24.4613  -21.1277   22.1211 H   0  0  0  0  0  0
  -25.2641  -24.9950   22.4908 H   0  0  0  0  0  0
  -25.5742  -24.9245   20.7833 H   0  0  0  0  0  0
  -26.9354  -27.0105   22.5111 H   0  0  0  0  0  0
  -17.3070  -27.6549   23.4959 H   0  0  0  0  0  0
  -18.1573  -29.0878   23.1811 H   0  0  0  0  0  0
  -24.2008  -27.3896   21.8470 H   0  0  0  0  0  0
  -25.2587  -18.3280   20.4276 H   0  0  0  0  0  0
  1 25  1  0  0  0
  1 30  2  0  0  0
  1 83  1  0  0  0
  2  3  1  0  0  0
  2 25  1  0  0  0
  2 84  1  0  0  0
  2 85  1  0  0  0
  3  4  1  0  0  0
  3 86  1  0  0  0
  3 87  1  0  0  0
  4  5  1  0  0  0
  4 88  1  0  0  0
  4 89  1  0  0  0
  5  6  1  0  0  0
  5 26  1  0  0  0
  5 90  1  0  0  0
  6 25  1  0  0  0
  6 91  1  0  0  0
  6 92  1  0  0  0
  7  8  2  0  0  0
  7 26  1  0  0  0
  7 29  1  0  0  0
  8  9  1  0  0  0
  8 22  1  0  0  0
  9 10  1  0  0  0
  9 27  2  0  0  0
 10 11  2  0  0  0
 10 15  1  0  0  0
 11 12  1  0  0  0
 11 93  1  0  0  0
 12 13  2  0  0  0
 12 94  1  0  0  0
 13 14  1  0  0  0
 13 31  1  0  0  0
 14 15  2  0  0  0
 14 95  1  0  0  0
 15 96  1  0  0  0
 16 17  2  0  0  0
 16 21  1  0  0  0
 16 31  1  0  0  0
 17 18  1  0  0  0
 17 97  1  0  0  0
 18 19  2  0  0  0
 18 98  1  0  0  0
 19 20  1  0  0  0
 19 24  1  0  0  0
 20 21  2  0  0  0
 20 99  1  0  0  0
 21 23  1  0  0  0
 22 28  1  0  0  0
 22 32  2  0  0  0
 26 27  1  0  0  0
 28100  1  0  0  0
 28101  1  0  0  0
 29102  1  0  0  0
 29103  1  0  0  0
 33 34  1  0  0  0
 33 66  1  0  0  0
 33 70  2  0  0  0
 34 36  1  0  0  0
 34 59  1  0  0  0
 34104  1  0  0  0
 35 44  2  0  0  0
 35 45  1  0  0  0
 35 68  1  0  0  0
 36 56  1  0  0  0
 36105  1  0  0  0
 37 39  1  0  0  0
 37 47  1  0  0  0
 37 66  1  0  0  0
 37106  1  0  0  0
 38 43  2  0  0  0
 38 46  1  0  0  0
 38 47  1  0  0  0
 39 64  1  0  0  0
 39 67  2  0  0  0
 40 52  1  0  0  0
 40 53  2  0  0  0
 40 58  1  0  0  0
 41107  1  0  0  0
 41108  1  0  0  0
 41109  1  0  0  0
 41 48  1  0  0  0
 42 43  1  0  0  0
 42 66  1  0  0  0
 42110  1  0  0  0
 42111  1  0  0  0
 43 44  1  0  0  0
 44112  1  0  0  0
 45 46  2  0  0  0
 45113  1  0  0  0
 46114  1  0  0  0
 47115  1  0  0  0
 47116  1  0  0  0
 48 56  1  0  0  0
 48 65  1  0  0  0
 48117  1  0  0  0
 49 50  1  0  0  0
 49 53  1  0  0  0
 49 64  1  0  0  0
 49118  1  0  0  0
 50 51  1  0  0  0
 50119  1  0  0  0
 50120  1  0  0  0
 51 52  1  0  0  0
 51121  1  0  0  0
 51122  1  0  0  0
 52123  1  0  0  0
 52124  1  0  0  0
 53 54  1  0  0  0
 54 55  2  0  0  0
 54125  1  0  0  0
 55 57  1  0  0  0
 55126  1  0  0  0
 56 69  2  0  0  0
 57 58  2  0  0  0
 57127  1  0  0  0
 58128  1  0  0  0
 59 60  1  0  0  0
 59 61  1  0  0  0
 59 62  1  0  0  0
 60129  1  0  0  0
 60130  1  0  0  0
 60131  1  0  0  0
 61132  1  0  0  0
 61133  1  0  0  0
 61134  1  0  0  0
 62135  1  0  0  0
 62136  1  0  0  0
 62137  1  0  0  0
 63 65  1  0  0  0
 63138  1  0  0  0
 63139  1  0  0  0
 63140  1  0  0  0
 64141  1  0  0  0
 65142  1  0  0  0
 68 77  1  0  0  0
 71 75  1  0  0  0
 71 78  1  0  0  0
 71 79  2  0  0  0
 72 78  2  0  0  0
 72 80  1  0  0  0
 72 81  1  0  0  0
 73 79  1  0  0  0
 73 80  2  0  0  0
 73 82  1  0  0  0
 74143  1  0  0  0
 74144  1  0  0  0
 74145  1  0  0  0
 74 77  1  0  0  0
 75 83  1  0  0  0
 75146  1  0  0  0
 75147  1  0  0  0
 76 77  1  0  0  0
 76 82  1  0  0  0
 76148  1  0  0  0
 76149  1  0  0  0
 77150  1  0  0  0
 81151  1  0  0  0
 81152  1  0  0  0
 82153  1  0  0  0
 83154  1  0  0  0
M  ISO  4   1 100  68 101  77 101  83 100
M  END
> <chiral flag>
0

> <version>
0

> <s_m_source_file>
/data/baiqing/PycharmProjects/Reinvent-master-3.2/result/LINK_invent/BTK/process_docking_weight1_custom_product_contain_oxygen_bond_distance_aromatic_linkinvent_7_9_3/rearranged_h_0192.sdf

> <i_m_source_file_index>
59

> <r_mmod_Potential_Energy-OPLS-2005>
33908.04296875

> <r_mmod_Stretch_Energy-OPLS-2005>
16479.4140625

> <r_mmod_Bend_Energy-OPLS-2005>
2614.61840820312

> <r_mmod_Torsional_Energy-OPLS-2005>
448.495086669922

> <r_mmod_Improper_Torsional_Energy-OPLS-2005>
44.0884399414062

> <r_mmod_Van_der_Waal_Energy-OPLS-2005>
2942.08471679688

> <r_mmod_Electrostatic_Energy-OPLS-2005>
-1298.82104492188

> <r_mmod_Solvation_Energy-OPLS-2005>
-280.553253173828

> <b_mmod_Minimization_Converged-OPLS-2005>
0

> <r_mmod_RMS_Derivative-OPLS-2005>
9.39567279815674

$$$$
60
                    3D
 Structure written by MMmdl.
171179  0  0  1  0            999 V2000
  -30.6715  -14.4713   20.5475 C   0  0  0  0  0  0
  -30.4268  -12.2981   19.4130 C   0  0  0  0  0  0
  -29.4922  -12.4926   18.1995 C   0  0  0  0  0  0
  -28.0122  -12.3567   18.6112 C   0  0  0  0  0  0
  -27.6604  -13.1943   19.8699 C   0  0  2  0  0  0
  -28.7036  -12.9662   20.9879 C   0  0  0  0  0  0
  -25.2613  -13.8133   20.5676 C   0  0  0  0  0  0
  -24.1861  -13.0427   20.9185 C   0  0  0  0  0  0
  -24.6400  -11.6893   20.8758 C   0  0  0  0  0  0
  -23.9059  -10.4287   21.0420 C   0  0  0  0  0  0
  -24.3615   -9.4201   21.9192 C   0  0  0  0  0  0
  -23.6291   -8.2236   22.0764 C   0  0  0  0  0  0
  -22.4276   -8.0288   21.3549 C   0  0  0  0  0  0
  -21.9906   -9.0259   20.4655 C   0  0  0  0  0  0
  -22.7233  -10.2138   20.3060 C   0  0  0  0  0  0
  -21.6854   -6.0743   22.5287 C   0  0  0  0  0  0
  -21.4007   -6.5643   23.8220 C   0  0  0  0  0  0
  -21.3650   -5.6797   24.9180 C   0  0  0  0  0  0
  -21.6049   -4.3063   24.7230 C   0  0  0  0  0  0
  -21.8816   -3.8153   23.4350 C   0  0  0  0  0  0
  -21.9192   -4.6970   22.3407 C   0  0  0  0  0  0
  -22.7885  -13.5256   21.1830 C   0  0  0  0  0  0
  -22.1666   -4.2160   21.0985 F   0  0  0  0  0  0
  -21.5625   -3.4544   25.7736 F   0  0  0  0  0  0
  -30.0309  -13.2782   20.4331 N   0  0  0  0  0  0
  -26.3019  -12.9271   20.3345 N   0  0  0  0  0  0
  -25.9311  -11.6448   20.5758 N   0  0  0  0  0  0
  -22.0514  -12.8262   22.0392 N   0  0  0  0  0  0
  -25.4358  -15.1843   20.4045 N   0  0  0  0  0  0
  -31.8200  -14.6543   20.1293 O   0  0  0  0  0  0
  -21.6646   -6.8887   21.4250 O   0  0  0  0  0  0
  -22.3597  -14.5567   20.6691 O   0  0  0  0  0  0
  -24.6144  -31.8653   23.2093 C   0  0  0  0  0  0
  -25.9040  -32.4801   23.8380 C   0  0  1  0  0  0
  -27.2267  -27.4276   20.1038 C   0  0  0  0  0  0
  -25.5880  -33.8593   24.2317 N   0  0  0  0  0  0
  -23.4021  -30.4918   21.5500 C   0  0  2  0  0  0
  -24.8493  -28.9586   20.1105 C   0  0  0  0  0  0
  -22.7407  -29.4654   22.4977 C   0  0  0  0  0  0
  -18.0275  -28.1400   22.8485 C   0  0  0  0  0  0
  -24.1480  -36.7320   23.2643 C   0  0  0  0  0  0
  -25.9298  -30.8339   21.3591 C   0  0  0  0  0  0
  -26.0107  -29.4681   20.7065 C   0  0  0  0  0  0
  -27.2070  -28.7115   20.6969 C   0  0  0  0  0  0
  -26.0531  -26.9361   19.4956 C   0  0  0  0  0  0
  -24.8662  -27.6940   19.4975 C   0  0  0  0  0  0
  -23.6102  -29.8252   20.1634 C   0  0  0  0  0  0
  -25.4086  -36.3093   24.0348 C   0  0  1  0  0  0
  -20.5854  -28.3671   23.1335 C   0  0  2  0  0  0
  -20.6760  -26.9407   22.5433 C   0  0  0  0  0  0
  -19.5734  -26.6393   21.5232 C   0  0  0  0  0  0
  -18.1916  -26.7939   22.1646 C   0  0  0  0  0  0
  -19.1521  -28.8858   23.2904 C   0  0  0  0  0  0
  -18.9458  -30.1472   23.8896 C   0  0  0  0  0  0
  -17.6458  -30.6600   24.0576 C   0  0  0  0  0  0
  -25.9024  -34.9463   23.5145 C   0  0  0  0  0  0
  -16.5349  -29.9108   23.6343 C   0  0  0  0  0  0
  -16.7262  -28.6542   23.0330 C   0  0  0  0  0  0
  -26.4447  -31.6576   25.0705 C   0  0  0  0  0  0
  -25.3715  -31.3721   26.1468 C   0  0  0  0  0  0
  -27.0257  -30.3000   24.6086 C   0  0  0  0  0  0
  -27.6006  -32.4306   25.7480 C   0  0  0  0  0  0
  -27.5565  -37.1800   24.8459 C   0  0  0  0  0  0
  -21.4133  -29.3025   22.3727 N   0  0  0  0  0  0
  -26.4264  -37.3780   23.9424 N   0  0  0  0  0  0
  -24.6668  -31.0775   22.0980 N   0  0  0  0  0  0
  -23.4190  -28.8193   23.3014 O   0  0  0  0  0  0
  -28.3576  -26.6401   20.1158 O   0  0  0  0  0  0
  -26.5595  -34.8924   22.4709 O   0  0  0  0  0  0
  -23.5342  -32.1409   23.7509 O   0  0  0  0  0  0
  -29.0140  -17.7234   20.7057 C   0  0  0  0  0  0
  -30.3248  -19.6149   20.9339 C   0  0  0  0  0  0
  -30.1262  -16.8742   20.9510 C   0  0  0  0  0  0
  -31.4480  -18.7704   21.2026 C   0  0  0  0  0  0
  -30.3593  -21.1051   20.9236 C   0  0  0  0  0  0
  -28.1739  -24.6553   24.5375 C   0  0  0  0  0  0
  -30.4462  -25.7608   23.9855 C   0  0  0  0  0  0
  -30.6695  -24.8461   20.4599 C   0  0  0  0  0  0
  -29.9744  -23.3453   23.1604 C   0  0  0  0  0  0
  -28.2660  -25.5303   21.0301 C   0  0  0  0  0  0
  -29.6673  -24.4532   24.2056 C   0  0  0  0  0  0
  -29.2369  -24.3375   20.7517 C   0  0  1  0  0  0
  -29.1301  -23.2069   21.8539 C   0  0  1  0  0  0
  -29.1038  -19.0802   20.6816 N   0  0  0  0  0  0
  -31.3449  -17.4214   21.1958 N   0  0  0  0  0  0
  -32.7321  -19.2269   21.4882 N   0  0  0  0  0  0
  -31.4559  -21.7487   20.5053 N   0  0  0  0  0  0
  -29.8773  -15.4745   20.9667 N   0  0  0  0  0  0
  -29.2858  -21.8068   21.3624 N   0  3  0  0  0  0
  -31.4694  -12.4089   19.1100 H   0  0  0  0  0  0
  -30.3389  -11.2862   19.8113 H   0  0  0  0  0  0
  -29.7299  -11.7635   17.4236 H   0  0  0  0  0  0
  -29.6590  -13.4754   17.7561 H   0  0  0  0  0  0
  -27.8161  -11.3013   18.8007 H   0  0  0  0  0  0
  -27.3634  -12.6396   17.7817 H   0  0  0  0  0  0
  -27.7046  -14.2409   19.5699 H   0  0  0  0  0  0
  -28.6852  -11.9266   21.3180 H   0  0  0  0  0  0
  -28.4709  -13.5535   21.8767 H   0  0  0  0  0  0
  -25.2758   -9.5684   22.4763 H   0  0  0  0  0  0
  -24.0011   -7.4629   22.7471 H   0  0  0  0  0  0
  -21.0840   -8.8770   19.8955 H   0  0  0  0  0  0
  -22.3693  -10.9681   19.6170 H   0  0  0  0  0  0
  -21.1996   -7.6151   23.9727 H   0  0  0  0  0  0
  -21.1474   -6.0528   25.9088 H   0  0  0  0  0  0
  -22.0602   -2.7617   23.2848 H   0  0  0  0  0  0
  -22.4122  -11.9913   22.4761 H   0  0  0  0  0  0
  -21.1124  -13.1297   22.2579 H   0  0  0  0  0  0
  -24.6588  -15.8302   20.4960 H   0  0  0  0  0  0
  -26.2604  -15.6139   20.0066 H   0  0  0  0  0  0
  -26.7094  -32.5510   23.1124 H   0  0  0  0  0  0
  -24.9932  -33.9721   25.0398 H   0  0  0  0  0  0
  -22.6903  -31.3084   21.4122 H   0  0  0  0  0  0
  -23.3719  -35.9676   23.3298 H   0  0  0  0  0  0
  -24.3577  -36.8941   22.2059 H   0  0  0  0  0  0
  -23.7262  -37.6538   23.6658 H   0  0  0  0  0  0
  -26.0380  -31.5980   20.5890 H   0  0  0  0  0  0
  -26.8197  -30.8909   21.9745 H   0  0  0  0  0  0
  -28.1049  -29.0967   21.1609 H   0  0  0  0  0  0
  -26.0533  -25.9591   19.0316 H   0  0  0  0  0  0
  -23.9734  -27.2965   19.0334 H   0  0  0  0  0  0
  -23.7126  -30.6027   19.4042 H   0  0  0  0  0  0
  -22.7329  -29.2443   19.8738 H   0  0  0  0  0  0
  -25.1260  -36.1936   25.0836 H   0  0  0  0  0  0
  -20.9954  -28.3236   24.1453 H   0  0  0  0  0  0
  -20.5695  -26.2263   23.3612 H   0  0  0  0  0  0
  -21.6628  -26.7454   22.1205 H   0  0  0  0  0  0
  -19.6902  -25.6314   21.1245 H   0  0  0  0  0  0
  -19.6697  -27.3223   20.6776 H   0  0  0  0  0  0
  -17.4188  -26.6693   21.4047 H   0  0  0  0  0  0
  -18.0312  -26.0096   22.9057 H   0  0  0  0  0  0
  -19.7930  -30.7299   24.2242 H   0  0  0  0  0  0
  -17.5016  -31.6269   24.5196 H   0  0  0  0  0  0
  -15.5353  -30.3019   23.7662 H   0  0  0  0  0  0
  -15.8656  -28.0887   22.7001 H   0  0  0  0  0  0
  -24.5861  -30.7085   25.7828 H   0  0  0  0  0  0
  -24.8940  -32.2907   26.4896 H   0  0  0  0  0  0
  -25.8066  -30.8901   27.0238 H   0  0  0  0  0  0
  -26.2799  -29.6781   24.1107 H   0  0  0  0  0  0
  -27.3976  -29.7202   25.4551 H   0  0  0  0  0  0
  -27.8662  -30.4285   23.9259 H   0  0  0  0  0  0
  -27.2586  -33.3602   26.2037 H   0  0  0  0  0  0
  -28.3817  -32.6866   25.0315 H   0  0  0  0  0  0
  -28.0649  -31.8442   26.5419 H   0  0  0  0  0  0
  -28.2562  -38.0110   24.7492 H   0  0  0  0  0  0
  -28.1084  -36.2642   24.6277 H   0  0  0  0  0  0
  -27.2303  -37.1429   25.8868 H   0  0  0  0  0  0
  -20.9290  -29.8732   21.6929 H   0  0  0  0  0  0
  -26.0158  -38.2860   24.1431 H   0  0  0  0  0  0
  -28.0349  -17.3095   20.5107 H   0  0  0  0  0  0
  -28.0451  -25.4574   25.2648 H   0  0  0  0  0  0
  -27.7495  -23.7540   24.9827 H   0  0  0  0  0  0
  -27.5584  -24.9037   23.6775 H   0  0  0  0  0  0
  -30.2190  -26.4928   24.7609 H   0  0  0  0  0  0
  -30.2435  -26.2393   23.0326 H   0  0  0  0  0  0
  -31.5192  -25.5750   24.0299 H   0  0  0  0  0  0
  -30.6411  -25.7145   19.8006 H   0  0  0  0  0  0
  -31.2860  -24.1306   19.9277 H   0  0  0  0  0  0
  -31.2052  -25.1483   21.3580 H   0  0  0  0  0  0
  -29.8650  -22.4014   23.6980 H   0  0  0  0  0  0
  -31.0346  -23.3797   22.9088 H   0  0  0  0  0  0
  -28.4326  -25.9492   22.0154 H   0  0  0  0  0  0
  -27.2508  -25.1301   21.0515 H   0  0  0  0  0  0
  -30.0889  -24.0740   25.1389 H   0  0  0  0  0  0
  -28.8866  -23.8970   19.8162 H   0  0  0  0  0  0
  -28.0866  -23.2051   22.1719 H   0  0  0  0  0  0
  -32.8331  -20.1257   21.9474 H   0  0  0  0  0  0
  -33.3915  -18.5371   21.8292 H   0  0  0  0  0  0
  -32.2250  -21.2096   20.1298 H   0  0  0  0  0  0
  -31.5071  -22.7510   20.4507 H   0  0  0  0  0  0
  -28.9287  -15.2010   21.1685 H   0  0  0  0  0  0
  -28.4777  -21.2135   21.5148 H   0  0  0  0  0  0
  1 25  1  0  0  0
  1 30  2  0  0  0
  1 88  1  0  0  0
  2  3  1  0  0  0
  2 25  1  0  0  0
  2 90  1  0  0  0
  2 91  1  0  0  0
  3  4  1  0  0  0
  3 92  1  0  0  0
  3 93  1  0  0  0
  4  5  1  0  0  0
  4 94  1  0  0  0
  4 95  1  0  0  0
  5  6  1  0  0  0
  5 26  1  0  0  0
  5 96  1  0  0  0
  6 25  1  0  0  0
  6 97  1  0  0  0
  6 98  1  0  0  0
  7  8  2  0  0  0
  7 26  1  0  0  0
  7 29  1  0  0  0
  8  9  1  0  0  0
  8 22  1  0  0  0
  9 10  1  0  0  0
  9 27  2  0  0  0
 10 11  2  0  0  0
 10 15  1  0  0  0
 11 12  1  0  0  0
 11 99  1  0  0  0
 12 13  2  0  0  0
 12100  1  0  0  0
 13 14  1  0  0  0
 13 31  1  0  0  0
 14 15  2  0  0  0
 14101  1  0  0  0
 15102  1  0  0  0
 16 17  2  0  0  0
 16 21  1  0  0  0
 16 31  1  0  0  0
 17 18  1  0  0  0
 17103  1  0  0  0
 18 19  2  0  0  0
 18104  1  0  0  0
 19 20  1  0  0  0
 19 24  1  0  0  0
 20 21  2  0  0  0
 20105  1  0  0  0
 21 23  1  0  0  0
 22 28  1  0  0  0
 22 32  2  0  0  0
 26 27  1  0  0  0
 28106  1  0  0  0
 28107  1  0  0  0
 29108  1  0  0  0
 29109  1  0  0  0
 33 34  1  0  0  0
 33 66  1  0  0  0
 33 70  2  0  0  0
 34 36  1  0  0  0
 34 59  1  0  0  0
 34110  1  0  0  0
 35 44  2  0  0  0
 35 45  1  0  0  0
 35 68  1  0  0  0
 36 56  1  0  0  0
 36111  1  0  0  0
 37 39  1  0  0  0
 37 47  1  0  0  0
 37 66  1  0  0  0
 37112  1  0  0  0
 38 43  2  0  0  0
 38 46  1  0  0  0
 38 47  1  0  0  0
 39 64  1  0  0  0
 39 67  2  0  0  0
 40 52  1  0  0  0
 40 53  2  0  0  0
 40 58  1  0  0  0
 41113  1  0  0  0
 41114  1  0  0  0
 41115  1  0  0  0
 41 48  1  0  0  0
 42 43  1  0  0  0
 42 66  1  0  0  0
 42116  1  0  0  0
 42117  1  0  0  0
 43 44  1  0  0  0
 44118  1  0  0  0
 45 46  2  0  0  0
 45119  1  0  0  0
 46120  1  0  0  0
 47121  1  0  0  0
 47122  1  0  0  0
 48 56  1  0  0  0
 48 65  1  0  0  0
 48123  1  0  0  0
 49 50  1  0  0  0
 49 53  1  0  0  0
 49 64  1  0  0  0
 49124  1  0  0  0
 50 51  1  0  0  0
 50125  1  0  0  0
 50126  1  0  0  0
 51 52  1  0  0  0
 51127  1  0  0  0
 51128  1  0  0  0
 52129  1  0  0  0
 52130  1  0  0  0
 53 54  1  0  0  0
 54 55  2  0  0  0
 54131  1  0  0  0
 55 57  1  0  0  0
 55132  1  0  0  0
 56 69  2  0  0  0
 57 58  2  0  0  0
 57133  1  0  0  0
 58134  1  0  0  0
 59 60  1  0  0  0
 59 61  1  0  0  0
 59 62  1  0  0  0
 60135  1  0  0  0
 60136  1  0  0  0
 60137  1  0  0  0
 61138  1  0  0  0
 61139  1  0  0  0
 61140  1  0  0  0
 62141  1  0  0  0
 62142  1  0  0  0
 62143  1  0  0  0
 63 65  1  0  0  0
 63144  1  0  0  0
 63145  1  0  0  0
 63146  1  0  0  0
 64147  1  0  0  0
 65148  1  0  0  0
 68 80  1  0  0  0
 71 73  2  0  0  0
 71 84  1  0  0  0
 71149  1  0  0  0
 72 74  1  0  0  0
 72 75  1  0  0  0
 72 84  2  0  0  0
 73 85  1  0  0  0
 73 88  1  0  0  0
 74 85  2  0  0  0
 74 86  1  0  0  0
 75 87  1  0  0  0
 75 89  2  0  0  0
 76150  1  0  0  0
 76151  1  0  0  0
 76152  1  0  0  0
 76 81  1  0  0  0
 77 81  1  0  0  0
 77153  1  0  0  0
 77154  1  0  0  0
 77155  1  0  0  0
 78156  1  0  0  0
 78157  1  0  0  0
 78158  1  0  0  0
 78 82  1  0  0  0
 79 81  1  0  0  0
 79159  1  0  0  0
 79160  1  0  0  0
 79 83  1  0  0  0
 80 82  1  0  0  0
 80161  1  0  0  0
 80162  1  0  0  0
 81163  1  0  0  0
 82 83  1  0  0  0
 82164  1  0  0  0
 83 89  1  0  0  0
 83165  1  0  0  0
 86166  1  0  0  0
 86167  1  0  0  0
 87168  1  0  0  0
 87169  1  0  0  0
 88170  1  0  0  0
 89171  1  0  0  0
M  CHG  1  89   1
M  ISO  4   1 100  68 101  80 101  88 100
M  END
> <chiral flag>
0

> <version>
0

> <s_m_source_file>
/data/baiqing/PycharmProjects/Reinvent-master-3.2/result/LINK_invent/BTK/process_docking_weight1_custom_product_contain_oxygen_bond_distance_aromatic_linkinvent_7_9_3/rearranged_h_0192.sdf

> <i_m_source_file_index>
60

> <r_mmod_Potential_Energy-OPLS-2005>
50.0899543762207

> <r_mmod_Stretch_Energy-OPLS-2005>
47.4788589477539

> <r_mmod_Bend_Energy-OPLS-2005>
142.128631591797

> <r_mmod_Torsional_Energy-OPLS-2005>
295.054992675781

> <r_mmod_Improper_Torsional_Energy-OPLS-2005>
9.13151073455811

> <r_mmod_Van_der_Waal_Energy-OPLS-2005>
162.341064453125

> <r_mmod_Electrostatic_Energy-OPLS-2005>
-162.740417480469

> <r_mmod_Solvation_Energy-OPLS-2005>
-458.265289306641

> <b_mmod_Minimization_Converged-OPLS-2005>
0

> <r_mmod_RMS_Derivative-OPLS-2005>
2.63765335083008

$$$$
61
                    3D
 Structure written by MMmdl.
160168  0  0  1  0            999 V2000
  -30.6389  -14.5808   20.5304 C   0  0  0  0  0  0
  -30.4407  -12.3598   19.4391 C   0  0  0  0  0  0
  -29.5071  -12.5098   18.2169 C   0  0  0  0  0  0
  -28.0290  -12.3481   18.6277 C   0  0  0  0  0  0
  -27.6598  -13.2021   19.8691 C   0  0  2  0  0  0
  -28.7043  -13.0180   20.9948 C   0  0  0  0  0  0
  -25.2611  -13.8075   20.5710 C   0  0  0  0  0  0
  -24.1833  -13.0372   20.9116 C   0  0  0  0  0  0
  -24.6392  -11.6842   20.8690 C   0  0  0  0  0  0
  -23.9047  -10.4247   21.0375 C   0  0  0  0  0  0
  -24.3597   -9.4174   21.9172 C   0  0  0  0  0  0
  -23.6267   -8.2216   22.0759 C   0  0  0  0  0  0
  -22.4254   -8.0256   21.3542 C   0  0  0  0  0  0
  -21.9876   -9.0225   20.4650 C   0  0  0  0  0  0
  -22.7205  -10.2098   20.3042 C   0  0  0  0  0  0
  -21.6841   -6.0713   22.5278 C   0  0  0  0  0  0
  -21.4006   -6.5627   23.8206 C   0  0  0  0  0  0
  -21.3663   -5.6789   24.9177 C   0  0  0  0  0  0
  -21.6039   -4.3048   24.7230 C   0  0  0  0  0  0
  -21.8823   -3.8133   23.4354 C   0  0  0  0  0  0
  -21.9190   -4.6942   22.3405 C   0  0  0  0  0  0
  -22.7868  -13.5204   21.1795 C   0  0  0  0  0  0
  -22.1656   -4.2126   21.0980 F   0  0  0  0  0  0
  -21.5635   -3.4539   25.7748 F   0  0  0  0  0  0
  -30.0308  -13.3565   20.4464 N   0  0  0  0  0  0
  -26.3031  -12.9252   20.3336 N   0  0  0  0  0  0
  -25.9326  -11.6418   20.5735 N   0  0  0  0  0  0
  -22.0510  -12.8231   22.0378 N   0  0  0  0  0  0
  -25.4414  -15.1780   20.4347 N   0  0  0  0  0  0
  -31.7634  -14.7810   20.0544 O   0  0  0  0  0  0
  -21.6622   -6.8851   21.4238 O   0  0  0  0  0  0
  -22.3558  -14.5522   20.6657 O   0  0  0  0  0  0
  -24.6218  -31.8622   23.2057 C   0  0  0  0  0  0
  -25.9082  -32.4797   23.8365 C   0  0  1  0  0  0
  -27.2330  -27.3580   20.1036 C   0  0  0  0  0  0
  -25.5915  -33.8593   24.2293 N   0  0  0  0  0  0
  -23.4134  -30.4864   21.5467 C   0  0  2  0  0  0
  -24.8605  -28.9478   20.1101 C   0  0  0  0  0  0
  -22.7447  -29.4635   22.4944 C   0  0  0  0  0  0
  -18.0274  -28.1391   22.8482 C   0  0  0  0  0  0
  -24.1486  -36.7294   23.2639 C   0  0  0  0  0  0
  -25.9508  -30.8034   21.3716 C   0  0  0  0  0  0
  -26.0253  -29.4329   20.7164 C   0  0  0  0  0  0
  -27.2103  -28.6474   20.7100 C   0  0  0  0  0  0
  -26.0477  -26.9251   19.4606 C   0  0  0  0  0  0
  -24.8721  -27.6969   19.4757 C   0  0  0  0  0  0
  -23.6255  -29.8215   20.1615 C   0  0  0  0  0  0
  -25.4110  -36.3090   24.0335 C   0  0  1  0  0  0
  -20.5873  -28.3680   23.1292 C   0  0  2  0  0  0
  -20.6762  -26.9406   22.5415 C   0  0  0  0  0  0
  -19.5739  -26.6391   21.5210 C   0  0  0  0  0  0
  -18.1919  -26.7933   22.1623 C   0  0  0  0  0  0
  -19.1528  -28.8849   23.2885 C   0  0  0  0  0  0
  -18.9455  -30.1454   23.8898 C   0  0  0  0  0  0
  -17.6459  -30.6592   24.0564 C   0  0  0  0  0  0
  -25.9042  -34.9460   23.5114 C   0  0  0  0  0  0
  -16.5347  -29.9096   23.6336 C   0  0  0  0  0  0
  -16.7264  -28.6515   23.0351 C   0  0  0  0  0  0
  -26.4477  -31.6598   25.0718 C   0  0  0  0  0  0
  -25.3734  -31.3723   26.1464 C   0  0  0  0  0  0
  -27.0307  -30.3030   24.6138 C   0  0  0  0  0  0
  -27.6034  -32.4332   25.7485 C   0  0  0  0  0  0
  -27.5571  -37.1808   24.8464 C   0  0  0  0  0  0
  -21.4164  -29.3041   22.3684 N   0  0  0  0  0  0
  -26.4286  -37.3784   23.9406 N   0  0  0  0  0  0
  -24.6804  -31.0669   22.0983 N   0  0  0  0  0  0
  -23.4189  -28.8170   23.3005 O   0  0  0  0  0  0
  -28.3790  -26.5581   20.1695 O   0  0  0  0  0  0
  -26.5605  -34.8929   22.4682 O   0  0  0  0  0  0
  -23.5394  -32.1394   23.7420 O   0  0  0  0  0  0
  -27.6560  -18.0022   20.1940 C   0  0  0  0  0  0
  -29.4497  -16.7887   20.6686 C   0  0  0  0  0  0
  -29.5673  -19.0389   20.4667 C   0  0  0  0  0  0
  -31.6907  -20.2160   18.3815 C   0  0  0  0  0  0
  -29.3459  -22.6840   19.9941 C   0  0  0  0  0  0
  -29.2078  -24.1375   20.5994 C   0  0  0  0  0  0
  -31.6434  -20.2908   19.9151 C   0  0  0  0  0  0
  -29.7461  -21.5378   20.9980 C   0  0  0  0  0  0
  -28.3097  -25.1422   19.7914 C   0  0  0  0  0  0
  -28.1390  -16.7953   20.4247 N   0  0  0  0  0  0
  -28.2757  -19.1572   20.2156 N   0  0  0  0  0  0
  -30.2300  -17.8891   20.7056 N   0  0  0  0  0  0
  -26.3299  -18.0621   19.9088 N   0  0  0  0  0  0
  -29.8997  -15.5519   21.1313 N   0  0  0  0  0  0
  -30.2719  -20.2634   20.4249 N   0  0  0  0  0  0
  -31.4827  -12.4779   19.1365 H   0  0  0  0  0  0
  -30.3680  -11.3530   19.8562 H   0  0  0  0  0  0
  -29.7654  -11.7729   17.4540 H   0  0  0  0  0  0
  -29.6546  -13.4889   17.7573 H   0  0  0  0  0  0
  -27.8595  -11.2929   18.8460 H   0  0  0  0  0  0
  -27.3750  -12.5932   17.7897 H   0  0  0  0  0  0
  -27.6867  -14.2420   19.5439 H   0  0  0  0  0  0
  -28.7047  -11.9837   21.3421 H   0  0  0  0  0  0
  -28.4441  -13.6132   21.8711 H   0  0  0  0  0  0
  -25.2745   -9.5649   22.4737 H   0  0  0  0  0  0
  -23.9969   -7.4614   22.7489 H   0  0  0  0  0  0
  -21.0796   -8.8730   19.8977 H   0  0  0  0  0  0
  -22.3651  -10.9628   19.6145 H   0  0  0  0  0  0
  -21.1995   -7.6135   23.9700 H   0  0  0  0  0  0
  -21.1486   -6.0522   25.9077 H   0  0  0  0  0  0
  -22.0604   -2.7595   23.2860 H   0  0  0  0  0  0
  -22.4097  -11.9877   22.4768 H   0  0  0  0  0  0
  -21.1151  -13.1299   22.2605 H   0  0  0  0  0  0
  -24.7062  -15.8135   20.7205 H   0  0  0  0  0  0
  -26.3715  -15.5938   20.4033 H   0  0  0  0  0  0
  -26.7143  -32.5474   23.1108 H   0  0  0  0  0  0
  -25.0061  -33.9741   25.0435 H   0  0  0  0  0  0
  -22.7053  -31.3051   21.4060 H   0  0  0  0  0  0
  -23.3747  -35.9627   23.3313 H   0  0  0  0  0  0
  -24.3563  -36.8897   22.2047 H   0  0  0  0  0  0
  -23.7246  -37.6510   23.6643 H   0  0  0  0  0  0
  -26.0773  -31.5647   20.6015 H   0  0  0  0  0  0
  -26.8344  -30.8535   21.9964 H   0  0  0  0  0  0
  -28.1040  -29.0168   21.1935 H   0  0  0  0  0  0
  -25.9919  -25.9875   18.9303 H   0  0  0  0  0  0
  -23.9836  -27.3222   18.9879 H   0  0  0  0  0  0
  -23.7387  -30.5961   19.4022 H   0  0  0  0  0  0
  -22.7479  -29.2455   19.8632 H   0  0  0  0  0  0
  -25.1295  -36.1948   25.0828 H   0  0  0  0  0  0
  -20.9968  -28.3261   24.1410 H   0  0  0  0  0  0
  -20.5655  -26.2284   23.3610 H   0  0  0  0  0  0
  -21.6633  -26.7435   22.1208 H   0  0  0  0  0  0
  -19.6894  -25.6303   21.1231 H   0  0  0  0  0  0
  -19.6689  -27.3201   20.6739 H   0  0  0  0  0  0
  -17.4187  -26.6663   21.4031 H   0  0  0  0  0  0
  -18.0332  -26.0086   22.9030 H   0  0  0  0  0  0
  -19.7934  -30.7269   24.2270 H   0  0  0  0  0  0
  -17.5017  -31.6278   24.5161 H   0  0  0  0  0  0
  -15.5347  -30.3004   23.7667 H   0  0  0  0  0  0
  -15.8656  -28.0846   22.7066 H   0  0  0  0  0  0
  -24.5909  -30.7064   25.7806 H   0  0  0  0  0  0
  -24.8930  -32.2887   26.4907 H   0  0  0  0  0  0
  -25.8098  -30.8905   27.0225 H   0  0  0  0  0  0
  -26.2865  -29.6798   24.1170 H   0  0  0  0  0  0
  -27.4015  -29.7269   25.4625 H   0  0  0  0  0  0
  -27.8728  -30.4313   23.9336 H   0  0  0  0  0  0
  -27.2635  -33.3623   26.2072 H   0  0  0  0  0  0
  -28.3851  -32.6912   25.0325 H   0  0  0  0  0  0
  -28.0694  -31.8454   26.5405 H   0  0  0  0  0  0
  -28.2611  -38.0080   24.7509 H   0  0  0  0  0  0
  -28.1052  -36.2628   24.6313 H   0  0  0  0  0  0
  -27.2285  -37.1481   25.8863 H   0  0  0  0  0  0
  -20.9327  -29.8765   21.6903 H   0  0  0  0  0  0
  -26.0175  -38.2856   24.1425 H   0  0  0  0  0  0
  -31.2709  -19.2796   18.0137 H   0  0  0  0  0  0
  -32.7192  -20.2725   18.0246 H   0  0  0  0  0  0
  -31.1384  -21.0339   17.9176 H   0  0  0  0  0  0
  -30.0736  -22.7355   19.1850 H   0  0  0  0  0  0
  -28.4054  -22.4003   19.5203 H   0  0  0  0  0  0
  -30.2063  -24.5607   20.7168 H   0  0  0  0  0  0
  -28.7978  -24.0637   21.6073 H   0  0  0  0  0  0
  -32.1431  -21.2026   20.2453 H   0  0  0  0  0  0
  -32.2178  -19.4705   20.3474 H   0  0  0  0  0  0
  -28.8963  -21.3153   21.6439 H   0  0  0  0  0  0
  -30.5152  -21.9216   21.6694 H   0  0  0  0  0  0
  -27.3039  -24.7442   19.9078 H   0  0  0  0  0  0
  -28.5501  -25.0734   18.7302 H   0  0  0  0  0  0
  -25.8723  -18.9541   19.7805 H   0  0  0  0  0  0
  -25.7790  -17.2167   19.8351 H   0  0  0  0  0  0
  -29.1589  -15.0922   21.6309 H   0  0  0  0  0  0
  1 25  1  0  0  0
  1 30  2  0  0  0
  1 84  1  0  0  0
  2  3  1  0  0  0
  2 25  1  0  0  0
  2 86  1  0  0  0
  2 87  1  0  0  0
  3  4  1  0  0  0
  3 88  1  0  0  0
  3 89  1  0  0  0
  4  5  1  0  0  0
  4 90  1  0  0  0
  4 91  1  0  0  0
  5  6  1  0  0  0
  5 26  1  0  0  0
  5 92  1  0  0  0
  6 25  1  0  0  0
  6 93  1  0  0  0
  6 94  1  0  0  0
  7  8  2  0  0  0
  7 26  1  0  0  0
  7 29  1  0  0  0
  8  9  1  0  0  0
  8 22  1  0  0  0
  9 10  1  0  0  0
  9 27  2  0  0  0
 10 11  2  0  0  0
 10 15  1  0  0  0
 11 12  1  0  0  0
 11 95  1  0  0  0
 12 13  2  0  0  0
 12 96  1  0  0  0
 13 14  1  0  0  0
 13 31  1  0  0  0
 14 15  2  0  0  0
 14 97  1  0  0  0
 15 98  1  0  0  0
 16 17  2  0  0  0
 16 21  1  0  0  0
 16 31  1  0  0  0
 17 18  1  0  0  0
 17 99  1  0  0  0
 18 19  2  0  0  0
 18100  1  0  0  0
 19 20  1  0  0  0
 19 24  1  0  0  0
 20 21  2  0  0  0
 20101  1  0  0  0
 21 23  1  0  0  0
 22 28  1  0  0  0
 22 32  2  0  0  0
 26 27  1  0  0  0
 28102  1  0  0  0
 28103  1  0  0  0
 29104  1  0  0  0
 29105  1  0  0  0
 33 34  1  0  0  0
 33 66  1  0  0  0
 33 70  2  0  0  0
 34 36  1  0  0  0
 34 59  1  0  0  0
 34106  1  0  0  0
 35 44  2  0  0  0
 35 45  1  0  0  0
 35 68  1  0  0  0
 36 56  1  0  0  0
 36107  1  0  0  0
 37 39  1  0  0  0
 37 47  1  0  0  0
 37 66  1  0  0  0
 37108  1  0  0  0
 38 43  2  0  0  0
 38 46  1  0  0  0
 38 47  1  0  0  0
 39 64  1  0  0  0
 39 67  2  0  0  0
 40 52  1  0  0  0
 40 53  2  0  0  0
 40 58  1  0  0  0
 41109  1  0  0  0
 41110  1  0  0  0
 41111  1  0  0  0
 41 48  1  0  0  0
 42 43  1  0  0  0
 42 66  1  0  0  0
 42112  1  0  0  0
 42113  1  0  0  0
 43 44  1  0  0  0
 44114  1  0  0  0
 45 46  2  0  0  0
 45115  1  0  0  0
 46116  1  0  0  0
 47117  1  0  0  0
 47118  1  0  0  0
 48 56  1  0  0  0
 48 65  1  0  0  0
 48119  1  0  0  0
 49 50  1  0  0  0
 49 53  1  0  0  0
 49 64  1  0  0  0
 49120  1  0  0  0
 50 51  1  0  0  0
 50121  1  0  0  0
 50122  1  0  0  0
 51 52  1  0  0  0
 51123  1  0  0  0
 51124  1  0  0  0
 52125  1  0  0  0
 52126  1  0  0  0
 53 54  1  0  0  0
 54 55  2  0  0  0
 54127  1  0  0  0
 55 57  1  0  0  0
 55128  1  0  0  0
 56 69  2  0  0  0
 57 58  2  0  0  0
 57129  1  0  0  0
 58130  1  0  0  0
 59 60  1  0  0  0
 59 61  1  0  0  0
 59 62  1  0  0  0
 60131  1  0  0  0
 60132  1  0  0  0
 60133  1  0  0  0
 61134  1  0  0  0
 61135  1  0  0  0
 61136  1  0  0  0
 62137  1  0  0  0
 62138  1  0  0  0
 62139  1  0  0  0
 63 65  1  0  0  0
 63140  1  0  0  0
 63141  1  0  0  0
 63142  1  0  0  0
 64143  1  0  0  0
 65144  1  0  0  0
 68 79  1  0  0  0
 71 80  2  0  0  0
 71 81  1  0  0  0
 71 83  1  0  0  0
 72 80  1  0  0  0
 72 82  2  0  0  0
 72 84  1  0  0  0
 73 81  2  0  0  0
 73 82  1  0  0  0
 73 85  1  0  0  0
 74 77  1  0  0  0
 74145  1  0  0  0
 74146  1  0  0  0
 74147  1  0  0  0
 75 76  1  0  0  0
 75 78  1  0  0  0
 75148  1  0  0  0
 75149  1  0  0  0
 76 79  1  0  0  0
 76150  1  0  0  0
 76151  1  0  0  0
 77 85  1  0  0  0
 77152  1  0  0  0
 77153  1  0  0  0
 78 85  1  0  0  0
 78154  1  0  0  0
 78155  1  0  0  0
 79156  1  0  0  0
 79157  1  0  0  0
 83158  1  0  0  0
 83159  1  0  0  0
 84160  1  0  0  0
M  ISO  4   1 100  68 101  79 101  84 100
M  END
> <chiral flag>
0

> <version>
0

> <s_m_source_file>
/data/baiqing/PycharmProjects/Reinvent-master-3.2/result/LINK_invent/BTK/process_docking_weight1_custom_product_contain_oxygen_bond_distance_aromatic_linkinvent_7_9_3/rearranged_h_0192.sdf

> <i_m_source_file_index>
61

> <r_mmod_Potential_Energy-OPLS-2005>
-790.79931640625

> <r_mmod_Stretch_Energy-OPLS-2005>
60.3607597351074

> <r_mmod_Bend_Energy-OPLS-2005>
143.587387084961

> <r_mmod_Torsional_Energy-OPLS-2005>
246.468353271484

> <r_mmod_Improper_Torsional_Energy-OPLS-2005>
8.62967395782471

> <r_mmod_Van_der_Waal_Energy-OPLS-2005>
168.053649902344

> <r_mmod_Electrostatic_Energy-OPLS-2005>
-1219.16247558594

> <r_mmod_Solvation_Energy-OPLS-2005>
-230.688934326172

> <b_mmod_Minimization_Converged-OPLS-2005>
0

> <r_mmod_RMS_Derivative-OPLS-2005>
1.71864724159241

$$$$
62
                    3D
 Structure written by MMmdl.
160168  0  0  1  0            999 V2000
  -30.7379  -14.4222   20.6490 C   0  0  0  0  0  0
  -30.4227  -12.3074   19.4085 C   0  0  0  0  0  0
  -29.4909  -12.5260   18.2009 C   0  0  0  0  0  0
  -28.0143  -12.3764   18.6142 C   0  0  0  0  0  0
  -27.6659  -13.2063   19.8776 C   0  0  2  0  0  0
  -28.7041  -12.9653   20.9959 C   0  0  0  0  0  0
  -25.2606  -13.8168   20.5662 C   0  0  0  0  0  0
  -24.1847  -13.0449   20.9156 C   0  0  0  0  0  0
  -24.6394  -11.6914   20.8715 C   0  0  0  0  0  0
  -23.9059  -10.4300   21.0393 C   0  0  0  0  0  0
  -24.3613   -9.4219   21.9179 C   0  0  0  0  0  0
  -23.6294   -8.2254   22.0752 C   0  0  0  0  0  0
  -22.4273   -8.0290   21.3547 C   0  0  0  0  0  0
  -21.9904   -9.0253   20.4646 C   0  0  0  0  0  0
  -22.7227  -10.2136   20.3052 C   0  0  0  0  0  0
  -21.6854   -6.0737   22.5278 C   0  0  0  0  0  0
  -21.4015   -6.5643   23.8208 C   0  0  0  0  0  0
  -21.3659   -5.6795   24.9174 C   0  0  0  0  0  0
  -21.6042   -4.3055   24.7225 C   0  0  0  0  0  0
  -21.8814   -3.8151   23.4345 C   0  0  0  0  0  0
  -21.9189   -4.6966   22.3403 C   0  0  0  0  0  0
  -22.7866  -13.5242   21.1825 C   0  0  0  0  0  0
  -22.1659   -4.2155   21.0980 F   0  0  0  0  0  0
  -21.5628   -3.4538   25.7734 F   0  0  0  0  0  0
  -30.0432  -13.2683   20.4561 N   0  0  0  0  0  0
  -26.3041  -12.9337   20.3357 N   0  0  0  0  0  0
  -25.9325  -11.6493   20.5744 N   0  0  0  0  0  0
  -22.0505  -12.8243   22.0389 N   0  0  0  0  0  0
  -25.4370  -15.1884   20.4063 N   0  0  0  0  0  0
  -31.7965  -14.6780   20.0670 O   0  0  0  0  0  0
  -21.6642   -6.8883   21.4239 O   0  0  0  0  0  0
  -22.3545  -14.5546   20.6674 O   0  0  0  0  0  0
  -24.6151  -31.8692   23.2113 C   0  0  0  0  0  0
  -25.9050  -32.4826   23.8399 C   0  0  1  0  0  0
  -27.2271  -27.4278   20.0768 C   0  0  0  0  0  0
  -25.5903  -33.8624   24.2327 N   0  0  0  0  0  0
  -23.4012  -30.4955   21.5538 C   0  0  2  0  0  0
  -24.8427  -28.9634   20.1159 C   0  0  0  0  0  0
  -22.7406  -29.4667   22.5000 C   0  0  0  0  0  0
  -18.0270  -28.1372   22.8498 C   0  0  0  0  0  0
  -24.1487  -36.7317   23.2637 C   0  0  0  0  0  0
  -25.9327  -30.8293   21.3675 C   0  0  0  0  0  0
  -26.0058  -29.4637   20.7133 C   0  0  0  0  0  0
  -27.1974  -28.7004   20.6970 C   0  0  0  0  0  0
  -26.0345  -26.9430   19.4854 C   0  0  0  0  0  0
  -24.8513  -27.7007   19.5047 C   0  0  0  0  0  0
  -23.6078  -29.8332   20.1669 C   0  0  0  0  0  0
  -25.4107  -36.3114   24.0335 C   0  0  1  0  0  0
  -20.5861  -28.3660   23.1320 C   0  0  2  0  0  0
  -20.6762  -26.9400   22.5414 C   0  0  0  0  0  0
  -19.5737  -26.6386   21.5213 C   0  0  0  0  0  0
  -18.1917  -26.7920   22.1628 C   0  0  0  0  0  0
  -19.1521  -28.8832   23.2908 C   0  0  0  0  0  0
  -18.9452  -30.1438   23.8918 C   0  0  0  0  0  0
  -17.6454  -30.6582   24.0565 C   0  0  0  0  0  0
  -25.9036  -34.9479   23.5126 C   0  0  0  0  0  0
  -16.5346  -29.9085   23.6324 C   0  0  0  0  0  0
  -16.7259  -28.6500   23.0350 C   0  0  0  0  0  0
  -26.4473  -31.6602   25.0725 C   0  0  0  0  0  0
  -25.3736  -31.3717   26.1475 C   0  0  0  0  0  0
  -27.0296  -30.3039   24.6100 C   0  0  0  0  0  0
  -27.6050  -32.4319   25.7485 C   0  0  0  0  0  0
  -27.5580  -37.1813   24.8464 C   0  0  0  0  0  0
  -21.4135  -29.3034   22.3735 N   0  0  0  0  0  0
  -26.4294  -37.3797   23.9406 N   0  0  0  0  0  0
  -24.6682  -31.0789   22.1021 N   0  0  0  0  0  0
  -23.4182  -28.8205   23.3034 O   0  0  0  0  0  0
  -28.4063  -26.7016   20.0723 O   0  0  0  0  0  0
  -26.5600  -34.8929   22.4689 O   0  0  0  0  0  0
  -23.5344  -32.1455   23.7506 O   0  0  0  0  0  0
  -30.0016  -17.7112   20.8599 C   0  0  0  0  0  0
  -28.7015  -18.2638   19.1741 C   0  0  0  0  0  0
  -29.6119  -19.8429   20.3945 C   0  0  0  0  0  0
  -30.9630  -25.8612   19.3809 C   0  0  0  0  0  0
  -30.6620  -16.6555   21.7444 C   0  0  0  0  0  0
  -30.0334  -23.6536   20.2995 C   0  0  0  0  0  0
  -29.4253  -22.3012   19.8453 C   0  0  0  0  0  0
  -28.4448  -25.4809   19.3120 C   0  0  0  0  0  0
  -29.8420  -24.8123   19.2819 C   0  0  1  0  0  0
  -29.2304  -17.2761   19.8621 N   0  0  0  0  0  0
  -30.2322  -18.9851   21.1864 N   0  0  0  0  0  0
  -28.8286  -19.5631   19.3627 N   0  0  0  0  0  0
  -27.8974  -17.8868   18.1486 N   0  0  0  0  0  0
  -29.8187  -21.1757   20.6978 N   0  0  0  0  0  0
  -30.1900  -15.2869   21.5074 N   0  0  0  0  0  0
  -31.4663  -12.4110   19.1059 H   0  0  0  0  0  0
  -30.3255  -11.2891   19.7876 H   0  0  0  0  0  0
  -29.7315  -11.8199   17.4050 H   0  0  0  0  0  0
  -29.6561  -13.5218   17.7867 H   0  0  0  0  0  0
  -27.8263  -11.3187   18.8034 H   0  0  0  0  0  0
  -27.3609  -12.6587   17.7880 H   0  0  0  0  0  0
  -27.7201  -14.2579   19.5940 H   0  0  0  0  0  0
  -28.6748  -11.9245   21.3215 H   0  0  0  0  0  0
  -28.4494  -13.5471   21.8817 H   0  0  0  0  0  0
  -25.2760   -9.5705   22.4751 H   0  0  0  0  0  0
  -24.0006   -7.4647   22.7473 H   0  0  0  0  0  0
  -21.0835   -8.8764   19.8958 H   0  0  0  0  0  0
  -22.3678  -10.9669   19.6162 H   0  0  0  0  0  0
  -21.2021   -7.6150   23.9714 H   0  0  0  0  0  0
  -21.1481   -6.0528   25.9074 H   0  0  0  0  0  0
  -22.0598   -2.7615   23.2836 H   0  0  0  0  0  0
  -22.4113  -11.9910   22.4783 H   0  0  0  0  0  0
  -21.1130  -13.1290   22.2600 H   0  0  0  0  0  0
  -24.6756  -15.8513   20.5046 H   0  0  0  0  0  0
  -26.2947  -15.6175   20.0808 H   0  0  0  0  0  0
  -26.7114  -32.5529   23.1156 H   0  0  0  0  0  0
  -25.0042  -33.9791   25.0463 H   0  0  0  0  0  0
  -22.6896  -31.3129   21.4186 H   0  0  0  0  0  0
  -23.3745  -35.9654   23.3313 H   0  0  0  0  0  0
  -24.3581  -36.8918   22.2048 H   0  0  0  0  0  0
  -23.7248  -37.6527   23.6645 H   0  0  0  0  0  0
  -26.0484  -31.5956   20.5997 H   0  0  0  0  0  0
  -26.8196  -30.8797   21.9868 H   0  0  0  0  0  0
  -28.0963  -29.0862   21.1575 H   0  0  0  0  0  0
  -25.9827  -25.9792   19.0020 H   0  0  0  0  0  0
  -23.9549  -27.3073   19.0456 H   0  0  0  0  0  0
  -23.7186  -30.6106   19.4098 H   0  0  0  0  0  0
  -22.7297  -29.2571   19.8695 H   0  0  0  0  0  0
  -25.1284  -36.1976   25.0828 H   0  0  0  0  0  0
  -20.9955  -28.3220   24.1439 H   0  0  0  0  0  0
  -20.5674  -26.2265   23.3597 H   0  0  0  0  0  0
  -21.6632  -26.7447   22.1203 H   0  0  0  0  0  0
  -19.6900  -25.6303   21.1229 H   0  0  0  0  0  0
  -19.6671  -27.3209   20.6752 H   0  0  0  0  0  0
  -17.4187  -26.6671   21.4029 H   0  0  0  0  0  0
  -18.0319  -26.0055   22.9017 H   0  0  0  0  0  0
  -19.7929  -30.7245   24.2300 H   0  0  0  0  0  0
  -17.5012  -31.6266   24.5159 H   0  0  0  0  0  0
  -15.5347  -30.2995   23.7632 H   0  0  0  0  0  0
  -15.8659  -28.0821   22.7057 H   0  0  0  0  0  0
  -24.5889  -30.7091   25.7809 H   0  0  0  0  0  0
  -24.8952  -32.2879   26.4942 H   0  0  0  0  0  0
  -25.8081  -30.8861   27.0221 H   0  0  0  0  0  0
  -26.2836  -29.6814   24.1144 H   0  0  0  0  0  0
  -27.4051  -29.7263   25.4557 H   0  0  0  0  0  0
  -27.8684  -30.4353   23.9259 H   0  0  0  0  0  0
  -27.2665  -33.3601   26.2101 H   0  0  0  0  0  0
  -28.3836  -32.6909   25.0298 H   0  0  0  0  0  0
  -28.0748  -31.8423   26.5367 H   0  0  0  0  0  0
  -28.2608  -38.0101   24.7502 H   0  0  0  0  0  0
  -28.1065  -36.2632   24.6296 H   0  0  0  0  0  0
  -27.2301  -37.1477   25.8869 H   0  0  0  0  0  0
  -20.9291  -29.8759   21.6964 H   0  0  0  0  0  0
  -26.0184  -38.2877   24.1396 H   0  0  0  0  0  0
  -31.9424  -25.4170   19.1994 H   0  0  0  0  0  0
  -30.9859  -26.3245   20.3676 H   0  0  0  0  0  0
  -30.8225  -26.6546   18.6459 H   0  0  0  0  0  0
  -30.4633  -16.9055   22.7871 H   0  0  0  0  0  0
  -31.7445  -16.7196   21.6209 H   0  0  0  0  0  0
  -31.1044  -23.5028   20.4420 H   0  0  0  0  0  0
  -29.6402  -23.9472   21.2742 H   0  0  0  0  0  0
  -29.7476  -22.0806   18.8259 H   0  0  0  0  0  0
  -28.3366  -22.3654   19.8204 H   0  0  0  0  0  0
  -27.7089  -24.7694   19.6906 H   0  0  0  0  0  0
  -28.1651  -25.7137   18.2829 H   0  0  0  0  0  0
  -29.9457  -24.3620   18.2928 H   0  0  0  0  0  0
  -28.0306  -16.9476   17.8019 H   0  0  0  0  0  0
  -27.7147  -18.5877   17.4446 H   0  0  0  0  0  0
  -30.4322  -21.3514   21.4843 H   0  0  0  0  0  0
  -29.2939  -15.0487   21.8991 H   0  0  0  0  0  0
  1 25  1  0  0  0
  1 30  2  0  0  0
  1 85  1  0  0  0
  2  3  1  0  0  0
  2 25  1  0  0  0
  2 86  1  0  0  0
  2 87  1  0  0  0
  3  4  1  0  0  0
  3 88  1  0  0  0
  3 89  1  0  0  0
  4  5  1  0  0  0
  4 90  1  0  0  0
  4 91  1  0  0  0
  5  6  1  0  0  0
  5 26  1  0  0  0
  5 92  1  0  0  0
  6 25  1  0  0  0
  6 93  1  0  0  0
  6 94  1  0  0  0
  7  8  2  0  0  0
  7 26  1  0  0  0
  7 29  1  0  0  0
  8  9  1  0  0  0
  8 22  1  0  0  0
  9 10  1  0  0  0
  9 27  2  0  0  0
 10 11  2  0  0  0
 10 15  1  0  0  0
 11 12  1  0  0  0
 11 95  1  0  0  0
 12 13  2  0  0  0
 12 96  1  0  0  0
 13 14  1  0  0  0
 13 31  1  0  0  0
 14 15  2  0  0  0
 14 97  1  0  0  0
 15 98  1  0  0  0
 16 17  2  0  0  0
 16 21  1  0  0  0
 16 31  1  0  0  0
 17 18  1  0  0  0
 17 99  1  0  0  0
 18 19  2  0  0  0
 18100  1  0  0  0
 19 20  1  0  0  0
 19 24  1  0  0  0
 20 21  2  0  0  0
 20101  1  0  0  0
 21 23  1  0  0  0
 22 28  1  0  0  0
 22 32  2  0  0  0
 26 27  1  0  0  0
 28102  1  0  0  0
 28103  1  0  0  0
 29104  1  0  0  0
 29105  1  0  0  0
 33 34  1  0  0  0
 33 66  1  0  0  0
 33 70  2  0  0  0
 34 36  1  0  0  0
 34 59  1  0  0  0
 34106  1  0  0  0
 35 44  2  0  0  0
 35 45  1  0  0  0
 35 68  1  0  0  0
 36 56  1  0  0  0
 36107  1  0  0  0
 37 39  1  0  0  0
 37 47  1  0  0  0
 37 66  1  0  0  0
 37108  1  0  0  0
 38 43  2  0  0  0
 38 46  1  0  0  0
 38 47  1  0  0  0
 39 64  1  0  0  0
 39 67  2  0  0  0
 40 52  1  0  0  0
 40 53  2  0  0  0
 40 58  1  0  0  0
 41109  1  0  0  0
 41110  1  0  0  0
 41111  1  0  0  0
 41 48  1  0  0  0
 42 43  1  0  0  0
 42 66  1  0  0  0
 42112  1  0  0  0
 42113  1  0  0  0
 43 44  1  0  0  0
 44114  1  0  0  0
 45 46  2  0  0  0
 45115  1  0  0  0
 46116  1  0  0  0
 47117  1  0  0  0
 47118  1  0  0  0
 48 56  1  0  0  0
 48 65  1  0  0  0
 48119  1  0  0  0
 49 50  1  0  0  0
 49 53  1  0  0  0
 49 64  1  0  0  0
 49120  1  0  0  0
 50 51  1  0  0  0
 50121  1  0  0  0
 50122  1  0  0  0
 51 52  1  0  0  0
 51123  1  0  0  0
 51124  1  0  0  0
 52125  1  0  0  0
 52126  1  0  0  0
 53 54  1  0  0  0
 54 55  2  0  0  0
 54127  1  0  0  0
 55 57  1  0  0  0
 55128  1  0  0  0
 56 69  2  0  0  0
 57 58  2  0  0  0
 57129  1  0  0  0
 58130  1  0  0  0
 59 60  1  0  0  0
 59 61  1  0  0  0
 59 62  1  0  0  0
 60131  1  0  0  0
 60132  1  0  0  0
 60133  1  0  0  0
 61134  1  0  0  0
 61135  1  0  0  0
 61136  1  0  0  0
 62137  1  0  0  0
 62138  1  0  0  0
 62139  1  0  0  0
 63 65  1  0  0  0
 63140  1  0  0  0
 63141  1  0  0  0
 63142  1  0  0  0
 64143  1  0  0  0
 65144  1  0  0  0
 68 78  1  0  0  0
 71 75  1  0  0  0
 71 80  1  0  0  0
 71 81  2  0  0  0
 72 80  2  0  0  0
 72 82  1  0  0  0
 72 83  1  0  0  0
 73 81  1  0  0  0
 73 82  2  0  0  0
 73 84  1  0  0  0
 74145  1  0  0  0
 74146  1  0  0  0
 74147  1  0  0  0
 74 79  1  0  0  0
 75 85  1  0  0  0
 75148  1  0  0  0
 75149  1  0  0  0
 76 77  1  0  0  0
 76 79  1  0  0  0
 76150  1  0  0  0
 76151  1  0  0  0
 77 84  1  0  0  0
 77152  1  0  0  0
 77153  1  0  0  0
 78 79  1  0  0  0
 78154  1  0  0  0
 78155  1  0  0  0
 79156  1  0  0  0
 83157  1  0  0  0
 83158  1  0  0  0
 84159  1  0  0  0
 85160  1  0  0  0
M  ISO  4   1 100  68 101  78 101  85 100
M  END
> <chiral flag>
0

> <version>
0

> <s_m_source_file>
/data/baiqing/PycharmProjects/Reinvent-master-3.2/result/LINK_invent/BTK/process_docking_weight1_custom_product_contain_oxygen_bond_distance_aromatic_linkinvent_7_9_3/rearranged_h_0192.sdf

> <i_m_source_file_index>
62

> <r_mmod_Potential_Energy-OPLS-2005>
-1209.60815429688

> <r_mmod_Stretch_Energy-OPLS-2005>
35.9949073791504

> <r_mmod_Bend_Energy-OPLS-2005>
104.035079956055

> <r_mmod_Torsional_Energy-OPLS-2005>
194.879013061523

> <r_mmod_Improper_Torsional_Energy-OPLS-2005>
5.84725618362427

> <r_mmod_Van_der_Waal_Energy-OPLS-2005>
185.194625854492

> <r_mmod_Electrostatic_Energy-OPLS-2005>
-1504.54431152344

> <r_mmod_Solvation_Energy-OPLS-2005>
-240.769760131836

> <b_mmod_Minimization_Converged-OPLS-2005>
0

> <r_mmod_RMS_Derivative-OPLS-2005>
1.31863236427307

$$$$
63
                    3D
 Structure written by MMmdl.
174182  0  0  1  0            999 V2000
  -30.6883  -14.5379   20.5587 C   0  0  0  0  0  0
  -30.4419  -12.3478   19.4314 C   0  0  0  0  0  0
  -29.5136  -12.4996   18.2062 C   0  0  0  0  0  0
  -28.0333  -12.3527   18.6192 C   0  0  0  0  0  0
  -27.6622  -13.2104   19.8581 C   0  0  2  0  0  0
  -28.7065  -13.0371   20.9847 C   0  0  0  0  0  0
  -25.2588  -13.8174   20.5646 C   0  0  0  0  0  0
  -24.1825  -13.0458   20.9136 C   0  0  0  0  0  0
  -24.6383  -11.6921   20.8706 C   0  0  0  0  0  0
  -23.9061  -10.4304   21.0395 C   0  0  0  0  0  0
  -24.3613   -9.4225   21.9173 C   0  0  0  0  0  0
  -23.6314   -8.2251   22.0761 C   0  0  0  0  0  0
  -22.4258   -8.0303   21.3551 C   0  0  0  0  0  0
  -21.9908   -9.0275   20.4649 C   0  0  0  0  0  0
  -22.7224  -10.2150   20.3041 C   0  0  0  0  0  0
  -21.6858   -6.0732   22.5283 C   0  0  0  0  0  0
  -21.4027   -6.5633   23.8217 C   0  0  0  0  0  0
  -21.3658   -5.6775   24.9159 C   0  0  0  0  0  0
  -21.6033   -4.3035   24.7214 C   0  0  0  0  0  0
  -21.8818   -3.8146   23.4340 C   0  0  0  0  0  0
  -21.9190   -4.6959   22.3417 C   0  0  0  0  0  0
  -22.7843  -13.5258   21.1769 C   0  0  0  0  0  0
  -22.1659   -4.2145   21.0972 F   0  0  0  0  0  0
  -21.5620   -3.4535   25.7748 F   0  0  0  0  0  0
  -30.0329  -13.3510   20.4255 N   0  0  0  0  0  0
  -26.3020  -12.9358   20.3226 N   0  0  0  0  0  0
  -25.9288  -11.6521   20.5665 N   0  0  0  0  0  0
  -22.0457  -12.8341   22.0378 N   0  0  0  0  0  0
  -25.4283  -15.1898   20.4143 N   0  0  0  0  0  0
  -31.8540  -14.7015   20.1836 O   0  0  0  0  0  0
  -21.6648   -6.8904   21.4257 O   0  0  0  0  0  0
  -22.3529  -14.5538   20.6580 O   0  0  0  0  0  0
  -24.6089  -31.8702   23.2082 C   0  0  0  0  0  0
  -25.8967  -32.4848   23.8435 C   0  0  1  0  0  0
  -27.2409  -27.4168   20.1217 C   0  0  0  0  0  0
  -25.5813  -33.8643   24.2340 N   0  0  0  0  0  0
  -23.4057  -30.4866   21.5486 C   0  0  2  0  0  0
  -24.8581  -28.9529   20.1164 C   0  0  0  0  0  0
  -22.7405  -29.4635   22.4971 C   0  0  0  0  0  0
  -18.0252  -28.1336   22.8457 C   0  0  0  0  0  0
  -24.1475  -36.7290   23.2655 C   0  0  0  0  0  0
  -25.9391  -30.8284   21.3729 C   0  0  0  0  0  0
  -26.0202  -29.4658   20.7100 C   0  0  0  0  0  0
  -27.2181  -28.7131   20.6929 C   0  0  0  0  0  0
  -26.0624  -26.9205   19.5238 C   0  0  0  0  0  0
  -24.8777  -27.6810   19.5151 C   0  0  0  0  0  0
  -23.6163  -29.8129   20.1666 C   0  0  0  0  0  0
  -25.4101  -36.3140   24.0357 C   0  0  1  0  0  0
  -20.5834  -28.3638   23.1264 C   0  0  2  0  0  0
  -20.6711  -26.9362   22.5391 C   0  0  0  0  0  0
  -19.5719  -26.6345   21.5143 C   0  0  0  0  0  0
  -18.1894  -26.7893   22.1567 C   0  0  0  0  0  0
  -19.1510  -28.8806   23.2879 C   0  0  0  0  0  0
  -18.9441  -30.1389   23.8934 C   0  0  0  0  0  0
  -17.6459  -30.6575   24.0517 C   0  0  0  0  0  0
  -25.9017  -34.9491   23.5175 C   0  0  0  0  0  0
  -16.5338  -29.9070   23.6300 C   0  0  0  0  0  0
  -16.7251  -28.6448   23.0398 C   0  0  0  0  0  0
  -26.4400  -31.6675   25.0796 C   0  0  0  0  0  0
  -25.3610  -31.3827   26.1514 C   0  0  0  0  0  0
  -27.0279  -30.3126   24.6249 C   0  0  0  0  0  0
  -27.6020  -32.4412   25.7496 C   0  0  0  0  0  0
  -27.5599  -37.1779   24.8458 C   0  0  0  0  0  0
  -21.4128  -29.3036   22.3714 N   0  0  0  0  0  0
  -26.4321  -37.3789   23.9410 N   0  0  0  0  0  0
  -24.6690  -31.0750   22.1004 N   0  0  0  0  0  0
  -23.4148  -28.8149   23.3027 O   0  0  0  0  0  0
  -28.3893  -26.6498   20.1340 O   0  0  0  0  0  0
  -26.5615  -34.8934   22.4764 O   0  0  0  0  0  0
  -23.5259  -32.1468   23.7419 O   0  0  0  0  0  0
  -31.1292  -17.0653   22.4159 C   0  0  0  0  0  0
  -30.7403  -19.3604   22.4514 C   0  0  0  0  0  0
  -30.2971  -16.9104   21.2833 C   0  0  0  0  0  0
  -29.9845  -19.2531   21.2450 C   0  0  0  0  0  0
  -33.2784  -20.8645   18.3889 C   0  0  0  0  0  0
  -32.0366  -20.7689   24.1585 C   0  0  0  0  0  0
  -29.4962  -20.6233   24.2524 C   0  0  0  0  0  0
  -32.1289  -22.5277   20.7713 C   0  0  0  0  0  0
  -31.9867  -20.5515   19.1699 C   0  0  0  0  0  0
  -29.0095  -22.8235   20.7711 C   0  0  0  0  0  0
  -28.2832  -25.3530   20.7743 C   0  0  0  0  0  0
  -30.7336  -20.6039   23.3439 C   0  0  0  0  0  0
  -31.2608  -21.8021   19.7255 C   0  0  1  0  0  0
  -29.7403  -21.6117   20.0899 C   0  0  1  0  0  0
  -29.0107  -24.1974   20.0153 C   0  0  2  0  0  0
  -31.3127  -18.2645   23.0159 N   0  0  0  0  0  0
  -29.7467  -18.0217   20.7051 N   0  0  0  0  0  0
  -29.9098  -15.5838   20.9136 N   0  0  0  0  0  0
  -29.2755  -20.2960   20.6068 N   0  0  0  0  0  0
  -28.4004  -24.0275   18.8407 F   0  0  0  0  0  0
  -31.4851  -12.4676   19.1331 H   0  0  0  0  0  0
  -30.3662  -11.3458   19.8568 H   0  0  0  0  0  0
  -29.7666  -11.7570   17.4502 H   0  0  0  0  0  0
  -29.6708  -13.4704   17.7328 H   0  0  0  0  0  0
  -27.8500  -11.3002   18.8338 H   0  0  0  0  0  0
  -27.3839  -12.6037   17.7805 H   0  0  0  0  0  0
  -27.6883  -14.2475   19.5260 H   0  0  0  0  0  0
  -28.6927  -12.0149   21.3605 H   0  0  0  0  0  0
  -28.4626  -13.6663   21.8405 H   0  0  0  0  0  0
  -25.2770   -9.5716   22.4711 H   0  0  0  0  0  0
  -24.0016   -7.4656   22.7502 H   0  0  0  0  0  0
  -21.0806   -8.8786   19.8987 H   0  0  0  0  0  0
  -22.3687  -10.9670   19.6131 H   0  0  0  0  0  0
  -21.2044   -7.6145   23.9721 H   0  0  0  0  0  0
  -21.1453   -6.0496   25.9051 H   0  0  0  0  0  0
  -22.0604   -2.7617   23.2827 H   0  0  0  0  0  0
  -22.4022  -12.0085   22.4911 H   0  0  0  0  0  0
  -21.1033  -13.1390   22.2406 H   0  0  0  0  0  0
  -24.6614  -15.8404   20.5419 H   0  0  0  0  0  0
  -26.2702  -15.6427   20.0873 H   0  0  0  0  0  0
  -26.7046  -32.5534   23.1203 H   0  0  0  0  0  0
  -24.9885  -33.9854   25.0440 H   0  0  0  0  0  0
  -22.6934  -31.3007   21.4026 H   0  0  0  0  0  0
  -23.3783  -35.9578   23.3321 H   0  0  0  0  0  0
  -24.3558  -36.8898   22.2067 H   0  0  0  0  0  0
  -23.7169  -37.6469   23.6667 H   0  0  0  0  0  0
  -26.0760  -31.6027   20.6159 H   0  0  0  0  0  0
  -26.8145  -30.8641   22.0107 H   0  0  0  0  0  0
  -28.1179  -29.1160   21.1377 H   0  0  0  0  0  0
  -26.0655  -25.9371   19.0742 H   0  0  0  0  0  0
  -23.9826  -27.2756   19.0599 H   0  0  0  0  0  0
  -23.7151  -30.5814   19.4008 H   0  0  0  0  0  0
  -22.7480  -29.2175   19.8777 H   0  0  0  0  0  0
  -25.1274  -36.2047   25.0851 H   0  0  0  0  0  0
  -20.9927  -28.3192   24.1374 H   0  0  0  0  0  0
  -20.5441  -26.2268   23.3586 H   0  0  0  0  0  0
  -21.6608  -26.7296   22.1291 H   0  0  0  0  0  0
  -19.6880  -25.6236   21.1211 H   0  0  0  0  0  0
  -19.6688  -27.3098   20.6623 H   0  0  0  0  0  0
  -17.4142  -26.6593   21.3991 H   0  0  0  0  0  0
  -18.0360  -26.0041   22.8982 H   0  0  0  0  0  0
  -19.7941  -30.7142   24.2376 H   0  0  0  0  0  0
  -17.5042  -31.6270   24.5090 H   0  0  0  0  0  0
  -15.5349  -30.3011   23.7612 H   0  0  0  0  0  0
  -15.8622  -28.0738   22.7236 H   0  0  0  0  0  0
  -24.5715  -30.7295   25.7767 H   0  0  0  0  0  0
  -24.8861  -32.3013   26.4987 H   0  0  0  0  0  0
  -25.7837  -30.8896   27.0278 H   0  0  0  0  0  0
  -26.2903  -29.6883   24.1188 H   0  0  0  0  0  0
  -27.3927  -29.7378   25.4773 H   0  0  0  0  0  0
  -27.8778  -30.4482   23.9552 H   0  0  0  0  0  0
  -27.2705  -33.3711   26.2139 H   0  0  0  0  0  0
  -28.3734  -32.6989   25.0224 H   0  0  0  0  0  0
  -28.0823  -31.8518   26.5320 H   0  0  0  0  0  0
  -28.2614  -38.0085   24.7554 H   0  0  0  0  0  0
  -28.1113  -36.2614   24.6244 H   0  0  0  0  0  0
  -27.2329  -37.1393   25.8872 H   0  0  0  0  0  0
  -20.9262  -29.8812   21.6996 H   0  0  0  0  0  0
  -26.0231  -38.2889   24.1405 H   0  0  0  0  0  0
  -31.5653  -16.2101   22.9110 H   0  0  0  0  0  0
  -33.6902  -19.9582   17.9423 H   0  0  0  0  0  0
  -34.0592  -21.2763   19.0298 H   0  0  0  0  0  0
  -33.0944  -21.5757   17.5829 H   0  0  0  0  0  0
  -32.9058  -20.8300   23.5048 H   0  0  0  0  0  0
  -32.2068  -19.9259   24.8307 H   0  0  0  0  0  0
  -32.0130  -21.6674   24.7777 H   0  0  0  0  0  0
  -28.5882  -20.5661   23.6503 H   0  0  0  0  0  0
  -29.4443  -21.5489   24.8277 H   0  0  0  0  0  0
  -29.4857  -19.7884   24.9536 H   0  0  0  0  0  0
  -33.0309  -22.9279   20.3079 H   0  0  0  0  0  0
  -32.4683  -21.8588   21.5534 H   0  0  0  0  0  0
  -31.6212  -23.3698   21.2373 H   0  0  0  0  0  0
  -32.2509  -19.8804   19.9867 H   0  0  0  0  0  0
  -31.3111  -19.9921   18.5217 H   0  0  0  0  0  0
  -29.3983  -22.9799   21.7749 H   0  0  0  0  0  0
  -27.9654  -22.5442   20.9230 H   0  0  0  0  0  0
  -28.7415  -25.4638   21.7588 H   0  0  0  0  0  0
  -27.2475  -25.0633   20.9654 H   0  0  0  0  0  0
  -30.6511  -21.4689   22.6985 H   0  0  0  0  0  0
  -31.2292  -22.5035   18.8889 H   0  0  0  0  0  0
  -29.2796  -21.5825   19.1008 H   0  0  0  0  0  0
  -30.0309  -24.5055   19.7910 H   0  0  0  0  0  0
  -28.9291  -15.3756   21.0122 H   0  0  0  0  0  0
  -28.5957  -19.8981   19.9672 H   0  0  0  0  0  0
  1 25  1  0  0  0
  1 30  2  0  0  0
  1 88  1  0  0  0
  2  3  1  0  0  0
  2 25  1  0  0  0
  2 91  1  0  0  0
  2 92  1  0  0  0
  3  4  1  0  0  0
  3 93  1  0  0  0
  3 94  1  0  0  0
  4  5  1  0  0  0
  4 95  1  0  0  0
  4 96  1  0  0  0
  5  6  1  0  0  0
  5 26  1  0  0  0
  5 97  1  0  0  0
  6 25  1  0  0  0
  6 98  1  0  0  0
  6 99  1  0  0  0
  7  8  2  0  0  0
  7 26  1  0  0  0
  7 29  1  0  0  0
  8  9  1  0  0  0
  8 22  1  0  0  0
  9 10  1  0  0  0
  9 27  2  0  0  0
 10 11  2  0  0  0
 10 15  1  0  0  0
 11 12  1  0  0  0
 11100  1  0  0  0
 12 13  2  0  0  0
 12101  1  0  0  0
 13 14  1  0  0  0
 13 31  1  0  0  0
 14 15  2  0  0  0
 14102  1  0  0  0
 15103  1  0  0  0
 16 17  2  0  0  0
 16 21  1  0  0  0
 16 31  1  0  0  0
 17 18  1  0  0  0
 17104  1  0  0  0
 18 19  2  0  0  0
 18105  1  0  0  0
 19 20  1  0  0  0
 19 24  1  0  0  0
 20 21  2  0  0  0
 20106  1  0  0  0
 21 23  1  0  0  0
 22 28  1  0  0  0
 22 32  2  0  0  0
 26 27  1  0  0  0
 28107  1  0  0  0
 28108  1  0  0  0
 29109  1  0  0  0
 29110  1  0  0  0
 33 34  1  0  0  0
 33 66  1  0  0  0
 33 70  2  0  0  0
 34 36  1  0  0  0
 34 59  1  0  0  0
 34111  1  0  0  0
 35 44  2  0  0  0
 35 45  1  0  0  0
 35 68  1  0  0  0
 36 56  1  0  0  0
 36112  1  0  0  0
 37 39  1  0  0  0
 37 47  1  0  0  0
 37 66  1  0  0  0
 37113  1  0  0  0
 38 43  2  0  0  0
 38 46  1  0  0  0
 38 47  1  0  0  0
 39 64  1  0  0  0
 39 67  2  0  0  0
 40 52  1  0  0  0
 40 53  2  0  0  0
 40 58  1  0  0  0
 41114  1  0  0  0
 41115  1  0  0  0
 41116  1  0  0  0
 41 48  1  0  0  0
 42 43  1  0  0  0
 42 66  1  0  0  0
 42117  1  0  0  0
 42118  1  0  0  0
 43 44  1  0  0  0
 44119  1  0  0  0
 45 46  2  0  0  0
 45120  1  0  0  0
 46121  1  0  0  0
 47122  1  0  0  0
 47123  1  0  0  0
 48 56  1  0  0  0
 48 65  1  0  0  0
 48124  1  0  0  0
 49 50  1  0  0  0
 49 53  1  0  0  0
 49 64  1  0  0  0
 49125  1  0  0  0
 50 51  1  0  0  0
 50126  1  0  0  0
 50127  1  0  0  0
 51 52  1  0  0  0
 51128  1  0  0  0
 51129  1  0  0  0
 52130  1  0  0  0
 52131  1  0  0  0
 53 54  1  0  0  0
 54 55  2  0  0  0
 54132  1  0  0  0
 55 57  1  0  0  0
 55133  1  0  0  0
 56 69  2  0  0  0
 57 58  2  0  0  0
 57134  1  0  0  0
 58135  1  0  0  0
 59 60  1  0  0  0
 59 61  1  0  0  0
 59 62  1  0  0  0
 60136  1  0  0  0
 60137  1  0  0  0
 60138  1  0  0  0
 61139  1  0  0  0
 61140  1  0  0  0
 61141  1  0  0  0
 62142  1  0  0  0
 62143  1  0  0  0
 62144  1  0  0  0
 63 65  1  0  0  0
 63145  1  0  0  0
 63146  1  0  0  0
 63147  1  0  0  0
 64148  1  0  0  0
 65149  1  0  0  0
 68 81  1  0  0  0
 71 73  2  0  0  0
 71 86  1  0  0  0
 71150  1  0  0  0
 72 74  1  0  0  0
 72 82  1  0  0  0
 72 86  2  0  0  0
 73 87  1  0  0  0
 73 88  1  0  0  0
 74 87  2  0  0  0
 74 89  1  0  0  0
 75 79  1  0  0  0
 75151  1  0  0  0
 75152  1  0  0  0
 75153  1  0  0  0
 76154  1  0  0  0
 76155  1  0  0  0
 76156  1  0  0  0
 76 82  1  0  0  0
 77 82  1  0  0  0
 77157  1  0  0  0
 77158  1  0  0  0
 77159  1  0  0  0
 78160  1  0  0  0
 78161  1  0  0  0
 78162  1  0  0  0
 78 83  1  0  0  0
 79 83  1  0  0  0
 79163  1  0  0  0
 79164  1  0  0  0
 80 85  1  0  0  0
 80165  1  0  0  0
 80166  1  0  0  0
 80 84  1  0  0  0
 81 85  1  0  0  0
 81167  1  0  0  0
 81168  1  0  0  0
 82169  1  0  0  0
 83 84  1  0  0  0
 83170  1  0  0  0
 84 89  1  0  0  0
 84171  1  0  0  0
 85 90  1  0  0  0
 85172  1  0  0  0
 88173  1  0  0  0
 89174  1  0  0  0
M  ISO  4   1 100  68 101  81 101  88 100
M  END
> <chiral flag>
0

> <version>
0

> <s_m_source_file>
/data/baiqing/PycharmProjects/Reinvent-master-3.2/result/LINK_invent/BTK/process_docking_weight1_custom_product_contain_oxygen_bond_distance_aromatic_linkinvent_7_9_3/rearranged_h_0192.sdf

> <i_m_source_file_index>
63

> <r_mmod_Potential_Energy-OPLS-2005>
74.5554275512695

> <r_mmod_Stretch_Energy-OPLS-2005>
53.5983009338379

> <r_mmod_Bend_Energy-OPLS-2005>
164.655014038086

> <r_mmod_Torsional_Energy-OPLS-2005>
290.351684570312

> <r_mmod_Improper_Torsional_Energy-OPLS-2005>
11.5229396820068

> <r_mmod_Van_der_Waal_Energy-OPLS-2005>
144.329635620117

> <r_mmod_Electrostatic_Energy-OPLS-2005>
-403.556427001953

> <r_mmod_Solvation_Energy-OPLS-2005>
-208.453308105469

> <b_mmod_Minimization_Converged-OPLS-2005>
0

> <r_mmod_RMS_Derivative-OPLS-2005>
5.24950647354126

$$$$
64
                    3D
 Structure written by MMmdl.
155163  0  0  1  0            999 V2000
  -30.6864  -14.4962   20.5136 C   0  0  0  0  0  0
  -30.4303  -12.3069   19.4298 C   0  0  0  0  0  0
  -29.5043  -12.5033   18.2102 C   0  0  0  0  0  0
  -28.0207  -12.3749   18.6151 C   0  0  0  0  0  0
  -27.6638  -13.2130   19.8742 C   0  0  2  0  0  0
  -28.7093  -13.0052   20.9957 C   0  0  0  0  0  0
  -25.2591  -13.8202   20.5706 C   0  0  0  0  0  0
  -24.1837  -13.0460   20.9194 C   0  0  0  0  0  0
  -24.6419  -11.6929   20.8749 C   0  0  0  0  0  0
  -23.9079  -10.4301   21.0375 C   0  0  0  0  0  0
  -24.3635   -9.4212   21.9155 C   0  0  0  0  0  0
  -23.6304   -8.2254   22.0735 C   0  0  0  0  0  0
  -22.4298   -8.0287   21.3536 C   0  0  0  0  0  0
  -21.9923   -9.0255   20.4635 C   0  0  0  0  0  0
  -22.7255  -10.2129   20.3026 C   0  0  0  0  0  0
  -21.6847   -6.0731   22.5278 C   0  0  0  0  0  0
  -21.4012   -6.5627   23.8206 C   0  0  0  0  0  0
  -21.3666   -5.6788   24.9171 C   0  0  0  0  0  0
  -21.6054   -4.3037   24.7221 C   0  0  0  0  0  0
  -21.8812   -3.8138   23.4333 C   0  0  0  0  0  0
  -21.9194   -4.6953   22.3397 C   0  0  0  0  0  0
  -22.7859  -13.5232   21.1842 C   0  0  0  0  0  0
  -22.1647   -4.2130   21.0966 F   0  0  0  0  0  0
  -21.5645   -3.4527   25.7736 F   0  0  0  0  0  0
  -30.0411  -13.3002   20.4439 N   0  0  0  0  0  0
  -26.3038  -12.9377   20.3363 N   0  0  0  0  0  0
  -25.9339  -11.6523   20.5781 N   0  0  0  0  0  0
  -22.0482  -12.8239   22.0403 N   0  0  0  0  0  0
  -25.4336  -15.1917   20.4064 N   0  0  0  0  0  0
  -31.8492  -14.6480   20.1190 O   0  0  0  0  0  0
  -21.6644   -6.8884   21.4247 O   0  0  0  0  0  0
  -22.3520  -14.5513   20.6645 O   0  0  0  0  0  0
  -24.6139  -31.8682   23.2052 C   0  0  0  0  0  0
  -25.9013  -32.4838   23.8354 C   0  0  1  0  0  0
  -27.2047  -27.4160   20.1142 C   0  0  0  0  0  0
  -25.5846  -33.8634   24.2249 N   0  0  0  0  0  0
  -23.4009  -30.4905   21.5505 C   0  0  2  0  0  0
  -24.8407  -28.9589   20.1108 C   0  0  0  0  0  0
  -22.7395  -29.4660   22.5016 C   0  0  0  0  0  0
  -18.0252  -28.1392   22.8486 C   0  0  0  0  0  0
  -24.1475  -36.7351   23.2640 C   0  0  0  0  0  0
  -25.9294  -30.8357   21.3538 C   0  0  0  0  0  0
  -26.0059  -29.4696   20.7003 C   0  0  0  0  0  0
  -27.1984  -28.7075   20.6930 C   0  0  0  0  0  0
  -26.0283  -26.9252   19.5146 C   0  0  0  0  0  0
  -24.8479  -27.6873   19.5106 C   0  0  0  0  0  0
  -23.6044  -29.8244   20.1638 C   0  0  0  0  0  0
  -25.4100  -36.3133   24.0323 C   0  0  1  0  0  0
  -20.5838  -28.3672   23.1338 C   0  0  2  0  0  0
  -20.6752  -26.9422   22.5437 C   0  0  0  0  0  0
  -19.5727  -26.6384   21.5236 C   0  0  0  0  0  0
  -18.1899  -26.7928   22.1637 C   0  0  0  0  0  0
  -19.1504  -28.8844   23.2899 C   0  0  0  0  0  0
  -18.9453  -30.1447   23.8897 C   0  0  0  0  0  0
  -17.6466  -30.6605   24.0575 C   0  0  0  0  0  0
  -25.9041  -34.9508   23.5103 C   0  0  0  0  0  0
  -16.5347  -29.9129   23.6329 C   0  0  0  0  0  0
  -16.7244  -28.6560   23.0320 C   0  0  0  0  0  0
  -26.4398  -31.6642   25.0719 C   0  0  0  0  0  0
  -25.3644  -31.3828   26.1476 C   0  0  0  0  0  0
  -27.0210  -30.3058   24.6141 C   0  0  0  0  0  0
  -27.5938  -32.4382   25.7511 C   0  0  0  0  0  0
  -27.5584  -37.1814   24.8439 C   0  0  0  0  0  0
  -21.4137  -29.3032   22.3754 N   0  0  0  0  0  0
  -26.4267  -37.3841   23.9434 N   0  0  0  0  0  0
  -24.6676  -31.0755   22.0966 N   0  0  0  0  0  0
  -23.4166  -28.8215   23.3071 O   0  0  0  0  0  0
  -28.3227  -26.6132   20.1609 O   0  0  0  0  0  0
  -26.5653  -34.8979   22.4695 O   0  0  0  0  0  0
  -23.5322  -32.1434   23.7441 O   0  0  0  0  0  0
  -29.9631  -16.7169   18.6902 C   0  0  0  0  0  0
  -29.3538  -19.0474   18.5312 C   0  0  0  0  0  0
  -29.7302  -17.8550   17.9086 C   0  0  0  0  0  0
  -29.8021  -16.7780   20.0922 C   0  0  0  0  0  0
  -29.2392  -19.0733   19.9316 C   0  0  0  0  0  0
  -28.4825  -24.1047   20.0188 C   0  0  0  0  0  0
  -28.7750  -21.5329   19.8855 C   0  0  0  0  0  0
  -28.1207  -25.3599   20.8602 C   0  0  0  0  0  0
  -28.5282  -22.7571   20.8071 C   0  0  1  0  0  0
  -29.4491  -17.9599   20.6837 N   0  0  0  0  0  0
  -29.9197  -15.5604   20.8453 N   0  0  0  0  0  0
  -28.9070  -20.2593   20.6118 N   0  0  0  0  0  0
  -29.6082  -22.7781   21.7282 O   0  0  0  0  0  0
  -29.8577  -17.7979   16.5616 F   0  0  0  0  0  0
  -31.4737  -12.4094   19.1289 H   0  0  0  0  0  0
  -30.3383  -11.2956   19.8298 H   0  0  0  0  0  0
  -29.7469  -11.7777   17.4307 H   0  0  0  0  0  0
  -29.6779  -13.4869   17.7706 H   0  0  0  0  0  0
  -27.8149  -11.3205   18.8048 H   0  0  0  0  0  0
  -27.3767  -12.6598   17.7831 H   0  0  0  0  0  0
  -27.7044  -14.2613   19.5741 H   0  0  0  0  0  0
  -28.6865  -11.9723   21.3433 H   0  0  0  0  0  0
  -28.4853  -13.6156   21.8717 H   0  0  0  0  0  0
  -25.2761   -9.5703   22.4733 H   0  0  0  0  0  0
  -24.0011   -7.4649   22.7459 H   0  0  0  0  0  0
  -21.0846   -8.8774   19.8957 H   0  0  0  0  0  0
  -22.3689  -10.9668   19.6136 H   0  0  0  0  0  0
  -21.1980   -7.6131   23.9716 H   0  0  0  0  0  0
  -21.1507   -6.0498   25.9081 H   0  0  0  0  0  0
  -22.0589   -2.7599   23.2835 H   0  0  0  0  0  0
  -22.4073  -11.9909   22.4832 H   0  0  0  0  0  0
  -21.1089  -13.1259   22.2574 H   0  0  0  0  0  0
  -24.6801  -15.8593   20.5339 H   0  0  0  0  0  0
  -26.2883  -15.6251   20.0804 H   0  0  0  0  0  0
  -26.7108  -32.5523   23.1147 H   0  0  0  0  0  0
  -24.9865  -33.9775   25.0297 H   0  0  0  0  0  0
  -22.6908  -31.3083   21.4140 H   0  0  0  0  0  0
  -23.3755  -35.9660   23.3247 H   0  0  0  0  0  0
  -24.3581  -36.9028   22.2065 H   0  0  0  0  0  0
  -23.7187  -37.6521   23.6703 H   0  0  0  0  0  0
  -26.0267  -31.5995   20.5807 H   0  0  0  0  0  0
  -26.8236  -30.8950   21.9635 H   0  0  0  0  0  0
  -28.0978  -29.0890   21.1563 H   0  0  0  0  0  0
  -26.0177  -25.9370   19.0751 H   0  0  0  0  0  0
  -23.9495  -27.2829   19.0639 H   0  0  0  0  0  0
  -23.7053  -30.5975   19.4016 H   0  0  0  0  0  0
  -22.7290  -29.2407   19.8740 H   0  0  0  0  0  0
  -25.1270  -36.1986   25.0810 H   0  0  0  0  0  0
  -20.9897  -28.3235   24.1468 H   0  0  0  0  0  0
  -20.5671  -26.2294   23.3627 H   0  0  0  0  0  0
  -21.6628  -26.7489   22.1222 H   0  0  0  0  0  0
  -19.6909  -25.6300   21.1251 H   0  0  0  0  0  0
  -19.6648  -27.3209   20.6777 H   0  0  0  0  0  0
  -17.4180  -26.6647   21.4037 H   0  0  0  0  0  0
  -18.0305  -26.0072   22.9035 H   0  0  0  0  0  0
  -19.7944  -30.7245   24.2254 H   0  0  0  0  0  0
  -17.5056  -31.6280   24.5208 H   0  0  0  0  0  0
  -15.5359  -30.3063   23.7666 H   0  0  0  0  0  0
  -15.8630  -28.0926   22.6991 H   0  0  0  0  0  0
  -24.5724  -30.7279   25.7835 H   0  0  0  0  0  0
  -24.8951  -32.3043   26.4936 H   0  0  0  0  0  0
  -25.7948  -30.8957   27.0236 H   0  0  0  0  0  0
  -26.2788  -29.6896   24.1062 H   0  0  0  0  0  0
  -27.3792  -29.7227   25.4638 H   0  0  0  0  0  0
  -27.8690  -30.4331   23.9411 H   0  0  0  0  0  0
  -27.2476  -33.3636   26.2134 H   0  0  0  0  0  0
  -28.3730  -32.7042   25.0359 H   0  0  0  0  0  0
  -28.0636  -31.8508   26.5409 H   0  0  0  0  0  0
  -28.2558  -38.0163   24.7606 H   0  0  0  0  0  0
  -28.1117  -36.2710   24.6096 H   0  0  0  0  0  0
  -27.2339  -37.1271   25.8845 H   0  0  0  0  0  0
  -20.9320  -29.8733   21.6947 H   0  0  0  0  0  0
  -26.0148  -38.2902   24.1502 H   0  0  0  0  0  0
  -30.2413  -15.8060   18.1829 H   0  0  0  0  0  0
  -29.1743  -19.9141   17.9130 H   0  0  0  0  0  0
  -29.4392  -24.2640   19.5169 H   0  0  0  0  0  0
  -27.7418  -24.0116   19.2212 H   0  0  0  0  0  0
  -29.6767  -21.7066   19.2949 H   0  0  0  0  0  0
  -27.9443  -21.4489   19.1821 H   0  0  0  0  0  0
  -28.7408  -25.3960   21.7557 H   0  0  0  0  0  0
  -27.1002  -25.2463   21.2384 H   0  0  0  0  0  0
  -27.5895  -22.6252   21.3540 H   0  0  0  0  0  0
  -29.1264  -15.3508   21.4276 H   0  0  0  0  0  0
  -29.1186  -20.3285   21.6019 H   0  0  0  0  0  0
  -29.4936  -23.5267   22.3074 H   0  0  0  0  0  0
  1 25  1  0  0  0
  1 30  2  0  0  0
  1 81  1  0  0  0
  2  3  1  0  0  0
  2 25  1  0  0  0
  2 85  1  0  0  0
  2 86  1  0  0  0
  3  4  1  0  0  0
  3 87  1  0  0  0
  3 88  1  0  0  0
  4  5  1  0  0  0
  4 89  1  0  0  0
  4 90  1  0  0  0
  5  6  1  0  0  0
  5 26  1  0  0  0
  5 91  1  0  0  0
  6 25  1  0  0  0
  6 92  1  0  0  0
  6 93  1  0  0  0
  7  8  2  0  0  0
  7 26  1  0  0  0
  7 29  1  0  0  0
  8  9  1  0  0  0
  8 22  1  0  0  0
  9 10  1  0  0  0
  9 27  2  0  0  0
 10 11  2  0  0  0
 10 15  1  0  0  0
 11 12  1  0  0  0
 11 94  1  0  0  0
 12 13  2  0  0  0
 12 95  1  0  0  0
 13 14  1  0  0  0
 13 31  1  0  0  0
 14 15  2  0  0  0
 14 96  1  0  0  0
 15 97  1  0  0  0
 16 17  2  0  0  0
 16 21  1  0  0  0
 16 31  1  0  0  0
 17 18  1  0  0  0
 17 98  1  0  0  0
 18 19  2  0  0  0
 18 99  1  0  0  0
 19 20  1  0  0  0
 19 24  1  0  0  0
 20 21  2  0  0  0
 20100  1  0  0  0
 21 23  1  0  0  0
 22 28  1  0  0  0
 22 32  2  0  0  0
 26 27  1  0  0  0
 28101  1  0  0  0
 28102  1  0  0  0
 29103  1  0  0  0
 29104  1  0  0  0
 33 34  1  0  0  0
 33 66  1  0  0  0
 33 70  2  0  0  0
 34 36  1  0  0  0
 34 59  1  0  0  0
 34105  1  0  0  0
 35 44  2  0  0  0
 35 45  1  0  0  0
 35 68  1  0  0  0
 36 56  1  0  0  0
 36106  1  0  0  0
 37 39  1  0  0  0
 37 47  1  0  0  0
 37 66  1  0  0  0
 37107  1  0  0  0
 38 43  2  0  0  0
 38 46  1  0  0  0
 38 47  1  0  0  0
 39 64  1  0  0  0
 39 67  2  0  0  0
 40 52  1  0  0  0
 40 53  2  0  0  0
 40 58  1  0  0  0
 41108  1  0  0  0
 41109  1  0  0  0
 41110  1  0  0  0
 41 48  1  0  0  0
 42 43  1  0  0  0
 42 66  1  0  0  0
 42111  1  0  0  0
 42112  1  0  0  0
 43 44  1  0  0  0
 44113  1  0  0  0
 45 46  2  0  0  0
 45114  1  0  0  0
 46115  1  0  0  0
 47116  1  0  0  0
 47117  1  0  0  0
 48 56  1  0  0  0
 48 65  1  0  0  0
 48118  1  0  0  0
 49 50  1  0  0  0
 49 53  1  0  0  0
 49 64  1  0  0  0
 49119  1  0  0  0
 50 51  1  0  0  0
 50120  1  0  0  0
 50121  1  0  0  0
 51 52  1  0  0  0
 51122  1  0  0  0
 51123  1  0  0  0
 52124  1  0  0  0
 52125  1  0  0  0
 53 54  1  0  0  0
 54 55  2  0  0  0
 54126  1  0  0  0
 55 57  1  0  0  0
 55127  1  0  0  0
 56 69  2  0  0  0
 57 58  2  0  0  0
 57128  1  0  0  0
 58129  1  0  0  0
 59 60  1  0  0  0
 59 61  1  0  0  0
 59 62  1  0  0  0
 60130  1  0  0  0
 60131  1  0  0  0
 60132  1  0  0  0
 61133  1  0  0  0
 61134  1  0  0  0
 61135  1  0  0  0
 62136  1  0  0  0
 62137  1  0  0  0
 62138  1  0  0  0
 63 65  1  0  0  0
 63139  1  0  0  0
 63140  1  0  0  0
 63141  1  0  0  0
 64142  1  0  0  0
 65143  1  0  0  0
 68 78  1  0  0  0
 71 73  2  0  0  0
 71 74  1  0  0  0
 71144  1  0  0  0
 72 73  1  0  0  0
 72 75  2  0  0  0
 72145  1  0  0  0
 73 84  1  0  0  0
 74 80  2  0  0  0
 74 81  1  0  0  0
 75 80  1  0  0  0
 75 82  1  0  0  0
 76 78  1  0  0  0
 76 79  1  0  0  0
 76146  1  0  0  0
 76147  1  0  0  0
 77 79  1  0  0  0
 77 82  1  0  0  0
 77148  1  0  0  0
 77149  1  0  0  0
 78150  1  0  0  0
 78151  1  0  0  0
 79 83  1  0  0  0
 79152  1  0  0  0
 81153  1  0  0  0
 82154  1  0  0  0
 83155  1  0  0  0
M  ISO  4   1 100  68 101  78 101  81 100
M  END
> <chiral flag>
0

> <version>
0

> <s_m_source_file>
/data/baiqing/PycharmProjects/Reinvent-master-3.2/result/LINK_invent/BTK/process_docking_weight1_custom_product_contain_oxygen_bond_distance_aromatic_linkinvent_7_9_3/rearranged_h_0192.sdf

> <i_m_source_file_index>
64

> <r_mmod_Potential_Energy-OPLS-2005>
-282.720733642578

> <r_mmod_Stretch_Energy-OPLS-2005>
41.3095970153809

> <r_mmod_Bend_Energy-OPLS-2005>
100.787178039551

> <r_mmod_Torsional_Energy-OPLS-2005>
279.91162109375

> <r_mmod_Improper_Torsional_Energy-OPLS-2005>
7.93947553634644

> <r_mmod_Van_der_Waal_Energy-OPLS-2005>
157.154312133789

> <r_mmod_Electrostatic_Energy-OPLS-2005>
-649.622314453125

> <r_mmod_Solvation_Energy-OPLS-2005>
-240.443786621094

> <b_mmod_Minimization_Converged-OPLS-2005>
0

> <r_mmod_RMS_Derivative-OPLS-2005>
4.42264652252197

$$$$
65
                    3D
 Structure written by MMmdl.
165173  0  0  1  0            999 V2000
  -30.6915  -14.4464   20.5017 C   0  0  0  0  0  0
  -30.4093  -12.2670   19.4349 C   0  0  0  0  0  0
  -29.4933  -12.4917   18.2136 C   0  0  0  0  0  0
  -28.0128  -12.3563   18.6224 C   0  0  0  0  0  0
  -27.6566  -13.2048   19.8729 C   0  0  2  0  0  0
  -28.6967  -13.0002   21.0012 C   0  0  0  0  0  0
  -25.2555  -13.8172   20.5655 C   0  0  0  0  0  0
  -24.1801  -13.0447   20.9154 C   0  0  0  0  0  0
  -24.6355  -11.6916   20.8736 C   0  0  0  0  0  0
  -23.9040  -10.4302   21.0414 C   0  0  0  0  0  0
  -24.3607   -9.4214   21.9186 C   0  0  0  0  0  0
  -23.6276   -8.2251   22.0764 C   0  0  0  0  0  0
  -22.4255   -8.0292   21.3554 C   0  0  0  0  0  0
  -21.9889   -9.0272   20.4659 C   0  0  0  0  0  0
  -22.7219  -10.2142   20.3062 C   0  0  0  0  0  0
  -21.6847   -6.0741   22.5285 C   0  0  0  0  0  0
  -21.4029   -6.5641   23.8230 C   0  0  0  0  0  0
  -21.3659   -5.6785   24.9185 C   0  0  0  0  0  0
  -21.6032   -4.3051   24.7222 C   0  0  0  0  0  0
  -21.8816   -3.8147   23.4345 C   0  0  0  0  0  0
  -21.9191   -4.6969   22.3406 C   0  0  0  0  0  0
  -22.7830  -13.5258   21.1817 C   0  0  0  0  0  0
  -22.1649   -4.2158   21.0981 F   0  0  0  0  0  0
  -21.5621   -3.4524   25.7732 F   0  0  0  0  0  0
  -30.0338  -13.2631   20.4469 N   0  0  0  0  0  0
  -26.2980  -12.9333   20.3339 N   0  0  0  0  0  0
  -25.9273  -11.6501   20.5760 N   0  0  0  0  0  0
  -22.0451  -12.8300   22.0395 N   0  0  0  0  0  0
  -25.4237  -15.1896   20.4084 N   0  0  0  0  0  0
  -31.8584  -14.5904   20.1289 O   0  0  0  0  0  0
  -21.6621   -6.8881   21.4247 O   0  0  0  0  0  0
  -22.3547  -14.5564   20.6646 O   0  0  0  0  0  0
  -24.6132  -31.8672   23.2123 C   0  0  0  0  0  0
  -25.9030  -32.4819   23.8396 C   0  0  1  0  0  0
  -27.2271  -27.4531   20.0988 C   0  0  0  0  0  0
  -25.5893  -33.8611   24.2340 N   0  0  0  0  0  0
  -23.3983  -30.4943   21.5517 C   0  0  2  0  0  0
  -24.8424  -28.9631   20.1127 C   0  0  0  0  0  0
  -22.7402  -29.4666   22.4993 C   0  0  0  0  0  0
  -18.0268  -28.1377   22.8496 C   0  0  0  0  0  0
  -24.1482  -36.7325   23.2636 C   0  0  0  0  0  0
  -25.9237  -30.8427   21.3583 C   0  0  0  0  0  0
  -26.0018  -29.4796   20.7047 C   0  0  0  0  0  0
  -27.1996  -28.7335   20.6909 C   0  0  0  0  0  0
  -26.0506  -26.9481   19.5008 C   0  0  0  0  0  0
  -24.8607  -27.6962   19.5072 C   0  0  0  0  0  0
  -23.6041  -29.8277   20.1652 C   0  0  0  0  0  0
  -25.4101  -36.3105   24.0346 C   0  0  1  0  0  0
  -20.5856  -28.3664   23.1330 C   0  0  2  0  0  0
  -20.6755  -26.9403   22.5424 C   0  0  0  0  0  0
  -19.5742  -26.6390   21.5213 C   0  0  0  0  0  0
  -18.1920  -26.7917   22.1623 C   0  0  0  0  0  0
  -19.1513  -28.8834   23.2905 C   0  0  0  0  0  0
  -18.9439  -30.1441   23.8928 C   0  0  0  0  0  0
  -17.6446  -30.6580   24.0566 C   0  0  0  0  0  0
  -25.9026  -34.9477   23.5138 C   0  0  0  0  0  0
  -16.5342  -29.9090   23.6316 C   0  0  0  0  0  0
  -16.7263  -28.6498   23.0348 C   0  0  0  0  0  0
  -26.4470  -31.6584   25.0714 C   0  0  0  0  0  0
  -25.3766  -31.3684   26.1490 C   0  0  0  0  0  0
  -27.0290  -30.3029   24.6051 C   0  0  0  0  0  0
  -27.6047  -32.4284   25.7484 C   0  0  0  0  0  0
  -27.5578  -37.1813   24.8467 C   0  0  0  0  0  0
  -21.4129  -29.3033   22.3732 N   0  0  0  0  0  0
  -26.4284  -37.3788   23.9416 N   0  0  0  0  0  0
  -24.6633  -31.0812   22.0993 N   0  0  0  0  0  0
  -23.4181  -28.8197   23.3018 O   0  0  0  0  0  0
  -28.3883  -26.7168   20.1272 O   0  0  0  0  0  0
  -26.5569  -34.8920   22.4683 O   0  0  0  0  0  0
  -23.5338  -32.1419   23.7527 O   0  0  0  0  0  0
  -29.7310  -18.3100   21.7983 C   0  0  0  0  0  0
  -29.7735  -18.0083   20.4597 C   0  0  0  0  0  0
  -29.5292  -20.2659   20.3294 C   0  0  0  0  0  0
  -31.7828  -22.5142   19.8147 C   0  0  0  0  0  0
  -32.7002  -24.2621   21.4272 C   0  0  0  0  0  0
  -29.8089  -23.6342   17.6035 C   0  0  0  0  0  0
  -30.0398  -16.6920   19.7949 C   0  0  0  0  0  0
  -32.7271  -23.7015   19.9995 C   0  0  0  0  0  0
  -28.2900  -24.3345   19.5163 C   0  0  0  0  0  0
  -28.2422  -25.3873   20.6392 C   0  0  0  0  0  0
  -30.2524  -22.7363   19.9952 C   0  0  1  0  0  0
  -29.7202  -23.9132   19.1176 C   0  0  1  0  0  0
  -29.5976  -19.1295   19.6416 N   0  0  0  0  0  0
  -29.5099  -21.5070   19.7164 N   0  0  0  0  0  0
  -29.8888  -15.5092   20.6445 N   0  0  0  0  0  0
  -32.2735  -21.4185   19.5220 O   0  0  0  0  0  0
  -29.5768  -20.0322   22.0714 S   0  0  0  0  0  0
  -31.4590  -12.3358   19.1427 H   0  0  0  0  0  0
  -30.2768  -11.2614   19.8352 H   0  0  0  0  0  0
  -29.7345  -11.7794   17.4233 H   0  0  0  0  0  0
  -29.6715  -13.4856   17.7964 H   0  0  0  0  0  0
  -27.8212  -11.3026   18.8270 H   0  0  0  0  0  0
  -27.3631  -12.6254   17.7869 H   0  0  0  0  0  0
  -27.6922  -14.2487   19.5585 H   0  0  0  0  0  0
  -28.6523  -11.9770   21.3783 H   0  0  0  0  0  0
  -28.4776  -13.6396   21.8588 H   0  0  0  0  0  0
  -25.2765   -9.5683   22.4745 H   0  0  0  0  0  0
  -23.9984   -7.4650   22.7495 H   0  0  0  0  0  0
  -21.0814   -8.8808   19.8975 H   0  0  0  0  0  0
  -22.3702  -10.9682   19.6169 H   0  0  0  0  0  0
  -21.2037   -7.6152   23.9736 H   0  0  0  0  0  0
  -21.1472   -6.0510   25.9083 H   0  0  0  0  0  0
  -22.0588   -2.7605   23.2832 H   0  0  0  0  0  0
  -22.4015  -11.9971   22.4849 H   0  0  0  0  0  0
  -21.1089  -13.1388   22.2574 H   0  0  0  0  0  0
  -24.6513  -15.8397   20.5100 H   0  0  0  0  0  0
  -26.2737  -15.6382   20.0919 H   0  0  0  0  0  0
  -26.7104  -32.5549   23.1168 H   0  0  0  0  0  0
  -25.0096  -33.9774   25.0514 H   0  0  0  0  0  0
  -22.6872  -31.3104   21.4158 H   0  0  0  0  0  0
  -23.3720  -35.9673   23.3302 H   0  0  0  0  0  0
  -24.3589  -36.8922   22.2048 H   0  0  0  0  0  0
  -23.7271  -37.6550   23.6634 H   0  0  0  0  0  0
  -26.0295  -31.6065   20.5861 H   0  0  0  0  0  0
  -26.8150  -30.9000   21.9714 H   0  0  0  0  0  0
  -28.0938  -29.1236   21.1547 H   0  0  0  0  0  0
  -26.0345  -25.9765   19.0331 H   0  0  0  0  0  0
  -23.9686  -27.2927   19.0499 H   0  0  0  0  0  0
  -23.7132  -30.6014   19.4057 H   0  0  0  0  0  0
  -22.7288  -29.2457   19.8680 H   0  0  0  0  0  0
  -25.1269  -36.1961   25.0835 H   0  0  0  0  0  0
  -20.9958  -28.3209   24.1441 H   0  0  0  0  0  0
  -20.5652  -26.2258   23.3596 H   0  0  0  0  0  0
  -21.6626  -26.7437   22.1213 H   0  0  0  0  0  0
  -19.6888  -25.6301   21.1222 H   0  0  0  0  0  0
  -19.6669  -27.3206   20.6745 H   0  0  0  0  0  0
  -17.4181  -26.6671   21.4032 H   0  0  0  0  0  0
  -18.0328  -26.0060   22.9022 H   0  0  0  0  0  0
  -19.7924  -30.7250   24.2302 H   0  0  0  0  0  0
  -17.5006  -31.6269   24.5162 H   0  0  0  0  0  0
  -15.5343  -30.2996   23.7641 H   0  0  0  0  0  0
  -15.8658  -28.0836   22.7045 H   0  0  0  0  0  0
  -24.5930  -30.7027   25.7857 H   0  0  0  0  0  0
  -24.8991  -32.2845   26.4966 H   0  0  0  0  0  0
  -25.8172  -30.8854   27.0224 H   0  0  0  0  0  0
  -26.2821  -29.6806   24.1116 H   0  0  0  0  0  0
  -27.4092  -29.7243   25.4477 H   0  0  0  0  0  0
  -27.8629  -30.4355   23.9162 H   0  0  0  0  0  0
  -27.2656  -33.3556   26.2103 H   0  0  0  0  0  0
  -28.3844  -32.6875   25.0314 H   0  0  0  0  0  0
  -28.0715  -31.8384   26.5378 H   0  0  0  0  0  0
  -28.2591  -38.0111   24.7492 H   0  0  0  0  0  0
  -28.1082  -36.2647   24.6298 H   0  0  0  0  0  0
  -27.2312  -37.1470   25.8875 H   0  0  0  0  0  0
  -20.9269  -29.8789   21.6994 H   0  0  0  0  0  0
  -26.0174  -38.2857   24.1405 H   0  0  0  0  0  0
  -29.8324  -17.6313   22.6359 H   0  0  0  0  0  0
  -32.7957  -23.4690   22.1684 H   0  0  0  0  0  0
  -33.5270  -24.9554   21.5813 H   0  0  0  0  0  0
  -31.7716  -24.7979   21.6239 H   0  0  0  0  0  0
  -29.1498  -22.8200   17.3028 H   0  0  0  0  0  0
  -30.8210  -23.3769   17.2960 H   0  0  0  0  0  0
  -29.5244  -24.5172   17.0285 H   0  0  0  0  0  0
  -31.0357  -16.7415   19.3507 H   0  0  0  0  0  0
  -29.3630  -16.5574   18.9501 H   0  0  0  0  0  0
  -32.4907  -24.4771   19.2706 H   0  0  0  0  0  0
  -33.7371  -23.3648   19.7621 H   0  0  0  0  0  0
  -27.7623  -24.7177   18.6437 H   0  0  0  0  0  0
  -27.7200  -23.4601   19.8300 H   0  0  0  0  0  0
  -29.0350  -25.2054   21.3645 H   0  0  0  0  0  0
  -27.3158  -25.2832   21.2063 H   0  0  0  0  0  0
  -30.0876  -22.9850   21.0440 H   0  0  0  0  0  0
  -30.3438  -24.7902   19.2951 H   0  0  0  0  0  0
  -29.3907  -21.3967   18.7196 H   0  0  0  0  0  0
  -28.9551  -15.3270   20.9748 H   0  0  0  0  0  0
  1 25  1  0  0  0
  1 30  2  0  0  0
  1 85  1  0  0  0
  2  3  1  0  0  0
  2 25  1  0  0  0
  2 88  1  0  0  0
  2 89  1  0  0  0
  3  4  1  0  0  0
  3 90  1  0  0  0
  3 91  1  0  0  0
  4  5  1  0  0  0
  4 92  1  0  0  0
  4 93  1  0  0  0
  5  6  1  0  0  0
  5 26  1  0  0  0
  5 94  1  0  0  0
  6 25  1  0  0  0
  6 95  1  0  0  0
  6 96  1  0  0  0
  7  8  2  0  0  0
  7 26  1  0  0  0
  7 29  1  0  0  0
  8  9  1  0  0  0
  8 22  1  0  0  0
  9 10  1  0  0  0
  9 27  2  0  0  0
 10 11  2  0  0  0
 10 15  1  0  0  0
 11 12  1  0  0  0
 11 97  1  0  0  0
 12 13  2  0  0  0
 12 98  1  0  0  0
 13 14  1  0  0  0
 13 31  1  0  0  0
 14 15  2  0  0  0
 14 99  1  0  0  0
 15100  1  0  0  0
 16 17  2  0  0  0
 16 21  1  0  0  0
 16 31  1  0  0  0
 17 18  1  0  0  0
 17101  1  0  0  0
 18 19  2  0  0  0
 18102  1  0  0  0
 19 20  1  0  0  0
 19 24  1  0  0  0
 20 21  2  0  0  0
 20103  1  0  0  0
 21 23  1  0  0  0
 22 28  1  0  0  0
 22 32  2  0  0  0
 26 27  1  0  0  0
 28104  1  0  0  0
 28105  1  0  0  0
 29106  1  0  0  0
 29107  1  0  0  0
 33 34  1  0  0  0
 33 66  1  0  0  0
 33 70  2  0  0  0
 34 36  1  0  0  0
 34 59  1  0  0  0
 34108  1  0  0  0
 35 44  2  0  0  0
 35 45  1  0  0  0
 35 68  1  0  0  0
 36 56  1  0  0  0
 36109  1  0  0  0
 37 39  1  0  0  0
 37 47  1  0  0  0
 37 66  1  0  0  0
 37110  1  0  0  0
 38 43  2  0  0  0
 38 46  1  0  0  0
 38 47  1  0  0  0
 39 64  1  0  0  0
 39 67  2  0  0  0
 40 52  1  0  0  0
 40 53  2  0  0  0
 40 58  1  0  0  0
 41111  1  0  0  0
 41112  1  0  0  0
 41113  1  0  0  0
 41 48  1  0  0  0
 42 43  1  0  0  0
 42 66  1  0  0  0
 42114  1  0  0  0
 42115  1  0  0  0
 43 44  1  0  0  0
 44116  1  0  0  0
 45 46  2  0  0  0
 45117  1  0  0  0
 46118  1  0  0  0
 47119  1  0  0  0
 47120  1  0  0  0
 48 56  1  0  0  0
 48 65  1  0  0  0
 48121  1  0  0  0
 49 50  1  0  0  0
 49 53  1  0  0  0
 49 64  1  0  0  0
 49122  1  0  0  0
 50 51  1  0  0  0
 50123  1  0  0  0
 50124  1  0  0  0
 51 52  1  0  0  0
 51125  1  0  0  0
 51126  1  0  0  0
 52127  1  0  0  0
 52128  1  0  0  0
 53 54  1  0  0  0
 54 55  2  0  0  0
 54129  1  0  0  0
 55 57  1  0  0  0
 55130  1  0  0  0
 56 69  2  0  0  0
 57 58  2  0  0  0
 57131  1  0  0  0
 58132  1  0  0  0
 59 60  1  0  0  0
 59 61  1  0  0  0
 59 62  1  0  0  0
 60133  1  0  0  0
 60134  1  0  0  0
 60135  1  0  0  0
 61136  1  0  0  0
 61137  1  0  0  0
 61138  1  0  0  0
 62139  1  0  0  0
 62140  1  0  0  0
 62141  1  0  0  0
 63 65  1  0  0  0
 63142  1  0  0  0
 63143  1  0  0  0
 63144  1  0  0  0
 64145  1  0  0  0
 65146  1  0  0  0
 68 80  1  0  0  0
 71 72  2  0  0  0
 71 87  1  0  0  0
 71147  1  0  0  0
 72 77  1  0  0  0
 72 83  1  0  0  0
 73 83  2  0  0  0
 73 84  1  0  0  0
 73 87  1  0  0  0
 74 78  1  0  0  0
 74 81  1  0  0  0
 74 86  2  0  0  0
 75 78  1  0  0  0
 75148  1  0  0  0
 75149  1  0  0  0
 75150  1  0  0  0
 76151  1  0  0  0
 76152  1  0  0  0
 76153  1  0  0  0
 76 82  1  0  0  0
 77 85  1  0  0  0
 77154  1  0  0  0
 77155  1  0  0  0
 78156  1  0  0  0
 78157  1  0  0  0
 79 80  1  0  0  0
 79 82  1  0  0  0
 79158  1  0  0  0
 79159  1  0  0  0
 80160  1  0  0  0
 80161  1  0  0  0
 81 82  1  0  0  0
 81 84  1  0  0  0
 81162  1  0  0  0
 82163  1  0  0  0
 84164  1  0  0  0
 85165  1  0  0  0
M  ISO  4   1 100  68 101  80 101  85 100
M  END
> <chiral flag>
0

> <version>
0

> <s_m_source_file>
/data/baiqing/PycharmProjects/Reinvent-master-3.2/result/LINK_invent/BTK/process_docking_weight1_custom_product_contain_oxygen_bond_distance_aromatic_linkinvent_7_9_3/rearranged_h_0192.sdf

> <i_m_source_file_index>
65

> <r_mmod_Potential_Energy-OPLS-2005>
-231.70393371582

> <r_mmod_Stretch_Energy-OPLS-2005>
32.7769660949707

> <r_mmod_Bend_Energy-OPLS-2005>
93.02587890625

> <r_mmod_Torsional_Energy-OPLS-2005>
262.112335205078

> <r_mmod_Improper_Torsional_Energy-OPLS-2005>
14.8378982543945

> <r_mmod_Van_der_Waal_Energy-OPLS-2005>
134.103591918945

> <r_mmod_Electrostatic_Energy-OPLS-2005>
-552.277282714844

> <r_mmod_Solvation_Energy-OPLS-2005>
-230.959487915039

> <b_mmod_Minimization_Converged-OPLS-2005>
0

> <r_mmod_RMS_Derivative-OPLS-2005>
2.97823476791382

$$$$
66
                    3D
 Structure written by MMmdl.
155163  0  0  1  0            999 V2000
  -30.6731  -14.5462   20.5282 C   0  0  0  0  0  0
  -30.4239  -12.3384   19.4485 C   0  0  0  0  0  0
  -29.5019  -12.5078   18.2214 C   0  0  0  0  0  0
  -28.0229  -12.3613   18.6289 C   0  0  0  0  0  0
  -27.6582  -13.2160   19.8721 C   0  0  2  0  0  0
  -28.6990  -13.0367   21.0019 C   0  0  0  0  0  0
  -25.2570  -13.8176   20.5684 C   0  0  0  0  0  0
  -24.1833  -13.0441   20.9179 C   0  0  0  0  0  0
  -24.6399  -11.6912   20.8733 C   0  0  0  0  0  0
  -23.9067  -10.4293   21.0398 C   0  0  0  0  0  0
  -24.3620   -9.4212   21.9176 C   0  0  0  0  0  0
  -23.6296   -8.2246   22.0750 C   0  0  0  0  0  0
  -22.4278   -8.0282   21.3544 C   0  0  0  0  0  0
  -21.9912   -9.0253   20.4646 C   0  0  0  0  0  0
  -22.7237  -10.2134   20.3051 C   0  0  0  0  0  0
  -21.6854   -6.0736   22.5278 C   0  0  0  0  0  0
  -21.4015   -6.5641   23.8212 C   0  0  0  0  0  0
  -21.3662   -5.6794   24.9173 C   0  0  0  0  0  0
  -21.6044   -4.3054   24.7225 C   0  0  0  0  0  0
  -21.8820   -3.8148   23.4344 C   0  0  0  0  0  0
  -21.9193   -4.6964   22.3402 C   0  0  0  0  0  0
  -22.7855  -13.5232   21.1842 C   0  0  0  0  0  0
  -22.1660   -4.2149   21.0978 F   0  0  0  0  0  0
  -21.5631   -3.4538   25.7738 F   0  0  0  0  0  0
  -30.0278  -13.3449   20.4512 N   0  0  0  0  0  0
  -26.3012  -12.9364   20.3354 N   0  0  0  0  0  0
  -25.9332  -11.6517   20.5765 N   0  0  0  0  0  0
  -22.0496  -12.8230   22.0404 N   0  0  0  0  0  0
  -25.4284  -15.1896   20.4108 N   0  0  0  0  0  0
  -31.8055  -14.7092   20.0640 O   0  0  0  0  0  0
  -21.6642   -6.8879   21.4243 O   0  0  0  0  0  0
  -22.3541  -14.5536   20.6684 O   0  0  0  0  0  0
  -24.6207  -31.8644   23.2073 C   0  0  0  0  0  0
  -25.9081  -32.4801   23.8382 C   0  0  1  0  0  0
  -27.2258  -27.3690   20.1043 C   0  0  0  0  0  0
  -25.5923  -33.8602   24.2308 N   0  0  0  0  0  0
  -23.4109  -30.4892   21.5489 C   0  0  2  0  0  0
  -24.8561  -28.9524   20.1095 C   0  0  0  0  0  0
  -22.7442  -29.4646   22.4963 C   0  0  0  0  0  0
  -18.0278  -28.1381   22.8487 C   0  0  0  0  0  0
  -24.1488  -36.7301   23.2638 C   0  0  0  0  0  0
  -25.9473  -30.8084   21.3728 C   0  0  0  0  0  0
  -26.0200  -29.4403   20.7151 C   0  0  0  0  0  0
  -27.2043  -28.6562   20.7098 C   0  0  0  0  0  0
  -26.0427  -26.9272   19.4650 C   0  0  0  0  0  0
  -24.8664  -27.6986   19.4790 C   0  0  0  0  0  0
  -23.6219  -29.8268   20.1620 C   0  0  0  0  0  0
  -25.4113  -36.3098   24.0332 C   0  0  1  0  0  0
  -20.5874  -28.3679   23.1300 C   0  0  2  0  0  0
  -20.6771  -26.9410   22.5413 C   0  0  0  0  0  0
  -19.5749  -26.6384   21.5213 C   0  0  0  0  0  0
  -18.1928  -26.7926   22.1623 C   0  0  0  0  0  0
  -19.1529  -28.8847   23.2891 C   0  0  0  0  0  0
  -18.9457  -30.1452   23.8901 C   0  0  0  0  0  0
  -17.6459  -30.6587   24.0566 C   0  0  0  0  0  0
  -25.9047  -34.9464   23.5117 C   0  0  0  0  0  0
  -16.5350  -29.9088   23.6329 C   0  0  0  0  0  0
  -16.7267  -28.6507   23.0345 C   0  0  0  0  0  0
  -26.4488  -31.6597   25.0733 C   0  0  0  0  0  0
  -25.3738  -31.3715   26.1470 C   0  0  0  0  0  0
  -27.0328  -30.3030   24.6153 C   0  0  0  0  0  0
  -27.6059  -32.4323   25.7495 C   0  0  0  0  0  0
  -27.5579  -37.1807   24.8466 C   0  0  0  0  0  0
  -21.4163  -29.3039   22.3697 N   0  0  0  0  0  0
  -26.4295  -37.3788   23.9406 N   0  0  0  0  0  0
  -24.6779  -31.0695   22.1004 N   0  0  0  0  0  0
  -23.4188  -28.8187   23.3025 O   0  0  0  0  0  0
  -28.3755  -26.5818   20.1663 O   0  0  0  0  0  0
  -26.5609  -34.8922   22.4677 O   0  0  0  0  0  0
  -23.5386  -32.1430   23.7427 O   0  0  0  0  0  0
  -29.7811  -19.1968   20.2207 C   0  0  0  0  0  0
  -29.5244  -18.8197   18.9063 C   0  0  0  0  0  0
  -29.8780  -16.8759   20.4043 C   0  0  0  0  0  0
  -30.0098  -20.6319   20.7154 C   0  0  0  0  0  0
  -28.7030  -23.8428   21.9872 C   0  0  0  0  0  0
  -29.9259  -23.0201   19.8557 C   0  0  0  0  0  0
  -28.3160  -25.1637   19.8126 C   0  0  0  0  0  0
  -29.2942  -24.2434   20.6270 C   0  0  1  0  0  0
  -29.9555  -18.0544   21.0586 N   0  0  0  0  0  0
  -29.3258  -19.5869   17.7562 N   0  0  0  0  0  0
  -29.9765  -15.5907   21.0386 N   0  0  0  0  0  0
  -29.3939  -21.6392   20.0444 N   0  0  0  0  0  0
  -30.7642  -20.8656   21.6649 O   0  0  0  0  0  0
  -29.5186  -17.0796   18.6976 S   0  0  0  0  0  0
  -31.4698  -12.4315   19.1517 H   0  0  0  0  0  0
  -30.3248  -11.3348   19.8653 H   0  0  0  0  0  0
  -29.7531  -11.7719   17.4565 H   0  0  0  0  0  0
  -29.6646  -13.4868   17.7682 H   0  0  0  0  0  0
  -27.8422  -11.3066   18.8398 H   0  0  0  0  0  0
  -27.3732  -12.6177   17.7915 H   0  0  0  0  0  0
  -27.6897  -14.2581   19.5533 H   0  0  0  0  0  0
  -28.6846  -12.0109   21.3726 H   0  0  0  0  0  0
  -28.4541  -13.6639   21.8603 H   0  0  0  0  0  0
  -25.2764   -9.5692   22.4753 H   0  0  0  0  0  0
  -24.0007   -7.4641   22.7472 H   0  0  0  0  0  0
  -21.0838   -8.8771   19.8956 H   0  0  0  0  0  0
  -22.3687  -10.9674   19.6164 H   0  0  0  0  0  0
  -21.2006   -7.6149   23.9717 H   0  0  0  0  0  0
  -21.1484   -6.0522   25.9077 H   0  0  0  0  0  0
  -22.0596   -2.7611   23.2844 H   0  0  0  0  0  0
  -22.4102  -11.9894   22.4807 H   0  0  0  0  0  0
  -21.1113  -13.1264   22.2602 H   0  0  0  0  0  0
  -24.6607  -15.8436   20.5193 H   0  0  0  0  0  0
  -26.2791  -15.6306   20.0860 H   0  0  0  0  0  0
  -26.7148  -32.5486   23.1135 H   0  0  0  0  0  0
  -25.0082  -33.9759   25.0460 H   0  0  0  0  0  0
  -22.7024  -31.3087   21.4100 H   0  0  0  0  0  0
  -23.3751  -35.9635   23.3314 H   0  0  0  0  0  0
  -24.3580  -36.8903   22.2051 H   0  0  0  0  0  0
  -23.7242  -37.6507   23.6648 H   0  0  0  0  0  0
  -26.0737  -31.5751   20.6072 H   0  0  0  0  0  0
  -26.8299  -30.8554   21.9992 H   0  0  0  0  0  0
  -28.0976  -29.0250   21.1947 H   0  0  0  0  0  0
  -25.9941  -25.9840   18.9432 H   0  0  0  0  0  0
  -23.9758  -27.3235   18.9939 H   0  0  0  0  0  0
  -23.7369  -30.6053   19.4068 H   0  0  0  0  0  0
  -22.7429  -29.2540   19.8609 H   0  0  0  0  0  0
  -25.1292  -36.1959   25.0826 H   0  0  0  0  0  0
  -20.9967  -28.3252   24.1422 H   0  0  0  0  0  0
  -20.5681  -26.2291   23.3606 H   0  0  0  0  0  0
  -21.6641  -26.7454   22.1203 H   0  0  0  0  0  0
  -19.6913  -25.6297   21.1239 H   0  0  0  0  0  0
  -19.6686  -27.3197   20.6746 H   0  0  0  0  0  0
  -17.4199  -26.6675   21.4023 H   0  0  0  0  0  0
  -18.0330  -26.0067   22.9019 H   0  0  0  0  0  0
  -19.7935  -30.7264   24.2272 H   0  0  0  0  0  0
  -17.5016  -31.6266   24.5167 H   0  0  0  0  0  0
  -15.5350  -30.2992   23.7648 H   0  0  0  0  0  0
  -15.8668  -28.0827   22.7053 H   0  0  0  0  0  0
  -24.5909  -30.7067   25.7801 H   0  0  0  0  0  0
  -24.8933  -32.2874   26.4922 H   0  0  0  0  0  0
  -25.8079  -30.8877   27.0227 H   0  0  0  0  0  0
  -26.2889  -29.6784   24.1192 H   0  0  0  0  0  0
  -27.4062  -29.7281   25.4638 H   0  0  0  0  0  0
  -27.8744  -30.4336   23.9345 H   0  0  0  0  0  0
  -27.2678  -33.3614   26.2095 H   0  0  0  0  0  0
  -28.3855  -32.6895   25.0313 H   0  0  0  0  0  0
  -28.0744  -31.8435   26.5390 H   0  0  0  0  0  0
  -28.2607  -38.0096   24.7507 H   0  0  0  0  0  0
  -28.1064  -36.2625   24.6301 H   0  0  0  0  0  0
  -27.2294  -37.1469   25.8870 H   0  0  0  0  0  0
  -20.9334  -29.8765   21.6916 H   0  0  0  0  0  0
  -26.0179  -38.2865   24.1405 H   0  0  0  0  0  0
  -29.4393  -23.3174   22.5962 H   0  0  0  0  0  0
  -27.8398  -23.1878   21.8677 H   0  0  0  0  0  0
  -28.3802  -24.7216   22.5457 H   0  0  0  0  0  0
  -30.9901  -22.9952   20.0998 H   0  0  0  0  0  0
  -29.9107  -23.2285   18.7855 H   0  0  0  0  0  0
  -27.3233  -24.7374   19.9479 H   0  0  0  0  0  0
  -28.5393  -25.0962   18.7477 H   0  0  0  0  0  0
  -30.1462  -24.8904   20.8422 H   0  0  0  0  0  0
  -29.7661  -20.4955   17.6463 H   0  0  0  0  0  0
  -29.2602  -19.1133   16.8589 H   0  0  0  0  0  0
  -29.1734  -15.3338   21.5901 H   0  0  0  0  0  0
  -28.7478  -21.3116   19.3362 H   0  0  0  0  0  0
  1 25  1  0  0  0
  1 30  2  0  0  0
  1 81  1  0  0  0
  2  3  1  0  0  0
  2 25  1  0  0  0
  2 85  1  0  0  0
  2 86  1  0  0  0
  3  4  1  0  0  0
  3 87  1  0  0  0
  3 88  1  0  0  0
  4  5  1  0  0  0
  4 89  1  0  0  0
  4 90  1  0  0  0
  5  6  1  0  0  0
  5 26  1  0  0  0
  5 91  1  0  0  0
  6 25  1  0  0  0
  6 92  1  0  0  0
  6 93  1  0  0  0
  7  8  2  0  0  0
  7 26  1  0  0  0
  7 29  1  0  0  0
  8  9  1  0  0  0
  8 22  1  0  0  0
  9 10  1  0  0  0
  9 27  2  0  0  0
 10 11  2  0  0  0
 10 15  1  0  0  0
 11 12  1  0  0  0
 11 94  1  0  0  0
 12 13  2  0  0  0
 12 95  1  0  0  0
 13 14  1  0  0  0
 13 31  1  0  0  0
 14 15  2  0  0  0
 14 96  1  0  0  0
 15 97  1  0  0  0
 16 17  2  0  0  0
 16 21  1  0  0  0
 16 31  1  0  0  0
 17 18  1  0  0  0
 17 98  1  0  0  0
 18 19  2  0  0  0
 18 99  1  0  0  0
 19 20  1  0  0  0
 19 24  1  0  0  0
 20 21  2  0  0  0
 20100  1  0  0  0
 21 23  1  0  0  0
 22 28  1  0  0  0
 22 32  2  0  0  0
 26 27  1  0  0  0
 28101  1  0  0  0
 28102  1  0  0  0
 29103  1  0  0  0
 29104  1  0  0  0
 33 34  1  0  0  0
 33 66  1  0  0  0
 33 70  2  0  0  0
 34 36  1  0  0  0
 34 59  1  0  0  0
 34105  1  0  0  0
 35 44  2  0  0  0
 35 45  1  0  0  0
 35 68  1  0  0  0
 36 56  1  0  0  0
 36106  1  0  0  0
 37 39  1  0  0  0
 37 47  1  0  0  0
 37 66  1  0  0  0
 37107  1  0  0  0
 38 43  2  0  0  0
 38 46  1  0  0  0
 38 47  1  0  0  0
 39 64  1  0  0  0
 39 67  2  0  0  0
 40 52  1  0  0  0
 40 53  2  0  0  0
 40 58  1  0  0  0
 41108  1  0  0  0
 41109  1  0  0  0
 41110  1  0  0  0
 41 48  1  0  0  0
 42 43  1  0  0  0
 42 66  1  0  0  0
 42111  1  0  0  0
 42112  1  0  0  0
 43 44  1  0  0  0
 44113  1  0  0  0
 45 46  2  0  0  0
 45114  1  0  0  0
 46115  1  0  0  0
 47116  1  0  0  0
 47117  1  0  0  0
 48 56  1  0  0  0
 48 65  1  0  0  0
 48118  1  0  0  0
 49 50  1  0  0  0
 49 53  1  0  0  0
 49 64  1  0  0  0
 49119  1  0  0  0
 50 51  1  0  0  0
 50120  1  0  0  0
 50121  1  0  0  0
 51 52  1  0  0  0
 51122  1  0  0  0
 51123  1  0  0  0
 52124  1  0  0  0
 52125  1  0  0  0
 53 54  1  0  0  0
 54 55  2  0  0  0
 54126  1  0  0  0
 55 57  1  0  0  0
 55127  1  0  0  0
 56 69  2  0  0  0
 57 58  2  0  0  0
 57128  1  0  0  0
 58129  1  0  0  0
 59 60  1  0  0  0
 59 61  1  0  0  0
 59 62  1  0  0  0
 60130  1  0  0  0
 60131  1  0  0  0
 60132  1  0  0  0
 61133  1  0  0  0
 61134  1  0  0  0
 61135  1  0  0  0
 62136  1  0  0  0
 62137  1  0  0  0
 62138  1  0  0  0
 63 65  1  0  0  0
 63139  1  0  0  0
 63140  1  0  0  0
 63141  1  0  0  0
 64142  1  0  0  0
 65143  1  0  0  0
 68 77  1  0  0  0
 71 72  2  0  0  0
 71 74  1  0  0  0
 71 79  1  0  0  0
 72 80  1  0  0  0
 72 84  1  0  0  0
 73 79  2  0  0  0
 73 81  1  0  0  0
 73 84  1  0  0  0
 74 82  1  0  0  0
 74 83  2  0  0  0
 75144  1  0  0  0
 75145  1  0  0  0
 75146  1  0  0  0
 75 78  1  0  0  0
 76 78  1  0  0  0
 76 82  1  0  0  0
 76147  1  0  0  0
 76148  1  0  0  0
 77 78  1  0  0  0
 77149  1  0  0  0
 77150  1  0  0  0
 78151  1  0  0  0
 80152  1  0  0  0
 80153  1  0  0  0
 81154  1  0  0  0
 82155  1  0  0  0
M  ISO  4   1 100  68 101  77 101  81 100
M  END
> <chiral flag>
0

> <version>
0

> <s_m_source_file>
/data/baiqing/PycharmProjects/Reinvent-master-3.2/result/LINK_invent/BTK/process_docking_weight1_custom_product_contain_oxygen_bond_distance_aromatic_linkinvent_7_9_3/rearranged_h_0192.sdf

> <i_m_source_file_index>
66

> <r_mmod_Potential_Energy-OPLS-2005>
75.0290985107422

> <r_mmod_Stretch_Energy-OPLS-2005>
56.3222312927246

> <r_mmod_Bend_Energy-OPLS-2005>
125.628051757812

> <r_mmod_Torsional_Energy-OPLS-2005>
276.372497558594

> <r_mmod_Improper_Torsional_Energy-OPLS-2005>
10.3535537719727

> <r_mmod_Van_der_Waal_Energy-OPLS-2005>
125.229202270508

> <r_mmod_Electrostatic_Energy-OPLS-2005>
-292.599517822266

> <r_mmod_Solvation_Energy-OPLS-2005>
-252.587966918945

> <b_mmod_Minimization_Converged-OPLS-2005>
0

> <r_mmod_RMS_Derivative-OPLS-2005>
0.736399114131927

$$$$
67
                    3D
 Structure written by MMmdl.
153161  0  0  1  0            999 V2000
  -30.7015  -14.5190   20.5172 C   0  0  0  0  0  0
  -30.4125  -12.3197   19.4468 C   0  0  0  0  0  0
  -29.4957  -12.4910   18.2186 C   0  0  0  0  0  0
  -28.0176  -12.3497   18.6299 C   0  0  0  0  0  0
  -27.6535  -13.2156   19.8667 C   0  0  2  0  0  0
  -28.6953  -13.0582   20.9981 C   0  0  0  0  0  0
  -25.2556  -13.8180   20.5690 C   0  0  0  0  0  0
  -24.1823  -13.0444   20.9195 C   0  0  0  0  0  0
  -24.6384  -11.6912   20.8749 C   0  0  0  0  0  0
  -23.9056  -10.4295   21.0410 C   0  0  0  0  0  0
  -24.3612   -9.4213   21.9184 C   0  0  0  0  0  0
  -23.6290   -8.2247   22.0752 C   0  0  0  0  0  0
  -22.4271   -8.0284   21.3547 C   0  0  0  0  0  0
  -21.9906   -9.0255   20.4647 C   0  0  0  0  0  0
  -22.7230  -10.2135   20.3057 C   0  0  0  0  0  0
  -21.6849   -6.0738   22.5280 C   0  0  0  0  0  0
  -21.4016   -6.5641   23.8216 C   0  0  0  0  0  0
  -21.3661   -5.6793   24.9177 C   0  0  0  0  0  0
  -21.6043   -4.3056   24.7224 C   0  0  0  0  0  0
  -21.8818   -3.8149   23.4345 C   0  0  0  0  0  0
  -21.9196   -4.6967   22.3404 C   0  0  0  0  0  0
  -22.7849  -13.5237   21.1859 C   0  0  0  0  0  0
  -22.1662   -4.2155   21.0980 F   0  0  0  0  0  0
  -21.5628   -3.4538   25.7735 F   0  0  0  0  0  0
  -30.0203  -13.3428   20.4319 N   0  0  0  0  0  0
  -26.2985  -12.9361   20.3342 N   0  0  0  0  0  0
  -25.9314  -11.6514   20.5776 N   0  0  0  0  0  0
  -22.0490  -12.8235   22.0411 N   0  0  0  0  0  0
  -25.4280  -15.1896   20.4080 N   0  0  0  0  0  0
  -31.8631  -14.6309   20.1183 O   0  0  0  0  0  0
  -21.6640   -6.8879   21.4240 O   0  0  0  0  0  0
  -22.3545  -14.5549   20.6711 O   0  0  0  0  0  0
  -24.6163  -31.8663   23.2062 C   0  0  0  0  0  0
  -25.9043  -32.4815   23.8375 C   0  0  1  0  0  0
  -27.2316  -27.4136   20.1105 C   0  0  0  0  0  0
  -25.5899  -33.8615   24.2307 N   0  0  0  0  0  0
  -23.4057  -30.4868   21.5476 C   0  0  2  0  0  0
  -24.8529  -28.9469   20.1130 C   0  0  0  0  0  0
  -22.7418  -29.4648   22.4984 C   0  0  0  0  0  0
  -18.0287  -28.1374   22.8492 C   0  0  0  0  0  0
  -24.1490  -36.7312   23.2636 C   0  0  0  0  0  0
  -25.9343  -30.8268   21.3602 C   0  0  0  0  0  0
  -26.0122  -29.4590   20.7092 C   0  0  0  0  0  0
  -27.2073  -28.7014   20.6994 C   0  0  0  0  0  0
  -26.0612  -26.9204   19.5005 C   0  0  0  0  0  0
  -24.8737  -27.6788   19.5027 C   0  0  0  0  0  0
  -23.6145  -29.8147   20.1633 C   0  0  0  0  0  0
  -25.4114  -36.3113   24.0334 C   0  0  1  0  0  0
  -20.5873  -28.3676   23.1333 C   0  0  2  0  0  0
  -20.6782  -26.9406   22.5437 C   0  0  0  0  0  0
  -19.5775  -26.6378   21.5226 C   0  0  0  0  0  0
  -18.1942  -26.7926   22.1613 C   0  0  0  0  0  0
  -19.1531  -28.8840   23.2909 C   0  0  0  0  0  0
  -18.9452  -30.1441   23.8925 C   0  0  0  0  0  0
  -17.6453  -30.6582   24.0572 C   0  0  0  0  0  0
  -25.9037  -34.9476   23.5120 C   0  0  0  0  0  0
  -16.5349  -29.9081   23.6328 C   0  0  0  0  0  0
  -16.7275  -28.6499   23.0347 C   0  0  0  0  0  0
  -26.4465  -31.6594   25.0704 C   0  0  0  0  0  0
  -25.3726  -31.3707   26.1451 C   0  0  0  0  0  0
  -27.0284  -30.3035   24.6071 C   0  0  0  0  0  0
  -27.6048  -32.4308   25.7464 C   0  0  0  0  0  0
  -27.5584  -37.1813   24.8462 C   0  0  0  0  0  0
  -21.4145  -29.3039   22.3733 N   0  0  0  0  0  0
  -26.4296  -37.3800   23.9402 N   0  0  0  0  0  0
  -24.6708  -31.0740   22.0973 N   0  0  0  0  0  0
  -23.4178  -28.8195   23.3040 O   0  0  0  0  0  0
  -28.3827  -26.6479   20.1285 O   0  0  0  0  0  0
  -26.5601  -34.8933   22.4681 O   0  0  0  0  0  0
  -23.5352  -32.1419   23.7450 O   0  0  0  0  0  0
  -28.5554  -19.9625   22.2529 C   0  0  0  0  0  0
  -28.9032  -20.3216   20.9727 C   0  0  0  0  0  0
  -29.6804  -18.1478   20.9947 C   0  0  0  0  0  0
  -28.7240  -22.8219   21.0180 C   0  0  0  0  0  0
  -27.5389  -25.6215   22.2494 C   0  0  0  0  0  0
  -30.5320  -16.9767   20.5465 C   0  0  0  0  0  0
  -28.2590  -24.0974   20.2447 C   0  0  0  0  0  0
  -28.4300  -25.4724   20.9897 C   0  0  1  0  0  0
  -29.4963  -19.2632   20.2559 N   0  0  0  0  0  0
  -28.6417  -21.6141   20.4038 N   0  0  0  0  0  0
  -29.9945  -15.6267   20.8359 N   0  0  0  0  0  0
  -29.1898  -22.9348   22.1551 O   0  0  0  0  0  0
  -29.0112  -18.3119   22.6179 S   0  0  0  0  0  0
  -31.4604  -12.3947   19.1514 H   0  0  0  0  0  0
  -30.2962  -11.3235   19.8754 H   0  0  0  0  0  0
  -29.7429  -11.7509   17.4562 H   0  0  0  0  0  0
  -29.6618  -13.4694   17.7644 H   0  0  0  0  0  0
  -27.8374  -11.2968   18.8498 H   0  0  0  0  0  0
  -27.3664  -12.5979   17.7911 H   0  0  0  0  0  0
  -27.6793  -14.2537   19.5355 H   0  0  0  0  0  0
  -28.6746  -12.0450   21.4011 H   0  0  0  0  0  0
  -28.4639  -13.7181   21.8358 H   0  0  0  0  0  0
  -25.2753   -9.5697   22.4764 H   0  0  0  0  0  0
  -24.0009   -7.4636   22.7461 H   0  0  0  0  0  0
  -21.0846   -8.8762   19.8948 H   0  0  0  0  0  0
  -22.3679  -10.9675   19.6173 H   0  0  0  0  0  0
  -21.2003   -7.6148   23.9721 H   0  0  0  0  0  0
  -21.1487   -6.0522   25.9081 H   0  0  0  0  0  0
  -22.0596   -2.7612   23.2841 H   0  0  0  0  0  0
  -22.4095  -11.9889   22.4801 H   0  0  0  0  0  0
  -21.1107  -13.1268   22.2604 H   0  0  0  0  0  0
  -24.6598  -15.8439   20.5107 H   0  0  0  0  0  0
  -26.2745  -15.6258   20.0649 H   0  0  0  0  0  0
  -26.7120  -32.5522   23.1142 H   0  0  0  0  0  0
  -25.0075  -33.9776   25.0475 H   0  0  0  0  0  0
  -22.6957  -31.3043   21.4056 H   0  0  0  0  0  0
  -23.3752  -35.9646   23.3305 H   0  0  0  0  0  0
  -24.3584  -36.8916   22.2049 H   0  0  0  0  0  0
  -23.7238  -37.6523   23.6638 H   0  0  0  0  0  0
  -26.0459  -31.5919   20.5905 H   0  0  0  0  0  0
  -26.8230  -30.8835   21.9774 H   0  0  0  0  0  0
  -28.1030  -29.0887   21.1646 H   0  0  0  0  0  0
  -26.0674  -25.9467   19.0326 H   0  0  0  0  0  0
  -23.9834  -27.2797   19.0361 H   0  0  0  0  0  0
  -23.7218  -30.5870   19.4011 H   0  0  0  0  0  0
  -22.7387  -29.2334   19.8701 H   0  0  0  0  0  0
  -25.1293  -36.1983   25.0828 H   0  0  0  0  0  0
  -20.9964  -28.3257   24.1454 H   0  0  0  0  0  0
  -20.5685  -26.2279   23.3629 H   0  0  0  0  0  0
  -21.6663  -26.7447   22.1251 H   0  0  0  0  0  0
  -19.6933  -25.6285   21.1267 H   0  0  0  0  0  0
  -19.6722  -27.3184   20.6755 H   0  0  0  0  0  0
  -17.4230  -26.6701   21.3990 H   0  0  0  0  0  0
  -18.0303  -26.0045   22.8982 H   0  0  0  0  0  0
  -19.7924  -30.7257   24.2315 H   0  0  0  0  0  0
  -17.5009  -31.6266   24.5172 H   0  0  0  0  0  0
  -15.5351  -30.2990   23.7649 H   0  0  0  0  0  0
  -15.8673  -28.0826   22.7052 H   0  0  0  0  0  0
  -24.5902  -30.7045   25.7784 H   0  0  0  0  0  0
  -24.8910  -32.2865   26.4890 H   0  0  0  0  0  0
  -25.8078  -30.8881   27.0211 H   0  0  0  0  0  0
  -26.2827  -29.6818   24.1098 H   0  0  0  0  0  0
  -27.4031  -29.7244   25.4523 H   0  0  0  0  0  0
  -27.8671  -30.4356   23.9230 H   0  0  0  0  0  0
  -27.2675  -33.3602   26.2070 H   0  0  0  0  0  0
  -28.3843  -32.6879   25.0275 H   0  0  0  0  0  0
  -28.0733  -31.8410   26.5354 H   0  0  0  0  0  0
  -28.2616  -38.0100   24.7518 H   0  0  0  0  0  0
  -28.1069  -36.2635   24.6285 H   0  0  0  0  0  0
  -27.2297  -37.1466   25.8864 H   0  0  0  0  0  0
  -20.9305  -29.8768   21.6967 H   0  0  0  0  0  0
  -26.0187  -38.2878   24.1400 H   0  0  0  0  0  0
  -28.0722  -20.5677   23.0092 H   0  0  0  0  0  0
  -27.7276  -24.8369   22.9802 H   0  0  0  0  0  0
  -26.4770  -25.5785   22.0059 H   0  0  0  0  0  0
  -27.7308  -26.5677   22.7554 H   0  0  0  0  0  0
  -31.5069  -17.0852   21.0255 H   0  0  0  0  0  0
  -30.7037  -17.0643   19.4722 H   0  0  0  0  0  0
  -27.2167  -23.9653   19.9551 H   0  0  0  0  0  0
  -28.8289  -24.1362   19.3167 H   0  0  0  0  0  0
  -29.4579  -25.4860   21.3547 H   0  0  0  0  0  0
  -28.4044  -21.6251   19.4218 H   0  0  0  0  0  0
  -29.0316  -15.5362   21.1198 H   0  0  0  0  0  0
  1 25  1  0  0  0
  1 30  2  0  0  0
  1 81  1  0  0  0
  2  3  1  0  0  0
  2 25  1  0  0  0
  2 84  1  0  0  0
  2 85  1  0  0  0
  3  4  1  0  0  0
  3 86  1  0  0  0
  3 87  1  0  0  0
  4  5  1  0  0  0
  4 88  1  0  0  0
  4 89  1  0  0  0
  5  6  1  0  0  0
  5 26  1  0  0  0
  5 90  1  0  0  0
  6 25  1  0  0  0
  6 91  1  0  0  0
  6 92  1  0  0  0
  7  8  2  0  0  0
  7 26  1  0  0  0
  7 29  1  0  0  0
  8  9  1  0  0  0
  8 22  1  0  0  0
  9 10  1  0  0  0
  9 27  2  0  0  0
 10 11  2  0  0  0
 10 15  1  0  0  0
 11 12  1  0  0  0
 11 93  1  0  0  0
 12 13  2  0  0  0
 12 94  1  0  0  0
 13 14  1  0  0  0
 13 31  1  0  0  0
 14 15  2  0  0  0
 14 95  1  0  0  0
 15 96  1  0  0  0
 16 17  2  0  0  0
 16 21  1  0  0  0
 16 31  1  0  0  0
 17 18  1  0  0  0
 17 97  1  0  0  0
 18 19  2  0  0  0
 18 98  1  0  0  0
 19 20  1  0  0  0
 19 24  1  0  0  0
 20 21  2  0  0  0
 20 99  1  0  0  0
 21 23  1  0  0  0
 22 28  1  0  0  0
 22 32  2  0  0  0
 26 27  1  0  0  0
 28100  1  0  0  0
 28101  1  0  0  0
 29102  1  0  0  0
 29103  1  0  0  0
 33 34  1  0  0  0
 33 66  1  0  0  0
 33 70  2  0  0  0
 34 36  1  0  0  0
 34 59  1  0  0  0
 34104  1  0  0  0
 35 44  2  0  0  0
 35 45  1  0  0  0
 35 68  1  0  0  0
 36 56  1  0  0  0
 36105  1  0  0  0
 37 39  1  0  0  0
 37 47  1  0  0  0
 37 66  1  0  0  0
 37106  1  0  0  0
 38 43  2  0  0  0
 38 46  1  0  0  0
 38 47  1  0  0  0
 39 64  1  0  0  0
 39 67  2  0  0  0
 40 52  1  0  0  0
 40 53  2  0  0  0
 40 58  1  0  0  0
 41107  1  0  0  0
 41108  1  0  0  0
 41109  1  0  0  0
 41 48  1  0  0  0
 42 43  1  0  0  0
 42 66  1  0  0  0
 42110  1  0  0  0
 42111  1  0  0  0
 43 44  1  0  0  0
 44112  1  0  0  0
 45 46  2  0  0  0
 45113  1  0  0  0
 46114  1  0  0  0
 47115  1  0  0  0
 47116  1  0  0  0
 48 56  1  0  0  0
 48 65  1  0  0  0
 48117  1  0  0  0
 49 50  1  0  0  0
 49 53  1  0  0  0
 49 64  1  0  0  0
 49118  1  0  0  0
 50 51  1  0  0  0
 50119  1  0  0  0
 50120  1  0  0  0
 51 52  1  0  0  0
 51121  1  0  0  0
 51122  1  0  0  0
 52123  1  0  0  0
 52124  1  0  0  0
 53 54  1  0  0  0
 54 55  2  0  0  0
 54125  1  0  0  0
 55 57  1  0  0  0
 55126  1  0  0  0
 56 69  2  0  0  0
 57 58  2  0  0  0
 57127  1  0  0  0
 58128  1  0  0  0
 59 60  1  0  0  0
 59 61  1  0  0  0
 59 62  1  0  0  0
 60129  1  0  0  0
 60130  1  0  0  0
 60131  1  0  0  0
 61132  1  0  0  0
 61133  1  0  0  0
 61134  1  0  0  0
 62135  1  0  0  0
 62136  1  0  0  0
 62137  1  0  0  0
 63 65  1  0  0  0
 63138  1  0  0  0
 63139  1  0  0  0
 63140  1  0  0  0
 64141  1  0  0  0
 65142  1  0  0  0
 68 78  1  0  0  0
 71 72  2  0  0  0
 71 83  1  0  0  0
 71143  1  0  0  0
 72 79  1  0  0  0
 72 80  1  0  0  0
 73 76  1  0  0  0
 73 79  2  0  0  0
 73 83  1  0  0  0
 74 77  1  0  0  0
 74 80  1  0  0  0
 74 82  2  0  0  0
 75144  1  0  0  0
 75145  1  0  0  0
 75146  1  0  0  0
 75 78  1  0  0  0
 76 81  1  0  0  0
 76147  1  0  0  0
 76148  1  0  0  0
 77 78  1  0  0  0
 77149  1  0  0  0
 77150  1  0  0  0
 78151  1  0  0  0
 80152  1  0  0  0
 81153  1  0  0  0
M  ISO  4   1 100  68 101  78 101  81 100
M  END
> <chiral flag>
0

> <version>
0

> <s_m_source_file>
/data/baiqing/PycharmProjects/Reinvent-master-3.2/result/LINK_invent/BTK/process_docking_weight1_custom_product_contain_oxygen_bond_distance_aromatic_linkinvent_7_9_3/rearranged_h_0192.sdf

> <i_m_source_file_index>
67

> <r_mmod_Potential_Energy-OPLS-2005>
-171.738494873047

> <r_mmod_Stretch_Energy-OPLS-2005>
44.7620964050293

> <r_mmod_Bend_Energy-OPLS-2005>
113.886932373047

> <r_mmod_Torsional_Energy-OPLS-2005>
233.849472045898

> <r_mmod_Improper_Torsional_Energy-OPLS-2005>
6.35390567779541

> <r_mmod_Van_der_Waal_Energy-OPLS-2005>
129.749725341797

> <r_mmod_Electrostatic_Energy-OPLS-2005>
-488.720336914062

> <r_mmod_Solvation_Energy-OPLS-2005>
-232.34228515625

> <b_mmod_Minimization_Converged-OPLS-2005>
0

> <r_mmod_RMS_Derivative-OPLS-2005>
1.12982475757599

$$$$
68
                    3D
 Structure written by MMmdl.
161169  0  0  1  0            999 V2000
  -30.6549  -14.5354   20.5801 C   0  0  0  0  0  0
  -30.4391  -12.3475   19.4243 C   0  0  0  0  0  0
  -29.4974  -12.5163   18.2109 C   0  0  0  0  0  0
  -28.0189  -12.3698   18.6232 C   0  0  0  0  0  0
  -27.6643  -13.2087   19.8788 C   0  0  2  0  0  0
  -28.7066  -12.9832   20.9972 C   0  0  0  0  0  0
  -25.2613  -13.8179   20.5715 C   0  0  0  0  0  0
  -24.1840  -13.0449   20.9184 C   0  0  0  0  0  0
  -24.6393  -11.6924   20.8737 C   0  0  0  0  0  0
  -23.9060  -10.4299   21.0415 C   0  0  0  0  0  0
  -24.3615   -9.4215   21.9194 C   0  0  0  0  0  0
  -23.6290   -8.2245   22.0758 C   0  0  0  0  0  0
  -22.4281   -8.0288   21.3544 C   0  0  0  0  0  0
  -21.9915   -9.0263   20.4646 C   0  0  0  0  0  0
  -22.7242  -10.2141   20.3065 C   0  0  0  0  0  0
  -21.6853   -6.0753   22.5280 C   0  0  0  0  0  0
  -21.4008   -6.5651   23.8220 C   0  0  0  0  0  0
  -21.3654   -5.6804   24.9176 C   0  0  0  0  0  0
  -21.6045   -4.3064   24.7228 C   0  0  0  0  0  0
  -21.8817   -3.8163   23.4346 C   0  0  0  0  0  0
  -21.9187   -4.6974   22.3404 C   0  0  0  0  0  0
  -22.7860  -13.5252   21.1842 C   0  0  0  0  0  0
  -22.1662   -4.2168   21.0974 F   0  0  0  0  0  0
  -21.5624   -3.4532   25.7737 F   0  0  0  0  0  0
  -30.0376  -13.3210   20.4578 N   0  0  0  0  0  0
  -26.3044  -12.9340   20.3388 N   0  0  0  0  0  0
  -25.9329  -11.6499   20.5790 N   0  0  0  0  0  0
  -22.0475  -12.8255   22.0395 N   0  0  0  0  0  0
  -25.4319  -15.1892   20.4137 N   0  0  0  0  0  0
  -31.7440  -14.7809   20.0495 O   0  0  0  0  0  0
  -21.6635   -6.8894   21.4258 O   0  0  0  0  0  0
  -22.3556  -14.5551   20.6687 O   0  0  0  0  0  0
  -24.6222  -31.8670   23.2075 C   0  0  0  0  0  0
  -25.9099  -32.4821   23.8387 C   0  0  1  0  0  0
  -27.2246  -27.3957   20.0962 C   0  0  0  0  0  0
  -25.5943  -33.8612   24.2324 N   0  0  0  0  0  0
  -23.4113  -30.4923   21.5509 C   0  0  2  0  0  0
  -24.8558  -28.9633   20.1019 C   0  0  0  0  0  0
  -22.7470  -29.4648   22.4962 C   0  0  0  0  0  0
  -18.0318  -28.1354   22.8448 C   0  0  0  0  0  0
  -24.1522  -36.7281   23.2642 C   0  0  0  0  0  0
  -25.9443  -30.8239   21.3654 C   0  0  0  0  0  0
  -26.0209  -29.4577   20.7031 C   0  0  0  0  0  0
  -27.2120  -28.6842   20.6927 C   0  0  0  0  0  0
  -26.0473  -26.9446   19.4580 C   0  0  0  0  0  0
  -24.8669  -27.7101   19.4686 C   0  0  0  0  0  0
  -23.6195  -29.8353   20.1611 C   0  0  0  0  0  0
  -25.4138  -36.3094   24.0343 C   0  0  1  0  0  0
  -20.5914  -28.3682   23.1275 C   0  0  2  0  0  0
  -20.6839  -26.9422   22.5387 C   0  0  0  0  0  0
  -19.5826  -26.6371   21.5180 C   0  0  0  0  0  0
  -18.1984  -26.7905   22.1566 C   0  0  0  0  0  0
  -19.1554  -28.8838   23.2864 C   0  0  0  0  0  0
  -18.9480  -30.1436   23.8888 C   0  0  0  0  0  0
  -17.6484  -30.6564   24.0546 C   0  0  0  0  0  0
  -25.9059  -34.9471   23.5121 C   0  0  0  0  0  0
  -16.5379  -29.9056   23.6304 C   0  0  0  0  0  0
  -16.7304  -28.6475   23.0306 C   0  0  0  0  0  0
  -26.4502  -31.6600   25.0726 C   0  0  0  0  0  0
  -25.3733  -31.3706   26.1446 C   0  0  0  0  0  0
  -27.0351  -30.3059   24.6092 C   0  0  0  0  0  0
  -27.6091  -32.4313   25.7484 C   0  0  0  0  0  0
  -27.5611  -37.1812   24.8483 C   0  0  0  0  0  0
  -21.4208  -29.3028   22.3663 N   0  0  0  0  0  0
  -26.4324  -37.3774   23.9417 N   0  0  0  0  0  0
  -24.6776  -31.0756   22.0989 N   0  0  0  0  0  0
  -23.4216  -28.8188   23.3035 O   0  0  0  0  0  0
  -28.3363  -26.5605   20.1703 O   0  0  0  0  0  0
  -26.5593  -34.8923   22.4671 O   0  0  0  0  0  0
  -23.5397  -32.1428   23.7443 O   0  0  0  0  0  0
  -30.1718  -17.7529   20.2268 C   0  0  0  0  0  0
  -29.7162  -19.1018   20.5388 C   0  0  0  0  0  0
  -29.8867  -16.8244   21.2133 C   0  0  0  0  0  0
  -28.5734  -20.1856   18.5440 C   0  0  0  0  0  0
  -27.7605  -22.1912   21.4479 C   0  0  0  0  0  0
  -27.8395  -25.4766   22.2614 C   0  0  0  0  0  0
  -29.1913  -24.1488   20.4994 C   0  0  0  0  0  0
  -29.7224  -20.2978   19.5691 C   0  0  1  0  0  0
  -28.7205  -22.6399   20.3259 C   0  0  1  0  0  0
  -28.0786  -25.2406   20.7523 C   0  0  2  0  0  0
  -29.1849  -19.2234   21.7387 N   0  0  0  0  0  0
  -29.9724  -15.4553   21.3021 N   0  0  0  0  0  0
  -29.8733  -21.6693   20.1950 N   0  3  0  0  0  0
  -29.1450  -17.7240   22.5025 S   0  0  0  0  0  0
  -31.4766  -12.4797   19.1108 H   0  0  0  0  0  0
  -30.3789  -11.3313   19.8179 H   0  0  0  0  0  0
  -29.7403  -11.7863   17.4374 H   0  0  0  0  0  0
  -29.6548  -13.4992   17.7640 H   0  0  0  0  0  0
  -27.8307  -11.3136   18.8196 H   0  0  0  0  0  0
  -27.3677  -12.6437   17.7918 H   0  0  0  0  0  0
  -27.7102  -14.2587   19.5860 H   0  0  0  0  0  0
  -28.6956  -11.9403   21.3195 H   0  0  0  0  0  0
  -28.4486  -13.5579   21.8863 H   0  0  0  0  0  0
  -25.2755   -9.5697   22.4780 H   0  0  0  0  0  0
  -24.0004   -7.4643   22.7484 H   0  0  0  0  0  0
  -21.0850   -8.8793   19.8951 H   0  0  0  0  0  0
  -22.3710  -10.9688   19.6181 H   0  0  0  0  0  0
  -21.2002   -7.6152   23.9738 H   0  0  0  0  0  0
  -21.1476   -6.0514   25.9083 H   0  0  0  0  0  0
  -22.0599   -2.7620   23.2833 H   0  0  0  0  0  0
  -22.4045  -11.9894   22.4770 H   0  0  0  0  0  0
  -21.1100  -13.1314   22.2587 H   0  0  0  0  0  0
  -24.6698  -15.8477   20.5350 H   0  0  0  0  0  0
  -26.2945  -15.6311   20.1209 H   0  0  0  0  0  0
  -26.7187  -32.5534   23.1161 H   0  0  0  0  0  0
  -25.0198  -33.9742   25.0545 H   0  0  0  0  0  0
  -22.7023  -31.3095   21.4140 H   0  0  0  0  0  0
  -23.3784  -35.9621   23.3305 H   0  0  0  0  0  0
  -24.3645  -36.8880   22.2067 H   0  0  0  0  0  0
  -23.7244  -37.6484   23.6633 H   0  0  0  0  0  0
  -26.0581  -31.5947   20.6024 H   0  0  0  0  0  0
  -26.8297  -30.8781   21.9845 H   0  0  0  0  0  0
  -28.1084  -29.0497   21.1731 H   0  0  0  0  0  0
  -26.0240  -25.9887   18.9545 H   0  0  0  0  0  0
  -23.9769  -27.3297   18.9839 H   0  0  0  0  0  0
  -23.7313  -30.6159   19.4068 H   0  0  0  0  0  0
  -22.7399  -29.2628   19.8620 H   0  0  0  0  0  0
  -25.1309  -36.1970   25.0829 H   0  0  0  0  0  0
  -21.0007  -28.3271   24.1399 H   0  0  0  0  0  0
  -20.5806  -26.2292   23.3582 H   0  0  0  0  0  0
  -21.6706  -26.7512   22.1159 H   0  0  0  0  0  0
  -19.7015  -25.6272   21.1222 H   0  0  0  0  0  0
  -19.6766  -27.3181   20.6708 H   0  0  0  0  0  0
  -17.4279  -26.6653   21.3938 H   0  0  0  0  0  0
  -18.0371  -26.0045   22.8953 H   0  0  0  0  0  0
  -19.7979  -30.7225   24.2263 H   0  0  0  0  0  0
  -17.5049  -31.6246   24.5146 H   0  0  0  0  0  0
  -15.5379  -30.2943   23.7648 H   0  0  0  0  0  0
  -15.8702  -28.0807   22.6990 H   0  0  0  0  0  0
  -24.5971  -30.6955   25.7802 H   0  0  0  0  0  0
  -24.8812  -32.2858   26.4776 H   0  0  0  0  0  0
  -25.8072  -30.9000   27.0276 H   0  0  0  0  0  0
  -26.2903  -29.6784   24.1180 H   0  0  0  0  0  0
  -27.4215  -29.7319   25.4521 H   0  0  0  0  0  0
  -27.8689  -30.4412   23.9185 H   0  0  0  0  0  0
  -27.2768  -33.3684   26.1947 H   0  0  0  0  0  0
  -28.3964  -32.6728   25.0325 H   0  0  0  0  0  0
  -28.0665  -31.8470   26.5476 H   0  0  0  0  0  0
  -28.2613  -38.0127   24.7558 H   0  0  0  0  0  0
  -28.1116  -36.2658   24.6280 H   0  0  0  0  0  0
  -27.2334  -37.1428   25.8887 H   0  0  0  0  0  0
  -20.9382  -29.8695   21.6821 H   0  0  0  0  0  0
  -26.0208  -38.2852   24.1424 H   0  0  0  0  0  0
  -30.6185  -17.5152   19.2703 H   0  0  0  0  0  0
  -28.6246  -19.2274   18.0244 H   0  0  0  0  0  0
  -28.6306  -20.9567   17.7773 H   0  0  0  0  0  0
  -27.5921  -20.2373   19.0147 H   0  0  0  0  0  0
  -26.8834  -22.8335   21.5023 H   0  0  0  0  0  0
  -28.2488  -22.2019   22.4227 H   0  0  0  0  0  0
  -27.3778  -21.1875   21.2721 H   0  0  0  0  0  0
  -27.5936  -24.5622   22.7935 H   0  0  0  0  0  0
  -27.0097  -26.1646   22.4328 H   0  0  0  0  0  0
  -28.7148  -25.9086   22.7453 H   0  0  0  0  0  0
  -29.7219  -24.4351   19.5918 H   0  0  0  0  0  0
  -29.9350  -24.2184   21.2972 H   0  0  0  0  0  0
  -30.6358  -20.1999   18.9809 H   0  0  0  0  0  0
  -28.1548  -22.6284   19.3945 H   0  0  0  0  0  0
  -27.1617  -24.8310   20.3327 H   0  0  0  0  0  0
  -29.2664  -15.0401   21.8927 H   0  0  0  0  0  0
  -30.5508  -22.1277   19.6093 H   0  0  0  0  0  0
  -30.3197  -21.5417   21.0894 H   0  0  0  0  0  0
  1 25  1  0  0  0
  1 30  2  0  0  0
  1 82  1  0  0  0
  2  3  1  0  0  0
  2 25  1  0  0  0
  2 85  1  0  0  0
  2 86  1  0  0  0
  3  4  1  0  0  0
  3 87  1  0  0  0
  3 88  1  0  0  0
  4  5  1  0  0  0
  4 89  1  0  0  0
  4 90  1  0  0  0
  5  6  1  0  0  0
  5 26  1  0  0  0
  5 91  1  0  0  0
  6 25  1  0  0  0
  6 92  1  0  0  0
  6 93  1  0  0  0
  7  8  2  0  0  0
  7 26  1  0  0  0
  7 29  1  0  0  0
  8  9  1  0  0  0
  8 22  1  0  0  0
  9 10  1  0  0  0
  9 27  2  0  0  0
 10 11  2  0  0  0
 10 15  1  0  0  0
 11 12  1  0  0  0
 11 94  1  0  0  0
 12 13  2  0  0  0
 12 95  1  0  0  0
 13 14  1  0  0  0
 13 31  1  0  0  0
 14 15  2  0  0  0
 14 96  1  0  0  0
 15 97  1  0  0  0
 16 17  2  0  0  0
 16 21  1  0  0  0
 16 31  1  0  0  0
 17 18  1  0  0  0
 17 98  1  0  0  0
 18 19  2  0  0  0
 18 99  1  0  0  0
 19 20  1  0  0  0
 19 24  1  0  0  0
 20 21  2  0  0  0
 20100  1  0  0  0
 21 23  1  0  0  0
 22 28  1  0  0  0
 22 32  2  0  0  0
 26 27  1  0  0  0
 28101  1  0  0  0
 28102  1  0  0  0
 29103  1  0  0  0
 29104  1  0  0  0
 33 34  1  0  0  0
 33 66  1  0  0  0
 33 70  2  0  0  0
 34 36  1  0  0  0
 34 59  1  0  0  0
 34105  1  0  0  0
 35 44  2  0  0  0
 35 45  1  0  0  0
 35 68  1  0  0  0
 36 56  1  0  0  0
 36106  1  0  0  0
 37 39  1  0  0  0
 37 47  1  0  0  0
 37 66  1  0  0  0
 37107  1  0  0  0
 38 43  2  0  0  0
 38 46  1  0  0  0
 38 47  1  0  0  0
 39 64  1  0  0  0
 39 67  2  0  0  0
 40 52  1  0  0  0
 40 53  2  0  0  0
 40 58  1  0  0  0
 41108  1  0  0  0
 41109  1  0  0  0
 41110  1  0  0  0
 41 48  1  0  0  0
 42 43  1  0  0  0
 42 66  1  0  0  0
 42111  1  0  0  0
 42112  1  0  0  0
 43 44  1  0  0  0
 44113  1  0  0  0
 45 46  2  0  0  0
 45114  1  0  0  0
 46115  1  0  0  0
 47116  1  0  0  0
 47117  1  0  0  0
 48 56  1  0  0  0
 48 65  1  0  0  0
 48118  1  0  0  0
 49 50  1  0  0  0
 49 53  1  0  0  0
 49 64  1  0  0  0
 49119  1  0  0  0
 50 51  1  0  0  0
 50120  1  0  0  0
 50121  1  0  0  0
 51 52  1  0  0  0
 51122  1  0  0  0
 51123  1  0  0  0
 52124  1  0  0  0
 52125  1  0  0  0
 53 54  1  0  0  0
 54 55  2  0  0  0
 54126  1  0  0  0
 55 57  1  0  0  0
 55127  1  0  0  0
 56 69  2  0  0  0
 57 58  2  0  0  0
 57128  1  0  0  0
 58129  1  0  0  0
 59 60  1  0  0  0
 59 61  1  0  0  0
 59 62  1  0  0  0
 60130  1  0  0  0
 60131  1  0  0  0
 60132  1  0  0  0
 61133  1  0  0  0
 61134  1  0  0  0
 61135  1  0  0  0
 62136  1  0  0  0
 62137  1  0  0  0
 62138  1  0  0  0
 63 65  1  0  0  0
 63139  1  0  0  0
 63140  1  0  0  0
 63141  1  0  0  0
 64142  1  0  0  0
 65143  1  0  0  0
 68 80  1  0  0  0
 71 72  1  0  0  0
 71 73  2  0  0  0
 71144  1  0  0  0
 72 78  1  0  0  0
 72 81  2  0  0  0
 73 82  1  0  0  0
 73 84  1  0  0  0
 74145  1  0  0  0
 74146  1  0  0  0
 74147  1  0  0  0
 74 78  1  0  0  0
 75148  1  0  0  0
 75149  1  0  0  0
 75150  1  0  0  0
 75 79  1  0  0  0
 76151  1  0  0  0
 76152  1  0  0  0
 76153  1  0  0  0
 76 80  1  0  0  0
 77 79  1  0  0  0
 77 80  1  0  0  0
 77154  1  0  0  0
 77155  1  0  0  0
 78 83  1  0  0  0
 78156  1  0  0  0
 79 83  1  0  0  0
 79157  1  0  0  0
 80158  1  0  0  0
 81 84  1  0  0  0
 82159  1  0  0  0
 83160  1  0  0  0
 83161  1  0  0  0
M  CHG  1  83   1
M  ISO  4   1 100  68 101  80 101  82 100
M  END
> <chiral flag>
0

> <version>
0

> <s_m_source_file>
/data/baiqing/PycharmProjects/Reinvent-master-3.2/result/LINK_invent/BTK/process_docking_weight1_custom_product_contain_oxygen_bond_distance_aromatic_linkinvent_7_9_3/rearranged_h_0192.sdf

> <i_m_source_file_index>
68

> <r_mmod_Potential_Energy-OPLS-2005>
-239.629165649414

> <r_mmod_Stretch_Energy-OPLS-2005>
58.2573432922363

> <r_mmod_Bend_Energy-OPLS-2005>
134.702972412109

> <r_mmod_Torsional_Energy-OPLS-2005>
250.152465820312

> <r_mmod_Improper_Torsional_Energy-OPLS-2005>
3.07596373558044

> <r_mmod_Van_der_Waal_Energy-OPLS-2005>
125.155853271484

> <r_mmod_Electrostatic_Energy-OPLS-2005>
-371.937591552734

> <r_mmod_Solvation_Energy-OPLS-2005>
-463.763732910156

> <b_mmod_Minimization_Converged-OPLS-2005>
0

> <r_mmod_RMS_Derivative-OPLS-2005>
3.63554430007935

$$$$
69
                    3D
 Structure written by MMmdl.
175183  0  0  1  0            999 V2000
  -30.6328  -14.5918   20.5104 C   0  0  0  0  0  0
  -30.4164  -12.3566   19.4702 C   0  0  0  0  0  0
  -29.4979  -12.4982   18.2381 C   0  0  0  0  0  0
  -28.0191  -12.3415   18.6415 C   0  0  0  0  0  0
  -27.6454  -13.2131   19.8686 C   0  0  2  0  0  0
  -28.6803  -13.0610   21.0052 C   0  0  0  0  0  0
  -25.2490  -13.8186   20.5676 C   0  0  0  0  0  0
  -24.1742  -13.0467   20.9209 C   0  0  0  0  0  0
  -24.6325  -11.6934   20.8802 C   0  0  0  0  0  0
  -23.9005  -10.4312   21.0458 C   0  0  0  0  0  0
  -24.3582   -9.4212   21.9201 C   0  0  0  0  0  0
  -23.6271   -8.2235   22.0745 C   0  0  0  0  0  0
  -22.4246   -8.0287   21.3552 C   0  0  0  0  0  0
  -21.9884   -9.0258   20.4650 C   0  0  0  0  0  0
  -22.7200  -10.2140   20.3085 C   0  0  0  0  0  0
  -21.6843   -6.0742   22.5296 C   0  0  0  0  0  0
  -21.3999   -6.5643   23.8235 C   0  0  0  0  0  0
  -21.3655   -5.6794   24.9201 C   0  0  0  0  0  0
  -21.6050   -4.3059   24.7244 C   0  0  0  0  0  0
  -21.8809   -3.8152   23.4362 C   0  0  0  0  0  0
  -21.9177   -4.6966   22.3424 C   0  0  0  0  0  0
  -22.7796  -13.5256   21.1920 C   0  0  0  0  0  0
  -22.1659   -4.2156   21.0992 F   0  0  0  0  0  0
  -21.5633   -3.4534   25.7749 F   0  0  0  0  0  0
  -30.0056  -13.3771   20.4515 N   0  0  0  0  0  0
  -26.2904  -12.9360   20.3336 N   0  0  0  0  0  0
  -25.9244  -11.6520   20.5786 N   0  0  0  0  0  0
  -22.0448  -12.8214   22.0452 N   0  0  0  0  0  0
  -25.4267  -15.1895   20.4057 N   0  0  0  0  0  0
  -31.7814  -14.7408   20.0736 O   0  0  0  0  0  0
  -21.6635   -6.8868   21.4246 O   0  0  0  0  0  0
  -22.3491  -14.5599   20.6822 O   0  0  0  0  0  0
  -24.6239  -31.8607   23.2014 C   0  0  0  0  0  0
  -25.9097  -32.4761   23.8351 C   0  0  1  0  0  0
  -27.2270  -27.3471   20.1301 C   0  0  0  0  0  0
  -25.5906  -33.8561   24.2287 N   0  0  0  0  0  0
  -23.4150  -30.4835   21.5439 C   0  0  2  0  0  0
  -24.8635  -28.9397   20.1102 C   0  0  0  0  0  0
  -22.7474  -29.4603   22.4937 C   0  0  0  0  0  0
  -18.0290  -28.1391   22.8494 C   0  0  0  0  0  0
  -24.1506  -36.7306   23.2643 C   0  0  0  0  0  0
  -25.9532  -30.8028   21.3680 C   0  0  0  0  0  0
  -26.0275  -29.4317   20.7126 C   0  0  0  0  0  0
  -27.2145  -28.6486   20.7058 C   0  0  0  0  0  0
  -26.0410  -26.8840   19.5178 C   0  0  0  0  0  0
  -24.8720  -27.6727   19.4996 C   0  0  0  0  0  0
  -23.6288  -29.8172   20.1579 C   0  0  0  0  0  0
  -25.4123  -36.3067   24.0331 C   0  0  1  0  0  0
  -20.5885  -28.3662   23.1307 C   0  0  2  0  0  0
  -20.6757  -26.9395   22.5404 C   0  0  0  0  0  0
  -19.5737  -26.6391   21.5207 C   0  0  0  0  0  0
  -18.1931  -26.7949   22.1626 C   0  0  0  0  0  0
  -19.1540  -28.8851   23.2894 C   0  0  0  0  0  0
  -18.9454  -30.1459   23.8905 C   0  0  0  0  0  0
  -17.6440  -30.6585   24.0576 C   0  0  0  0  0  0
  -25.9042  -34.9433   23.5113 C   0  0  0  0  0  0
  -16.5331  -29.9089   23.6321 C   0  0  0  0  0  0
  -16.7272  -28.6512   23.0340 C   0  0  0  0  0  0
  -26.4477  -31.6560   25.0728 C   0  0  0  0  0  0
  -25.3681  -31.3731   26.1451 C   0  0  0  0  0  0
  -27.0311  -30.2975   24.6196 C   0  0  0  0  0  0
  -27.6000  -32.4279   25.7519 C   0  0  0  0  0  0
  -27.5587  -37.1805   24.8455 C   0  0  0  0  0  0
  -21.4181  -29.3025   22.3707 N   0  0  0  0  0  0
  -26.4304  -37.3763   23.9404 N   0  0  0  0  0  0
  -24.6817  -31.0650   22.0939 N   0  0  0  0  0  0
  -23.4233  -28.8134   23.2987 O   0  0  0  0  0  0
  -28.3719  -26.5539   20.1612 O   0  0  0  0  0  0
  -26.5639  -34.8904   22.4698 O   0  0  0  0  0  0
  -23.5410  -32.1373   23.7373 O   0  0  0  0  0  0
  -30.0089  -17.0468   20.6970 C   0  0  0  0  0  0
  -30.3048  -18.8552   19.7077 C   0  0  0  0  0  0
  -30.6028  -26.4846   22.1027 C   0  0  0  0  0  0
  -31.5524  -20.6644   22.0954 C   0  0  0  0  0  0
  -27.9824  -24.4031   23.4785 C   0  0  0  0  0  0
  -30.2246  -23.6035   24.2923 C   0  0  0  0  0  0
  -28.3607  -22.0427   23.9999 C   0  0  0  0  0  0
  -30.7467  -25.3489   21.0591 C   0  0  0  0  0  0
  -28.2431  -25.1032   20.3505 C   0  0  0  0  0  0
  -29.5632  -24.3453   20.8323 C   0  0  2  0  0  0
  -29.5666  -23.0669   21.8427 C   0  0  1  0  0  0
  -30.0566  -20.4495   21.7679 C   0  0  2  0  0  0
  -29.0343  -23.2756   23.3454 C   0  0  0  0  0  0
  -30.3216  -17.5446   19.4586 N   0  0  0  0  0  0
  -29.7240  -17.9861   21.6144 N   0  0  0  0  0  0
  -29.9494  -19.1859   20.9650 N   0  0  0  0  0  0
  -30.6729  -19.8013   18.7681 N   0  0  0  0  0  0
  -29.8917  -15.6356   20.9786 N   0  0  0  0  0  0
  -29.3348  -21.6837   21.2076 N   0  3  0  0  0  0
  -31.4633  -12.4647   19.1805 H   0  0  0  0  0  0
  -30.3299  -11.3612   19.9107 H   0  0  0  0  0  0
  -29.7633  -11.7563   17.4858 H   0  0  0  0  0  0
  -29.6421  -13.4777   17.7821 H   0  0  0  0  0  0
  -27.8465  -11.2881   18.8614 H   0  0  0  0  0  0
  -27.3733  -12.5855   17.7966 H   0  0  0  0  0  0
  -27.6703  -14.2495   19.5295 H   0  0  0  0  0  0
  -28.6644  -12.0477   21.4066 H   0  0  0  0  0  0
  -28.4185  -13.7120   21.8393 H   0  0  0  0  0  0
  -25.2740   -9.5691   22.4752 H   0  0  0  0  0  0
  -24.0024   -7.4600   22.7427 H   0  0  0  0  0  0
  -21.0849   -8.8783   19.8923 H   0  0  0  0  0  0
  -22.3701  -10.9689   19.6186 H   0  0  0  0  0  0
  -21.1997   -7.6145   23.9747 H   0  0  0  0  0  0
  -21.1492   -6.0523   25.9096 H   0  0  0  0  0  0
  -22.0587   -2.7613   23.2879 H   0  0  0  0  0  0
  -22.4077  -11.9838   22.4764 H   0  0  0  0  0  0
  -21.1085  -13.1255   22.2753 H   0  0  0  0  0  0
  -24.6680  -15.8555   20.5005 H   0  0  0  0  0  0
  -26.2774  -15.6103   20.0542 H   0  0  0  0  0  0
  -26.7185  -32.5415   23.1137 H   0  0  0  0  0  0
  -24.9964  -33.9702   25.0361 H   0  0  0  0  0  0
  -22.7061  -31.3017   21.4038 H   0  0  0  0  0  0
  -23.3754  -35.9645   23.3328 H   0  0  0  0  0  0
  -24.3584  -36.8926   22.2041 H   0  0  0  0  0  0
  -23.7277  -37.6525   23.6674 H   0  0  0  0  0  0
  -26.0779  -31.5674   20.6001 H   0  0  0  0  0  0
  -26.8353  -30.8502   21.9968 H   0  0  0  0  0  0
  -28.1105  -29.0257   21.1767 H   0  0  0  0  0  0
  -26.0109  -25.9084   19.0547 H   0  0  0  0  0  0
  -23.9808  -27.2940   19.0181 H   0  0  0  0  0  0
  -23.7457  -30.5938   19.4016 H   0  0  0  0  0  0
  -22.7503  -29.2433   19.8558 H   0  0  0  0  0  0
  -25.1346  -36.1918   25.0827 H   0  0  0  0  0  0
  -20.9971  -28.3233   24.1435 H   0  0  0  0  0  0
  -20.5641  -26.2287   23.3597 H   0  0  0  0  0  0
  -21.6627  -26.7422   22.1209 H   0  0  0  0  0  0
  -19.6876  -25.6313   21.1235 H   0  0  0  0  0  0
  -19.6683  -27.3203   20.6749 H   0  0  0  0  0  0
  -17.4185  -26.6697   21.4040 H   0  0  0  0  0  0
  -18.0333  -26.0094   22.9019 H   0  0  0  0  0  0
  -19.7906  -30.7287   24.2298 H   0  0  0  0  0  0
  -17.4970  -31.6270   24.5181 H   0  0  0  0  0  0
  -15.5324  -30.2976   23.7645 H   0  0  0  0  0  0
  -15.8679  -28.0823   22.7046 H   0  0  0  0  0  0
  -24.5739  -30.7228   25.7786 H   0  0  0  0  0  0
  -24.9031  -32.2941   26.4982 H   0  0  0  0  0  0
  -25.7917  -30.8766   27.0167 H   0  0  0  0  0  0
  -27.4030  -29.7235   25.4701 H   0  0  0  0  0  0
  -27.8709  -30.4262   23.9356 H   0  0  0  0  0  0
  -26.2829  -29.6780   24.1268 H   0  0  0  0  0  0
  -27.2559  -33.3558   26.2077 H   0  0  0  0  0  0
  -28.3801  -32.6879   25.0356 H   0  0  0  0  0  0
  -28.0650  -31.8427   26.5451 H   0  0  0  0  0  0
  -28.2604  -38.0104   24.7506 H   0  0  0  0  0  0
  -28.1089  -36.2632   24.6297 H   0  0  0  0  0  0
  -27.2299  -37.1463   25.8852 H   0  0  0  0  0  0
  -20.9362  -29.8773   21.6925 H   0  0  0  0  0  0
  -26.0214  -38.2851   24.1367 H   0  0  0  0  0  0
  -31.5470  -27.0207   22.2054 H   0  0  0  0  0  0
  -30.3216  -26.1539   23.0958 H   0  0  0  0  0  0
  -29.8762  -27.2392   21.8172 H   0  0  0  0  0  0
  -32.0035  -19.7339   22.4433 H   0  0  0  0  0  0
  -31.7059  -21.3793   22.8982 H   0  0  0  0  0  0
  -32.1187  -20.9921   21.2229 H   0  0  0  0  0  0
  -27.7763  -24.6273   24.5262 H   0  0  0  0  0  0
  -27.0239  -24.1144   23.0427 H   0  0  0  0  0  0
  -28.2867  -25.3452   23.0318 H   0  0  0  0  0  0
  -29.8846  -23.9715   25.2624 H   0  0  0  0  0  0
  -30.9139  -24.3405   23.8922 H   0  0  0  0  0  0
  -30.8336  -22.7225   24.5010 H   0  0  0  0  0  0
  -27.8379  -22.3144   24.9182 H   0  0  0  0  0  0
  -29.0842  -21.3001   24.3320 H   0  0  0  0  0  0
  -27.6165  -21.5718   23.3579 H   0  0  0  0  0  0
  -31.6633  -24.8003   21.2774 H   0  0  0  0  0  0
  -30.9464  -25.8343   20.1015 H   0  0  0  0  0  0
  -27.3967  -24.8822   20.9949 H   0  0  0  0  0  0
  -27.9603  -24.6831   19.3835 H   0  0  0  0  0  0
  -29.8929  -23.8713   19.9060 H   0  0  0  0  0  0
  -30.6391  -23.0022   21.9805 H   0  0  0  0  0  0
  -29.5642  -20.1849   22.6937 H   0  0  0  0  0  0
  -31.0888  -19.4541   17.9125 H   0  0  0  0  0  0
  -31.0714  -20.6858   19.0483 H   0  0  0  0  0  0
  -29.0637  -15.3697   21.4866 H   0  0  0  0  0  0
  -29.5908  -21.7568   20.2390 H   0  0  0  0  0  0
  -28.3436  -21.4929   21.2175 H   0  0  0  0  0  0
  1 25  1  0  0  0
  1 30  2  0  0  0
  1 88  1  0  0  0
  2  3  1  0  0  0
  2 25  1  0  0  0
  2 90  1  0  0  0
  2 91  1  0  0  0
  3  4  1  0  0  0
  3 92  1  0  0  0
  3 93  1  0  0  0
  4  5  1  0  0  0
  4 94  1  0  0  0
  4 95  1  0  0  0
  5  6  1  0  0  0
  5 26  1  0  0  0
  5 96  1  0  0  0
  6 25  1  0  0  0
  6 97  1  0  0  0
  6 98  1  0  0  0
  7  8  2  0  0  0
  7 26  1  0  0  0
  7 29  1  0  0  0
  8  9  1  0  0  0
  8 22  1  0  0  0
  9 10  1  0  0  0
  9 27  2  0  0  0
 10 11  2  0  0  0
 10 15  1  0  0  0
 11 12  1  0  0  0
 11 99  1  0  0  0
 12 13  2  0  0  0
 12100  1  0  0  0
 13 14  1  0  0  0
 13 31  1  0  0  0
 14 15  2  0  0  0
 14101  1  0  0  0
 15102  1  0  0  0
 16 17  2  0  0  0
 16 21  1  0  0  0
 16 31  1  0  0  0
 17 18  1  0  0  0
 17103  1  0  0  0
 18 19  2  0  0  0
 18104  1  0  0  0
 19 20  1  0  0  0
 19 24  1  0  0  0
 20 21  2  0  0  0
 20105  1  0  0  0
 21 23  1  0  0  0
 22 28  1  0  0  0
 22 32  2  0  0  0
 26 27  1  0  0  0
 28106  1  0  0  0
 28107  1  0  0  0
 29108  1  0  0  0
 29109  1  0  0  0
 33 34  1  0  0  0
 33 66  1  0  0  0
 33 70  2  0  0  0
 34 36  1  0  0  0
 34 59  1  0  0  0
 34110  1  0  0  0
 35 44  2  0  0  0
 35 45  1  0  0  0
 35 68  1  0  0  0
 36 56  1  0  0  0
 36111  1  0  0  0
 37 39  1  0  0  0
 37 47  1  0  0  0
 37 66  1  0  0  0
 37112  1  0  0  0
 38 43  2  0  0  0
 38 46  1  0  0  0
 38 47  1  0  0  0
 39 64  1  0  0  0
 39 67  2  0  0  0
 40 52  1  0  0  0
 40 53  2  0  0  0
 40 58  1  0  0  0
 41113  1  0  0  0
 41114  1  0  0  0
 41115  1  0  0  0
 41 48  1  0  0  0
 42 43  1  0  0  0
 42 66  1  0  0  0
 42116  1  0  0  0
 42117  1  0  0  0
 43 44  1  0  0  0
 44118  1  0  0  0
 45 46  2  0  0  0
 45119  1  0  0  0
 46120  1  0  0  0
 47121  1  0  0  0
 47122  1  0  0  0
 48 56  1  0  0  0
 48 65  1  0  0  0
 48123  1  0  0  0
 49 50  1  0  0  0
 49 53  1  0  0  0
 49 64  1  0  0  0
 49124  1  0  0  0
 50 51  1  0  0  0
 50125  1  0  0  0
 50126  1  0  0  0
 51 52  1  0  0  0
 51127  1  0  0  0
 51128  1  0  0  0
 52129  1  0  0  0
 52130  1  0  0  0
 53 54  1  0  0  0
 54 55  2  0  0  0
 54131  1  0  0  0
 55 57  1  0  0  0
 55132  1  0  0  0
 56 69  2  0  0  0
 57 58  2  0  0  0
 57133  1  0  0  0
 58134  1  0  0  0
 59 60  1  0  0  0
 59 61  1  0  0  0
 59 62  1  0  0  0
 60135  1  0  0  0
 60136  1  0  0  0
 60137  1  0  0  0
 61138  1  0  0  0
 61139  1  0  0  0
 61140  1  0  0  0
 62141  1  0  0  0
 62142  1  0  0  0
 62143  1  0  0  0
 63 65  1  0  0  0
 63144  1  0  0  0
 63145  1  0  0  0
 63146  1  0  0  0
 64147  1  0  0  0
 65148  1  0  0  0
 68 79  1  0  0  0
 71 84  1  0  0  0
 71 85  2  0  0  0
 71 88  1  0  0  0
 72 84  2  0  0  0
 72 86  1  0  0  0
 72 87  1  0  0  0
 73 78  1  0  0  0
 73149  1  0  0  0
 73150  1  0  0  0
 73151  1  0  0  0
 74152  1  0  0  0
 74153  1  0  0  0
 74154  1  0  0  0
 74 82  1  0  0  0
 75155  1  0  0  0
 75156  1  0  0  0
 75157  1  0  0  0
 75 83  1  0  0  0
 76 83  1  0  0  0
 76158  1  0  0  0
 76159  1  0  0  0
 76160  1  0  0  0
 77 83  1  0  0  0
 77161  1  0  0  0
 77162  1  0  0  0
 77163  1  0  0  0
 78164  1  0  0  0
 78165  1  0  0  0
 78 80  1  0  0  0
 79 80  1  0  0  0
 79166  1  0  0  0
 79167  1  0  0  0
 80 81  1  0  0  0
 80168  1  0  0  0
 81 83  1  0  0  0
 81 89  1  0  0  0
 81169  1  0  0  0
 82 86  1  0  0  0
 82 89  1  0  0  0
 82170  1  0  0  0
 85 86  1  0  0  0
 87171  1  0  0  0
 87172  1  0  0  0
 88173  1  0  0  0
 89174  1  0  0  0
 89175  1  0  0  0
M  CHG  1  89   1
M  ISO  4   1 100  68 101  79 101  88 100
M  END
> <chiral flag>
0

> <version>
0

> <s_m_source_file>
/data/baiqing/PycharmProjects/Reinvent-master-3.2/result/LINK_invent/BTK/process_docking_weight1_custom_product_contain_oxygen_bond_distance_aromatic_linkinvent_7_9_3/rearranged_h_0192.sdf

> <i_m_source_file_index>
69

> <r_mmod_Potential_Energy-OPLS-2005>
-20.4456558227539

> <r_mmod_Stretch_Energy-OPLS-2005>
91.9865875244141

> <r_mmod_Bend_Energy-OPLS-2005>
212.843841552734

> <r_mmod_Torsional_Energy-OPLS-2005>
340.976654052734

> <r_mmod_Improper_Torsional_Energy-OPLS-2005>
8.16630363464355

> <r_mmod_Van_der_Waal_Energy-OPLS-2005>
145.261657714844

> <r_mmod_Electrostatic_Energy-OPLS-2005>
-370.191070556641

> <r_mmod_Solvation_Energy-OPLS-2005>
-484.817718505859

> <b_mmod_Minimization_Converged-OPLS-2005>
0

> <r_mmod_RMS_Derivative-OPLS-2005>
4.54555177688599

$$$$
70
                    3D
 Structure written by MMmdl.
153161  0  0  1  0            999 V2000
  -30.6448  -14.5765   20.5207 C   0  0  0  0  0  0
  -30.4319  -12.3529   19.4477 C   0  0  0  0  0  0
  -29.5060  -12.4983   18.2194 C   0  0  0  0  0  0
  -28.0261  -12.3479   18.6282 C   0  0  0  0  0  0
  -27.6528  -13.2097   19.8632 C   0  0  2  0  0  0
  -28.6966  -13.0487   20.9928 C   0  0  0  0  0  0
  -25.2555  -13.8172   20.5688 C   0  0  0  0  0  0
  -24.1820  -13.0445   20.9204 C   0  0  0  0  0  0
  -24.6364  -11.6906   20.8731 C   0  0  0  0  0  0
  -23.9030  -10.4290   21.0404 C   0  0  0  0  0  0
  -24.3588   -9.4220   21.9184 C   0  0  0  0  0  0
  -23.6277   -8.2245   22.0750 C   0  0  0  0  0  0
  -22.4271   -8.0267   21.3543 C   0  0  0  0  0  0
  -21.9889   -9.0242   20.4654 C   0  0  0  0  0  0
  -22.7202  -10.2128   20.3063 C   0  0  0  0  0  0
  -21.6852   -6.0722   22.5279 C   0  0  0  0  0  0
  -21.4016   -6.5625   23.8209 C   0  0  0  0  0  0
  -21.3667   -5.6783   24.9174 C   0  0  0  0  0  0
  -21.6055   -4.3047   24.7228 C   0  0  0  0  0  0
  -21.8816   -3.8135   23.4346 C   0  0  0  0  0  0
  -21.9192   -4.6945   22.3402 C   0  0  0  0  0  0
  -22.7844  -13.5257   21.1846 C   0  0  0  0  0  0
  -22.1661   -4.2130   21.0980 F   0  0  0  0  0  0
  -21.5634   -3.4533   25.7745 F   0  0  0  0  0  0
  -30.0145  -13.3694   20.4280 N   0  0  0  0  0  0
  -26.2971  -12.9334   20.3308 N   0  0  0  0  0  0
  -25.9290  -11.6494   20.5746 N   0  0  0  0  0  0
  -22.0453  -12.8275   22.0401 N   0  0  0  0  0  0
  -25.4274  -15.1896   20.4096 N   0  0  0  0  0  0
  -31.8210  -14.7202   20.1696 O   0  0  0  0  0  0
  -21.6636   -6.8859   21.4240 O   0  0  0  0  0  0
  -22.3541  -14.5556   20.6671 O   0  0  0  0  0  0
  -24.6186  -31.8661   23.2055 C   0  0  0  0  0  0
  -25.9058  -32.4820   23.8372 C   0  0  1  0  0  0
  -27.2270  -27.3908   20.1129 C   0  0  0  0  0  0
  -25.5894  -33.8618   24.2298 N   0  0  0  0  0  0
  -23.4093  -30.4884   21.5477 C   0  0  2  0  0  0
  -24.8548  -28.9438   20.1198 C   0  0  0  0  0  0
  -22.7439  -29.4659   22.4973 C   0  0  0  0  0  0
  -18.0277  -28.1396   22.8489 C   0  0  0  0  0  0
  -24.1479  -36.7319   23.2635 C   0  0  0  0  0  0
  -25.9423  -30.8186   21.3653 C   0  0  0  0  0  0
  -26.0188  -29.4477   20.7151 C   0  0  0  0  0  0
  -27.2124  -28.6815   20.7025 C   0  0  0  0  0  0
  -26.0483  -26.9070   19.5141 C   0  0  0  0  0  0
  -24.8661  -27.6744   19.5137 C   0  0  0  0  0  0
  -23.6198  -29.8185   20.1641 C   0  0  0  0  0  0
  -25.4102  -36.3117   24.0333 C   0  0  1  0  0  0
  -20.5871  -28.3690   23.1312 C   0  0  2  0  0  0
  -20.6780  -26.9426   22.5420 C   0  0  0  0  0  0
  -19.5752  -26.6397   21.5224 C   0  0  0  0  0  0
  -18.1928  -26.7939   22.1629 C   0  0  0  0  0  0
  -19.1531  -28.8853   23.2893 C   0  0  0  0  0  0
  -18.9456  -30.1460   23.8902 C   0  0  0  0  0  0
  -17.6461  -30.6592   24.0572 C   0  0  0  0  0  0
  -25.9046  -34.9485   23.5121 C   0  0  0  0  0  0
  -16.5348  -29.9100   23.6329 C   0  0  0  0  0  0
  -16.7269  -28.6524   23.0336 C   0  0  0  0  0  0
  -26.4464  -31.6606   25.0719 C   0  0  0  0  0  0
  -25.3721  -31.3723   26.1468 C   0  0  0  0  0  0
  -27.0302  -30.3038   24.6135 C   0  0  0  0  0  0
  -27.6033  -32.4334   25.7485 C   0  0  0  0  0  0
  -27.5587  -37.1804   24.8451 C   0  0  0  0  0  0
  -21.4163  -29.3042   22.3709 N   0  0  0  0  0  0
  -26.4280  -37.3811   23.9427 N   0  0  0  0  0  0
  -24.6754  -31.0729   22.0979 N   0  0  0  0  0  0
  -23.4188  -28.8214   23.3042 O   0  0  0  0  0  0
  -28.3696  -26.6151   20.0553 O   0  0  0  0  0  0
  -26.5628  -34.8946   22.4696 O   0  0  0  0  0  0
  -23.5368  -32.1428   23.7419 O   0  0  0  0  0  0
  -31.1291  -19.2644   21.3104 C   0  0  0  0  0  0
  -29.8828  -19.3305   20.7308 C   0  0  0  0  0  0
  -30.1868  -17.0294   20.8803 C   0  0  0  0  0  0
  -29.2791  -20.6624   20.2872 C   0  0  0  0  0  0
  -30.8873  -23.4046   20.3342 C   0  0  0  0  0  0
  -28.4023  -24.0479   20.5126 C   0  0  0  0  0  0
  -28.4851  -25.5408   21.0214 C   0  0  0  0  0  0
  -29.5592  -23.1298   21.0598 C   0  0  1  0  0  0
  -29.3501  -18.0284   20.5102 N   0  0  0  0  0  0
  -29.8353  -15.6402   20.7743 N   0  0  0  0  0  0
  -29.3583  -21.6571   21.2015 N   0  0  0  0  0  0
  -28.8301  -20.8384   19.1520 O   0  0  0  0  0  0
  -31.6935  -17.6296   21.5628 S   0  0  0  0  0  0
  -31.4770  -12.4636   19.1545 H   0  0  0  0  0  0
  -30.3487  -11.3540   19.8796 H   0  0  0  0  0  0
  -29.7608  -11.7556   17.4622 H   0  0  0  0  0  0
  -29.6645  -13.4749   17.7555 H   0  0  0  0  0  0
  -27.8503  -11.2945   18.8493 H   0  0  0  0  0  0
  -27.3763  -12.5957   17.7881 H   0  0  0  0  0  0
  -27.6753  -14.2464   19.5273 H   0  0  0  0  0  0
  -28.6951  -12.0284   21.3785 H   0  0  0  0  0  0
  -28.4543  -13.6846   21.8460 H   0  0  0  0  0  0
  -25.2721   -9.5720   22.4766 H   0  0  0  0  0  0
  -24.0002   -7.4642   22.7474 H   0  0  0  0  0  0
  -21.0816   -8.8766   19.8960 H   0  0  0  0  0  0
  -22.3654  -10.9671   19.6182 H   0  0  0  0  0  0
  -21.2005   -7.6137   23.9714 H   0  0  0  0  0  0
  -21.1496   -6.0507   25.9079 H   0  0  0  0  0  0
  -22.0586   -2.7594   23.2850 H   0  0  0  0  0  0
  -22.4020  -11.9948   22.4853 H   0  0  0  0  0  0
  -21.1068  -13.1350   22.2550 H   0  0  0  0  0  0
  -24.6575  -15.8415   20.5164 H   0  0  0  0  0  0
  -26.2682  -15.6305   20.0588 H   0  0  0  0  0  0
  -26.7134  -32.5523   23.1139 H   0  0  0  0  0  0
  -24.9993  -33.9758   25.0407 H   0  0  0  0  0  0
  -22.7007  -31.3066   21.4064 H   0  0  0  0  0  0
  -23.3754  -35.9637   23.3267 H   0  0  0  0  0  0
  -24.3572  -36.8971   22.2056 H   0  0  0  0  0  0
  -23.7210  -37.6502   23.6677 H   0  0  0  0  0  0
  -26.0601  -31.5808   20.5937 H   0  0  0  0  0  0
  -26.8287  -30.8732   21.9859 H   0  0  0  0  0  0
  -28.1171  -29.0720   21.1475 H   0  0  0  0  0  0
  -26.0468  -25.9332   19.0452 H   0  0  0  0  0  0
  -23.9726  -27.2808   19.0484 H   0  0  0  0  0  0
  -23.7338  -30.5931   19.4051 H   0  0  0  0  0  0
  -22.7418  -29.2429   19.8664 H   0  0  0  0  0  0
  -25.1270  -36.1974   25.0823 H   0  0  0  0  0  0
  -20.9959  -28.3269   24.1435 H   0  0  0  0  0  0
  -20.5721  -26.2300   23.3616 H   0  0  0  0  0  0
  -21.6654  -26.7500   22.1198 H   0  0  0  0  0  0
  -19.6933  -25.6314   21.1244 H   0  0  0  0  0  0
  -19.6685  -27.3222   20.6770 H   0  0  0  0  0  0
  -17.4214  -26.6694   21.4013 H   0  0  0  0  0  0
  -18.0312  -26.0073   22.9018 H   0  0  0  0  0  0
  -19.7934  -30.7273   24.2267 H   0  0  0  0  0  0
  -17.5020  -31.6273   24.5191 H   0  0  0  0  0  0
  -15.5350  -30.3012   23.7641 H   0  0  0  0  0  0
  -15.8673  -28.0859   22.7021 H   0  0  0  0  0  0
  -24.5867  -30.7106   25.7791 H   0  0  0  0  0  0
  -24.8947  -32.2890   26.4948 H   0  0  0  0  0  0
  -25.8062  -30.8850   27.0211 H   0  0  0  0  0  0
  -26.2862  -29.6798   24.1177 H   0  0  0  0  0  0
  -27.4027  -29.7278   25.4616 H   0  0  0  0  0  0
  -27.8714  -30.4315   23.9318 H   0  0  0  0  0  0
  -27.2640  -33.3618   26.2088 H   0  0  0  0  0  0
  -28.3834  -32.6929   25.0317 H   0  0  0  0  0  0
  -28.0729  -31.8461   26.5385 H   0  0  0  0  0  0
  -28.2577  -38.0132   24.7577 H   0  0  0  0  0  0
  -28.1113  -36.2677   24.6173 H   0  0  0  0  0  0
  -27.2326  -37.1336   25.8854 H   0  0  0  0  0  0
  -20.9346  -29.8707   21.6870 H   0  0  0  0  0  0
  -26.0167  -38.2880   24.1464 H   0  0  0  0  0  0
  -31.7774  -20.0946   21.5570 H   0  0  0  0  0  0
  -31.1405  -24.4643   20.3596 H   0  0  0  0  0  0
  -30.8372  -23.1051   19.2874 H   0  0  0  0  0  0
  -31.7154  -22.8660   20.7966 H   0  0  0  0  0  0
  -28.4011  -24.0326   19.4229 H   0  0  0  0  0  0
  -27.4361  -23.6419   20.8128 H   0  0  0  0  0  0
  -29.4597  -25.6990   21.4839 H   0  0  0  0  0  0
  -27.7738  -25.6814   21.8367 H   0  0  0  0  0  0
  -29.7045  -23.4423   22.0949 H   0  0  0  0  0  0
  -28.8555  -15.4290   20.8667 H   0  0  0  0  0  0
  -29.6006  -21.3020   22.1179 H   0  0  0  0  0  0
  1 25  1  0  0  0
  1 30  2  0  0  0
  1 80  1  0  0  0
  2  3  1  0  0  0
  2 25  1  0  0  0
  2 84  1  0  0  0
  2 85  1  0  0  0
  3  4  1  0  0  0
  3 86  1  0  0  0
  3 87  1  0  0  0
  4  5  1  0  0  0
  4 88  1  0  0  0
  4 89  1  0  0  0
  5  6  1  0  0  0
  5 26  1  0  0  0
  5 90  1  0  0  0
  6 25  1  0  0  0
  6 91  1  0  0  0
  6 92  1  0  0  0
  7  8  2  0  0  0
  7 26  1  0  0  0
  7 29  1  0  0  0
  8  9  1  0  0  0
  8 22  1  0  0  0
  9 10  1  0  0  0
  9 27  2  0  0  0
 10 11  2  0  0  0
 10 15  1  0  0  0
 11 12  1  0  0  0
 11 93  1  0  0  0
 12 13  2  0  0  0
 12 94  1  0  0  0
 13 14  1  0  0  0
 13 31  1  0  0  0
 14 15  2  0  0  0
 14 95  1  0  0  0
 15 96  1  0  0  0
 16 17  2  0  0  0
 16 21  1  0  0  0
 16 31  1  0  0  0
 17 18  1  0  0  0
 17 97  1  0  0  0
 18 19  2  0  0  0
 18 98  1  0  0  0
 19 20  1  0  0  0
 19 24  1  0  0  0
 20 21  2  0  0  0
 20 99  1  0  0  0
 21 23  1  0  0  0
 22 28  1  0  0  0
 22 32  2  0  0  0
 26 27  1  0  0  0
 28100  1  0  0  0
 28101  1  0  0  0
 29102  1  0  0  0
 29103  1  0  0  0
 33 34  1  0  0  0
 33 66  1  0  0  0
 33 70  2  0  0  0
 34 36  1  0  0  0
 34 59  1  0  0  0
 34104  1  0  0  0
 35 44  2  0  0  0
 35 45  1  0  0  0
 35 68  1  0  0  0
 36 56  1  0  0  0
 36105  1  0  0  0
 37 39  1  0  0  0
 37 47  1  0  0  0
 37 66  1  0  0  0
 37106  1  0  0  0
 38 43  2  0  0  0
 38 46  1  0  0  0
 38 47  1  0  0  0
 39 64  1  0  0  0
 39 67  2  0  0  0
 40 52  1  0  0  0
 40 53  2  0  0  0
 40 58  1  0  0  0
 41107  1  0  0  0
 41108  1  0  0  0
 41109  1  0  0  0
 41 48  1  0  0  0
 42 43  1  0  0  0
 42 66  1  0  0  0
 42110  1  0  0  0
 42111  1  0  0  0
 43 44  1  0  0  0
 44112  1  0  0  0
 45 46  2  0  0  0
 45113  1  0  0  0
 46114  1  0  0  0
 47115  1  0  0  0
 47116  1  0  0  0
 48 56  1  0  0  0
 48 65  1  0  0  0
 48117  1  0  0  0
 49 50  1  0  0  0
 49 53  1  0  0  0
 49 64  1  0  0  0
 49118  1  0  0  0
 50 51  1  0  0  0
 50119  1  0  0  0
 50120  1  0  0  0
 51 52  1  0  0  0
 51121  1  0  0  0
 51122  1  0  0  0
 52123  1  0  0  0
 52124  1  0  0  0
 53 54  1  0  0  0
 54 55  2  0  0  0
 54125  1  0  0  0
 55 57  1  0  0  0
 55126  1  0  0  0
 56 69  2  0  0  0
 57 58  2  0  0  0
 57127  1  0  0  0
 58128  1  0  0  0
 59 60  1  0  0  0
 59 61  1  0  0  0
 59 62  1  0  0  0
 60129  1  0  0  0
 60130  1  0  0  0
 60131  1  0  0  0
 61132  1  0  0  0
 61133  1  0  0  0
 61134  1  0  0  0
 62135  1  0  0  0
 62136  1  0  0  0
 62137  1  0  0  0
 63 65  1  0  0  0
 63138  1  0  0  0
 63139  1  0  0  0
 63140  1  0  0  0
 64141  1  0  0  0
 65142  1  0  0  0
 68 77  1  0  0  0
 71 72  2  0  0  0
 71 83  1  0  0  0
 71143  1  0  0  0
 72 74  1  0  0  0
 72 79  1  0  0  0
 73 79  2  0  0  0
 73 80  1  0  0  0
 73 83  1  0  0  0
 74 81  1  0  0  0
 74 82  2  0  0  0
 75144  1  0  0  0
 75145  1  0  0  0
 75146  1  0  0  0
 75 78  1  0  0  0
 76 77  1  0  0  0
 76 78  1  0  0  0
 76147  1  0  0  0
 76148  1  0  0  0
 77149  1  0  0  0
 77150  1  0  0  0
 78 81  1  0  0  0
 78151  1  0  0  0
 80152  1  0  0  0
 81153  1  0  0  0
M  ISO  4   1 100  68 101  77 101  80 100
M  END
> <chiral flag>
0

> <version>
0

> <s_m_source_file>
/data/baiqing/PycharmProjects/Reinvent-master-3.2/result/LINK_invent/BTK/process_docking_weight1_custom_product_contain_oxygen_bond_distance_aromatic_linkinvent_7_9_3/rearranged_h_0192.sdf

> <i_m_source_file_index>
70

> <r_mmod_Potential_Energy-OPLS-2005>
-80.8890991210938

> <r_mmod_Stretch_Energy-OPLS-2005>
50.7913780212402

> <r_mmod_Bend_Energy-OPLS-2005>
124.724655151367

> <r_mmod_Torsional_Energy-OPLS-2005>
276.070098876953

> <r_mmod_Improper_Torsional_Energy-OPLS-2005>
7.94178867340088

> <r_mmod_Van_der_Waal_Energy-OPLS-2005>
117.233512878418

> <r_mmod_Electrostatic_Energy-OPLS-2005>
-439.843475341797

> <r_mmod_Solvation_Energy-OPLS-2005>
-244.625915527344

> <b_mmod_Minimization_Converged-OPLS-2005>
0

> <r_mmod_RMS_Derivative-OPLS-2005>
2.20886778831482

$$$$
71
                    3D
 Structure written by MMmdl.
153161  0  0  1  0            999 V2000
  -30.6664  -14.5638   20.5328 C   0  0  0  0  0  0
  -30.4380  -12.3532   19.4537 C   0  0  0  0  0  0
  -29.5239  -12.5344   18.2216 C   0  0  0  0  0  0
  -28.0418  -12.3626   18.6179 C   0  0  0  0  0  0
  -27.6632  -13.2116   19.8614 C   0  0  2  0  0  0
  -28.7003  -13.0428   20.9988 C   0  0  0  0  0  0
  -25.2583  -13.8160   20.5606 C   0  0  0  0  0  0
  -24.1842  -13.0436   20.9131 C   0  0  0  0  0  0
  -24.6399  -11.6916   20.8656 C   0  0  0  0  0  0
  -23.9045  -10.4315   21.0342 C   0  0  0  0  0  0
  -24.3619   -9.4246   21.9139 C   0  0  0  0  0  0
  -23.6316   -8.2273   22.0721 C   0  0  0  0  0  0
  -22.4309   -8.0287   21.3504 C   0  0  0  0  0  0
  -21.9910   -9.0257   20.4611 C   0  0  0  0  0  0
  -22.7208  -10.2152   20.3006 C   0  0  0  0  0  0
  -21.6870   -6.0745   22.5284 C   0  0  0  0  0  0
  -21.4029   -6.5639   23.8214 C   0  0  0  0  0  0
  -21.3655   -5.6787   24.9172 C   0  0  0  0  0  0
  -21.6067   -4.3056   24.7205 C   0  0  0  0  0  0
  -21.8823   -3.8133   23.4320 C   0  0  0  0  0  0
  -21.9190   -4.6960   22.3393 C   0  0  0  0  0  0
  -22.7862  -13.5253   21.1806 C   0  0  0  0  0  0
  -22.1660   -4.2156   21.0956 F   0  0  0  0  0  0
  -21.5635   -3.4529   25.7709 F   0  0  0  0  0  0
  -30.0345  -13.3549   20.4561 N   0  0  0  0  0  0
  -26.3029  -12.9346   20.3227 N   0  0  0  0  0  0
  -25.9328  -11.6505   20.5643 N   0  0  0  0  0  0
  -22.0486  -12.8293   22.0385 N   0  0  0  0  0  0
  -25.4256  -15.1875   20.4057 N   0  0  0  0  0  0
  -31.7884  -14.7514   20.0534 O   0  0  0  0  0  0
  -21.6652   -6.8895   21.4241 O   0  0  0  0  0  0
  -22.3581  -14.5580   20.6638 O   0  0  0  0  0  0
  -24.6167  -31.8651   23.2030 C   0  0  0  0  0  0
  -25.9042  -32.4804   23.8345 C   0  0  1  0  0  0
  -27.2441  -27.4130   20.1038 C   0  0  0  0  0  0
  -25.5863  -33.8594   24.2273 N   0  0  0  0  0  0
  -23.4056  -30.4872   21.5432 C   0  0  2  0  0  0
  -24.8560  -28.9426   20.1150 C   0  0  0  0  0  0
  -22.7395  -29.4659   22.4943 C   0  0  0  0  0  0
  -18.0275  -28.1324   22.8511 C   0  0  0  0  0  0
  -24.1486  -36.7330   23.2644 C   0  0  0  0  0  0
  -25.9366  -30.8261   21.3577 C   0  0  0  0  0  0
  -26.0169  -29.4570   20.7051 C   0  0  0  0  0  0
  -27.2165  -28.7036   20.6879 C   0  0  0  0  0  0
  -26.0688  -26.9189   19.5052 C   0  0  0  0  0  0
  -24.8767  -27.6718   19.5094 C   0  0  0  0  0  0
  -23.6166  -29.8079   20.1627 C   0  0  0  0  0  0
  -25.4097  -36.3099   24.0344 C   0  0  1  0  0  0
  -20.5872  -28.3642   23.1306 C   0  0  2  0  0  0
  -20.6738  -26.9362   22.5417 C   0  0  0  0  0  0
  -19.5744  -26.6350   21.5190 C   0  0  0  0  0  0
  -18.1922  -26.7888   22.1594 C   0  0  0  0  0  0
  -19.1522  -28.8791   23.2924 C   0  0  0  0  0  0
  -18.9427  -30.1377   23.8978 C   0  0  0  0  0  0
  -17.6432  -30.6545   24.0545 C   0  0  0  0  0  0
  -25.9020  -34.9475   23.5109 C   0  0  0  0  0  0
  -16.5335  -29.9054   23.6277 C   0  0  0  0  0  0
  -16.7259  -28.6431   23.0378 C   0  0  0  0  0  0
  -26.4452  -31.6606   25.0691 C   0  0  0  0  0  0
  -25.3696  -31.3758   26.1433 C   0  0  0  0  0  0
  -27.0290  -30.3038   24.6115 C   0  0  0  0  0  0
  -27.6026  -32.4350   25.7440 C   0  0  0  0  0  0
  -27.5607  -37.1782   24.8432 C   0  0  0  0  0  0
  -21.4121  -29.3019   22.3687 N   0  0  0  0  0  0
  -26.4283  -37.3783   23.9425 N   0  0  0  0  0  0
  -24.6714  -31.0758   22.0918 N   0  0  0  0  0  0
  -23.4168  -28.8207   23.2989 O   0  0  0  0  0  0
  -28.4064  -26.6582   20.0813 O   0  0  0  0  0  0
  -26.5595  -34.8936   22.4684 O   0  0  0  0  0  0
  -23.5370  -32.1403   23.7436 O   0  0  0  0  0  0
  -28.6542  -18.8447   19.5254 C   0  0  0  0  0  0
  -29.6004  -19.1722   20.4680 C   0  0  0  0  0  0
  -29.7125  -16.8500   20.5291 C   0  0  0  0  0  0
  -29.6330  -23.0382   20.4340 C   0  0  0  0  0  0
  -30.0022  -20.6636   22.4673 C   0  0  0  0  0  0
  -28.7629  -24.1458   19.7742 C   0  0  0  0  0  0
  -28.3528  -25.3453   20.6998 C   0  0  0  0  0  0
  -30.0339  -20.5796   20.9255 C   0  0  2  0  0  0
  -30.2025  -18.0080   21.0192 N   0  0  0  0  0  0
  -29.9662  -15.5635   21.1061 N   0  0  0  0  0  0
  -29.2854  -21.7269   20.3329 N   0  0  0  0  0  0
  -30.6586  -23.3847   21.0239 O   0  0  0  0  0  0
  -28.4910  -17.1149   19.2952 S   0  0  0  0  0  0
  -31.4903  -12.4500   19.1774 H   0  0  0  0  0  0
  -30.3331  -11.3481   19.8657 H   0  0  0  0  0  0
  -29.8025  -11.8189   17.4458 H   0  0  0  0  0  0
  -29.6754  -13.5290   17.7979 H   0  0  0  0  0  0
  -27.8768  -11.3064   18.8264 H   0  0  0  0  0  0
  -27.3914  -12.6102   17.7767 H   0  0  0  0  0  0
  -27.6881  -14.2509   19.5399 H   0  0  0  0  0  0
  -28.6911  -12.0234   21.3814 H   0  0  0  0  0  0
  -28.4411  -13.6712   21.8522 H   0  0  0  0  0  0
  -25.2765   -9.5784   22.4676 H   0  0  0  0  0  0
  -24.0058   -7.4707   22.7464 H   0  0  0  0  0  0
  -21.0829   -8.8760   19.8962 H   0  0  0  0  0  0
  -22.3634  -10.9676   19.6116 H   0  0  0  0  0  0
  -21.2024   -7.6155   23.9735 H   0  0  0  0  0  0
  -21.1484   -6.0490   25.9092 H   0  0  0  0  0  0
  -22.0597   -2.7594   23.2785 H   0  0  0  0  0  0
  -22.4055  -11.9981   22.4856 H   0  0  0  0  0  0
  -21.1079  -13.1302   22.2476 H   0  0  0  0  0  0
  -24.6465  -15.8279   20.5061 H   0  0  0  0  0  0
  -26.2677  -15.6416   20.0764 H   0  0  0  0  0  0
  -26.7127  -32.5538   23.1137 H   0  0  0  0  0  0
  -24.9971  -33.9729   25.0385 H   0  0  0  0  0  0
  -22.6975  -31.3054   21.3953 H   0  0  0  0  0  0
  -23.3759  -35.9645   23.3229 H   0  0  0  0  0  0
  -24.3620  -36.9017   22.2076 H   0  0  0  0  0  0
  -23.7204  -37.6501   23.6708 H   0  0  0  0  0  0
  -26.0564  -31.5916   20.5911 H   0  0  0  0  0  0
  -26.8229  -30.8802   21.9772 H   0  0  0  0  0  0
  -28.1178  -29.1063   21.1284 H   0  0  0  0  0  0
  -26.0799  -25.9530   19.0219 H   0  0  0  0  0  0
  -23.9865  -27.2716   19.0450 H   0  0  0  0  0  0
  -23.7203  -30.5754   19.3946 H   0  0  0  0  0  0
  -22.7401  -29.2228   19.8787 H   0  0  0  0  0  0
  -25.1272  -36.1951   25.0833 H   0  0  0  0  0  0
  -21.0028  -28.3206   24.1404 H   0  0  0  0  0  0
  -20.5550  -26.2251   23.3606 H   0  0  0  0  0  0
  -21.6610  -26.7329   22.1258 H   0  0  0  0  0  0
  -19.6886  -25.6264   21.1195 H   0  0  0  0  0  0
  -19.6700  -27.3168   20.6735 H   0  0  0  0  0  0
  -17.4193  -26.6702   21.3978 H   0  0  0  0  0  0
  -18.0293  -25.9980   22.8941 H   0  0  0  0  0  0
  -19.7897  -30.7139   24.2446 H   0  0  0  0  0  0
  -17.4980  -31.6246   24.5098 H   0  0  0  0  0  0
  -15.5334  -30.2977   23.7517 H   0  0  0  0  0  0
  -15.8662  -28.0724   22.7132 H   0  0  0  0  0  0
  -24.5809  -30.7179   25.7764 H   0  0  0  0  0  0
  -24.8945  -32.2935   26.4915 H   0  0  0  0  0  0
  -25.7993  -30.8869   27.0181 H   0  0  0  0  0  0
  -26.2841  -29.6779   24.1182 H   0  0  0  0  0  0
  -27.4054  -29.7306   25.4603 H   0  0  0  0  0  0
  -27.8679  -30.4342   23.9270 H   0  0  0  0  0  0
  -27.2623  -33.3613   26.2094 H   0  0  0  0  0  0
  -28.3771  -32.6996   25.0221 H   0  0  0  0  0  0
  -28.0783  -31.8441   26.5284 H   0  0  0  0  0  0
  -28.2552  -38.0153   24.7574 H   0  0  0  0  0  0
  -28.1174  -36.2695   24.6099 H   0  0  0  0  0  0
  -27.2369  -37.1234   25.8839 H   0  0  0  0  0  0
  -20.9247  -29.8767   21.6958 H   0  0  0  0  0  0
  -26.0189  -38.2866   24.1422 H   0  0  0  0  0  0
  -28.0371  -19.5146   18.9410 H   0  0  0  0  0  0
  -30.6891  -19.9400   22.9075 H   0  0  0  0  0  0
  -29.0074  -20.4543   22.8639 H   0  0  0  0  0  0
  -30.3108  -21.6407   22.8415 H   0  0  0  0  0  0
  -27.8824  -23.7109   19.3040 H   0  0  0  0  0  0
  -29.3718  -24.5473   18.9652 H   0  0  0  0  0  0
  -29.0235  -25.3933   21.5582 H   0  0  0  0  0  0
  -27.3695  -25.1504   21.1297 H   0  0  0  0  0  0
  -31.0681  -20.7176   20.6109 H   0  0  0  0  0  0
  -29.1624  -15.1923   21.5872 H   0  0  0  0  0  0
  -28.4546  -21.5047   19.8015 H   0  0  0  0  0  0
  1 25  1  0  0  0
  1 30  2  0  0  0
  1 80  1  0  0  0
  2  3  1  0  0  0
  2 25  1  0  0  0
  2 84  1  0  0  0
  2 85  1  0  0  0
  3  4  1  0  0  0
  3 86  1  0  0  0
  3 87  1  0  0  0
  4  5  1  0  0  0
  4 88  1  0  0  0
  4 89  1  0  0  0
  5  6  1  0  0  0
  5 26  1  0  0  0
  5 90  1  0  0  0
  6 25  1  0  0  0
  6 91  1  0  0  0
  6 92  1  0  0  0
  7  8  2  0  0  0
  7 26  1  0  0  0
  7 29  1  0  0  0
  8  9  1  0  0  0
  8 22  1  0  0  0
  9 10  1  0  0  0
  9 27  2  0  0  0
 10 11  2  0  0  0
 10 15  1  0  0  0
 11 12  1  0  0  0
 11 93  1  0  0  0
 12 13  2  0  0  0
 12 94  1  0  0  0
 13 14  1  0  0  0
 13 31  1  0  0  0
 14 15  2  0  0  0
 14 95  1  0  0  0
 15 96  1  0  0  0
 16 17  2  0  0  0
 16 21  1  0  0  0
 16 31  1  0  0  0
 17 18  1  0  0  0
 17 97  1  0  0  0
 18 19  2  0  0  0
 18 98  1  0  0  0
 19 20  1  0  0  0
 19 24  1  0  0  0
 20 21  2  0  0  0
 20 99  1  0  0  0
 21 23  1  0  0  0
 22 28  1  0  0  0
 22 32  2  0  0  0
 26 27  1  0  0  0
 28100  1  0  0  0
 28101  1  0  0  0
 29102  1  0  0  0
 29103  1  0  0  0
 33 34  1  0  0  0
 33 66  1  0  0  0
 33 70  2  0  0  0
 34 36  1  0  0  0
 34 59  1  0  0  0
 34104  1  0  0  0
 35 44  2  0  0  0
 35 45  1  0  0  0
 35 68  1  0  0  0
 36 56  1  0  0  0
 36105  1  0  0  0
 37 39  1  0  0  0
 37 47  1  0  0  0
 37 66  1  0  0  0
 37106  1  0  0  0
 38 43  2  0  0  0
 38 46  1  0  0  0
 38 47  1  0  0  0
 39 64  1  0  0  0
 39 67  2  0  0  0
 40 52  1  0  0  0
 40 53  2  0  0  0
 40 58  1  0  0  0
 41107  1  0  0  0
 41108  1  0  0  0
 41109  1  0  0  0
 41 48  1  0  0  0
 42 43  1  0  0  0
 42 66  1  0  0  0
 42110  1  0  0  0
 42111  1  0  0  0
 43 44  1  0  0  0
 44112  1  0  0  0
 45 46  2  0  0  0
 45113  1  0  0  0
 46114  1  0  0  0
 47115  1  0  0  0
 47116  1  0  0  0
 48 56  1  0  0  0
 48 65  1  0  0  0
 48117  1  0  0  0
 49 50  1  0  0  0
 49 53  1  0  0  0
 49 64  1  0  0  0
 49118  1  0  0  0
 50 51  1  0  0  0
 50119  1  0  0  0
 50120  1  0  0  0
 51 52  1  0  0  0
 51121  1  0  0  0
 51122  1  0  0  0
 52123  1  0  0  0
 52124  1  0  0  0
 53 54  1  0  0  0
 54 55  2  0  0  0
 54125  1  0  0  0
 55 57  1  0  0  0
 55126  1  0  0  0
 56 69  2  0  0  0
 57 58  2  0  0  0
 57127  1  0  0  0
 58128  1  0  0  0
 59 60  1  0  0  0
 59 61  1  0  0  0
 59 62  1  0  0  0
 60129  1  0  0  0
 60130  1  0  0  0
 60131  1  0  0  0
 61132  1  0  0  0
 61133  1  0  0  0
 61134  1  0  0  0
 62135  1  0  0  0
 62136  1  0  0  0
 62137  1  0  0  0
 63 65  1  0  0  0
 63138  1  0  0  0
 63139  1  0  0  0
 63140  1  0  0  0
 64141  1  0  0  0
 65142  1  0  0  0
 68 77  1  0  0  0
 71 72  2  0  0  0
 71 83  1  0  0  0
 71143  1  0  0  0
 72 78  1  0  0  0
 72 79  1  0  0  0
 73 79  2  0  0  0
 73 80  1  0  0  0
 73 83  1  0  0  0
 74 76  1  0  0  0
 74 81  1  0  0  0
 74 82  2  0  0  0
 75144  1  0  0  0
 75145  1  0  0  0
 75146  1  0  0  0
 75 78  1  0  0  0
 76 77  1  0  0  0
 76147  1  0  0  0
 76148  1  0  0  0
 77149  1  0  0  0
 77150  1  0  0  0
 78 81  1  0  0  0
 78151  1  0  0  0
 80152  1  0  0  0
 81153  1  0  0  0
M  ISO  4   1 100  68 101  77 101  80 100
M  END
> <chiral flag>
0

> <version>
0

> <s_m_source_file>
/data/baiqing/PycharmProjects/Reinvent-master-3.2/result/LINK_invent/BTK/process_docking_weight1_custom_product_contain_oxygen_bond_distance_aromatic_linkinvent_7_9_3/rearranged_h_0192.sdf

> <i_m_source_file_index>
71

> <r_mmod_Potential_Energy-OPLS-2005>
-218.526611328125

> <r_mmod_Stretch_Energy-OPLS-2005>
48.7099761962891

> <r_mmod_Bend_Energy-OPLS-2005>
109.176773071289

> <r_mmod_Torsional_Energy-OPLS-2005>
251.250137329102

> <r_mmod_Improper_Torsional_Energy-OPLS-2005>
7.20021295547485

> <r_mmod_Van_der_Waal_Energy-OPLS-2005>
119.936744689941

> <r_mmod_Electrostatic_Energy-OPLS-2005>
-524.367797851562

> <r_mmod_Solvation_Energy-OPLS-2005>
-252.365203857422

> <b_mmod_Minimization_Converged-OPLS-2005>
0

> <r_mmod_RMS_Derivative-OPLS-2005>
4.80006313323975

$$$$
72
                    3D
 Structure written by MMmdl.
159167  0  0  1  0            999 V2000
  -30.5573  -14.7669   20.4508 C   0  0  0  0  0  0
  -30.4442  -12.4670   19.4628 C   0  0  0  0  0  0
  -29.5101  -12.5111   18.2307 C   0  0  0  0  0  0
  -28.0358  -12.3281   18.6463 C   0  0  0  0  0  0
  -27.6420  -13.2228   19.8509 C   0  0  2  0  0  0
  -28.6894  -13.1367   20.9830 C   0  0  0  0  0  0
  -25.2518  -13.8177   20.5688 C   0  0  0  0  0  0
  -24.1804  -13.0430   20.9213 C   0  0  0  0  0  0
  -24.6383  -11.6901   20.8748 C   0  0  0  0  0  0
  -23.9057  -10.4282   21.0411 C   0  0  0  0  0  0
  -24.3608   -9.4198   21.9192 C   0  0  0  0  0  0
  -23.6281   -8.2233   22.0759 C   0  0  0  0  0  0
  -22.4265   -8.0274   21.3543 C   0  0  0  0  0  0
  -21.9897   -9.0251   20.4649 C   0  0  0  0  0  0
  -22.7228  -10.2130   20.3061 C   0  0  0  0  0  0
  -21.6850   -6.0728   22.5270 C   0  0  0  0  0  0
  -21.4018   -6.5637   23.8204 C   0  0  0  0  0  0
  -21.3659   -5.6793   24.9169 C   0  0  0  0  0  0
  -21.6039   -4.3052   24.7224 C   0  0  0  0  0  0
  -21.8821   -3.8142   23.4347 C   0  0  0  0  0  0
  -21.9193   -4.6955   22.3399 C   0  0  0  0  0  0
  -22.7826  -13.5222   21.1871 C   0  0  0  0  0  0
  -22.1657   -4.2139   21.0975 F   0  0  0  0  0  0
  -21.5627   -3.4540   25.7740 F   0  0  0  0  0  0
  -29.9869  -13.5135   20.4044 N   0  0  0  0  0  0
  -26.2933  -12.9362   20.3276 N   0  0  0  0  0  0
  -25.9314  -11.6516   20.5756 N   0  0  0  0  0  0
  -22.0467  -12.8216   22.0428 N   0  0  0  0  0  0
  -25.4206  -15.1904   20.4074 N   0  0  0  0  0  0
  -31.7473  -14.9205   20.1549 O   0  0  0  0  0  0
  -21.6631   -6.8873   21.4231 O   0  0  0  0  0  0
  -22.3510  -14.5523   20.6707 O   0  0  0  0  0  0
  -24.6325  -31.8524   23.1944 C   0  0  0  0  0  0
  -25.9146  -32.4725   23.8301 C   0  0  1  0  0  0
  -27.2227  -27.2461   20.1409 C   0  0  0  0  0  0
  -25.5944  -33.8522   24.2233 N   0  0  0  0  0  0
  -23.4302  -30.4712   21.5399 C   0  0  2  0  0  0
  -24.8767  -28.9058   20.1199 C   0  0  0  0  0  0
  -22.7512  -29.4569   22.4916 C   0  0  0  0  0  0
  -18.0289  -28.1377   22.8458 C   0  0  0  0  0  0
  -24.1495  -36.7276   23.2643 C   0  0  0  0  0  0
  -25.9754  -30.7613   21.3738 C   0  0  0  0  0  0
  -26.0495  -29.3777   20.7244 C   0  0  0  0  0  0
  -27.2285  -28.5638   20.7158 C   0  0  0  0  0  0
  -26.0257  -26.8341   19.5232 C   0  0  0  0  0  0
  -24.8702  -27.6419   19.5078 C   0  0  0  0  0  0
  -23.6493  -29.7982   20.1588 C   0  0  0  0  0  0
  -25.4118  -36.3048   24.0329 C   0  0  1  0  0  0
  -20.5894  -28.3679   23.1265 C   0  0  2  0  0  0
  -20.6778  -26.9393   22.5407 C   0  0  0  0  0  0
  -19.5759  -26.6370   21.5203 C   0  0  0  0  0  0
  -18.1934  -26.7917   22.1607 C   0  0  0  0  0  0
  -19.1544  -28.8845   23.2849 C   0  0  0  0  0  0
  -18.9471  -30.1444   23.8870 C   0  0  0  0  0  0
  -17.6470  -30.6578   24.0544 C   0  0  0  0  0  0
  -25.9063  -34.9418   23.5083 C   0  0  0  0  0  0
  -16.5356  -29.9075   23.6328 C   0  0  0  0  0  0
  -16.7277  -28.6497   23.0338 C   0  0  0  0  0  0
  -26.4502  -31.6562   25.0705 C   0  0  0  0  0  0
  -25.3714  -31.3725   26.1425 C   0  0  0  0  0  0
  -27.0369  -30.2994   24.6186 C   0  0  0  0  0  0
  -27.6051  -32.4310   25.7478 C   0  0  0  0  0  0
  -27.5574  -37.1788   24.8460 C   0  0  0  0  0  0
  -21.4216  -29.3024   22.3671 N   0  0  0  0  0  0
  -26.4283  -37.3754   23.9410 N   0  0  0  0  0  0
  -24.6989  -31.0470   22.0922 N   0  0  0  0  0  0
  -23.4200  -28.8123   23.3038 O   0  0  0  0  0  0
  -28.3396  -26.3840   20.0778 O   0  0  0  0  0  0
  -26.5633  -34.8905   22.4648 O   0  0  0  0  0  0
  -23.5476  -32.1338   23.7250 O   0  0  0  0  0  0
  -30.8229  -18.1221   20.6953 C   0  0  0  0  0  0
  -29.7761  -17.2352   20.4850 C   0  0  0  0  0  0
  -29.2812  -19.8145   20.1215 C   0  0  0  0  0  0
  -28.1474  -23.6800   19.9837 C   0  0  0  0  0  0
  -28.9427  -23.2175   16.4451 C   0  0  0  0  0  0
  -27.1643  -21.3794   16.7330 C   0  0  0  0  0  0
  -28.3750  -25.0546   20.7903 C   0  0  0  0  0  0
  -29.4263  -21.2031   18.0238 C   0  0  0  0  0  0
  -28.7755  -21.1674   19.4470 C   0  0  2  0  0  0
  -28.6591  -21.7440   16.7852 C   0  0  0  0  0  0
  -30.5398  -19.5161   20.5064 N   0  0  0  0  0  0
  -29.6807  -15.8333   20.6116 N   0  0  0  0  0  0
  -28.9040  -22.5211   20.1697 N   0  0  0  0  0  0
  -27.1869  -23.6538   19.2164 O   0  0  0  0  0  0
  -28.3688  -18.2550   20.0479 S   0  0  0  0  0  0
  -31.4807  -12.6186   19.1570 H   0  0  0  0  0  0
  -30.4104  -11.4860   19.9385 H   0  0  0  0  0  0
  -29.7932  -11.7385   17.5143 H   0  0  0  0  0  0
  -29.6273  -13.4652   17.7142 H   0  0  0  0  0  0
  -27.8956  -11.2785   18.9068 H   0  0  0  0  0  0
  -27.3756  -12.5212   17.8002 H   0  0  0  0  0  0
  -27.6374  -14.2455   19.4746 H   0  0  0  0  0  0
  -28.7338  -12.1264   21.3923 H   0  0  0  0  0  0
  -28.4224  -13.7901   21.8157 H   0  0  0  0  0  0
  -25.2759   -9.5672   22.4766 H   0  0  0  0  0  0
  -23.9984   -7.4630   22.7485 H   0  0  0  0  0  0
  -21.0828   -8.8778   19.8962 H   0  0  0  0  0  0
  -22.3690  -10.9673   19.6170 H   0  0  0  0  0  0
  -21.2014   -7.6148   23.9705 H   0  0  0  0  0  0
  -21.1477   -6.0526   25.9073 H   0  0  0  0  0  0
  -22.0602   -2.7603   23.2851 H   0  0  0  0  0  0
  -22.4076  -11.9866   22.4804 H   0  0  0  0  0  0
  -21.1092  -13.1251   22.2652 H   0  0  0  0  0  0
  -24.6473  -15.8391   20.5117 H   0  0  0  0  0  0
  -26.2527  -15.6299   20.0374 H   0  0  0  0  0  0
  -26.7216  -32.5378   23.1047 H   0  0  0  0  0  0
  -25.0089  -33.9639   25.0381 H   0  0  0  0  0  0
  -22.7272  -31.2935   21.3910 H   0  0  0  0  0  0
  -23.3746  -35.9617   23.3292 H   0  0  0  0  0  0
  -24.3597  -36.8908   22.2061 H   0  0  0  0  0  0
  -23.7249  -37.6471   23.6680 H   0  0  0  0  0  0
  -26.1107  -31.5154   20.5980 H   0  0  0  0  0  0
  -26.8537  -30.8167   22.0057 H   0  0  0  0  0  0
  -28.1357  -28.9291   21.1756 H   0  0  0  0  0  0
  -25.9804  -25.8679   19.0417 H   0  0  0  0  0  0
  -23.9742  -27.2752   19.0252 H   0  0  0  0  0  0
  -23.7788  -30.5695   19.3990 H   0  0  0  0  0  0
  -22.7666  -29.2328   19.8538 H   0  0  0  0  0  0
  -25.1296  -36.1896   25.0821 H   0  0  0  0  0  0
  -20.9959  -28.3263   24.1395 H   0  0  0  0  0  0
  -20.5694  -26.2280   23.3603 H   0  0  0  0  0  0
  -21.6648  -26.7430   22.1196 H   0  0  0  0  0  0
  -19.6927  -25.6286   21.1224 H   0  0  0  0  0  0
  -19.6719  -27.3186   20.6736 H   0  0  0  0  0  0
  -17.4209  -26.6646   21.4007 H   0  0  0  0  0  0
  -18.0336  -26.0070   22.9016 H   0  0  0  0  0  0
  -19.7956  -30.7249   24.2236 H   0  0  0  0  0  0
  -17.5034  -31.6260   24.5143 H   0  0  0  0  0  0
  -15.5355  -30.2958   23.7685 H   0  0  0  0  0  0
  -15.8674  -28.0814   22.7051 H   0  0  0  0  0  0
  -24.5894  -30.7070   25.7750 H   0  0  0  0  0  0
  -24.8900  -32.2901   26.4819 H   0  0  0  0  0  0
  -25.8021  -30.8920   27.0220 H   0  0  0  0  0  0
  -26.2963  -29.6717   24.1221 H   0  0  0  0  0  0
  -27.4082  -29.7283   25.4700 H   0  0  0  0  0  0
  -27.8820  -30.4286   23.9420 H   0  0  0  0  0  0
  -27.2654  -33.3626   26.2019 H   0  0  0  0  0  0
  -28.3875  -32.6835   25.0308 H   0  0  0  0  0  0
  -28.0702  -31.8453   26.5417 H   0  0  0  0  0  0
  -28.2567  -38.0103   24.7505 H   0  0  0  0  0  0
  -28.1086  -36.2627   24.6286 H   0  0  0  0  0  0
  -27.2293  -37.1438   25.8861 H   0  0  0  0  0  0
  -20.9423  -29.8744   21.6858 H   0  0  0  0  0  0
  -26.0158  -38.2823   24.1417 H   0  0  0  0  0  0
  -31.8250  -17.8481   20.9950 H   0  0  0  0  0  0
  -28.4595  -23.5016   15.5090 H   0  0  0  0  0  0
  -30.0116  -23.3881   16.3149 H   0  0  0  0  0  0
  -28.5937  -23.9111   17.2031 H   0  0  0  0  0  0
  -26.7365  -21.6298   15.7614 H   0  0  0  0  0  0
  -26.5780  -21.9086   17.4824 H   0  0  0  0  0  0
  -27.0102  -20.3106   16.8877 H   0  0  0  0  0  0
  -29.3519  -24.9858   21.2674 H   0  0  0  0  0  0
  -27.6553  -25.0795   21.6099 H   0  0  0  0  0  0
  -29.6296  -20.1644   17.7541 H   0  0  0  0  0  0
  -30.4205  -21.6469   18.0842 H   0  0  0  0  0  0
  -27.7049  -21.0094   19.3264 H   0  0  0  0  0  0
  -29.0981  -21.2064   15.9427 H   0  0  0  0  0  0
  -28.7372  -15.5054   20.7447 H   0  0  0  0  0  0
  -29.6454  -22.5729   20.8549 H   0  0  0  0  0  0
  1 25  1  0  0  0
  1 30  2  0  0  0
  1 82  1  0  0  0
  2  3  1  0  0  0
  2 25  1  0  0  0
  2 86  1  0  0  0
  2 87  1  0  0  0
  3  4  1  0  0  0
  3 88  1  0  0  0
  3 89  1  0  0  0
  4  5  1  0  0  0
  4 90  1  0  0  0
  4 91  1  0  0  0
  5  6  1  0  0  0
  5 26  1  0  0  0
  5 92  1  0  0  0
  6 25  1  0  0  0
  6 93  1  0  0  0
  6 94  1  0  0  0
  7  8  2  0  0  0
  7 26  1  0  0  0
  7 29  1  0  0  0
  8  9  1  0  0  0
  8 22  1  0  0  0
  9 10  1  0  0  0
  9 27  2  0  0  0
 10 11  2  0  0  0
 10 15  1  0  0  0
 11 12  1  0  0  0
 11 95  1  0  0  0
 12 13  2  0  0  0
 12 96  1  0  0  0
 13 14  1  0  0  0
 13 31  1  0  0  0
 14 15  2  0  0  0
 14 97  1  0  0  0
 15 98  1  0  0  0
 16 17  2  0  0  0
 16 21  1  0  0  0
 16 31  1  0  0  0
 17 18  1  0  0  0
 17 99  1  0  0  0
 18 19  2  0  0  0
 18100  1  0  0  0
 19 20  1  0  0  0
 19 24  1  0  0  0
 20 21  2  0  0  0
 20101  1  0  0  0
 21 23  1  0  0  0
 22 28  1  0  0  0
 22 32  2  0  0  0
 26 27  1  0  0  0
 28102  1  0  0  0
 28103  1  0  0  0
 29104  1  0  0  0
 29105  1  0  0  0
 33 34  1  0  0  0
 33 66  1  0  0  0
 33 70  2  0  0  0
 34 36  1  0  0  0
 34 59  1  0  0  0
 34106  1  0  0  0
 35 44  2  0  0  0
 35 45  1  0  0  0
 35 68  1  0  0  0
 36 56  1  0  0  0
 36107  1  0  0  0
 37 39  1  0  0  0
 37 47  1  0  0  0
 37 66  1  0  0  0
 37108  1  0  0  0
 38 43  2  0  0  0
 38 46  1  0  0  0
 38 47  1  0  0  0
 39 64  1  0  0  0
 39 67  2  0  0  0
 40 52  1  0  0  0
 40 53  2  0  0  0
 40 58  1  0  0  0
 41109  1  0  0  0
 41110  1  0  0  0
 41111  1  0  0  0
 41 48  1  0  0  0
 42 43  1  0  0  0
 42 66  1  0  0  0
 42112  1  0  0  0
 42113  1  0  0  0
 43 44  1  0  0  0
 44114  1  0  0  0
 45 46  2  0  0  0
 45115  1  0  0  0
 46116  1  0  0  0
 47117  1  0  0  0
 47118  1  0  0  0
 48 56  1  0  0  0
 48 65  1  0  0  0
 48119  1  0  0  0
 49 50  1  0  0  0
 49 53  1  0  0  0
 49 64  1  0  0  0
 49120  1  0  0  0
 50 51  1  0  0  0
 50121  1  0  0  0
 50122  1  0  0  0
 51 52  1  0  0  0
 51123  1  0  0  0
 51124  1  0  0  0
 52125  1  0  0  0
 52126  1  0  0  0
 53 54  1  0  0  0
 54 55  2  0  0  0
 54127  1  0  0  0
 55 57  1  0  0  0
 55128  1  0  0  0
 56 69  2  0  0  0
 57 58  2  0  0  0
 57129  1  0  0  0
 58130  1  0  0  0
 59 60  1  0  0  0
 59 61  1  0  0  0
 59 62  1  0  0  0
 60131  1  0  0  0
 60132  1  0  0  0
 60133  1  0  0  0
 61134  1  0  0  0
 61135  1  0  0  0
 61136  1  0  0  0
 62137  1  0  0  0
 62138  1  0  0  0
 62139  1  0  0  0
 63 65  1  0  0  0
 63140  1  0  0  0
 63141  1  0  0  0
 63142  1  0  0  0
 64143  1  0  0  0
 65144  1  0  0  0
 68 77  1  0  0  0
 71 72  2  0  0  0
 71 81  1  0  0  0
 71145  1  0  0  0
 72 82  1  0  0  0
 72 85  1  0  0  0
 73 79  1  0  0  0
 73 81  2  0  0  0
 73 85  1  0  0  0
 74 77  1  0  0  0
 74 83  1  0  0  0
 74 84  2  0  0  0
 75146  1  0  0  0
 75147  1  0  0  0
 75148  1  0  0  0
 75 80  1  0  0  0
 76 80  1  0  0  0
 76149  1  0  0  0
 76150  1  0  0  0
 76151  1  0  0  0
 77152  1  0  0  0
 77153  1  0  0  0
 78 80  1  0  0  0
 78154  1  0  0  0
 78155  1  0  0  0
 78 79  1  0  0  0
 79 83  1  0  0  0
 79156  1  0  0  0
 80157  1  0  0  0
 82158  1  0  0  0
 83159  1  0  0  0
M  ISO  4   1 100  68 101  77 101  82 100
M  END
> <chiral flag>
0

> <version>
0

> <s_m_source_file>
/data/baiqing/PycharmProjects/Reinvent-master-3.2/result/LINK_invent/BTK/process_docking_weight1_custom_product_contain_oxygen_bond_distance_aromatic_linkinvent_7_9_3/rearranged_h_0192.sdf

> <i_m_source_file_index>
72

> <r_mmod_Potential_Energy-OPLS-2005>
131.796340942383

> <r_mmod_Stretch_Energy-OPLS-2005>
125.181831359863

> <r_mmod_Bend_Energy-OPLS-2005>
212.368530273438

> <r_mmod_Torsional_Energy-OPLS-2005>
241.979415893555

> <r_mmod_Improper_Torsional_Energy-OPLS-2005>
8.74381828308105

> <r_mmod_Van_der_Waal_Energy-OPLS-2005>
105.408905029297

> <r_mmod_Electrostatic_Energy-OPLS-2005>
-419.462188720703

> <r_mmod_Solvation_Energy-OPLS-2005>
-233.069564819336

> <b_mmod_Minimization_Converged-OPLS-2005>
0

> <r_mmod_RMS_Derivative-OPLS-2005>
1.62768137454987

$$$$
73
                    3D
 Structure written by MMmdl.
157165  0  0  1  0            999 V2000
  -30.6703  -14.5581   20.5109 C   0  0  0  0  0  0
  -30.4254  -12.3448   19.4370 C   0  0  0  0  0  0
  -29.4973  -12.4909   18.2130 C   0  0  0  0  0  0
  -28.0194  -12.3447   18.6273 C   0  0  0  0  0  0
  -27.6517  -13.2111   19.8617 C   0  0  2  0  0  0
  -28.6980  -13.0567   20.9883 C   0  0  0  0  0  0
  -25.2563  -13.8162   20.5686 C   0  0  0  0  0  0
  -24.1820  -13.0433   20.9192 C   0  0  0  0  0  0
  -24.6378  -11.6903   20.8740 C   0  0  0  0  0  0
  -23.9043  -10.4292   21.0409 C   0  0  0  0  0  0
  -24.3602   -9.4213   21.9182 C   0  0  0  0  0  0
  -23.6292   -8.2243   22.0749 C   0  0  0  0  0  0
  -22.4274   -8.0276   21.3543 C   0  0  0  0  0  0
  -21.9902   -9.0244   20.4643 C   0  0  0  0  0  0
  -22.7217  -10.2133   20.3059 C   0  0  0  0  0  0
  -21.6855   -6.0733   22.5278 C   0  0  0  0  0  0
  -21.4011   -6.5636   23.8209 C   0  0  0  0  0  0
  -21.3663   -5.6791   24.9174 C   0  0  0  0  0  0
  -21.6049   -4.3053   24.7228 C   0  0  0  0  0  0
  -21.8820   -3.8143   23.4349 C   0  0  0  0  0  0
  -21.9194   -4.6959   22.3405 C   0  0  0  0  0  0
  -22.7846  -13.5234   21.1859 C   0  0  0  0  0  0
  -22.1666   -4.2141   21.0985 F   0  0  0  0  0  0
  -21.5633   -3.4538   25.7744 F   0  0  0  0  0  0
  -30.0163  -13.3652   20.4167 N   0  0  0  0  0  0
  -26.2980  -12.9329   20.3328 N   0  0  0  0  0  0
  -25.9302  -11.6487   20.5751 N   0  0  0  0  0  0
  -22.0495  -12.8222   22.0418 N   0  0  0  0  0  0
  -25.4273  -15.1884   20.4085 N   0  0  0  0  0  0
  -31.8502  -14.6812   20.1703 O   0  0  0  0  0  0
  -21.6645   -6.8873   21.4237 O   0  0  0  0  0  0
  -22.3536  -14.5543   20.6714 O   0  0  0  0  0  0
  -24.6197  -31.8646   23.2061 C   0  0  0  0  0  0
  -25.9071  -32.4802   23.8370 C   0  0  1  0  0  0
  -27.2348  -27.3804   20.0977 C   0  0  0  0  0  0
  -25.5911  -33.8598   24.2305 N   0  0  0  0  0  0
  -23.4093  -30.4878   21.5479 C   0  0  2  0  0  0
  -24.8545  -28.9462   20.1126 C   0  0  0  0  0  0
  -22.7432  -29.4645   22.4967 C   0  0  0  0  0  0
  -18.0280  -28.1383   22.8497 C   0  0  0  0  0  0
  -24.1485  -36.7301   23.2640 C   0  0  0  0  0  0
  -25.9437  -30.8129   21.3662 C   0  0  0  0  0  0
  -26.0176  -29.4435   20.7112 C   0  0  0  0  0  0
  -27.2052  -28.6682   20.6992 C   0  0  0  0  0  0
  -26.0402  -26.9024   19.5095 C   0  0  0  0  0  0
  -24.8636  -27.6769   19.5104 C   0  0  0  0  0  0
  -23.6200  -29.8208   20.1624 C   0  0  0  0  0  0
  -25.4104  -36.3090   24.0337 C   0  0  1  0  0  0
  -20.5873  -28.3672   23.1313 C   0  0  2  0  0  0
  -20.6767  -26.9403   22.5419 C   0  0  0  0  0  0
  -19.5743  -26.6388   21.5220 C   0  0  0  0  0  0
  -18.1923  -26.7929   22.1631 C   0  0  0  0  0  0
  -19.1531  -28.8844   23.2903 C   0  0  0  0  0  0
  -18.9454  -30.1450   23.8911 C   0  0  0  0  0  0
  -17.6456  -30.6585   24.0569 C   0  0  0  0  0  0
  -25.9039  -34.9460   23.5119 C   0  0  0  0  0  0
  -16.5347  -29.9087   23.6329 C   0  0  0  0  0  0
  -16.7269  -28.6507   23.0350 C   0  0  0  0  0  0
  -26.4481  -31.6594   25.0718 C   0  0  0  0  0  0
  -25.3738  -31.3714   26.1464 C   0  0  0  0  0  0
  -27.0324  -30.3027   24.6130 C   0  0  0  0  0  0
  -27.6047  -32.4325   25.7482 C   0  0  0  0  0  0
  -27.5574  -37.1803   24.8468 C   0  0  0  0  0  0
  -21.4153  -29.3036   22.3709 N   0  0  0  0  0  0
  -26.4288  -37.3777   23.9412 N   0  0  0  0  0  0
  -24.6762  -31.0705   22.0982 N   0  0  0  0  0  0
  -23.4186  -28.8187   23.3027 O   0  0  0  0  0  0
  -28.4134  -26.6397   20.1314 O   0  0  0  0  0  0
  -26.5606  -34.8918   22.4683 O   0  0  0  0  0  0
  -23.5378  -32.1430   23.7425 O   0  0  0  0  0  0
  -30.3234  -19.2240   20.3697 C   0  0  0  0  0  0
  -30.3180  -17.0146   20.8073 C   0  0  0  0  0  0
  -29.7913  -20.1644   18.0862 C   0  0  0  0  0  0
  -27.4821  -22.5270   18.4586 C   0  0  0  0  0  0
  -28.4999  -24.0514   20.2310 C   0  0  0  0  0  0
  -28.5662  -25.3898   19.4027 C   0  0  0  0  0  0
  -30.0072  -20.5207   19.5727 C   0  0  1  0  0  0
  -28.7074  -22.7367   19.3782 C   0  0  1  0  0  0
  -29.6288  -18.0492   20.2849 N   0  0  0  0  0  0
  -31.4518  -19.1587   21.1108 N   0  0  0  0  0  0
  -29.8880  -15.6463   20.7362 N   0  0  0  0  0  0
  -28.9932  -21.4692   20.1584 N   0  3  0  0  0  0
  -31.7756  -17.5622   21.5760 S   0  0  0  0  0  0
  -31.4685  -12.4513   19.1325 H   0  0  0  0  0  0
  -30.3401  -11.3476   19.8719 H   0  0  0  0  0  0
  -29.7489  -11.7449   17.4582 H   0  0  0  0  0  0
  -29.6539  -13.4642   17.7445 H   0  0  0  0  0  0
  -27.8427  -11.2912   18.8485 H   0  0  0  0  0  0
  -27.3670  -12.5898   17.7882 H   0  0  0  0  0  0
  -27.6724  -14.2475   19.5246 H   0  0  0  0  0  0
  -28.6909  -12.0398   21.3832 H   0  0  0  0  0  0
  -28.4604  -13.7068   21.8320 H   0  0  0  0  0  0
  -25.2748   -9.5698   22.4751 H   0  0  0  0  0  0
  -24.0009   -7.4638   22.7468 H   0  0  0  0  0  0
  -21.0836   -8.8755   19.8946 H   0  0  0  0  0  0
  -22.3669  -10.9669   19.6169 H   0  0  0  0  0  0
  -21.1997   -7.6142   23.9706 H   0  0  0  0  0  0
  -21.1487   -6.0527   25.9076 H   0  0  0  0  0  0
  -22.0595   -2.7603   23.2856 H   0  0  0  0  0  0
  -22.4115  -11.9881   22.4793 H   0  0  0  0  0  0
  -21.1110  -13.1237   22.2627 H   0  0  0  0  0  0
  -24.6580  -15.8408   20.5164 H   0  0  0  0  0  0
  -26.2699  -15.6277   20.0600 H   0  0  0  0  0  0
  -26.7133  -32.5488   23.1119 H   0  0  0  0  0  0
  -25.0057  -33.9758   25.0447 H   0  0  0  0  0  0
  -22.7004  -31.3065   21.4078 H   0  0  0  0  0  0
  -23.3742  -35.9641   23.3309 H   0  0  0  0  0  0
  -24.3576  -36.8914   22.2052 H   0  0  0  0  0  0
  -23.7247  -37.6510   23.6657 H   0  0  0  0  0  0
  -26.0647  -31.5788   20.5987 H   0  0  0  0  0  0
  -26.8285  -30.8643   21.9891 H   0  0  0  0  0  0
  -28.1031  -29.0523   21.1626 H   0  0  0  0  0  0
  -25.9798  -25.9216   19.0638 H   0  0  0  0  0  0
  -23.9649  -27.2830   19.0551 H   0  0  0  0  0  0
  -23.7316  -30.5984   19.4061 H   0  0  0  0  0  0
  -22.7420  -29.2461   19.8624 H   0  0  0  0  0  0
  -25.1280  -36.1943   25.0830 H   0  0  0  0  0  0
  -20.9972  -28.3242   24.1433 H   0  0  0  0  0  0
  -20.5678  -26.2279   23.3609 H   0  0  0  0  0  0
  -21.6635  -26.7447   22.1203 H   0  0  0  0  0  0
  -19.6901  -25.6304   21.1238 H   0  0  0  0  0  0
  -19.6677  -27.3209   20.6758 H   0  0  0  0  0  0
  -17.4190  -26.6689   21.4032 H   0  0  0  0  0  0
  -18.0316  -26.0067   22.9022 H   0  0  0  0  0  0
  -19.7927  -30.7269   24.2278 H   0  0  0  0  0  0
  -17.5008  -31.6266   24.5169 H   0  0  0  0  0  0
  -15.5347  -30.2995   23.7640 H   0  0  0  0  0  0
  -15.8671  -28.0832   22.7052 H   0  0  0  0  0  0
  -24.5905  -30.7069   25.7803 H   0  0  0  0  0  0
  -24.8942  -32.2878   26.4907 H   0  0  0  0  0  0
  -25.8086  -30.8882   27.0224 H   0  0  0  0  0  0
  -26.2885  -29.6776   24.1177 H   0  0  0  0  0  0
  -27.4075  -29.7270   25.4604 H   0  0  0  0  0  0
  -27.8725  -30.4331   23.9305 H   0  0  0  0  0  0
  -27.2653  -33.3613   26.2072 H   0  0  0  0  0  0
  -28.3842  -32.6905   25.0304 H   0  0  0  0  0  0
  -28.0732  -31.8449   26.5385 H   0  0  0  0  0  0
  -28.2594  -38.0094   24.7503 H   0  0  0  0  0  0
  -28.1066  -36.2628   24.6302 H   0  0  0  0  0  0
  -27.2302  -37.1463   25.8873 H   0  0  0  0  0  0
  -20.9315  -29.8758   21.6929 H   0  0  0  0  0  0
  -26.0172  -38.2857   24.1403 H   0  0  0  0  0  0
  -29.7600  -21.0407   17.4409 H   0  0  0  0  0  0
  -28.8735  -19.5952   17.9422 H   0  0  0  0  0  0
  -30.6129  -19.5465   17.7238 H   0  0  0  0  0  0
  -27.3514  -23.3553   17.7637 H   0  0  0  0  0  0
  -26.5618  -22.4422   19.0376 H   0  0  0  0  0  0
  -27.5598  -21.6319   17.8451 H   0  0  0  0  0  0
  -27.5468  -24.0012   20.7589 H   0  0  0  0  0  0
  -29.2697  -24.1038   21.0019 H   0  0  0  0  0  0
  -27.9187  -25.3553   18.5301 H   0  0  0  0  0  0
  -29.5656  -25.4392   18.9688 H   0  0  0  0  0  0
  -30.9389  -21.0888   19.5960 H   0  0  0  0  0  0
  -29.5815  -22.9288   18.7534 H   0  0  0  0  0  0
  -28.8974  -15.4804   20.7978 H   0  0  0  0  0  0
  -29.3556  -21.7231   21.0636 H   0  0  0  0  0  0
  -28.1386  -20.9646   20.3261 H   0  0  0  0  0  0
  1 25  1  0  0  0
  1 30  2  0  0  0
  1 81  1  0  0  0
  2  3  1  0  0  0
  2 25  1  0  0  0
  2 84  1  0  0  0
  2 85  1  0  0  0
  3  4  1  0  0  0
  3 86  1  0  0  0
  3 87  1  0  0  0
  4  5  1  0  0  0
  4 88  1  0  0  0
  4 89  1  0  0  0
  5  6  1  0  0  0
  5 26  1  0  0  0
  5 90  1  0  0  0
  6 25  1  0  0  0
  6 91  1  0  0  0
  6 92  1  0  0  0
  7  8  2  0  0  0
  7 26  1  0  0  0
  7 29  1  0  0  0
  8  9  1  0  0  0
  8 22  1  0  0  0
  9 10  1  0  0  0
  9 27  2  0  0  0
 10 11  2  0  0  0
 10 15  1  0  0  0
 11 12  1  0  0  0
 11 93  1  0  0  0
 12 13  2  0  0  0
 12 94  1  0  0  0
 13 14  1  0  0  0
 13 31  1  0  0  0
 14 15  2  0  0  0
 14 95  1  0  0  0
 15 96  1  0  0  0
 16 17  2  0  0  0
 16 21  1  0  0  0
 16 31  1  0  0  0
 17 18  1  0  0  0
 17 97  1  0  0  0
 18 19  2  0  0  0
 18 98  1  0  0  0
 19 20  1  0  0  0
 19 24  1  0  0  0
 20 21  2  0  0  0
 20 99  1  0  0  0
 21 23  1  0  0  0
 22 28  1  0  0  0
 22 32  2  0  0  0
 26 27  1  0  0  0
 28100  1  0  0  0
 28101  1  0  0  0
 29102  1  0  0  0
 29103  1  0  0  0
 33 34  1  0  0  0
 33 66  1  0  0  0
 33 70  2  0  0  0
 34 36  1  0  0  0
 34 59  1  0  0  0
 34104  1  0  0  0
 35 44  2  0  0  0
 35 45  1  0  0  0
 35 68  1  0  0  0
 36 56  1  0  0  0
 36105  1  0  0  0
 37 39  1  0  0  0
 37 47  1  0  0  0
 37 66  1  0  0  0
 37106  1  0  0  0
 38 43  2  0  0  0
 38 46  1  0  0  0
 38 47  1  0  0  0
 39 64  1  0  0  0
 39 67  2  0  0  0
 40 52  1  0  0  0
 40 53  2  0  0  0
 40 58  1  0  0  0
 41107  1  0  0  0
 41108  1  0  0  0
 41109  1  0  0  0
 41 48  1  0  0  0
 42 43  1  0  0  0
 42 66  1  0  0  0
 42110  1  0  0  0
 42111  1  0  0  0
 43 44  1  0  0  0
 44112  1  0  0  0
 45 46  2  0  0  0
 45113  1  0  0  0
 46114  1  0  0  0
 47115  1  0  0  0
 47116  1  0  0  0
 48 56  1  0  0  0
 48 65  1  0  0  0
 48117  1  0  0  0
 49 50  1  0  0  0
 49 53  1  0  0  0
 49 64  1  0  0  0
 49118  1  0  0  0
 50 51  1  0  0  0
 50119  1  0  0  0
 50120  1  0  0  0
 51 52  1  0  0  0
 51121  1  0  0  0
 51122  1  0  0  0
 52123  1  0  0  0
 52124  1  0  0  0
 53 54  1  0  0  0
 54 55  2  0  0  0
 54125  1  0  0  0
 55 57  1  0  0  0
 55126  1  0  0  0
 56 69  2  0  0  0
 57 58  2  0  0  0
 57127  1  0  0  0
 58128  1  0  0  0
 59 60  1  0  0  0
 59 61  1  0  0  0
 59 62  1  0  0  0
 60129  1  0  0  0
 60130  1  0  0  0
 60131  1  0  0  0
 61132  1  0  0  0
 61133  1  0  0  0
 61134  1  0  0  0
 62135  1  0  0  0
 62136  1  0  0  0
 62137  1  0  0  0
 63 65  1  0  0  0
 63138  1  0  0  0
 63139  1  0  0  0
 63140  1  0  0  0
 64141  1  0  0  0
 65142  1  0  0  0
 68 76  1  0  0  0
 71 77  1  0  0  0
 71 79  1  0  0  0
 71 80  2  0  0  0
 72 79  2  0  0  0
 72 81  1  0  0  0
 72 83  1  0  0  0
 73143  1  0  0  0
 73144  1  0  0  0
 73145  1  0  0  0
 73 77  1  0  0  0
 74146  1  0  0  0
 74147  1  0  0  0
 74148  1  0  0  0
 74 78  1  0  0  0
 75 76  1  0  0  0
 75 78  1  0  0  0
 75149  1  0  0  0
 75150  1  0  0  0
 76151  1  0  0  0
 76152  1  0  0  0
 77 82  1  0  0  0
 77153  1  0  0  0
 78 82  1  0  0  0
 78154  1  0  0  0
 80 83  1  0  0  0
 81155  1  0  0  0
 82156  1  0  0  0
 82157  1  0  0  0
M  CHG  1  82   1
M  ISO  4   1 100  68 101  76 101  81 100
M  END
> <chiral flag>
0

> <version>
0

> <s_m_source_file>
/data/baiqing/PycharmProjects/Reinvent-master-3.2/result/LINK_invent/BTK/process_docking_weight1_custom_product_contain_oxygen_bond_distance_aromatic_linkinvent_7_9_3/rearranged_h_0192.sdf

> <i_m_source_file_index>
73

> <r_mmod_Potential_Energy-OPLS-2005>
-284.770111083984

> <r_mmod_Stretch_Energy-OPLS-2005>
56.4987640380859

> <r_mmod_Bend_Energy-OPLS-2005>
143.991119384766

> <r_mmod_Torsional_Energy-OPLS-2005>
223.052978515625

> <r_mmod_Improper_Torsional_Energy-OPLS-2005>
6.75267505645752

> <r_mmod_Van_der_Waal_Energy-OPLS-2005>
128.531631469727

> <r_mmod_Electrostatic_Energy-OPLS-2005>
-393.815795898438

> <r_mmod_Solvation_Energy-OPLS-2005>
-476.898712158203

> <b_mmod_Minimization_Converged-OPLS-2005>
0

> <r_mmod_RMS_Derivative-OPLS-2005>
1.06712961196899

$$$$
74
                    3D
 Structure written by MMmdl.
154162  0  0  1  0            999 V2000
  -30.6216  -14.7183   20.5123 C   0  0  0  0  0  0
  -30.4322  -12.4478   19.4739 C   0  0  0  0  0  0
  -29.5101  -12.5232   18.2368 C   0  0  0  0  0  0
  -28.0360  -12.3403   18.6498 C   0  0  0  0  0  0
  -27.6446  -13.2285   19.8617 C   0  0  2  0  0  0
  -28.6889  -13.1328   20.9971 C   0  0  0  0  0  0
  -25.2490  -13.8179   20.5688 C   0  0  0  0  0  0
  -24.1792  -13.0417   20.9196 C   0  0  0  0  0  0
  -24.6392  -11.6898   20.8746 C   0  0  0  0  0  0
  -23.9094  -10.4258   21.0400 C   0  0  0  0  0  0
  -24.3650   -9.4164   21.9162 C   0  0  0  0  0  0
  -23.6307   -8.2216   22.0741 C   0  0  0  0  0  0
  -22.4275   -8.0276   21.3553 C   0  0  0  0  0  0
  -21.9934   -9.0224   20.4650 C   0  0  0  0  0  0
  -22.7273  -10.2100   20.3037 C   0  0  0  0  0  0
  -21.6855   -6.0746   22.5283 C   0  0  0  0  0  0
  -21.4012   -6.5640   23.8220 C   0  0  0  0  0  0
  -21.3662   -5.6795   24.9173 C   0  0  0  0  0  0
  -21.6043   -4.3051   24.7223 C   0  0  0  0  0  0
  -21.8828   -3.8164   23.4343 C   0  0  0  0  0  0
  -21.9177   -4.6979   22.3408 C   0  0  0  0  0  0
  -22.7809  -13.5184   21.1865 C   0  0  0  0  0  0
  -22.1650   -4.2169   21.0982 F   0  0  0  0  0  0
  -21.5638   -3.4543   25.7745 F   0  0  0  0  0  0
  -29.9915  -13.4943   20.4248 N   0  0  0  0  0  0
  -26.2945  -12.9386   20.3340 N   0  0  0  0  0  0
  -25.9337  -11.6535   20.5779 N   0  0  0  0  0  0
  -22.0494  -12.8147   22.0429 N   0  0  0  0  0  0
  -25.4140  -15.1909   20.4140 N   0  0  0  0  0  0
  -31.7993  -14.8178   20.1553 O   0  0  0  0  0  0
  -21.6641   -6.8884   21.4250 O   0  0  0  0  0  0
  -22.3463  -14.5469   20.6687 O   0  0  0  0  0  0
  -24.6271  -31.8584   23.1994 C   0  0  0  0  0  0
  -25.9109  -32.4790   23.8324 C   0  0  1  0  0  0
  -27.2216  -27.2808   20.1646 C   0  0  0  0  0  0
  -25.5935  -33.8593   24.2253 N   0  0  0  0  0  0
  -23.4254  -30.4750   21.5439 C   0  0  2  0  0  0
  -24.8763  -28.9275   20.1130 C   0  0  0  0  0  0
  -22.7522  -29.4565   22.4956 C   0  0  0  0  0  0
  -18.0299  -28.1387   22.8468 C   0  0  0  0  0  0
  -24.1501  -36.7265   23.2628 C   0  0  0  0  0  0
  -25.9674  -30.7815   21.3763 C   0  0  0  0  0  0
  -26.0435  -29.4037   20.7242 C   0  0  0  0  0  0
  -27.2219  -28.5938   20.7367 C   0  0  0  0  0  0
  -26.0433  -26.8724   19.5061 C   0  0  0  0  0  0
  -24.8805  -27.6702   19.4877 C   0  0  0  0  0  0
  -23.6441  -29.8090   20.1585 C   0  0  0  0  0  0
  -25.4133  -36.3081   24.0320 C   0  0  1  0  0  0
  -20.5902  -28.3657   23.1312 C   0  0  2  0  0  0
  -20.6799  -26.9386   22.5421 C   0  0  0  0  0  0
  -19.5776  -26.6368   21.5234 C   0  0  0  0  0  0
  -18.1947  -26.7920   22.1618 C   0  0  0  0  0  0
  -19.1549  -28.8841   23.2871 C   0  0  0  0  0  0
  -18.9471  -30.1466   23.8859 C   0  0  0  0  0  0
  -17.6462  -30.6573   24.0564 C   0  0  0  0  0  0
  -25.9074  -34.9464   23.5074 C   0  0  0  0  0  0
  -16.5355  -29.9062   23.6348 C   0  0  0  0  0  0
  -16.7280  -28.6509   23.0310 C   0  0  0  0  0  0
  -26.4478  -31.6610   25.0702 C   0  0  0  0  0  0
  -25.3693  -31.3735   26.1416 C   0  0  0  0  0  0
  -27.0314  -30.3051   24.6123 C   0  0  0  0  0  0
  -27.6080  -32.4295   25.7442 C   0  0  0  0  0  0
  -27.5596  -37.1772   24.8446 C   0  0  0  0  0  0
  -21.4229  -29.3000   22.3722 N   0  0  0  0  0  0
  -26.4288  -37.3798   23.9423 N   0  0  0  0  0  0
  -24.6922  -31.0561   22.0970 N   0  0  0  0  0  0
  -23.4247  -28.8116   23.3044 O   0  0  0  0  0  0
  -28.3135  -26.3929   20.2224 O   0  0  0  0  0  0
  -26.5623  -34.8935   22.4630 O   0  0  0  0  0  0
  -23.5420  -32.1389   23.7305 O   0  0  0  0  0  0
  -31.4379  -17.7290   21.2229 C   0  0  0  0  0  0
  -30.1992  -17.2740   20.8427 C   0  0  0  0  0  0
  -29.8940  -19.6439   20.6486 C   0  0  0  0  0  0
  -29.3719  -21.0353   20.1104 C   0  0  0  0  0  0
  -28.0851  -25.0272   20.8012 C   0  0  0  0  0  0
  -28.9457  -23.7659   20.2737 C   0  0  2  0  0  0
  -28.9176  -22.3089   21.0087 C   0  0  2  0  0  0
  -29.3258  -18.3911   20.5558 N   0  0  0  0  0  0
  -30.3337  -24.2155   20.2485 N   0  0  0  0  0  0
  -29.8530  -15.8348   20.8052 N   0  0  0  0  0  0
  -29.7348  -22.4504   22.2264 N   0  3  0  0  0  0
  -31.5641  -19.4836   21.2029 S   0  0  0  0  0  0
  -31.4748  -12.5699   19.1773 H   0  0  0  0  0  0
  -30.3731  -11.4647   19.9422 H   0  0  0  0  0  0
  -29.7925  -11.7641   17.5076 H   0  0  0  0  0  0
  -29.6349  -13.4876   17.7402 H   0  0  0  0  0  0
  -27.8924  -11.2864   18.8977 H   0  0  0  0  0  0
  -27.3763  -12.5448   17.8035 H   0  0  0  0  0  0
  -27.6465  -14.2572   19.4978 H   0  0  0  0  0  0
  -28.7244  -12.1204   21.4023 H   0  0  0  0  0  0
  -28.4242  -13.7875   21.8300 H   0  0  0  0  0  0
  -25.2804   -9.5637   22.4726 H   0  0  0  0  0  0
  -24.0025   -7.4615   22.7444 H   0  0  0  0  0  0
  -21.0879   -8.8739   19.8950 H   0  0  0  0  0  0
  -22.3731  -10.9630   19.6141 H   0  0  0  0  0  0
  -21.2003   -7.6149   23.9734 H   0  0  0  0  0  0
  -21.1483   -6.0517   25.9077 H   0  0  0  0  0  0
  -22.0607   -2.7627   23.2837 H   0  0  0  0  0  0
  -22.4164  -11.9837   22.4823 H   0  0  0  0  0  0
  -21.1096  -13.1105   22.2664 H   0  0  0  0  0  0
  -24.6443  -15.8388   20.5429 H   0  0  0  0  0  0
  -26.2578  -15.6460   20.0908 H   0  0  0  0  0  0
  -26.7175  -32.5447   23.1070 H   0  0  0  0  0  0
  -25.0168  -33.9767   25.0448 H   0  0  0  0  0  0
  -22.7174  -31.2938   21.3984 H   0  0  0  0  0  0
  -23.3817  -35.9538   23.3244 H   0  0  0  0  0  0
  -24.3612  -36.8932   22.2052 H   0  0  0  0  0  0
  -23.7193  -37.6423   23.6685 H   0  0  0  0  0  0
  -26.0997  -31.5442   20.6079 H   0  0  0  0  0  0
  -26.8478  -30.8335   22.0049 H   0  0  0  0  0  0
  -28.1144  -28.9508   21.2311 H   0  0  0  0  0  0
  -26.0088  -25.9088   19.0171 H   0  0  0  0  0  0
  -23.9908  -27.3043   18.9932 H   0  0  0  0  0  0
  -23.7661  -30.5852   19.4015 H   0  0  0  0  0  0
  -22.7657  -29.2356   19.8553 H   0  0  0  0  0  0
  -25.1329  -36.1910   25.0813 H   0  0  0  0  0  0
  -20.9962  -28.3200   24.1451 H   0  0  0  0  0  0
  -20.5741  -26.2250   23.3609 H   0  0  0  0  0  0
  -21.6667  -26.7443   22.1204 H   0  0  0  0  0  0
  -19.6947  -25.6286   21.1258 H   0  0  0  0  0  0
  -19.6738  -27.3201   20.6794 H   0  0  0  0  0  0
  -17.4240  -26.6669   21.4000 H   0  0  0  0  0  0
  -18.0315  -26.0078   22.9021 H   0  0  0  0  0  0
  -19.7941  -30.7311   24.2191 H   0  0  0  0  0  0
  -17.5007  -31.6265   24.5155 H   0  0  0  0  0  0
  -15.5346  -30.2938   23.7724 H   0  0  0  0  0  0
  -15.8685  -28.0854   22.6972 H   0  0  0  0  0  0
  -24.5903  -30.7055   25.7719 H   0  0  0  0  0  0
  -24.8837  -32.2892   26.4806 H   0  0  0  0  0  0
  -25.8009  -30.8929   27.0208 H   0  0  0  0  0  0
  -26.2879  -29.6808   24.1161 H   0  0  0  0  0  0
  -27.4072  -29.7303   25.4595 H   0  0  0  0  0  0
  -27.8721  -30.4392   23.9315 H   0  0  0  0  0  0
  -27.2787  -33.3635   26.2008 H   0  0  0  0  0  0
  -28.3901  -32.6763   25.0248 H   0  0  0  0  0  0
  -28.0730  -31.8390   26.5347 H   0  0  0  0  0  0
  -28.2560  -38.0126   24.7637 H   0  0  0  0  0  0
  -28.1154  -36.2680   24.6116 H   0  0  0  0  0  0
  -27.2327  -37.1234   25.8842 H   0  0  0  0  0  0
  -20.9431  -29.8699   21.6900 H   0  0  0  0  0  0
  -26.0161  -38.2842   24.1521 H   0  0  0  0  0  0
  -32.3024  -17.1453   21.5145 H   0  0  0  0  0  0
  -28.5674  -20.8301   19.4041 H   0  0  0  0  0  0
  -30.1834  -21.4027   19.4834 H   0  0  0  0  0  0
  -28.2607  -25.1351   21.8727 H   0  0  0  0  0  0
  -27.0340  -24.7529   20.7350 H   0  0  0  0  0  0
  -28.6338  -23.6094   19.2393 H   0  0  0  0  0  0
  -27.9014  -22.0992   21.3444 H   0  0  0  0  0  0
  -30.3110  -25.2264   20.1393 H   0  0  0  0  0  0
  -30.7563  -23.8999   19.3794 H   0  0  0  0  0  0
  -28.8835  -15.6278   20.9816 H   0  0  0  0  0  0
  -29.9276  -21.5809   22.6862 H   0  0  0  0  0  0
  -29.2800  -23.0685   22.8741 H   0  0  0  0  0  0
  -30.5861  -22.9045   21.9295 H   0  0  0  0  0  0
  1 25  1  0  0  0
  1 30  2  0  0  0
  1 80  1  0  0  0
  2  3  1  0  0  0
  2 25  1  0  0  0
  2 83  1  0  0  0
  2 84  1  0  0  0
  3  4  1  0  0  0
  3 85  1  0  0  0
  3 86  1  0  0  0
  4  5  1  0  0  0
  4 87  1  0  0  0
  4 88  1  0  0  0
  5  6  1  0  0  0
  5 26  1  0  0  0
  5 89  1  0  0  0
  6 25  1  0  0  0
  6 90  1  0  0  0
  6 91  1  0  0  0
  7  8  2  0  0  0
  7 26  1  0  0  0
  7 29  1  0  0  0
  8  9  1  0  0  0
  8 22  1  0  0  0
  9 10  1  0  0  0
  9 27  2  0  0  0
 10 11  2  0  0  0
 10 15  1  0  0  0
 11 12  1  0  0  0
 11 92  1  0  0  0
 12 13  2  0  0  0
 12 93  1  0  0  0
 13 14  1  0  0  0
 13 31  1  0  0  0
 14 15  2  0  0  0
 14 94  1  0  0  0
 15 95  1  0  0  0
 16 17  2  0  0  0
 16 21  1  0  0  0
 16 31  1  0  0  0
 17 18  1  0  0  0
 17 96  1  0  0  0
 18 19  2  0  0  0
 18 97  1  0  0  0
 19 20  1  0  0  0
 19 24  1  0  0  0
 20 21  2  0  0  0
 20 98  1  0  0  0
 21 23  1  0  0  0
 22 28  1  0  0  0
 22 32  2  0  0  0
 26 27  1  0  0  0
 28 99  1  0  0  0
 28100  1  0  0  0
 29101  1  0  0  0
 29102  1  0  0  0
 33 34  1  0  0  0
 33 66  1  0  0  0
 33 70  2  0  0  0
 34 36  1  0  0  0
 34 59  1  0  0  0
 34103  1  0  0  0
 35 44  2  0  0  0
 35 45  1  0  0  0
 35 68  1  0  0  0
 36 56  1  0  0  0
 36104  1  0  0  0
 37 39  1  0  0  0
 37 47  1  0  0  0
 37 66  1  0  0  0
 37105  1  0  0  0
 38 43  2  0  0  0
 38 46  1  0  0  0
 38 47  1  0  0  0
 39 64  1  0  0  0
 39 67  2  0  0  0
 40 52  1  0  0  0
 40 53  2  0  0  0
 40 58  1  0  0  0
 41106  1  0  0  0
 41107  1  0  0  0
 41108  1  0  0  0
 41 48  1  0  0  0
 42 43  1  0  0  0
 42 66  1  0  0  0
 42109  1  0  0  0
 42110  1  0  0  0
 43 44  1  0  0  0
 44111  1  0  0  0
 45 46  2  0  0  0
 45112  1  0  0  0
 46113  1  0  0  0
 47114  1  0  0  0
 47115  1  0  0  0
 48 56  1  0  0  0
 48 65  1  0  0  0
 48116  1  0  0  0
 49 50  1  0  0  0
 49 53  1  0  0  0
 49 64  1  0  0  0
 49117  1  0  0  0
 50 51  1  0  0  0
 50118  1  0  0  0
 50119  1  0  0  0
 51 52  1  0  0  0
 51120  1  0  0  0
 51121  1  0  0  0
 52122  1  0  0  0
 52123  1  0  0  0
 53 54  1  0  0  0
 54 55  2  0  0  0
 54124  1  0  0  0
 55 57  1  0  0  0
 55125  1  0  0  0
 56 69  2  0  0  0
 57 58  2  0  0  0
 57126  1  0  0  0
 58127  1  0  0  0
 59 60  1  0  0  0
 59 61  1  0  0  0
 59 62  1  0  0  0
 60128  1  0  0  0
 60129  1  0  0  0
 60130  1  0  0  0
 61131  1  0  0  0
 61132  1  0  0  0
 61133  1  0  0  0
 62134  1  0  0  0
 62135  1  0  0  0
 62136  1  0  0  0
 63 65  1  0  0  0
 63137  1  0  0  0
 63138  1  0  0  0
 63139  1  0  0  0
 64140  1  0  0  0
 65141  1  0  0  0
 68 75  1  0  0  0
 71 72  2  0  0  0
 71 82  1  0  0  0
 71142  1  0  0  0
 72 78  1  0  0  0
 72 80  1  0  0  0
 73 74  1  0  0  0
 73 78  2  0  0  0
 73 82  1  0  0  0
 74 77  1  0  0  0
 74143  1  0  0  0
 74144  1  0  0  0
 75 76  1  0  0  0
 75145  1  0  0  0
 75146  1  0  0  0
 76 77  1  0  0  0
 76 79  1  0  0  0
 76147  1  0  0  0
 77 81  1  0  0  0
 77148  1  0  0  0
 79149  1  0  0  0
 79150  1  0  0  0
 80151  1  0  0  0
 81152  1  0  0  0
 81153  1  0  0  0
 81154  1  0  0  0
M  CHG  1  81   1
M  ISO  4   1 100  68 101  75 101  80 100
M  END
> <chiral flag>
0

> <version>
0

> <s_m_source_file>
/data/baiqing/PycharmProjects/Reinvent-master-3.2/result/LINK_invent/BTK/process_docking_weight1_custom_product_contain_oxygen_bond_distance_aromatic_linkinvent_7_9_3/rearranged_h_0192.sdf

> <i_m_source_file_index>
74

> <r_mmod_Potential_Energy-OPLS-2005>
-178.189453125

> <r_mmod_Stretch_Energy-OPLS-2005>
116.470603942871

> <r_mmod_Bend_Energy-OPLS-2005>
168.01286315918

> <r_mmod_Torsional_Energy-OPLS-2005>
267.586120605469

> <r_mmod_Improper_Torsional_Energy-OPLS-2005>
5.46352386474609

> <r_mmod_Van_der_Waal_Energy-OPLS-2005>
123.327476501465

> <r_mmod_Electrostatic_Energy-OPLS-2005>
-441.155578613281

> <r_mmod_Solvation_Energy-OPLS-2005>
-491.831024169922

> <b_mmod_Minimization_Converged-OPLS-2005>
0

> <r_mmod_RMS_Derivative-OPLS-2005>
3.50851082801819

$$$$
75
                    3D
 Structure written by MMmdl.
165173  0  0  1  0            999 V2000
  -30.6915  -14.4464   20.5017 C   0  0  0  0  0  0
  -30.4093  -12.2670   19.4349 C   0  0  0  0  0  0
  -29.4933  -12.4917   18.2136 C   0  0  0  0  0  0
  -28.0128  -12.3563   18.6224 C   0  0  0  0  0  0
  -27.6566  -13.2048   19.8729 C   0  0  2  0  0  0
  -28.6967  -13.0002   21.0012 C   0  0  0  0  0  0
  -25.2555  -13.8172   20.5655 C   0  0  0  0  0  0
  -24.1801  -13.0447   20.9154 C   0  0  0  0  0  0
  -24.6355  -11.6916   20.8736 C   0  0  0  0  0  0
  -23.9040  -10.4302   21.0414 C   0  0  0  0  0  0
  -24.3607   -9.4214   21.9186 C   0  0  0  0  0  0
  -23.6276   -8.2251   22.0764 C   0  0  0  0  0  0
  -22.4255   -8.0292   21.3554 C   0  0  0  0  0  0
  -21.9889   -9.0272   20.4659 C   0  0  0  0  0  0
  -22.7219  -10.2142   20.3062 C   0  0  0  0  0  0
  -21.6847   -6.0741   22.5285 C   0  0  0  0  0  0
  -21.4029   -6.5641   23.8230 C   0  0  0  0  0  0
  -21.3659   -5.6785   24.9185 C   0  0  0  0  0  0
  -21.6032   -4.3051   24.7222 C   0  0  0  0  0  0
  -21.8816   -3.8147   23.4345 C   0  0  0  0  0  0
  -21.9191   -4.6969   22.3406 C   0  0  0  0  0  0
  -22.7830  -13.5258   21.1817 C   0  0  0  0  0  0
  -22.1649   -4.2158   21.0981 F   0  0  0  0  0  0
  -21.5621   -3.4524   25.7732 F   0  0  0  0  0  0
  -30.0338  -13.2631   20.4469 N   0  0  0  0  0  0
  -26.2980  -12.9333   20.3339 N   0  0  0  0  0  0
  -25.9273  -11.6501   20.5760 N   0  0  0  0  0  0
  -22.0451  -12.8300   22.0395 N   0  0  0  0  0  0
  -25.4237  -15.1896   20.4084 N   0  0  0  0  0  0
  -31.8584  -14.5904   20.1289 O   0  0  0  0  0  0
  -21.6621   -6.8881   21.4247 O   0  0  0  0  0  0
  -22.3547  -14.5564   20.6646 O   0  0  0  0  0  0
  -24.6132  -31.8672   23.2123 C   0  0  0  0  0  0
  -25.9030  -32.4819   23.8396 C   0  0  1  0  0  0
  -27.2271  -27.4531   20.0988 C   0  0  0  0  0  0
  -25.5893  -33.8611   24.2340 N   0  0  0  0  0  0
  -23.3983  -30.4943   21.5517 C   0  0  2  0  0  0
  -24.8424  -28.9631   20.1127 C   0  0  0  0  0  0
  -22.7402  -29.4666   22.4993 C   0  0  0  0  0  0
  -18.0268  -28.1377   22.8496 C   0  0  0  0  0  0
  -24.1482  -36.7325   23.2636 C   0  0  0  0  0  0
  -25.9237  -30.8427   21.3583 C   0  0  0  0  0  0
  -26.0018  -29.4796   20.7047 C   0  0  0  0  0  0
  -27.1996  -28.7335   20.6909 C   0  0  0  0  0  0
  -26.0506  -26.9481   19.5008 C   0  0  0  0  0  0
  -24.8607  -27.6962   19.5072 C   0  0  0  0  0  0
  -23.6041  -29.8277   20.1652 C   0  0  0  0  0  0
  -25.4101  -36.3105   24.0346 C   0  0  1  0  0  0
  -20.5856  -28.3664   23.1330 C   0  0  2  0  0  0
  -20.6755  -26.9403   22.5424 C   0  0  0  0  0  0
  -19.5742  -26.6390   21.5213 C   0  0  0  0  0  0
  -18.1920  -26.7917   22.1623 C   0  0  0  0  0  0
  -19.1513  -28.8834   23.2905 C   0  0  0  0  0  0
  -18.9439  -30.1441   23.8928 C   0  0  0  0  0  0
  -17.6446  -30.6580   24.0566 C   0  0  0  0  0  0
  -25.9026  -34.9477   23.5138 C   0  0  0  0  0  0
  -16.5342  -29.9090   23.6316 C   0  0  0  0  0  0
  -16.7263  -28.6498   23.0348 C   0  0  0  0  0  0
  -26.4470  -31.6584   25.0714 C   0  0  0  0  0  0
  -25.3766  -31.3684   26.1490 C   0  0  0  0  0  0
  -27.0290  -30.3029   24.6051 C   0  0  0  0  0  0
  -27.6047  -32.4284   25.7484 C   0  0  0  0  0  0
  -27.5578  -37.1813   24.8467 C   0  0  0  0  0  0
  -21.4129  -29.3033   22.3732 N   0  0  0  0  0  0
  -26.4284  -37.3788   23.9416 N   0  0  0  0  0  0
  -24.6633  -31.0812   22.0993 N   0  0  0  0  0  0
  -23.4181  -28.8197   23.3018 O   0  0  0  0  0  0
  -28.3883  -26.7168   20.1272 O   0  0  0  0  0  0
  -26.5569  -34.8920   22.4683 O   0  0  0  0  0  0
  -23.5338  -32.1419   23.7527 O   0  0  0  0  0  0
  -29.7310  -18.3100   21.7983 C   0  0  0  0  0  0
  -29.7735  -18.0083   20.4597 C   0  0  0  0  0  0
  -29.5292  -20.2659   20.3294 C   0  0  0  0  0  0
  -31.7828  -22.5142   19.8147 C   0  0  0  0  0  0
  -32.7002  -24.2621   21.4272 C   0  0  0  0  0  0
  -29.8089  -23.6342   17.6035 C   0  0  0  0  0  0
  -30.0398  -16.6920   19.7949 C   0  0  0  0  0  0
  -32.7271  -23.7015   19.9995 C   0  0  0  0  0  0
  -28.2900  -24.3345   19.5163 C   0  0  0  0  0  0
  -28.2422  -25.3873   20.6392 C   0  0  0  0  0  0
  -30.2524  -22.7363   19.9952 C   0  0  1  0  0  0
  -29.7202  -23.9132   19.1176 C   0  0  1  0  0  0
  -29.5976  -19.1295   19.6416 N   0  0  0  0  0  0
  -29.5099  -21.5070   19.7164 N   0  0  0  0  0  0
  -29.8888  -15.5092   20.6445 N   0  0  0  0  0  0
  -32.2735  -21.4185   19.5220 O   0  0  0  0  0  0
  -29.5768  -20.0322   22.0714 S   0  0  0  0  0  0
  -31.4590  -12.3358   19.1427 H   0  0  0  0  0  0
  -30.2768  -11.2614   19.8352 H   0  0  0  0  0  0
  -29.7345  -11.7794   17.4233 H   0  0  0  0  0  0
  -29.6715  -13.4856   17.7964 H   0  0  0  0  0  0
  -27.8212  -11.3026   18.8270 H   0  0  0  0  0  0
  -27.3631  -12.6254   17.7869 H   0  0  0  0  0  0
  -27.6922  -14.2487   19.5585 H   0  0  0  0  0  0
  -28.6523  -11.9770   21.3783 H   0  0  0  0  0  0
  -28.4776  -13.6396   21.8588 H   0  0  0  0  0  0
  -25.2765   -9.5683   22.4745 H   0  0  0  0  0  0
  -23.9984   -7.4650   22.7495 H   0  0  0  0  0  0
  -21.0814   -8.8808   19.8975 H   0  0  0  0  0  0
  -22.3702  -10.9682   19.6169 H   0  0  0  0  0  0
  -21.2037   -7.6152   23.9736 H   0  0  0  0  0  0
  -21.1472   -6.0510   25.9083 H   0  0  0  0  0  0
  -22.0588   -2.7605   23.2832 H   0  0  0  0  0  0
  -22.4015  -11.9971   22.4849 H   0  0  0  0  0  0
  -21.1089  -13.1388   22.2574 H   0  0  0  0  0  0
  -24.6513  -15.8397   20.5100 H   0  0  0  0  0  0
  -26.2737  -15.6382   20.0919 H   0  0  0  0  0  0
  -26.7104  -32.5549   23.1168 H   0  0  0  0  0  0
  -25.0096  -33.9774   25.0514 H   0  0  0  0  0  0
  -22.6872  -31.3104   21.4158 H   0  0  0  0  0  0
  -23.3720  -35.9673   23.3302 H   0  0  0  0  0  0
  -24.3589  -36.8922   22.2048 H   0  0  0  0  0  0
  -23.7271  -37.6550   23.6634 H   0  0  0  0  0  0
  -26.0295  -31.6065   20.5861 H   0  0  0  0  0  0
  -26.8150  -30.9000   21.9714 H   0  0  0  0  0  0
  -28.0938  -29.1236   21.1547 H   0  0  0  0  0  0
  -26.0345  -25.9765   19.0331 H   0  0  0  0  0  0
  -23.9686  -27.2927   19.0499 H   0  0  0  0  0  0
  -23.7132  -30.6014   19.4057 H   0  0  0  0  0  0
  -22.7288  -29.2457   19.8680 H   0  0  0  0  0  0
  -25.1269  -36.1961   25.0835 H   0  0  0  0  0  0
  -20.9958  -28.3209   24.1441 H   0  0  0  0  0  0
  -20.5652  -26.2258   23.3596 H   0  0  0  0  0  0
  -21.6626  -26.7437   22.1213 H   0  0  0  0  0  0
  -19.6888  -25.6301   21.1222 H   0  0  0  0  0  0
  -19.6669  -27.3206   20.6745 H   0  0  0  0  0  0
  -17.4181  -26.6671   21.4032 H   0  0  0  0  0  0
  -18.0328  -26.0060   22.9022 H   0  0  0  0  0  0
  -19.7924  -30.7250   24.2302 H   0  0  0  0  0  0
  -17.5006  -31.6269   24.5162 H   0  0  0  0  0  0
  -15.5343  -30.2996   23.7641 H   0  0  0  0  0  0
  -15.8658  -28.0836   22.7045 H   0  0  0  0  0  0
  -24.5930  -30.7027   25.7857 H   0  0  0  0  0  0
  -24.8991  -32.2845   26.4966 H   0  0  0  0  0  0
  -25.8172  -30.8854   27.0224 H   0  0  0  0  0  0
  -26.2821  -29.6806   24.1116 H   0  0  0  0  0  0
  -27.4092  -29.7243   25.4477 H   0  0  0  0  0  0
  -27.8629  -30.4355   23.9162 H   0  0  0  0  0  0
  -27.2656  -33.3556   26.2103 H   0  0  0  0  0  0
  -28.3844  -32.6875   25.0314 H   0  0  0  0  0  0
  -28.0715  -31.8384   26.5378 H   0  0  0  0  0  0
  -28.2591  -38.0111   24.7492 H   0  0  0  0  0  0
  -28.1082  -36.2647   24.6298 H   0  0  0  0  0  0
  -27.2312  -37.1470   25.8875 H   0  0  0  0  0  0
  -20.9269  -29.8789   21.6994 H   0  0  0  0  0  0
  -26.0174  -38.2857   24.1405 H   0  0  0  0  0  0
  -29.8324  -17.6313   22.6359 H   0  0  0  0  0  0
  -32.7957  -23.4690   22.1684 H   0  0  0  0  0  0
  -33.5270  -24.9554   21.5813 H   0  0  0  0  0  0
  -31.7716  -24.7979   21.6239 H   0  0  0  0  0  0
  -29.1498  -22.8200   17.3028 H   0  0  0  0  0  0
  -30.8210  -23.3769   17.2960 H   0  0  0  0  0  0
  -29.5244  -24.5172   17.0285 H   0  0  0  0  0  0
  -31.0357  -16.7415   19.3507 H   0  0  0  0  0  0
  -29.3630  -16.5574   18.9501 H   0  0  0  0  0  0
  -32.4907  -24.4771   19.2706 H   0  0  0  0  0  0
  -33.7371  -23.3648   19.7621 H   0  0  0  0  0  0
  -27.7623  -24.7177   18.6437 H   0  0  0  0  0  0
  -27.7200  -23.4601   19.8300 H   0  0  0  0  0  0
  -29.0350  -25.2054   21.3645 H   0  0  0  0  0  0
  -27.3158  -25.2832   21.2063 H   0  0  0  0  0  0
  -30.0876  -22.9850   21.0440 H   0  0  0  0  0  0
  -30.3438  -24.7902   19.2951 H   0  0  0  0  0  0
  -29.3907  -21.3967   18.7196 H   0  0  0  0  0  0
  -28.9551  -15.3270   20.9748 H   0  0  0  0  0  0
  1 25  1  0  0  0
  1 30  2  0  0  0
  1 85  1  0  0  0
  2  3  1  0  0  0
  2 25  1  0  0  0
  2 88  1  0  0  0
  2 89  1  0  0  0
  3  4  1  0  0  0
  3 90  1  0  0  0
  3 91  1  0  0  0
  4  5  1  0  0  0
  4 92  1  0  0  0
  4 93  1  0  0  0
  5  6  1  0  0  0
  5 26  1  0  0  0
  5 94  1  0  0  0
  6 25  1  0  0  0
  6 95  1  0  0  0
  6 96  1  0  0  0
  7  8  2  0  0  0
  7 26  1  0  0  0
  7 29  1  0  0  0
  8  9  1  0  0  0
  8 22  1  0  0  0
  9 10  1  0  0  0
  9 27  2  0  0  0
 10 11  2  0  0  0
 10 15  1  0  0  0
 11 12  1  0  0  0
 11 97  1  0  0  0
 12 13  2  0  0  0
 12 98  1  0  0  0
 13 14  1  0  0  0
 13 31  1  0  0  0
 14 15  2  0  0  0
 14 99  1  0  0  0
 15100  1  0  0  0
 16 17  2  0  0  0
 16 21  1  0  0  0
 16 31  1  0  0  0
 17 18  1  0  0  0
 17101  1  0  0  0
 18 19  2  0  0  0
 18102  1  0  0  0
 19 20  1  0  0  0
 19 24  1  0  0  0
 20 21  2  0  0  0
 20103  1  0  0  0
 21 23  1  0  0  0
 22 28  1  0  0  0
 22 32  2  0  0  0
 26 27  1  0  0  0
 28104  1  0  0  0
 28105  1  0  0  0
 29106  1  0  0  0
 29107  1  0  0  0
 33 34  1  0  0  0
 33 66  1  0  0  0
 33 70  2  0  0  0
 34 36  1  0  0  0
 34 59  1  0  0  0
 34108  1  0  0  0
 35 44  2  0  0  0
 35 45  1  0  0  0
 35 68  1  0  0  0
 36 56  1  0  0  0
 36109  1  0  0  0
 37 39  1  0  0  0
 37 47  1  0  0  0
 37 66  1  0  0  0
 37110  1  0  0  0
 38 43  2  0  0  0
 38 46  1  0  0  0
 38 47  1  0  0  0
 39 64  1  0  0  0
 39 67  2  0  0  0
 40 52  1  0  0  0
 40 53  2  0  0  0
 40 58  1  0  0  0
 41111  1  0  0  0
 41112  1  0  0  0
 41113  1  0  0  0
 41 48  1  0  0  0
 42 43  1  0  0  0
 42 66  1  0  0  0
 42114  1  0  0  0
 42115  1  0  0  0
 43 44  1  0  0  0
 44116  1  0  0  0
 45 46  2  0  0  0
 45117  1  0  0  0
 46118  1  0  0  0
 47119  1  0  0  0
 47120  1  0  0  0
 48 56  1  0  0  0
 48 65  1  0  0  0
 48121  1  0  0  0
 49 50  1  0  0  0
 49 53  1  0  0  0
 49 64  1  0  0  0
 49122  1  0  0  0
 50 51  1  0  0  0
 50123  1  0  0  0
 50124  1  0  0  0
 51 52  1  0  0  0
 51125  1  0  0  0
 51126  1  0  0  0
 52127  1  0  0  0
 52128  1  0  0  0
 53 54  1  0  0  0
 54 55  2  0  0  0
 54129  1  0  0  0
 55 57  1  0  0  0
 55130  1  0  0  0
 56 69  2  0  0  0
 57 58  2  0  0  0
 57131  1  0  0  0
 58132  1  0  0  0
 59 60  1  0  0  0
 59 61  1  0  0  0
 59 62  1  0  0  0
 60133  1  0  0  0
 60134  1  0  0  0
 60135  1  0  0  0
 61136  1  0  0  0
 61137  1  0  0  0
 61138  1  0  0  0
 62139  1  0  0  0
 62140  1  0  0  0
 62141  1  0  0  0
 63 65  1  0  0  0
 63142  1  0  0  0
 63143  1  0  0  0
 63144  1  0  0  0
 64145  1  0  0  0
 65146  1  0  0  0
 68 80  1  0  0  0
 71 72  2  0  0  0
 71 87  1  0  0  0
 71147  1  0  0  0
 72 77  1  0  0  0
 72 83  1  0  0  0
 73 83  2  0  0  0
 73 84  1  0  0  0
 73 87  1  0  0  0
 74 78  1  0  0  0
 74 81  1  0  0  0
 74 86  2  0  0  0
 75 78  1  0  0  0
 75148  1  0  0  0
 75149  1  0  0  0
 75150  1  0  0  0
 76151  1  0  0  0
 76152  1  0  0  0
 76153  1  0  0  0
 76 82  1  0  0  0
 77 85  1  0  0  0
 77154  1  0  0  0
 77155  1  0  0  0
 78156  1  0  0  0
 78157  1  0  0  0
 79 80  1  0  0  0
 79 82  1  0  0  0
 79158  1  0  0  0
 79159  1  0  0  0
 80160  1  0  0  0
 80161  1  0  0  0
 81 82  1  0  0  0
 81 84  1  0  0  0
 81162  1  0  0  0
 82163  1  0  0  0
 84164  1  0  0  0
 85165  1  0  0  0
M  ISO  4   1 100  68 101  80 101  85 100
M  END
> <chiral flag>
0

> <version>
0

> <s_m_source_file>
/data/baiqing/PycharmProjects/Reinvent-master-3.2/result/LINK_invent/BTK/process_docking_weight1_custom_product_contain_oxygen_bond_distance_aromatic_linkinvent_7_9_3/rearranged_h_0192.sdf

> <i_m_source_file_index>
75

> <r_mmod_Potential_Energy-OPLS-2005>
-231.70393371582

> <r_mmod_Stretch_Energy-OPLS-2005>
32.7769660949707

> <r_mmod_Bend_Energy-OPLS-2005>
93.02587890625

> <r_mmod_Torsional_Energy-OPLS-2005>
262.112335205078

> <r_mmod_Improper_Torsional_Energy-OPLS-2005>
14.8378982543945

> <r_mmod_Van_der_Waal_Energy-OPLS-2005>
134.103591918945

> <r_mmod_Electrostatic_Energy-OPLS-2005>
-552.277282714844

> <r_mmod_Solvation_Energy-OPLS-2005>
-230.959487915039

> <b_mmod_Minimization_Converged-OPLS-2005>
0

> <r_mmod_RMS_Derivative-OPLS-2005>
2.97823476791382

$$$$
76
                    3D
 Structure written by MMmdl.
155163  0  0  1  0            999 V2000
  -30.6899  -14.5382   20.5704 C   0  0  0  0  0  0
  -30.4291  -12.3492   19.4392 C   0  0  0  0  0  0
  -29.5028  -12.5072   18.2161 C   0  0  0  0  0  0
  -28.0244  -12.3553   18.6247 C   0  0  0  0  0  0
  -27.6568  -13.2133   19.8648 C   0  0  2  0  0  0
  -28.6982  -13.0380   20.9928 C   0  0  0  0  0  0
  -25.2577  -13.8191   20.5665 C   0  0  0  0  0  0
  -24.1838  -13.0454   20.9182 C   0  0  0  0  0  0
  -24.6398  -11.6920   20.8727 C   0  0  0  0  0  0
  -23.9059  -10.4304   21.0396 C   0  0  0  0  0  0
  -24.3617   -9.4217   21.9167 C   0  0  0  0  0  0
  -23.6298   -8.2249   22.0738 C   0  0  0  0  0  0
  -22.4276   -8.0288   21.3547 C   0  0  0  0  0  0
  -21.9913   -9.0254   20.4637 C   0  0  0  0  0  0
  -22.7232  -10.2138   20.3041 C   0  0  0  0  0  0
  -21.6855   -6.0739   22.5281 C   0  0  0  0  0  0
  -21.4010   -6.5641   23.8216 C   0  0  0  0  0  0
  -21.3660   -5.6793   24.9175 C   0  0  0  0  0  0
  -21.6052   -4.3058   24.7226 C   0  0  0  0  0  0
  -21.8820   -3.8150   23.4345 C   0  0  0  0  0  0
  -21.9194   -4.6969   22.3403 C   0  0  0  0  0  0
  -22.7858  -13.5243   21.1846 C   0  0  0  0  0  0
  -22.1658   -4.2164   21.0978 F   0  0  0  0  0  0
  -21.5637   -3.4535   25.7733 F   0  0  0  0  0  0
  -30.0228  -13.3546   20.4358 N   0  0  0  0  0  0
  -26.3002  -12.9356   20.3305 N   0  0  0  0  0  0
  -25.9326  -11.6518   20.5739 N   0  0  0  0  0  0
  -22.0499  -12.8230   22.0411 N   0  0  0  0  0  0
  -25.4333  -15.1899   20.4078 N   0  0  0  0  0  0
  -31.8283  -14.7058   20.1276 O   0  0  0  0  0  0
  -21.6643   -6.8880   21.4242 O   0  0  0  0  0  0
  -22.3534  -14.5542   20.6687 O   0  0  0  0  0  0
  -24.6177  -31.8653   23.2068 C   0  0  0  0  0  0
  -25.9053  -32.4813   23.8374 C   0  0  1  0  0  0
  -27.2275  -27.3910   20.1247 C   0  0  0  0  0  0
  -25.5892  -33.8610   24.2310 N   0  0  0  0  0  0
  -23.4083  -30.4882   21.5481 C   0  0  2  0  0  0
  -24.8559  -28.9496   20.1135 C   0  0  0  0  0  0
  -22.7431  -29.4645   22.4977 C   0  0  0  0  0  0
  -18.0269  -28.1360   22.8501 C   0  0  0  0  0  0
  -24.1485  -36.7313   23.2641 C   0  0  0  0  0  0
  -25.9404  -30.8223   21.3623 C   0  0  0  0  0  0
  -26.0192  -29.4529   20.7114 C   0  0  0  0  0  0
  -27.2119  -28.6853   20.7052 C   0  0  0  0  0  0
  -26.0505  -26.9173   19.5072 C   0  0  0  0  0  0
  -24.8696  -27.6841   19.5021 C   0  0  0  0  0  0
  -23.6190  -29.8207   20.1630 C   0  0  0  0  0  0
  -25.4101  -36.3113   24.0345 C   0  0  1  0  0  0
  -20.5869  -28.3656   23.1314 C   0  0  2  0  0  0
  -20.6762  -26.9391   22.5418 C   0  0  0  0  0  0
  -19.5735  -26.6375   21.5217 C   0  0  0  0  0  0
  -18.1915  -26.7907   22.1633 C   0  0  0  0  0  0
  -19.1524  -28.8820   23.2906 C   0  0  0  0  0  0
  -18.9453  -30.1427   23.8916 C   0  0  0  0  0  0
  -17.6459  -30.6575   24.0561 C   0  0  0  0  0  0
  -25.9028  -34.9479   23.5132 C   0  0  0  0  0  0
  -16.5345  -29.9079   23.6327 C   0  0  0  0  0  0
  -16.7262  -28.6490   23.0356 C   0  0  0  0  0  0
  -26.4460  -31.6589   25.0705 C   0  0  0  0  0  0
  -25.3732  -31.3704   26.1463 C   0  0  0  0  0  0
  -27.0279  -30.3029   24.6076 C   0  0  0  0  0  0
  -27.6030  -32.4305   25.7471 C   0  0  0  0  0  0
  -27.5582  -37.1807   24.8467 C   0  0  0  0  0  0
  -21.4149  -29.3034   22.3728 N   0  0  0  0  0  0
  -26.4289  -37.3793   23.9419 N   0  0  0  0  0  0
  -24.6744  -31.0730   22.0981 N   0  0  0  0  0  0
  -23.4189  -28.8194   23.3037 O   0  0  0  0  0  0
  -28.3580  -26.5897   20.1542 O   0  0  0  0  0  0
  -26.5605  -34.8933   22.4700 O   0  0  0  0  0  0
  -23.5360  -32.1419   23.7442 O   0  0  0  0  0  0
  -29.7778  -17.8866   19.1090 C   0  0  0  0  0  0
  -29.9926  -18.0393   20.4550 C   0  0  0  0  0  0
  -29.4357  -20.2128   19.8712 C   0  0  0  0  0  0
  -29.9774  -22.7416   21.9694 C   0  0  0  0  0  0
  -30.4644  -16.9380   21.4038 C   0  0  0  0  0  0
  -28.1934  -25.2918   20.7979 C   0  0  0  0  0  0
  -28.9415  -22.7137   20.8376 C   0  0  1  0  0  0
  -28.8815  -24.0901   20.0582 C   0  0  1  0  0  0
  -29.7707  -19.3802   20.8791 N   0  0  0  0  0  0
  -29.2001  -21.5999   19.9060 N   0  0  0  0  0  0
  -29.9883  -15.5634   21.1039 N   0  0  0  0  0  0
  -28.1335  -23.8489   18.8765 O   0  0  0  0  0  0
  -29.3307  -19.3794   18.3251 S   0  0  0  0  0  0
  -31.4718  -12.4584   19.1384 H   0  0  0  0  0  0
  -30.3455  -11.3462   19.8608 H   0  0  0  0  0  0
  -29.7604  -11.7706   17.4539 H   0  0  0  0  0  0
  -29.6614  -13.4866   17.7612 H   0  0  0  0  0  0
  -27.8475  -11.3005   18.8378 H   0  0  0  0  0  0
  -27.3754  -12.6078   17.7847 H   0  0  0  0  0  0
  -27.6880  -14.2543   19.5426 H   0  0  0  0  0  0
  -28.6900  -12.0124   21.3637 H   0  0  0  0  0  0
  -28.4473  -13.6626   21.8511 H   0  0  0  0  0  0
  -25.2758   -9.5706   22.4745 H   0  0  0  0  0  0
  -24.0024   -7.4639   22.7447 H   0  0  0  0  0  0
  -21.0853   -8.8760   19.8937 H   0  0  0  0  0  0
  -22.3676  -10.9677   19.6157 H   0  0  0  0  0  0
  -21.1987   -7.6146   23.9726 H   0  0  0  0  0  0
  -21.1486   -6.0514   25.9083 H   0  0  0  0  0  0
  -22.0598   -2.7615   23.2835 H   0  0  0  0  0  0
  -22.4097  -11.9888   22.4811 H   0  0  0  0  0  0
  -21.1113  -13.1255   22.2598 H   0  0  0  0  0  0
  -24.6736  -15.8534   20.5127 H   0  0  0  0  0  0
  -26.2915  -15.6241   20.0917 H   0  0  0  0  0  0
  -26.7126  -32.5521   23.1135 H   0  0  0  0  0  0
  -25.0034  -33.9751   25.0454 H   0  0  0  0  0  0
  -22.7000  -31.3072   21.4078 H   0  0  0  0  0  0
  -23.3746  -35.9647   23.3299 H   0  0  0  0  0  0
  -24.3591  -36.8919   22.2057 H   0  0  0  0  0  0
  -23.7231  -37.6517   23.6646 H   0  0  0  0  0  0
  -26.0526  -31.5850   20.5900 H   0  0  0  0  0  0
  -26.8292  -30.8800   21.9791 H   0  0  0  0  0  0
  -28.1089  -29.0694   21.1712 H   0  0  0  0  0  0
  -26.0401  -25.9433   19.0394 H   0  0  0  0  0  0
  -23.9786  -27.2894   19.0326 H   0  0  0  0  0  0
  -23.7321  -30.5969   19.4053 H   0  0  0  0  0  0
  -22.7416  -29.2439   19.8653 H   0  0  0  0  0  0
  -25.1274  -36.1975   25.0836 H   0  0  0  0  0  0
  -20.9957  -28.3211   24.1433 H   0  0  0  0  0  0
  -20.5655  -26.2266   23.3605 H   0  0  0  0  0  0
  -21.6630  -26.7426   22.1214 H   0  0  0  0  0  0
  -19.6900  -25.6293   21.1224 H   0  0  0  0  0  0
  -19.6661  -27.3207   20.6763 H   0  0  0  0  0  0
  -17.4187  -26.6661   21.4028 H   0  0  0  0  0  0
  -18.0311  -26.0031   22.9011 H   0  0  0  0  0  0
  -19.7930  -30.7232   24.2294 H   0  0  0  0  0  0
  -17.5015  -31.6259   24.5152 H   0  0  0  0  0  0
  -15.5347  -30.2992   23.7620 H   0  0  0  0  0  0
  -15.8659  -28.0807   22.7070 H   0  0  0  0  0  0
  -24.5900  -30.7038   25.7821 H   0  0  0  0  0  0
  -24.8924  -32.2862   26.4915 H   0  0  0  0  0  0
  -25.8096  -30.8885   27.0221 H   0  0  0  0  0  0
  -26.2817  -29.6803   24.1116 H   0  0  0  0  0  0
  -27.4038  -29.7238   25.4520 H   0  0  0  0  0  0
  -27.8659  -30.4340   23.9226 H   0  0  0  0  0  0
  -27.2641  -33.3592   26.2070 H   0  0  0  0  0  0
  -28.3830  -32.6877   25.0295 H   0  0  0  0  0  0
  -28.0707  -31.8418   26.5370 H   0  0  0  0  0  0
  -28.2597  -38.0107   24.7525 H   0  0  0  0  0  0
  -28.1079  -36.2641   24.6271 H   0  0  0  0  0  0
  -27.2314  -37.1438   25.8873 H   0  0  0  0  0  0
  -20.9302  -29.8778   21.6972 H   0  0  0  0  0  0
  -26.0181  -38.2872   24.1414 H   0  0  0  0  0  0
  -29.8875  -16.9824   18.5240 H   0  0  0  0  0  0
  -29.7278  -23.4982   22.7134 H   0  0  0  0  0  0
  -30.9743  -22.9672   21.5920 H   0  0  0  0  0  0
  -30.0282  -21.7854   22.4913 H   0  0  0  0  0  0
  -30.1520  -17.1694   22.4224 H   0  0  0  0  0  0
  -31.5558  -16.9410   21.4423 H   0  0  0  0  0  0
  -28.6439  -25.3959   21.7854 H   0  0  0  0  0  0
  -27.1488  -25.0466   20.9996 H   0  0  0  0  0  0
  -27.9597  -22.5322   21.2782 H   0  0  0  0  0  0
  -29.8922  -24.3875   19.7715 H   0  0  0  0  0  0
  -28.9522  -21.9555   18.9816 H   0  0  0  0  0  0
  -29.0428  -15.3556   21.3843 H   0  0  0  0  0  0
  -28.0503  -24.6890   18.4369 H   0  0  0  0  0  0
  1 25  1  0  0  0
  1 30  2  0  0  0
  1 81  1  0  0  0
  2  3  1  0  0  0
  2 25  1  0  0  0
  2 84  1  0  0  0
  2 85  1  0  0  0
  3  4  1  0  0  0
  3 86  1  0  0  0
  3 87  1  0  0  0
  4  5  1  0  0  0
  4 88  1  0  0  0
  4 89  1  0  0  0
  5  6  1  0  0  0
  5 26  1  0  0  0
  5 90  1  0  0  0
  6 25  1  0  0  0
  6 91  1  0  0  0
  6 92  1  0  0  0
  7  8  2  0  0  0
  7 26  1  0  0  0
  7 29  1  0  0  0
  8  9  1  0  0  0
  8 22  1  0  0  0
  9 10  1  0  0  0
  9 27  2  0  0  0
 10 11  2  0  0  0
 10 15  1  0  0  0
 11 12  1  0  0  0
 11 93  1  0  0  0
 12 13  2  0  0  0
 12 94  1  0  0  0
 13 14  1  0  0  0
 13 31  1  0  0  0
 14 15  2  0  0  0
 14 95  1  0  0  0
 15 96  1  0  0  0
 16 17  2  0  0  0
 16 21  1  0  0  0
 16 31  1  0  0  0
 17 18  1  0  0  0
 17 97  1  0  0  0
 18 19  2  0  0  0
 18 98  1  0  0  0
 19 20  1  0  0  0
 19 24  1  0  0  0
 20 21  2  0  0  0
 20 99  1  0  0  0
 21 23  1  0  0  0
 22 28  1  0  0  0
 22 32  2  0  0  0
 26 27  1  0  0  0
 28100  1  0  0  0
 28101  1  0  0  0
 29102  1  0  0  0
 29103  1  0  0  0
 33 34  1  0  0  0
 33 66  1  0  0  0
 33 70  2  0  0  0
 34 36  1  0  0  0
 34 59  1  0  0  0
 34104  1  0  0  0
 35 44  2  0  0  0
 35 45  1  0  0  0
 35 68  1  0  0  0
 36 56  1  0  0  0
 36105  1  0  0  0
 37 39  1  0  0  0
 37 47  1  0  0  0
 37 66  1  0  0  0
 37106  1  0  0  0
 38 43  2  0  0  0
 38 46  1  0  0  0
 38 47  1  0  0  0
 39 64  1  0  0  0
 39 67  2  0  0  0
 40 52  1  0  0  0
 40 53  2  0  0  0
 40 58  1  0  0  0
 41107  1  0  0  0
 41108  1  0  0  0
 41109  1  0  0  0
 41 48  1  0  0  0
 42 43  1  0  0  0
 42 66  1  0  0  0
 42110  1  0  0  0
 42111  1  0  0  0
 43 44  1  0  0  0
 44112  1  0  0  0
 45 46  2  0  0  0
 45113  1  0  0  0
 46114  1  0  0  0
 47115  1  0  0  0
 47116  1  0  0  0
 48 56  1  0  0  0
 48 65  1  0  0  0
 48117  1  0  0  0
 49 50  1  0  0  0
 49 53  1  0  0  0
 49 64  1  0  0  0
 49118  1  0  0  0
 50 51  1  0  0  0
 50119  1  0  0  0
 50120  1  0  0  0
 51 52  1  0  0  0
 51121  1  0  0  0
 51122  1  0  0  0
 52123  1  0  0  0
 52124  1  0  0  0
 53 54  1  0  0  0
 54 55  2  0  0  0
 54125  1  0  0  0
 55 57  1  0  0  0
 55126  1  0  0  0
 56 69  2  0  0  0
 57 58  2  0  0  0
 57127  1  0  0  0
 58128  1  0  0  0
 59 60  1  0  0  0
 59 61  1  0  0  0
 59 62  1  0  0  0
 60129  1  0  0  0
 60130  1  0  0  0
 60131  1  0  0  0
 61132  1  0  0  0
 61133  1  0  0  0
 61134  1  0  0  0
 62135  1  0  0  0
 62136  1  0  0  0
 62137  1  0  0  0
 63 65  1  0  0  0
 63138  1  0  0  0
 63139  1  0  0  0
 63140  1  0  0  0
 64141  1  0  0  0
 65142  1  0  0  0
 68 76  1  0  0  0
 71 72  2  0  0  0
 71 83  1  0  0  0
 71143  1  0  0  0
 72 75  1  0  0  0
 72 79  1  0  0  0
 73 79  2  0  0  0
 73 80  1  0  0  0
 73 83  1  0  0  0
 74144  1  0  0  0
 74145  1  0  0  0
 74146  1  0  0  0
 74 77  1  0  0  0
 75 81  1  0  0  0
 75147  1  0  0  0
 75148  1  0  0  0
 76 78  1  0  0  0
 76149  1  0  0  0
 76150  1  0  0  0
 77 78  1  0  0  0
 77 80  1  0  0  0
 77151  1  0  0  0
 78 82  1  0  0  0
 78152  1  0  0  0
 80153  1  0  0  0
 81154  1  0  0  0
 82155  1  0  0  0
M  ISO  4   1 100  68 101  76 101  81 100
M  END
> <chiral flag>
0

> <version>
0

> <s_m_source_file>
/data/baiqing/PycharmProjects/Reinvent-master-3.2/result/LINK_invent/BTK/process_docking_weight1_custom_product_contain_oxygen_bond_distance_aromatic_linkinvent_7_9_3/rearranged_h_0192.sdf

> <i_m_source_file_index>
76

> <r_mmod_Potential_Energy-OPLS-2005>
-278.364105224609

> <r_mmod_Stretch_Energy-OPLS-2005>
48.1244850158691

> <r_mmod_Bend_Energy-OPLS-2005>
111.925079345703

> <r_mmod_Torsional_Energy-OPLS-2005>
237.260101318359

> <r_mmod_Improper_Torsional_Energy-OPLS-2005>
3.43008923530579

> <r_mmod_Van_der_Waal_Energy-OPLS-2005>
123.629936218262

> <r_mmod_Electrostatic_Energy-OPLS-2005>
-594.173706054688

> <r_mmod_Solvation_Energy-OPLS-2005>
-231.923187255859

> <b_mmod_Minimization_Converged-OPLS-2005>
0

> <r_mmod_RMS_Derivative-OPLS-2005>
1.88336169719696

$$$$
77
                    3D
 Structure written by MMmdl.
170178  0  0  1  0            999 V2000
  -30.6793  -14.6020   20.5375 C   0  0  0  0  0  0
  -30.4268  -12.3843   19.4364 C   0  0  0  0  0  0
  -29.4964  -12.4999   18.2112 C   0  0  0  0  0  0
  -28.0215  -12.3420   18.6303 C   0  0  0  0  0  0
  -27.6482  -13.2187   19.8560 C   0  0  2  0  0  0
  -28.6964  -13.0882   20.9828 C   0  0  0  0  0  0
  -25.2542  -13.8182   20.5691 C   0  0  0  0  0  0
  -24.1819  -13.0440   20.9205 C   0  0  0  0  0  0
  -24.6389  -11.6915   20.8748 C   0  0  0  0  0  0
  -23.9059  -10.4295   21.0411 C   0  0  0  0  0  0
  -24.3618   -9.4206   21.9184 C   0  0  0  0  0  0
  -23.6289   -8.2247   22.0753 C   0  0  0  0  0  0
  -22.4272   -8.0289   21.3546 C   0  0  0  0  0  0
  -21.9902   -9.0266   20.4654 C   0  0  0  0  0  0
  -22.7230  -10.2143   20.3062 C   0  0  0  0  0  0
  -21.6851   -6.0734   22.5278 C   0  0  0  0  0  0
  -21.4015   -6.5637   23.8213 C   0  0  0  0  0  0
  -21.3658   -5.6788   24.9174 C   0  0  0  0  0  0
  -21.6049   -4.3051   24.7222 C   0  0  0  0  0  0
  -21.8819   -3.8142   23.4341 C   0  0  0  0  0  0
  -21.9191   -4.6960   22.3397 C   0  0  0  0  0  0
  -22.7836  -13.5234   21.1859 C   0  0  0  0  0  0
  -22.1658   -4.2146   21.0976 F   0  0  0  0  0  0
  -21.5625   -3.4536   25.7730 F   0  0  0  0  0  0
  -30.0076  -13.4155   20.4048 N   0  0  0  0  0  0
  -26.2964  -12.9368   20.3306 N   0  0  0  0  0  0
  -25.9319  -11.6522   20.5765 N   0  0  0  0  0  0
  -22.0468  -12.8246   22.0421 N   0  0  0  0  0  0
  -25.4224  -15.1911   20.4092 N   0  0  0  0  0  0
  -31.8545  -14.7055   20.1703 O   0  0  0  0  0  0
  -21.6639   -6.8886   21.4244 O   0  0  0  0  0  0
  -22.3537  -14.5540   20.6692 O   0  0  0  0  0  0
  -24.6254  -31.8627   23.2058 C   0  0  0  0  0  0
  -25.9110  -32.4793   23.8375 C   0  0  1  0  0  0
  -27.2171  -27.3324   20.1078 C   0  0  0  0  0  0
  -25.5935  -33.8594   24.2301 N   0  0  0  0  0  0
  -23.4170  -30.4900   21.5483 C   0  0  2  0  0  0
  -24.8614  -28.9543   20.1108 C   0  0  0  0  0  0
  -22.7471  -29.4641   22.4937 C   0  0  0  0  0  0
  -18.0288  -28.1384   22.8482 C   0  0  0  0  0  0
  -24.1494  -36.7305   23.2636 C   0  0  0  0  0  0
  -25.9594  -30.7983   21.3765 C   0  0  0  0  0  0
  -26.0325  -29.4285   20.7158 C   0  0  0  0  0  0
  -27.2137  -28.6288   20.7075 C   0  0  0  0  0  0
  -26.0182  -26.9171   19.4758 C   0  0  0  0  0  0
  -24.8554  -27.7026   19.4843 C   0  0  0  0  0  0
  -23.6307  -29.8332   20.1612 C   0  0  0  0  0  0
  -25.4116  -36.3091   24.0327 C   0  0  1  0  0  0
  -20.5889  -28.3688   23.1282 C   0  0  2  0  0  0
  -20.6779  -26.9410   22.5412 C   0  0  0  0  0  0
  -19.5756  -26.6382   21.5210 C   0  0  0  0  0  0
  -18.1933  -26.7925   22.1620 C   0  0  0  0  0  0
  -19.1540  -28.8852   23.2878 C   0  0  0  0  0  0
  -18.9465  -30.1452   23.8896 C   0  0  0  0  0  0
  -17.6465  -30.6583   24.0564 C   0  0  0  0  0  0
  -25.9051  -34.9458   23.5110 C   0  0  0  0  0  0
  -16.5354  -29.9085   23.6326 C   0  0  0  0  0  0
  -16.7275  -28.6503   23.0343 C   0  0  0  0  0  0
  -26.4502  -31.6592   25.0732 C   0  0  0  0  0  0
  -25.3748  -31.3744   26.1472 C   0  0  0  0  0  0
  -27.0331  -30.3010   24.6178 C   0  0  0  0  0  0
  -27.6069  -32.4323   25.7491 C   0  0  0  0  0  0
  -27.5581  -37.1809   24.8464 C   0  0  0  0  0  0
  -21.4188  -29.3048   22.3681 N   0  0  0  0  0  0
  -26.4299  -37.3777   23.9400 N   0  0  0  0  0  0
  -24.6857  -31.0657   22.1002 N   0  0  0  0  0  0
  -23.4205  -28.8169   23.2997 O   0  0  0  0  0  0
  -28.3291  -26.4745   20.1614 O   0  0  0  0  0  0
  -26.5609  -34.8914   22.4671 O   0  0  0  0  0  0
  -23.5420  -32.1419   23.7392 O   0  0  0  0  0  0
  -31.2996  -18.0581   23.0198 C   0  0  0  0  0  0
  -30.3063  -16.9499   21.3629 C   0  0  0  0  0  0
  -30.0910  -19.1972   21.5690 C   0  0  0  0  0  0
  -32.9336  -19.7518   20.0711 C   0  0  0  0  0  0
  -33.4111  -21.5432   18.4356 C   0  0  0  0  0  0
  -31.6901  -19.8272   17.8846 C   0  0  0  0  0  0
  -29.1531  -23.9101   20.1911 C   0  0  0  0  0  0
  -31.2196  -21.6497   19.6440 C   0  0  0  0  0  0
  -28.0713  -25.0400   19.9181 C   0  0  0  0  0  0
  -29.7570  -21.1881   19.9477 C   0  0  2  0  0  0
  -28.7356  -22.4150   19.7700 C   0  0  2  0  0  0
  -32.2780  -20.6768   19.0277 C   0  0  0  0  0  0
  -31.0839  -16.8862   22.4372 N   0  0  0  0  0  0
  -30.8172  -19.2396   22.6628 N   0  0  0  0  0  0
  -29.7601  -18.0936   20.8731 N   0  0  0  0  0  0
  -29.9297  -15.7096   20.8329 N   0  0  0  0  0  0
  -29.6167  -20.4711   21.2335 N   0  0  0  0  0  0
  -28.3021  -22.3960   18.3577 N   0  3  0  0  0  0
  -31.4676  -12.4972   19.1272 H   0  0  0  0  0  0
  -30.3553  -11.3920   19.8847 H   0  0  0  0  0  0
  -29.7543  -11.7440   17.4684 H   0  0  0  0  0  0
  -29.6400  -13.4664   17.7260 H   0  0  0  0  0  0
  -27.8579  -11.2893   18.8651 H   0  0  0  0  0  0
  -27.3656  -12.5709   17.7892 H   0  0  0  0  0  0
  -27.6605  -14.2504   19.5055 H   0  0  0  0  0  0
  -28.7062  -12.0727   21.3808 H   0  0  0  0  0  0
  -28.4516  -13.7391   21.8242 H   0  0  0  0  0  0
  -25.2771   -9.5662   22.4752 H   0  0  0  0  0  0
  -23.9990   -7.4631   22.7465 H   0  0  0  0  0  0
  -21.0827   -8.8789   19.8971 H   0  0  0  0  0  0
  -22.3690  -10.9684   19.6172 H   0  0  0  0  0  0
  -21.2014   -7.6146   23.9715 H   0  0  0  0  0  0
  -21.1480   -6.0519   25.9078 H   0  0  0  0  0  0
  -22.0598   -2.7601   23.2844 H   0  0  0  0  0  0
  -22.4077  -11.9919   22.4838 H   0  0  0  0  0  0
  -21.1089  -13.1289   22.2626 H   0  0  0  0  0  0
  -24.6460  -15.8359   20.5118 H   0  0  0  0  0  0
  -26.2526  -15.6315   20.0335 H   0  0  0  0  0  0
  -26.7178  -32.5474   23.1128 H   0  0  0  0  0  0
  -25.0096  -33.9748   25.0453 H   0  0  0  0  0  0
  -22.7092  -31.3098   21.4095 H   0  0  0  0  0  0
  -23.3734  -35.9663   23.3331 H   0  0  0  0  0  0
  -24.3580  -36.8886   22.2043 H   0  0  0  0  0  0
  -23.7276  -37.6531   23.6633 H   0  0  0  0  0  0
  -26.0918  -31.5636   20.6103 H   0  0  0  0  0  0
  -26.8405  -30.8433   22.0051 H   0  0  0  0  0  0
  -28.1108  -28.9864   21.1940 H   0  0  0  0  0  0
  -25.9313  -25.9670   18.9726 H   0  0  0  0  0  0
  -23.9580  -27.3341   19.0057 H   0  0  0  0  0  0
  -23.7521  -30.6140   19.4096 H   0  0  0  0  0  0
  -22.7504  -29.2660   19.8539 H   0  0  0  0  0  0
  -25.1296  -36.1950   25.0820 H   0  0  0  0  0  0
  -20.9979  -28.3265   24.1402 H   0  0  0  0  0  0
  -20.5670  -26.2300   23.3614 H   0  0  0  0  0  0
  -21.6650  -26.7436   22.1211 H   0  0  0  0  0  0
  -19.6919  -25.6292   21.1238 H   0  0  0  0  0  0
  -19.6693  -27.3195   20.6739 H   0  0  0  0  0  0
  -17.4203  -26.6668   21.4023 H   0  0  0  0  0  0
  -18.0336  -26.0070   22.9019 H   0  0  0  0  0  0
  -19.7942  -30.7269   24.2269 H   0  0  0  0  0  0
  -17.5018  -31.6258   24.5171 H   0  0  0  0  0  0
  -15.5356  -30.2988   23.7644 H   0  0  0  0  0  0
  -15.8675  -28.0823   22.7054 H   0  0  0  0  0  0
  -24.5921  -30.7082   25.7827 H   0  0  0  0  0  0
  -24.8947  -32.2920   26.4884 H   0  0  0  0  0  0
  -25.8091  -30.8947   27.0253 H   0  0  0  0  0  0
  -26.2897  -29.6769   24.1203 H   0  0  0  0  0  0
  -27.4026  -29.7256   25.4676 H   0  0  0  0  0  0
  -27.8773  -30.4287   23.9398 H   0  0  0  0  0  0
  -27.2683  -33.3616   26.2086 H   0  0  0  0  0  0
  -28.3868  -32.6899   25.0311 H   0  0  0  0  0  0
  -28.0754  -31.8443   26.5394 H   0  0  0  0  0  0
  -28.2619  -38.0084   24.7471 H   0  0  0  0  0  0
  -28.1055  -36.2614   24.6335 H   0  0  0  0  0  0
  -27.2298  -37.1512   25.8867 H   0  0  0  0  0  0
  -20.9356  -29.8797   21.6921 H   0  0  0  0  0  0
  -26.0183  -38.2857   24.1383 H   0  0  0  0  0  0
  -31.9289  -18.0456   23.8980 H   0  0  0  0  0  0
  -33.8811  -19.3493   19.7097 H   0  0  0  0  0  0
  -32.3225  -18.8828   20.2911 H   0  0  0  0  0  0
  -33.1424  -20.2751   21.0050 H   0  0  0  0  0  0
  -34.1956  -20.9310   17.9881 H   0  0  0  0  0  0
  -33.8811  -22.1640   19.1999 H   0  0  0  0  0  0
  -33.0473  -22.2090   17.6518 H   0  0  0  0  0  0
  -32.4686  -19.2495   17.3840 H   0  0  0  0  0  0
  -31.2121  -20.4489   17.1268 H   0  0  0  0  0  0
  -30.9518  -19.1096   18.2437 H   0  0  0  0  0  0
  -29.4023  -23.9153   21.2522 H   0  0  0  0  0  0
  -30.0670  -24.2052   19.6779 H   0  0  0  0  0  0
  -31.6353  -22.1495   20.5209 H   0  0  0  0  0  0
  -31.1312  -22.4443   18.9042 H   0  0  0  0  0  0
  -27.1822  -24.7522   20.4829 H   0  0  0  0  0  0
  -27.8155  -24.9645   18.8614 H   0  0  0  0  0  0
  -29.4749  -20.4362   19.2108 H   0  0  0  0  0  0
  -27.8367  -22.1675   20.3380 H   0  0  0  0  0  0
  -28.9364  -15.5621   20.7970 H   0  0  0  0  0  0
  -29.7689  -21.1031   22.0096 H   0  0  0  0  0  0
  -29.0463  -22.6561   17.7345 H   0  0  0  0  0  0
  -27.5192  -23.0052   18.2002 H   0  0  0  0  0  0
  -28.0034  -21.4672   18.1153 H   0  0  0  0  0  0
  1 25  1  0  0  0
  1 30  2  0  0  0
  1 86  1  0  0  0
  2  3  1  0  0  0
  2 25  1  0  0  0
  2 89  1  0  0  0
  2 90  1  0  0  0
  3  4  1  0  0  0
  3 91  1  0  0  0
  3 92  1  0  0  0
  4  5  1  0  0  0
  4 93  1  0  0  0
  4 94  1  0  0  0
  5  6  1  0  0  0
  5 26  1  0  0  0
  5 95  1  0  0  0
  6 25  1  0  0  0
  6 96  1  0  0  0
  6 97  1  0  0  0
  7  8  2  0  0  0
  7 26  1  0  0  0
  7 29  1  0  0  0
  8  9  1  0  0  0
  8 22  1  0  0  0
  9 10  1  0  0  0
  9 27  2  0  0  0
 10 11  2  0  0  0
 10 15  1  0  0  0
 11 12  1  0  0  0
 11 98  1  0  0  0
 12 13  2  0  0  0
 12 99  1  0  0  0
 13 14  1  0  0  0
 13 31  1  0  0  0
 14 15  2  0  0  0
 14100  1  0  0  0
 15101  1  0  0  0
 16 17  2  0  0  0
 16 21  1  0  0  0
 16 31  1  0  0  0
 17 18  1  0  0  0
 17102  1  0  0  0
 18 19  2  0  0  0
 18103  1  0  0  0
 19 20  1  0  0  0
 19 24  1  0  0  0
 20 21  2  0  0  0
 20104  1  0  0  0
 21 23  1  0  0  0
 22 28  1  0  0  0
 22 32  2  0  0  0
 26 27  1  0  0  0
 28105  1  0  0  0
 28106  1  0  0  0
 29107  1  0  0  0
 29108  1  0  0  0
 33 34  1  0  0  0
 33 66  1  0  0  0
 33 70  2  0  0  0
 34 36  1  0  0  0
 34 59  1  0  0  0
 34109  1  0  0  0
 35 44  2  0  0  0
 35 45  1  0  0  0
 35 68  1  0  0  0
 36 56  1  0  0  0
 36110  1  0  0  0
 37 39  1  0  0  0
 37 47  1  0  0  0
 37 66  1  0  0  0
 37111  1  0  0  0
 38 43  2  0  0  0
 38 46  1  0  0  0
 38 47  1  0  0  0
 39 64  1  0  0  0
 39 67  2  0  0  0
 40 52  1  0  0  0
 40 53  2  0  0  0
 40 58  1  0  0  0
 41112  1  0  0  0
 41113  1  0  0  0
 41114  1  0  0  0
 41 48  1  0  0  0
 42 43  1  0  0  0
 42 66  1  0  0  0
 42115  1  0  0  0
 42116  1  0  0  0
 43 44  1  0  0  0
 44117  1  0  0  0
 45 46  2  0  0  0
 45118  1  0  0  0
 46119  1  0  0  0
 47120  1  0  0  0
 47121  1  0  0  0
 48 56  1  0  0  0
 48 65  1  0  0  0
 48122  1  0  0  0
 49 50  1  0  0  0
 49 53  1  0  0  0
 49 64  1  0  0  0
 49123  1  0  0  0
 50 51  1  0  0  0
 50124  1  0  0  0
 50125  1  0  0  0
 51 52  1  0  0  0
 51126  1  0  0  0
 51127  1  0  0  0
 52128  1  0  0  0
 52129  1  0  0  0
 53 54  1  0  0  0
 54 55  2  0  0  0
 54130  1  0  0  0
 55 57  1  0  0  0
 55131  1  0  0  0
 56 69  2  0  0  0
 57 58  2  0  0  0
 57132  1  0  0  0
 58133  1  0  0  0
 59 60  1  0  0  0
 59 61  1  0  0  0
 59 62  1  0  0  0
 60134  1  0  0  0
 60135  1  0  0  0
 60136  1  0  0  0
 61137  1  0  0  0
 61138  1  0  0  0
 61139  1  0  0  0
 62140  1  0  0  0
 62141  1  0  0  0
 62142  1  0  0  0
 63 65  1  0  0  0
 63143  1  0  0  0
 63144  1  0  0  0
 63145  1  0  0  0
 64146  1  0  0  0
 65147  1  0  0  0
 68 79  1  0  0  0
 71 83  2  0  0  0
 71 84  1  0  0  0
 71148  1  0  0  0
 72 83  1  0  0  0
 72 85  2  0  0  0
 72 86  1  0  0  0
 73 84  2  0  0  0
 73 85  1  0  0  0
 73 87  1  0  0  0
 74149  1  0  0  0
 74150  1  0  0  0
 74151  1  0  0  0
 74 82  1  0  0  0
 75 82  1  0  0  0
 75152  1  0  0  0
 75153  1  0  0  0
 75154  1  0  0  0
 76 82  1  0  0  0
 76155  1  0  0  0
 76156  1  0  0  0
 76157  1  0  0  0
 77 79  1  0  0  0
 77 81  1  0  0  0
 77158  1  0  0  0
 77159  1  0  0  0
 78 82  1  0  0  0
 78160  1  0  0  0
 78161  1  0  0  0
 78 80  1  0  0  0
 79162  1  0  0  0
 79163  1  0  0  0
 80 81  1  0  0  0
 80 87  1  0  0  0
 80164  1  0  0  0
 81 88  1  0  0  0
 81165  1  0  0  0
 86166  1  0  0  0
 87167  1  0  0  0
 88168  1  0  0  0
 88169  1  0  0  0
 88170  1  0  0  0
M  CHG  1  88   1
M  ISO  4   1 100  68 101  79 101  86 100
M  END
> <chiral flag>
0

> <version>
0

> <s_m_source_file>
/data/baiqing/PycharmProjects/Reinvent-master-3.2/result/LINK_invent/BTK/process_docking_weight1_custom_product_contain_oxygen_bond_distance_aromatic_linkinvent_7_9_3/rearranged_h_0192.sdf

> <i_m_source_file_index>
77

> <r_mmod_Potential_Energy-OPLS-2005>
-906.142761230469

> <r_mmod_Stretch_Energy-OPLS-2005>
75.7536315917969

> <r_mmod_Bend_Energy-OPLS-2005>
165.1181640625

> <r_mmod_Torsional_Energy-OPLS-2005>
279.613586425781

> <r_mmod_Improper_Torsional_Energy-OPLS-2005>
10.7072143554688

> <r_mmod_Van_der_Waal_Energy-OPLS-2005>
170.36067199707

> <r_mmod_Electrostatic_Energy-OPLS-2005>
-1133.10961914062

> <r_mmod_Solvation_Energy-OPLS-2005>
-517.699829101562

> <b_mmod_Minimization_Converged-OPLS-2005>
0

> <r_mmod_RMS_Derivative-OPLS-2005>
1.2218154668808

$$$$
78
                    3D
 Structure written by MMmdl.
153161  0  0  1  0            999 V2000
  -30.4869  -15.0117   20.4050 C   0  0  0  0  0  0
  -30.4524  -12.6279   19.5029 C   0  0  0  0  0  0
  -29.5312  -12.5273   18.2617 C   0  0  0  0  0  0
  -28.0759  -12.2783   18.6985 C   0  0  0  0  0  0
  -27.6303  -13.2370   19.8319 C   0  0  2  0  0  0
  -28.6676  -13.2971   20.9736 C   0  0  0  0  0  0
  -25.2508  -13.8170   20.5717 C   0  0  0  0  0  0
  -24.1807  -13.0422   20.9223 C   0  0  0  0  0  0
  -24.6407  -11.6899   20.8757 C   0  0  0  0  0  0
  -23.9067  -10.4272   21.0417 C   0  0  0  0  0  0
  -24.3613   -9.4181   21.9198 C   0  0  0  0  0  0
  -23.6275   -8.2224   22.0773 C   0  0  0  0  0  0
  -22.4242   -8.0294   21.3563 C   0  0  0  0  0  0
  -21.9881   -9.0263   20.4652 C   0  0  0  0  0  0
  -22.7233  -10.2137   20.3059 C   0  0  0  0  0  0
  -21.6862   -6.0722   22.5276 C   0  0  0  0  0  0
  -21.4024   -6.5624   23.8206 C   0  0  0  0  0  0
  -21.3658   -5.6787   24.9173 C   0  0  0  0  0  0
  -21.6043   -4.3051   24.7225 C   0  0  0  0  0  0
  -21.8815   -3.8137   23.4355 C   0  0  0  0  0  0
  -21.9198   -4.6950   22.3415 C   0  0  0  0  0  0
  -22.7838  -13.5227   21.1868 C   0  0  0  0  0  0
  -22.1673   -4.2149   21.0988 F   0  0  0  0  0  0
  -21.5633   -3.4528   25.7731 F   0  0  0  0  0  0
  -29.9368  -13.7259   20.3722 N   0  0  0  0  0  0
  -26.2897  -12.9386   20.3181 N   0  0  0  0  0  0
  -25.9322  -11.6523   20.5655 N   0  0  0  0  0  0
  -22.0479  -12.8235   22.0428 N   0  0  0  0  0  0
  -25.4176  -15.1900   20.4172 N   0  0  0  0  0  0
  -31.6985  -15.1003   20.1680 O   0  0  0  0  0  0
  -21.6649   -6.8871   21.4234 O   0  0  0  0  0  0
  -22.3539  -14.5543   20.6736 O   0  0  0  0  0  0
  -24.6444  -31.8457   23.1862 C   0  0  0  0  0  0
  -25.9223  -32.4718   23.8264 C   0  0  1  0  0  0
  -27.2187  -27.1118   20.1372 C   0  0  0  0  0  0
  -25.5982  -33.8523   24.2188 N   0  0  0  0  0  0
  -23.4506  -30.4632   21.5327 C   0  0  2  0  0  0
  -24.8999  -28.8861   20.1101 C   0  0  0  0  0  0
  -22.7579  -29.4558   22.4841 C   0  0  0  0  0  0
  -18.0343  -28.1307   22.8508 C   0  0  0  0  0  0
  -24.1503  -36.7257   23.2625 C   0  0  0  0  0  0
  -26.0085  -30.7036   21.3969 C   0  0  0  0  0  0
  -26.0769  -29.3153   20.7347 C   0  0  0  0  0  0
  -27.2310  -28.4413   20.7374 C   0  0  0  0  0  0
  -26.0148  -26.7946   19.4695 C   0  0  0  0  0  0
  -24.8818  -27.6383   19.4692 C   0  0  0  0  0  0
  -23.6810  -29.7958   20.1523 C   0  0  0  0  0  0
  -25.4141  -36.3046   24.0304 C   0  0  1  0  0  0
  -20.5937  -28.3769   23.1188 C   0  0  2  0  0  0
  -20.6868  -26.9455   22.5425 C   0  0  0  0  0  0
  -19.5807  -26.6155   21.5347 C   0  0  0  0  0  0
  -18.2003  -26.7776   22.1802 C   0  0  0  0  0  0
  -19.1583  -28.8865   23.2798 C   0  0  0  0  0  0
  -18.9492  -30.1479   23.8762 C   0  0  0  0  0  0
  -17.6487  -30.6602   24.0451 C   0  0  0  0  0  0
  -25.9105  -34.9431   23.5054 C   0  0  0  0  0  0
  -16.5390  -29.9035   23.6294 C   0  0  0  0  0  0
  -16.7329  -28.6418   23.0393 C   0  0  0  0  0  0
  -26.4496  -31.6578   25.0706 C   0  0  0  0  0  0
  -25.3636  -31.3850   26.1389 C   0  0  0  0  0  0
  -27.0346  -30.2947   24.6339 C   0  0  0  0  0  0
  -27.6053  -32.4319   25.7464 C   0  0  0  0  0  0
  -27.5605  -37.1788   24.8452 C   0  0  0  0  0  0
  -21.4269  -29.3091   22.3568 N   0  0  0  0  0  0
  -26.4325  -37.3772   23.9383 N   0  0  0  0  0  0
  -24.7215  -31.0270   22.0939 N   0  0  0  0  0  0
  -23.4204  -28.8103   23.3019 O   0  0  0  0  0  0
  -28.2824  -26.1297   20.2263 O   0  0  0  0  0  0
  -26.5690  -34.8913   22.4630 O   0  0  0  0  0  0
  -23.5561  -32.1362   23.7045 O   0  0  0  0  0  0
  -29.6573  -17.6917   20.3959 C   0  0  0  0  0  0
  -29.1559  -20.3497   20.2657 C   0  0  0  0  0  0
  -28.0089  -22.2032   22.9317 C   0  0  0  0  0  0
  -26.1610  -23.1105   21.4494 C   0  0  0  0  0  0
  -28.2582  -24.6307   19.7441 C   0  0  0  0  0  0
  -27.6460  -23.2368   21.8528 C   0  0  0  0  0  0
  -28.6087  -23.2188   20.6359 C   0  0  1  0  0  0
  -30.5733  -18.5152   20.9762 N   0  0  0  0  0  0
  -30.2858  -19.9601   20.9226 N   0  0  0  0  0  0
  -29.6160  -16.1434   20.4696 N   0  0  0  0  0  0
  -28.6423  -21.7534   20.0410 N   0  0  0  0  0  0
  -28.3427  -18.7928   19.7038 S   0  0  0  0  0  0
  -31.4837  -12.8068   19.1928 H   0  0  0  0  0  0
  -30.4674  -11.6826   20.0498 H   0  0  0  0  0  0
  -29.8681  -11.7255   17.6026 H   0  0  0  0  0  0
  -29.5841  -13.4507   17.6803 H   0  0  0  0  0  0
  -28.0222  -11.2489   19.0605 H   0  0  0  0  0  0
  -27.4038  -12.3468   17.8436 H   0  0  0  0  0  0
  -27.5851  -14.2258   19.3774 H   0  0  0  0  0  0
  -28.7722  -12.3310   21.4694 H   0  0  0  0  0  0
  -28.3446  -14.0030   21.7439 H   0  0  0  0  0  0
  -25.2743   -9.5674   22.4779 H   0  0  0  0  0  0
  -24.0010   -7.4607   22.7486 H   0  0  0  0  0  0
  -21.0818   -8.8768   19.8940 H   0  0  0  0  0  0
  -22.3689  -10.9683   19.6185 H   0  0  0  0  0  0
  -21.2022   -7.6135   23.9713 H   0  0  0  0  0  0
  -21.1480   -6.0518   25.9079 H   0  0  0  0  0  0
  -22.0592   -2.7602   23.2854 H   0  0  0  0  0  0
  -22.4094  -11.9903   22.4800 H   0  0  0  0  0  0
  -21.1114  -13.1283   22.2639 H   0  0  0  0  0  0
  -24.6384  -15.8293   20.5200 H   0  0  0  0  0  0
  -26.2336  -15.6249   20.0115 H   0  0  0  0  0  0
  -26.7278  -32.5293   23.0970 H   0  0  0  0  0  0
  -25.0097  -33.9639   25.0323 H   0  0  0  0  0  0
  -22.7560  -31.2918   21.3776 H   0  0  0  0  0  0
  -23.3795  -35.9563   23.3270 H   0  0  0  0  0  0
  -24.3598  -36.8898   22.2046 H   0  0  0  0  0  0
  -23.7218  -37.6428   23.6670 H   0  0  0  0  0  0
  -26.1771  -31.4651   20.6333 H   0  0  0  0  0  0
  -26.8705  -30.7467   22.0515 H   0  0  0  0  0  0
  -28.1253  -28.7592   21.2550 H   0  0  0  0  0  0
  -25.8949  -25.8572   18.9521 H   0  0  0  0  0  0
  -23.9838  -27.3019   18.9697 H   0  0  0  0  0  0
  -23.8213  -30.5688   19.3959 H   0  0  0  0  0  0
  -22.7931  -29.2405   19.8436 H   0  0  0  0  0  0
  -25.1327  -36.1903   25.0804 H   0  0  0  0  0  0
  -20.9986  -28.3387   24.1334 H   0  0  0  0  0  0
  -20.5899  -26.2417   23.3701 H   0  0  0  0  0  0
  -21.6729  -26.7516   22.1160 H   0  0  0  0  0  0
  -19.7042  -25.5944   21.1733 H   0  0  0  0  0  0
  -19.6660  -27.2690   20.6646 H   0  0  0  0  0  0
  -17.4212  -26.6339   21.4297 H   0  0  0  0  0  0
  -18.0500  -26.0028   22.9341 H   0  0  0  0  0  0
  -19.7982  -30.7319   24.2036 H   0  0  0  0  0  0
  -17.5045  -31.6319   24.4963 H   0  0  0  0  0  0
  -15.5385  -30.2927   23.7611 H   0  0  0  0  0  0
  -15.8753  -28.0664   22.7180 H   0  0  0  0  0  0
  -24.5817  -30.7198   25.7679 H   0  0  0  0  0  0
  -24.8827  -32.3083   26.4637 H   0  0  0  0  0  0
  -25.7864  -30.9113   27.0262 H   0  0  0  0  0  0
  -26.2974  -29.6664   24.1329 H   0  0  0  0  0  0
  -27.3882  -29.7259   25.4944 H   0  0  0  0  0  0
  -27.8915  -30.4106   23.9707 H   0  0  0  0  0  0
  -27.2671  -33.3617   26.2038 H   0  0  0  0  0  0
  -28.3848  -32.6885   25.0281 H   0  0  0  0  0  0
  -28.0740  -31.8457   26.5366 H   0  0  0  0  0  0
  -28.2617  -38.0096   24.7546 H   0  0  0  0  0  0
  -28.1118  -36.2638   24.6244 H   0  0  0  0  0  0
  -27.2335  -37.1396   25.8860 H   0  0  0  0  0  0
  -20.9501  -29.8915   21.6827 H   0  0  0  0  0  0
  -26.0196  -38.2843   24.1396 H   0  0  0  0  0  0
  -27.4697  -22.4051   23.8565 H   0  0  0  0  0  0
  -29.0748  -22.2317   23.1596 H   0  0  0  0  0  0
  -27.7596  -21.1883   22.6223 H   0  0  0  0  0  0
  -25.5105  -23.0742   22.3238 H   0  0  0  0  0  0
  -25.9763  -22.2103   20.8656 H   0  0  0  0  0  0
  -25.8273  -23.9655   20.8579 H   0  0  0  0  0  0
  -29.0024  -24.6361   18.9453 H   0  0  0  0  0  0
  -27.3349  -24.4334   19.2068 H   0  0  0  0  0  0
  -27.7618  -24.2182   22.3188 H   0  0  0  0  0  0
  -29.6182  -23.3646   21.0215 H   0  0  0  0  0  0
  -28.6651  -15.8179   20.5286 H   0  0  0  0  0  0
  -27.9017  -21.6912   19.3487 H   0  0  0  0  0  0
  1 25  1  0  0  0
  1 30  2  0  0  0
  1 80  1  0  0  0
  2  3  1  0  0  0
  2 25  1  0  0  0
  2 83  1  0  0  0
  2 84  1  0  0  0
  3  4  1  0  0  0
  3 85  1  0  0  0
  3 86  1  0  0  0
  4  5  1  0  0  0
  4 87  1  0  0  0
  4 88  1  0  0  0
  5  6  1  0  0  0
  5 26  1  0  0  0
  5 89  1  0  0  0
  6 25  1  0  0  0
  6 90  1  0  0  0
  6 91  1  0  0  0
  7  8  2  0  0  0
  7 26  1  0  0  0
  7 29  1  0  0  0
  8  9  1  0  0  0
  8 22  1  0  0  0
  9 10  1  0  0  0
  9 27  2  0  0  0
 10 11  2  0  0  0
 10 15  1  0  0  0
 11 12  1  0  0  0
 11 92  1  0  0  0
 12 13  2  0  0  0
 12 93  1  0  0  0
 13 14  1  0  0  0
 13 31  1  0  0  0
 14 15  2  0  0  0
 14 94  1  0  0  0
 15 95  1  0  0  0
 16 17  2  0  0  0
 16 21  1  0  0  0
 16 31  1  0  0  0
 17 18  1  0  0  0
 17 96  1  0  0  0
 18 19  2  0  0  0
 18 97  1  0  0  0
 19 20  1  0  0  0
 19 24  1  0  0  0
 20 21  2  0  0  0
 20 98  1  0  0  0
 21 23  1  0  0  0
 22 28  1  0  0  0
 22 32  2  0  0  0
 26 27  1  0  0  0
 28 99  1  0  0  0
 28100  1  0  0  0
 29101  1  0  0  0
 29102  1  0  0  0
 33 34  1  0  0  0
 33 66  1  0  0  0
 33 70  2  0  0  0
 34 36  1  0  0  0
 34 59  1  0  0  0
 34103  1  0  0  0
 35 44  2  0  0  0
 35 45  1  0  0  0
 35 68  1  0  0  0
 36 56  1  0  0  0
 36104  1  0  0  0
 37 39  1  0  0  0
 37 47  1  0  0  0
 37 66  1  0  0  0
 37105  1  0  0  0
 38 43  2  0  0  0
 38 46  1  0  0  0
 38 47  1  0  0  0
 39 64  1  0  0  0
 39 67  2  0  0  0
 40 52  1  0  0  0
 40 53  2  0  0  0
 40 58  1  0  0  0
 41106  1  0  0  0
 41107  1  0  0  0
 41108  1  0  0  0
 41 48  1  0  0  0
 42 43  1  0  0  0
 42 66  1  0  0  0
 42109  1  0  0  0
 42110  1  0  0  0
 43 44  1  0  0  0
 44111  1  0  0  0
 45 46  2  0  0  0
 45112  1  0  0  0
 46113  1  0  0  0
 47114  1  0  0  0
 47115  1  0  0  0
 48 56  1  0  0  0
 48 65  1  0  0  0
 48116  1  0  0  0
 49 50  1  0  0  0
 49 53  1  0  0  0
 49 64  1  0  0  0
 49117  1  0  0  0
 50 51  1  0  0  0
 50118  1  0  0  0
 50119  1  0  0  0
 51 52  1  0  0  0
 51120  1  0  0  0
 51121  1  0  0  0
 52122  1  0  0  0
 52123  1  0  0  0
 53 54  1  0  0  0
 54 55  2  0  0  0
 54124  1  0  0  0
 55 57  1  0  0  0
 55125  1  0  0  0
 56 69  2  0  0  0
 57 58  2  0  0  0
 57126  1  0  0  0
 58127  1  0  0  0
 59 60  1  0  0  0
 59 61  1  0  0  0
 59 62  1  0  0  0
 60128  1  0  0  0
 60129  1  0  0  0
 60130  1  0  0  0
 61131  1  0  0  0
 61132  1  0  0  0
 61133  1  0  0  0
 62134  1  0  0  0
 62135  1  0  0  0
 62136  1  0  0  0
 63 65  1  0  0  0
 63137  1  0  0  0
 63138  1  0  0  0
 63139  1  0  0  0
 64140  1  0  0  0
 65141  1  0  0  0
 68 75  1  0  0  0
 71 78  2  0  0  0
 71 80  1  0  0  0
 71 82  1  0  0  0
 72 79  2  0  0  0
 72 81  1  0  0  0
 72 82  1  0  0  0
 73142  1  0  0  0
 73143  1  0  0  0
 73144  1  0  0  0
 73 76  1  0  0  0
 74 76  1  0  0  0
 74145  1  0  0  0
 74146  1  0  0  0
 74147  1  0  0  0
 75148  1  0  0  0
 75149  1  0  0  0
 75 77  1  0  0  0
 76 77  1  0  0  0
 76150  1  0  0  0
 77 81  1  0  0  0
 77151  1  0  0  0
 78 79  1  0  0  0
 80152  1  0  0  0
 81153  1  0  0  0
M  ISO  4   1 100  68 101  75 101  80 100
M  END
> <chiral flag>
0

> <version>
0

> <s_m_source_file>
/data/baiqing/PycharmProjects/Reinvent-master-3.2/result/LINK_invent/BTK/process_docking_weight1_custom_product_contain_oxygen_bond_distance_aromatic_linkinvent_7_9_3/rearranged_h_0192.sdf

> <i_m_source_file_index>
78

> <r_mmod_Potential_Energy-OPLS-2005>
461.25830078125

> <r_mmod_Stretch_Energy-OPLS-2005>
275.201232910156

> <r_mmod_Bend_Energy-OPLS-2005>
293.104309082031

> <r_mmod_Torsional_Energy-OPLS-2005>
228.126251220703

> <r_mmod_Improper_Torsional_Energy-OPLS-2005>
6.97489261627197

> <r_mmod_Van_der_Waal_Energy-OPLS-2005>
108.297866821289

> <r_mmod_Electrostatic_Energy-OPLS-2005>
-434.878448486328

> <r_mmod_Solvation_Energy-OPLS-2005>
-245.730224609375

> <b_mmod_Minimization_Converged-OPLS-2005>
0

> <r_mmod_RMS_Derivative-OPLS-2005>
4.93936204910278

$$$$
79
                    3D
 Structure written by MMmdl.
151159  0  0  1  0            999 V2000
  -30.6239  -14.6537   20.4887 C   0  0  0  0  0  0
  -30.4393  -12.3986   19.4527 C   0  0  0  0  0  0
  -29.5094  -12.5074   18.2236 C   0  0  0  0  0  0
  -28.0323  -12.3420   18.6354 C   0  0  0  0  0  0
  -27.6523  -13.2159   19.8600 C   0  0  2  0  0  0
  -28.6992  -13.0842   20.9902 C   0  0  0  0  0  0
  -25.2563  -13.8162   20.5678 C   0  0  0  0  0  0
  -24.1834  -13.0436   20.9209 C   0  0  0  0  0  0
  -24.6394  -11.6905   20.8745 C   0  0  0  0  0  0
  -23.9057  -10.4291   21.0409 C   0  0  0  0  0  0
  -24.3608   -9.4207   21.9186 C   0  0  0  0  0  0
  -23.6285   -8.2243   22.0755 C   0  0  0  0  0  0
  -22.4268   -8.0278   21.3544 C   0  0  0  0  0  0
  -21.9902   -9.0254   20.4650 C   0  0  0  0  0  0
  -22.7229  -10.2134   20.3059 C   0  0  0  0  0  0
  -21.6854   -6.0731   22.5277 C   0  0  0  0  0  0
  -21.4015   -6.5636   23.8210 C   0  0  0  0  0  0
  -21.3657   -5.6788   24.9172 C   0  0  0  0  0  0
  -21.6044   -4.3051   24.7225 C   0  0  0  0  0  0
  -21.8818   -3.8143   23.4347 C   0  0  0  0  0  0
  -21.9193   -4.6958   22.3402 C   0  0  0  0  0  0
  -22.7855  -13.5237   21.1854 C   0  0  0  0  0  0
  -22.1662   -4.2145   21.0980 F   0  0  0  0  0  0
  -21.5627   -3.4535   25.7738 F   0  0  0  0  0  0
  -30.0127  -13.4269   20.4231 N   0  0  0  0  0  0
  -26.2986  -12.9341   20.3298 N   0  0  0  0  0  0
  -25.9322  -11.6499   20.5749 N   0  0  0  0  0  0
  -22.0482  -12.8241   22.0409 N   0  0  0  0  0  0
  -25.4269  -15.1880   20.4043 N   0  0  0  0  0  0
  -31.7978  -14.7966   20.1330 O   0  0  0  0  0  0
  -21.6638   -6.8873   21.4238 O   0  0  0  0  0  0
  -22.3551  -14.5542   20.6689 O   0  0  0  0  0  0
  -24.6265  -31.8595   23.2028 C   0  0  0  0  0  0
  -25.9108  -32.4776   23.8355 C   0  0  1  0  0  0
  -27.2241  -27.3144   20.1135 C   0  0  0  0  0  0
  -25.5918  -33.8579   24.2280 N   0  0  0  0  0  0
  -23.4202  -30.4846   21.5460 C   0  0  2  0  0  0
  -24.8668  -28.9418   20.1119 C   0  0  0  0  0  0
  -22.7474  -29.4624   22.4931 C   0  0  0  0  0  0
  -18.0285  -28.1382   22.8482 C   0  0  0  0  0  0
  -24.1490  -36.7301   23.2638 C   0  0  0  0  0  0
  -25.9631  -30.7893   21.3750 C   0  0  0  0  0  0
  -26.0377  -29.4172   20.7158 C   0  0  0  0  0  0
  -27.2198  -28.6162   20.7061 C   0  0  0  0  0  0
  -26.0262  -26.8966   19.4858 C   0  0  0  0  0  0
  -24.8634  -27.6869   19.4883 C   0  0  0  0  0  0
  -23.6348  -29.8214   20.1612 C   0  0  0  0  0  0
  -25.4112  -36.3088   24.0327 C   0  0  1  0  0  0
  -20.5887  -28.3687   23.1278 C   0  0  2  0  0  0
  -20.6774  -26.9406   22.5410 C   0  0  0  0  0  0
  -19.5754  -26.6380   21.5208 C   0  0  0  0  0  0
  -18.1932  -26.7924   22.1618 C   0  0  0  0  0  0
  -19.1538  -28.8850   23.2876 C   0  0  0  0  0  0
  -18.9461  -30.1454   23.8891 C   0  0  0  0  0  0
  -17.6462  -30.6583   24.0561 C   0  0  0  0  0  0
  -25.9046  -34.9452   23.5106 C   0  0  0  0  0  0
  -16.5353  -29.9082   23.6330 C   0  0  0  0  0  0
  -16.7273  -28.6501   23.0344 C   0  0  0  0  0  0
  -26.4483  -31.6584   25.0728 C   0  0  0  0  0  0
  -25.3708  -31.3731   26.1451 C   0  0  0  0  0  0
  -27.0313  -30.3001   24.6186 C   0  0  0  0  0  0
  -27.6048  -32.4308   25.7497 C   0  0  0  0  0  0
  -27.5582  -37.1803   24.8457 C   0  0  0  0  0  0
  -21.4185  -29.3043   22.3672 N   0  0  0  0  0  0
  -26.4292  -37.3780   23.9404 N   0  0  0  0  0  0
  -24.6891  -31.0605   22.0981 N   0  0  0  0  0  0
  -23.4196  -28.8154   23.3003 O   0  0  0  0  0  0
  -28.3368  -26.4535   20.1589 O   0  0  0  0  0  0
  -26.5620  -34.8919   22.4676 O   0  0  0  0  0  0
  -23.5426  -32.1389   23.7355 O   0  0  0  0  0  0
  -28.7604  -17.9569   20.6738 C   0  0  0  0  0  0
  -29.9518  -17.1640   20.6447 C   0  0  0  0  0  0
  -29.9162  -19.9770   20.4751 C   0  0  0  0  0  0
  -31.1195  -19.2011   20.4447 C   0  0  0  0  0  0
  -28.8342  -22.3801   20.2946 C   0  0  0  0  0  0
  -28.0669  -24.9925   20.1279 C   0  0  0  0  0  0
  -29.2292  -23.9319   20.3885 C   0  0  1  0  0  0
  -28.7282  -19.3275   20.5823 N   0  0  0  0  0  0
  -31.1346  -17.8319   20.5213 N   0  0  0  0  0  0
  -29.8000  -15.7131   20.7720 N   0  0  0  0  0  0
  -29.9655  -21.4096   20.4124 N   0  0  0  0  0  0
  -29.6803  -24.1219   21.7172 O   0  0  0  0  0  0
  -32.3096  -19.8412   20.3381 F   0  0  0  0  0  0
  -31.4809  -12.5209   19.1504 H   0  0  0  0  0  0
  -30.3726  -11.4054   19.8997 H   0  0  0  0  0  0
  -29.7766  -11.7557   17.4797 H   0  0  0  0  0  0
  -29.6493  -13.4763   17.7413 H   0  0  0  0  0  0
  -27.8711  -11.2890   18.8697 H   0  0  0  0  0  0
  -27.3785  -12.5689   17.7922 H   0  0  0  0  0  0
  -27.6657  -14.2478   19.5101 H   0  0  0  0  0  0
  -28.7155  -12.0656   21.3811 H   0  0  0  0  0  0
  -28.4458  -13.7232   21.8375 H   0  0  0  0  0  0
  -25.2752   -9.5686   22.4762 H   0  0  0  0  0  0
  -23.9995   -7.4634   22.7472 H   0  0  0  0  0  0
  -21.0834   -8.8771   19.8959 H   0  0  0  0  0  0
  -22.3683  -10.9672   19.6169 H   0  0  0  0  0  0
  -21.2008   -7.6143   23.9709 H   0  0  0  0  0  0
  -21.1481   -6.0521   25.9073 H   0  0  0  0  0  0
  -22.0600   -2.7606   23.2847 H   0  0  0  0  0  0
  -22.4080  -11.9907   22.4820 H   0  0  0  0  0  0
  -21.1100  -13.1281   22.2592 H   0  0  0  0  0  0
  -24.6475  -15.8315   20.4896 H   0  0  0  0  0  0
  -26.2396  -15.6115   19.9773 H   0  0  0  0  0  0
  -26.7176  -32.5443   23.1103 H   0  0  0  0  0  0
  -25.0046  -33.9721   25.0411 H   0  0  0  0  0  0
  -22.7149  -31.3061   21.4037 H   0  0  0  0  0  0
  -23.3750  -35.9635   23.3298 H   0  0  0  0  0  0
  -24.3582  -36.8928   22.2054 H   0  0  0  0  0  0
  -23.7247  -37.6503   23.6664 H   0  0  0  0  0  0
  -26.0949  -31.5530   20.6074 H   0  0  0  0  0  0
  -26.8436  -30.8376   22.0042 H   0  0  0  0  0  0
  -28.1170  -28.9766   21.1897 H   0  0  0  0  0  0
  -25.9506  -25.9421   18.9889 H   0  0  0  0  0  0
  -23.9667  -27.3176   19.0105 H   0  0  0  0  0  0
  -23.7531  -30.5978   19.4046 H   0  0  0  0  0  0
  -22.7548  -29.2504   19.8593 H   0  0  0  0  0  0
  -25.1290  -36.1943   25.0820 H   0  0  0  0  0  0
  -20.9982  -28.3264   24.1397 H   0  0  0  0  0  0
  -20.5668  -26.2291   23.3610 H   0  0  0  0  0  0
  -21.6644  -26.7428   22.1211 H   0  0  0  0  0  0
  -19.6915  -25.6289   21.1242 H   0  0  0  0  0  0
  -19.6699  -27.3185   20.6733 H   0  0  0  0  0  0
  -17.4201  -26.6667   21.4023 H   0  0  0  0  0  0
  -18.0335  -26.0066   22.9016 H   0  0  0  0  0  0
  -19.7939  -30.7271   24.2256 H   0  0  0  0  0  0
  -17.5017  -31.6262   24.5166 H   0  0  0  0  0  0
  -15.5353  -30.2981   23.7658 H   0  0  0  0  0  0
  -15.8671  -28.0824   22.7055 H   0  0  0  0  0  0
  -24.5883  -30.7078   25.7780 H   0  0  0  0  0  0
  -24.8894  -32.2900   26.4861 H   0  0  0  0  0  0
  -25.8024  -30.8917   27.0235 H   0  0  0  0  0  0
  -26.2881  -29.6763   24.1203 H   0  0  0  0  0  0
  -27.3990  -29.7250   25.4694 H   0  0  0  0  0  0
  -27.8765  -30.4274   23.9418 H   0  0  0  0  0  0
  -27.2664  -33.3604   26.2085 H   0  0  0  0  0  0
  -28.3855  -32.6868   25.0321 H   0  0  0  0  0  0
  -28.0715  -31.8419   26.5403 H   0  0  0  0  0  0
  -28.2593  -38.0106   24.7511 H   0  0  0  0  0  0
  -28.1087  -36.2638   24.6271 H   0  0  0  0  0  0
  -27.2303  -37.1442   25.8860 H   0  0  0  0  0  0
  -20.9356  -29.8773   21.6892 H   0  0  0  0  0  0
  -26.0177  -38.2857   24.1403 H   0  0  0  0  0  0
  -27.7969  -17.4785   20.7713 H   0  0  0  0  0  0
  -28.3487  -22.2031   19.3334 H   0  0  0  0  0  0
  -28.0846  -22.1444   21.0522 H   0  0  0  0  0  0
  -27.2492  -24.7770   20.8184 H   0  0  0  0  0  0
  -27.6956  -24.7552   19.1307 H   0  0  0  0  0  0
  -30.0453  -24.1411   19.6947 H   0  0  0  0  0  0
  -28.8663  -15.4195   21.0099 H   0  0  0  0  0  0
  -30.8995  -21.8100   20.4156 H   0  0  0  0  0  0
  -29.8932  -25.0466   21.8061 H   0  0  0  0  0  0
  1 25  1  0  0  0
  1 30  2  0  0  0
  1 80  1  0  0  0
  2  3  1  0  0  0
  2 25  1  0  0  0
  2 84  1  0  0  0
  2 85  1  0  0  0
  3  4  1  0  0  0
  3 86  1  0  0  0
  3 87  1  0  0  0
  4  5  1  0  0  0
  4 88  1  0  0  0
  4 89  1  0  0  0
  5  6  1  0  0  0
  5 26  1  0  0  0
  5 90  1  0  0  0
  6 25  1  0  0  0
  6 91  1  0  0  0
  6 92  1  0  0  0
  7  8  2  0  0  0
  7 26  1  0  0  0
  7 29  1  0  0  0
  8  9  1  0  0  0
  8 22  1  0  0  0
  9 10  1  0  0  0
  9 27  2  0  0  0
 10 11  2  0  0  0
 10 15  1  0  0  0
 11 12  1  0  0  0
 11 93  1  0  0  0
 12 13  2  0  0  0
 12 94  1  0  0  0
 13 14  1  0  0  0
 13 31  1  0  0  0
 14 15  2  0  0  0
 14 95  1  0  0  0
 15 96  1  0  0  0
 16 17  2  0  0  0
 16 21  1  0  0  0
 16 31  1  0  0  0
 17 18  1  0  0  0
 17 97  1  0  0  0
 18 19  2  0  0  0
 18 98  1  0  0  0
 19 20  1  0  0  0
 19 24  1  0  0  0
 20 21  2  0  0  0
 20 99  1  0  0  0
 21 23  1  0  0  0
 22 28  1  0  0  0
 22 32  2  0  0  0
 26 27  1  0  0  0
 28100  1  0  0  0
 28101  1  0  0  0
 29102  1  0  0  0
 29103  1  0  0  0
 33 34  1  0  0  0
 33 66  1  0  0  0
 33 70  2  0  0  0
 34 36  1  0  0  0
 34 59  1  0  0  0
 34104  1  0  0  0
 35 44  2  0  0  0
 35 45  1  0  0  0
 35 68  1  0  0  0
 36 56  1  0  0  0
 36105  1  0  0  0
 37 39  1  0  0  0
 37 47  1  0  0  0
 37 66  1  0  0  0
 37106  1  0  0  0
 38 43  2  0  0  0
 38 46  1  0  0  0
 38 47  1  0  0  0
 39 64  1  0  0  0
 39 67  2  0  0  0
 40 52  1  0  0  0
 40 53  2  0  0  0
 40 58  1  0  0  0
 41107  1  0  0  0
 41108  1  0  0  0
 41109  1  0  0  0
 41 48  1  0  0  0
 42 43  1  0  0  0
 42 66  1  0  0  0
 42110  1  0  0  0
 42111  1  0  0  0
 43 44  1  0  0  0
 44112  1  0  0  0
 45 46  2  0  0  0
 45113  1  0  0  0
 46114  1  0  0  0
 47115  1  0  0  0
 47116  1  0  0  0
 48 56  1  0  0  0
 48 65  1  0  0  0
 48117  1  0  0  0
 49 50  1  0  0  0
 49 53  1  0  0  0
 49 64  1  0  0  0
 49118  1  0  0  0
 50 51  1  0  0  0
 50119  1  0  0  0
 50120  1  0  0  0
 51 52  1  0  0  0
 51121  1  0  0  0
 51122  1  0  0  0
 52123  1  0  0  0
 52124  1  0  0  0
 53 54  1  0  0  0
 54 55  2  0  0  0
 54125  1  0  0  0
 55 57  1  0  0  0
 55126  1  0  0  0
 56 69  2  0  0  0
 57 58  2  0  0  0
 57127  1  0  0  0
 58128  1  0  0  0
 59 60  1  0  0  0
 59 61  1  0  0  0
 59 62  1  0  0  0
 60129  1  0  0  0
 60130  1  0  0  0
 60131  1  0  0  0
 61132  1  0  0  0
 61133  1  0  0  0
 61134  1  0  0  0
 62135  1  0  0  0
 62136  1  0  0  0
 62137  1  0  0  0
 63 65  1  0  0  0
 63138  1  0  0  0
 63139  1  0  0  0
 63140  1  0  0  0
 64141  1  0  0  0
 65142  1  0  0  0
 68 76  1  0  0  0
 71 72  2  0  0  0
 71 78  1  0  0  0
 71143  1  0  0  0
 72 79  1  0  0  0
 72 80  1  0  0  0
 73 74  1  0  0  0
 73 78  2  0  0  0
 73 81  1  0  0  0
 74 79  2  0  0  0
 74 83  1  0  0  0
 75 77  1  0  0  0
 75 81  1  0  0  0
 75144  1  0  0  0
 75145  1  0  0  0
 76 77  1  0  0  0
 76146  1  0  0  0
 76147  1  0  0  0
 77 82  1  0  0  0
 77148  1  0  0  0
 80149  1  0  0  0
 81150  1  0  0  0
 82151  1  0  0  0
M  ISO  4   1 100  68 101  76 101  80 100
M  END
> <chiral flag>
0

> <version>
0

> <s_m_source_file>
/data/baiqing/PycharmProjects/Reinvent-master-3.2/result/LINK_invent/BTK/process_docking_weight1_custom_product_contain_oxygen_bond_distance_aromatic_linkinvent_7_9_3/rearranged_h_0192.sdf

> <i_m_source_file_index>
79

> <r_mmod_Potential_Energy-OPLS-2005>
65.3771438598633

> <r_mmod_Stretch_Energy-OPLS-2005>
83.6199951171875

> <r_mmod_Bend_Energy-OPLS-2005>
147.536697387695

> <r_mmod_Torsional_Energy-OPLS-2005>
224.432495117188

> <r_mmod_Improper_Torsional_Energy-OPLS-2005>
5.20981216430664

> <r_mmod_Van_der_Waal_Energy-OPLS-2005>
148.519119262695

> <r_mmod_Electrostatic_Energy-OPLS-2005>
-338.299713134766

> <r_mmod_Solvation_Energy-OPLS-2005>
-257.944061279297

> <b_mmod_Minimization_Converged-OPLS-2005>
0

> <r_mmod_RMS_Derivative-OPLS-2005>
0.671691358089447

$$$$
80
                    3D
 Structure written by MMmdl.
154162  0  0  1  0            999 V2000
  -30.6180  -14.7860   20.4368 C   0  0  0  0  0  0
  -30.4232  -12.4740   19.4964 C   0  0  0  0  0  0
  -29.5093  -12.5056   18.2521 C   0  0  0  0  0  0
  -28.0440  -12.2964   18.6715 C   0  0  0  0  0  0
  -27.6351  -13.2317   19.8391 C   0  0  2  0  0  0
  -28.6735  -13.2258   20.9818 C   0  0  0  0  0  0
  -25.2558  -13.8210   20.5734 C   0  0  0  0  0  0
  -24.1838  -13.0484   20.9194 C   0  0  0  0  0  0
  -24.6399  -11.6949   20.8781 C   0  0  0  0  0  0
  -23.9064  -10.4315   21.0426 C   0  0  0  0  0  0
  -24.3598   -9.4216   21.9198 C   0  0  0  0  0  0
  -23.6271   -8.2262   22.0741 C   0  0  0  0  0  0
  -22.4244   -8.0292   21.3557 C   0  0  0  0  0  0
  -21.9904   -9.0268   20.4656 C   0  0  0  0  0  0
  -22.7238  -10.2146   20.3076 C   0  0  0  0  0  0
  -21.6840   -6.0752   22.5312 C   0  0  0  0  0  0
  -21.4029   -6.5668   23.8244 C   0  0  0  0  0  0
  -21.3666   -5.6822   24.9199 C   0  0  0  0  0  0
  -21.6012   -4.3085   24.7258 C   0  0  0  0  0  0
  -21.8819   -3.8170   23.4393 C   0  0  0  0  0  0
  -21.9198   -4.6983   22.3436 C   0  0  0  0  0  0
  -22.7865  -13.5272   21.1863 C   0  0  0  0  0  0
  -22.1660   -4.2184   21.1010 F   0  0  0  0  0  0
  -21.5574   -3.4549   25.7762 F   0  0  0  0  0  0
  -29.9800  -13.5612   20.4008 N   0  0  0  0  0  0
  -26.2938  -12.9418   20.3265 N   0  0  0  0  0  0
  -25.9325  -11.6561   20.5767 N   0  0  0  0  0  0
  -22.0492  -12.8265   22.0404 N   0  0  0  0  0  0
  -25.4382  -15.1913   20.4191 N   0  0  0  0  0  0
  -31.8076  -14.8578   20.1237 O   0  0  0  0  0  0
  -21.6614   -6.8886   21.4256 O   0  0  0  0  0  0
  -22.3577  -14.5582   20.6691 O   0  0  0  0  0  0
  -24.6361  -31.8511   23.1937 C   0  0  0  0  0  0
  -25.9177  -32.4725   23.8262 C   0  0  1  0  0  0
  -27.1920  -27.2128   20.1111 C   0  0  0  0  0  0
  -25.5959  -33.8509   24.2186 N   0  0  0  0  0  0
  -23.4329  -30.4739   21.5397 C   0  0  2  0  0  0
  -24.8702  -28.9084   20.1106 C   0  0  0  0  0  0
  -22.7479  -29.4589   22.4884 C   0  0  0  0  0  0
  -18.0257  -28.1423   22.8459 C   0  0  0  0  0  0
  -24.1498  -36.7278   23.2637 C   0  0  0  0  0  0
  -25.9845  -30.7425   21.3841 C   0  0  0  0  0  0
  -26.0480  -29.3615   20.7209 C   0  0  0  0  0  0
  -27.2168  -28.5257   20.7028 C   0  0  0  0  0  0
  -25.9912  -26.8289   19.4873 C   0  0  0  0  0  0
  -24.8466  -27.6515   19.4856 C   0  0  0  0  0  0
  -23.6516  -29.8120   20.1545 C   0  0  0  0  0  0
  -25.4134  -36.3042   24.0301 C   0  0  1  0  0  0
  -20.5852  -28.3744   23.1249 C   0  0  2  0  0  0
  -20.6759  -26.9474   22.5397 C   0  0  0  0  0  0
  -19.5764  -26.6433   21.5197 C   0  0  0  0  0  0
  -18.1938  -26.7958   22.1599 C   0  0  0  0  0  0
  -19.1518  -28.8884   23.2853 C   0  0  0  0  0  0
  -18.9457  -30.1482   23.8896 C   0  0  0  0  0  0
  -17.6453  -30.6617   24.0579 C   0  0  0  0  0  0
  -25.9088  -34.9410   23.5052 C   0  0  0  0  0  0
  -16.5350  -29.9129   23.6307 C   0  0  0  0  0  0
  -16.7240  -28.6518   23.0370 C   0  0  0  0  0  0
  -26.4530  -31.6559   25.0660 C   0  0  0  0  0  0
  -25.3731  -31.3721   26.1367 C   0  0  0  0  0  0
  -27.0389  -30.2952   24.6188 C   0  0  0  0  0  0
  -27.6074  -32.4323   25.7456 C   0  0  0  0  0  0
  -27.5576  -37.1798   24.8458 C   0  0  0  0  0  0
  -21.4168  -29.3096   22.3642 N   0  0  0  0  0  0
  -26.4290  -37.3769   23.9394 N   0  0  0  0  0  0
  -24.7041  -31.0413   22.0953 N   0  0  0  0  0  0
  -23.4140  -28.8123   23.3002 O   0  0  0  0  0  0
  -28.2797  -26.3049   20.0675 O   0  0  0  0  0  0
  -26.5684  -34.8925   22.4626 O   0  0  0  0  0  0
  -23.5501  -32.1357   23.7219 O   0  0  0  0  0  0
  -29.2653  -18.6130   20.5221 C   0  0  0  0  0  0
  -27.2116  -19.2724   21.0309 C   0  0  0  0  0  0
  -28.6405  -20.8493   20.3816 C   0  0  0  0  0  0
  -28.4772  -23.7260   18.2162 C   0  0  0  0  0  0
  -30.3017  -17.4054   20.3869 C   0  0  0  0  0  0
  -28.1573  -24.8716   20.5680 C   0  0  0  0  0  0
  -28.1380  -23.4624   19.7016 C   0  0  2  0  0  0
  -28.0541  -18.2570   20.9328 N   0  0  0  0  0  0
  -29.6219  -19.9113   20.2448 N   0  0  0  0  0  0
  -27.4046  -20.5642   20.7738 N   0  0  0  0  0  0
  -25.9590  -18.9100   21.4261 N   0  0  0  0  0  0
  -28.9561  -22.2497   20.1850 N   0  0  0  0  0  0
  -29.8747  -15.9479   20.6122 N   0  0  0  0  0  0
  -31.4665  -12.5833   19.1974 H   0  0  0  0  0  0
  -30.3544  -11.5081   20.0026 H   0  0  0  0  0  0
  -29.8102  -11.7396   17.5347 H   0  0  0  0  0  0
  -29.6087  -13.4642   17.7409 H   0  0  0  0  0  0
  -27.9334  -11.2542   18.9752 H   0  0  0  0  0  0
  -27.3795  -12.4311   17.8154 H   0  0  0  0  0  0
  -27.6171  -14.2392   19.4200 H   0  0  0  0  0  0
  -28.7035  -12.2577   21.4876 H   0  0  0  0  0  0
  -28.3892  -13.9581   21.7391 H   0  0  0  0  0  0
  -25.2734   -9.5699   22.4788 H   0  0  0  0  0  0
  -24.0008   -7.4652   22.7462 H   0  0  0  0  0  0
  -21.0838   -8.8797   19.8953 H   0  0  0  0  0  0
  -22.3696  -10.9684   19.6201 H   0  0  0  0  0  0
  -21.2027   -7.6181   23.9774 H   0  0  0  0  0  0
  -21.1463   -6.0537   25.9108 H   0  0  0  0  0  0
  -22.0574   -2.7639   23.2892 H   0  0  0  0  0  0
  -22.4088  -11.9877   22.4747 H   0  0  0  0  0  0
  -21.1154  -13.1362   22.2641 H   0  0  0  0  0  0
  -24.6807  -15.8601   20.4878 H   0  0  0  0  0  0
  -26.3117  -15.6144   20.1286 H   0  0  0  0  0  0
  -26.7216  -32.5321   23.0973 H   0  0  0  0  0  0
  -25.0091  -33.9636   25.0315 H   0  0  0  0  0  0
  -22.7335  -31.2995   21.3903 H   0  0  0  0  0  0
  -23.3765  -35.9612   23.3312 H   0  0  0  0  0  0
  -24.3582  -36.8901   22.2052 H   0  0  0  0  0  0
  -23.7272  -37.6467   23.6685 H   0  0  0  0  0  0
  -26.1378  -31.5056   20.6216 H   0  0  0  0  0  0
  -26.8624  -30.7824   22.0186 H   0  0  0  0  0  0
  -28.1284  -28.8627   21.1765 H   0  0  0  0  0  0
  -25.9342  -25.8709   18.9871 H   0  0  0  0  0  0
  -23.9434  -27.3051   19.0015 H   0  0  0  0  0  0
  -23.7961  -30.5947   19.4098 H   0  0  0  0  0  0
  -22.7655  -29.2593   19.8359 H   0  0  0  0  0  0
  -25.1325  -36.1866   25.0796 H   0  0  0  0  0  0
  -20.9911  -28.3378   24.1395 H   0  0  0  0  0  0
  -20.5683  -26.2359   23.3585 H   0  0  0  0  0  0
  -21.6616  -26.7536   22.1159 H   0  0  0  0  0  0
  -19.6967  -25.6342   21.1252 H   0  0  0  0  0  0
  -19.6742  -27.3225   20.6726 H   0  0  0  0  0  0
  -17.4205  -26.6663   21.4023 H   0  0  0  0  0  0
  -18.0403  -26.0102   22.9010 H   0  0  0  0  0  0
  -19.7934  -30.7234   24.2298 H   0  0  0  0  0  0
  -17.5029  -31.6300   24.5175 H   0  0  0  0  0  0
  -15.5364  -30.3036   23.7623 H   0  0  0  0  0  0
  -15.8636  -28.0812   22.7107 H   0  0  0  0  0  0
  -24.5926  -30.7068   25.7660 H   0  0  0  0  0  0
  -24.8917  -32.2897   26.4742 H   0  0  0  0  0  0
  -25.8026  -30.8898   27.0153 H   0  0  0  0  0  0
  -26.2950  -29.6684   24.1257 H   0  0  0  0  0  0
  -27.4078  -29.7231   25.4701 H   0  0  0  0  0  0
  -27.8837  -30.4178   23.9425 H   0  0  0  0  0  0
  -27.2655  -33.3631   26.2009 H   0  0  0  0  0  0
  -28.3920  -32.6890   25.0319 H   0  0  0  0  0  0
  -28.0733  -31.8468   26.5395 H   0  0  0  0  0  0
  -28.2599  -38.0099   24.7512 H   0  0  0  0  0  0
  -28.1079  -36.2612   24.6290 H   0  0  0  0  0  0
  -27.2289  -37.1456   25.8868 H   0  0  0  0  0  0
  -20.9330  -29.8810   21.6852 H   0  0  0  0  0  0
  -26.0153  -38.2826   24.1423 H   0  0  0  0  0  0
  -28.3549  -22.8198   17.6209 H   0  0  0  0  0  0
  -29.5092  -24.0638   18.0866 H   0  0  0  0  0  0
  -27.8287  -24.4841   17.7662 H   0  0  0  0  0  0
  -30.7226  -17.4650   19.3806 H   0  0  0  0  0  0
  -31.1323  -17.6270   21.0626 H   0  0  0  0  0  0
  -29.0130  -24.7809   21.2329 H   0  0  0  0  0  0
  -27.3060  -24.8436   21.2489 H   0  0  0  0  0  0
  -27.0979  -23.1267   19.7078 H   0  0  0  0  0  0
  -25.3551  -19.6380   21.7856 H   0  0  0  0  0  0
  -25.8635  -18.0121   21.8822 H   0  0  0  0  0  0
  -29.9381  -22.3544   19.9683 H   0  0  0  0  0  0
  -28.8987  -15.8543   20.8492 H   0  0  0  0  0  0
  1 25  1  0  0  0
  1 30  2  0  0  0
  1 83  1  0  0  0
  2  3  1  0  0  0
  2 25  1  0  0  0
  2 84  1  0  0  0
  2 85  1  0  0  0
  3  4  1  0  0  0
  3 86  1  0  0  0
  3 87  1  0  0  0
  4  5  1  0  0  0
  4 88  1  0  0  0
  4 89  1  0  0  0
  5  6  1  0  0  0
  5 26  1  0  0  0
  5 90  1  0  0  0
  6 25  1  0  0  0
  6 91  1  0  0  0
  6 92  1  0  0  0
  7  8  2  0  0  0
  7 26  1  0  0  0
  7 29  1  0  0  0
  8  9  1  0  0  0
  8 22  1  0  0  0
  9 10  1  0  0  0
  9 27  2  0  0  0
 10 11  2  0  0  0
 10 15  1  0  0  0
 11 12  1  0  0  0
 11 93  1  0  0  0
 12 13  2  0  0  0
 12 94  1  0  0  0
 13 14  1  0  0  0
 13 31  1  0  0  0
 14 15  2  0  0  0
 14 95  1  0  0  0
 15 96  1  0  0  0
 16 17  2  0  0  0
 16 21  1  0  0  0
 16 31  1  0  0  0
 17 18  1  0  0  0
 17 97  1  0  0  0
 18 19  2  0  0  0
 18 98  1  0  0  0
 19 20  1  0  0  0
 19 24  1  0  0  0
 20 21  2  0  0  0
 20 99  1  0  0  0
 21 23  1  0  0  0
 22 28  1  0  0  0
 22 32  2  0  0  0
 26 27  1  0  0  0
 28100  1  0  0  0
 28101  1  0  0  0
 29102  1  0  0  0
 29103  1  0  0  0
 33 34  1  0  0  0
 33 66  1  0  0  0
 33 70  2  0  0  0
 34 36  1  0  0  0
 34 59  1  0  0  0
 34104  1  0  0  0
 35 44  2  0  0  0
 35 45  1  0  0  0
 35 68  1  0  0  0
 36 56  1  0  0  0
 36105  1  0  0  0
 37 39  1  0  0  0
 37 47  1  0  0  0
 37 66  1  0  0  0
 37106  1  0  0  0
 38 43  2  0  0  0
 38 46  1  0  0  0
 38 47  1  0  0  0
 39 64  1  0  0  0
 39 67  2  0  0  0
 40 52  1  0  0  0
 40 53  2  0  0  0
 40 58  1  0  0  0
 41107  1  0  0  0
 41108  1  0  0  0
 41109  1  0  0  0
 41 48  1  0  0  0
 42 43  1  0  0  0
 42 66  1  0  0  0
 42110  1  0  0  0
 42111  1  0  0  0
 43 44  1  0  0  0
 44112  1  0  0  0
 45 46  2  0  0  0
 45113  1  0  0  0
 46114  1  0  0  0
 47115  1  0  0  0
 47116  1  0  0  0
 48 56  1  0  0  0
 48 65  1  0  0  0
 48117  1  0  0  0
 49 50  1  0  0  0
 49 53  1  0  0  0
 49 64  1  0  0  0
 49118  1  0  0  0
 50 51  1  0  0  0
 50119  1  0  0  0
 50120  1  0  0  0
 51 52  1  0  0  0
 51121  1  0  0  0
 51122  1  0  0  0
 52123  1  0  0  0
 52124  1  0  0  0
 53 54  1  0  0  0
 54 55  2  0  0  0
 54125  1  0  0  0
 55 57  1  0  0  0
 55126  1  0  0  0
 56 69  2  0  0  0
 57 58  2  0  0  0
 57127  1  0  0  0
 58128  1  0  0  0
 59 60  1  0  0  0
 59 61  1  0  0  0
 59 62  1  0  0  0
 60129  1  0  0  0
 60130  1  0  0  0
 60131  1  0  0  0
 61132  1  0  0  0
 61133  1  0  0  0
 61134  1  0  0  0
 62135  1  0  0  0
 62136  1  0  0  0
 62137  1  0  0  0
 63 65  1  0  0  0
 63138  1  0  0  0
 63139  1  0  0  0
 63140  1  0  0  0
 64141  1  0  0  0
 65142  1  0  0  0
 68 76  1  0  0  0
 71 75  1  0  0  0
 71 78  1  0  0  0
 71 79  2  0  0  0
 72 78  2  0  0  0
 72 80  1  0  0  0
 72 81  1  0  0  0
 73 79  1  0  0  0
 73 80  2  0  0  0
 73 82  1  0  0  0
 74143  1  0  0  0
 74144  1  0  0  0
 74145  1  0  0  0
 74 77  1  0  0  0
 75 83  1  0  0  0
 75146  1  0  0  0
 75147  1  0  0  0
 76 77  1  0  0  0
 76148  1  0  0  0
 76149  1  0  0  0
 77 82  1  0  0  0
 77150  1  0  0  0
 81151  1  0  0  0
 81152  1  0  0  0
 82153  1  0  0  0
 83154  1  0  0  0
M  ISO  4   1 100  68 101  76 101  83 100
M  END
> <chiral flag>
0

> <version>
0

> <s_m_source_file>
/data/baiqing/PycharmProjects/Reinvent-master-3.2/result/LINK_invent/BTK/process_docking_weight1_custom_product_contain_oxygen_bond_distance_aromatic_linkinvent_7_9_3/rearranged_h_0192.sdf

> <i_m_source_file_index>
80

> <r_mmod_Potential_Energy-OPLS-2005>
-887.424560546875

> <r_mmod_Stretch_Energy-OPLS-2005>
139.992568969727

> <r_mmod_Bend_Energy-OPLS-2005>
198.147796630859

> <r_mmod_Torsional_Energy-OPLS-2005>
234.474914550781

> <r_mmod_Improper_Torsional_Energy-OPLS-2005>
9.71615505218506

> <r_mmod_Van_der_Waal_Energy-OPLS-2005>
143.857513427734

> <r_mmod_Electrostatic_Energy-OPLS-2005>
-1484.69543457031

> <r_mmod_Solvation_Energy-OPLS-2005>
-239.072204589844

> <b_mmod_Minimization_Converged-OPLS-2005>
0

> <r_mmod_RMS_Derivative-OPLS-2005>
6.60506629943848

$$$$
81
                    3D
 Structure written by MMmdl.
161169  0  0  1  0            999 V2000
  -30.6656  -14.5045   20.5499 C   0  0  0  0  0  0
  -30.4292  -12.3185   19.4251 C   0  0  0  0  0  0
  -29.4981  -12.5074   18.2072 C   0  0  0  0  0  0
  -28.0181  -12.3671   18.6175 C   0  0  0  0  0  0
  -27.6616  -13.2050   19.8742 C   0  0  2  0  0  0
  -28.7029  -12.9815   20.9954 C   0  0  0  0  0  0
  -25.2588  -13.8152   20.5672 C   0  0  0  0  0  0
  -24.1839  -13.0428   20.9184 C   0  0  0  0  0  0
  -24.6388  -11.6896   20.8731 C   0  0  0  0  0  0
  -23.9049  -10.4285   21.0413 C   0  0  0  0  0  0
  -24.3608   -9.4202   21.9189 C   0  0  0  0  0  0
  -23.6291   -8.2233   22.0758 C   0  0  0  0  0  0
  -22.4272   -8.0277   21.3549 C   0  0  0  0  0  0
  -21.9907   -9.0249   20.4646 C   0  0  0  0  0  0
  -22.7228  -10.2132   20.3057 C   0  0  0  0  0  0
  -21.6845   -6.0730   22.5283 C   0  0  0  0  0  0
  -21.4009   -6.5638   23.8217 C   0  0  0  0  0  0
  -21.3658   -5.6796   24.9180 C   0  0  0  0  0  0
  -21.6043   -4.3061   24.7224 C   0  0  0  0  0  0
  -21.8821   -3.8143   23.4347 C   0  0  0  0  0  0
  -21.9193   -4.6957   22.3403 C   0  0  0  0  0  0
  -22.7863  -13.5231   21.1858 C   0  0  0  0  0  0
  -22.1664   -4.2140   21.0983 F   0  0  0  0  0  0
  -21.5632   -3.4545   25.7737 F   0  0  0  0  0  0
  -30.0330  -13.3013   20.4467 N   0  0  0  0  0  0
  -26.3018  -12.9316   20.3341 N   0  0  0  0  0  0
  -25.9314  -11.6479   20.5747 N   0  0  0  0  0  0
  -22.0506  -12.8213   22.0412 N   0  0  0  0  0  0
  -25.4306  -15.1868   20.4071 N   0  0  0  0  0  0
  -31.8057  -14.6881   20.1105 O   0  0  0  0  0  0
  -21.6635   -6.8878   21.4248 O   0  0  0  0  0  0
  -22.3540  -14.5544   20.6728 O   0  0  0  0  0  0
  -24.6155  -31.8673   23.2086 C   0  0  0  0  0  0
  -25.9039  -32.4816   23.8387 C   0  0  1  0  0  0
  -27.2341  -27.4097   20.0844 C   0  0  0  0  0  0
  -25.5884  -33.8616   24.2310 N   0  0  0  0  0  0
  -23.4039  -30.4911   21.5502 C   0  0  2  0  0  0
  -24.8478  -28.9533   20.1163 C   0  0  0  0  0  0
  -22.7416  -29.4655   22.4989 C   0  0  0  0  0  0
  -18.0270  -28.1372   22.8500 C   0  0  0  0  0  0
  -24.1485  -36.7319   23.2638 C   0  0  0  0  0  0
  -25.9360  -30.8234   21.3662 C   0  0  0  0  0  0
  -26.0102  -29.4563   20.7114 C   0  0  0  0  0  0
  -27.2020  -28.6910   20.6934 C   0  0  0  0  0  0
  -26.0375  -26.9179   19.5099 C   0  0  0  0  0  0
  -24.8565  -27.6833   19.5170 C   0  0  0  0  0  0
  -23.6125  -29.8250   20.1647 C   0  0  0  0  0  0
  -25.4109  -36.3109   24.0333 C   0  0  1  0  0  0
  -20.5861  -28.3666   23.1321 C   0  0  2  0  0  0
  -20.6757  -26.9403   22.5418 C   0  0  0  0  0  0
  -19.5734  -26.6380   21.5215 C   0  0  0  0  0  0
  -18.1912  -26.7916   22.1628 C   0  0  0  0  0  0
  -19.1518  -28.8835   23.2906 C   0  0  0  0  0  0
  -18.9444  -30.1440   23.8919 C   0  0  0  0  0  0
  -17.6443  -30.6580   24.0565 C   0  0  0  0  0  0
  -25.9036  -34.9475   23.5126 C   0  0  0  0  0  0
  -16.5336  -29.9084   23.6316 C   0  0  0  0  0  0
  -16.7258  -28.6496   23.0350 C   0  0  0  0  0  0
  -26.4457  -31.6607   25.0729 C   0  0  0  0  0  0
  -25.3718  -31.3707   26.1475 C   0  0  0  0  0  0
  -27.0289  -30.3044   24.6120 C   0  0  0  0  0  0
  -27.6027  -32.4337   25.7489 C   0  0  0  0  0  0
  -27.5582  -37.1812   24.8461 C   0  0  0  0  0  0
  -21.4142  -29.3033   22.3732 N   0  0  0  0  0  0
  -26.4295  -37.3793   23.9403 N   0  0  0  0  0  0
  -24.6699  -31.0763   22.0995 N   0  0  0  0  0  0
  -23.4190  -28.8197   23.3032 O   0  0  0  0  0  0
  -28.4240  -26.6940   20.0905 O   0  0  0  0  0  0
  -26.5616  -34.8927   22.4695 O   0  0  0  0  0  0
  -23.5340  -32.1435   23.7469 O   0  0  0  0  0  0
  -29.9644  -16.9067   20.7959 C   0  0  0  0  0  0
  -29.5970  -19.2767   20.3882 C   0  0  0  0  0  0
  -30.4142  -21.3822   18.1680 C   0  0  0  0  0  0
  -32.4934  -21.6720   16.6776 C   0  0  0  0  0  0
  -27.1684  -22.3646   18.9741 C   0  0  0  0  0  0
  -31.5896  -22.2781   17.7661 C   0  0  0  0  0  0
  -28.6341  -24.1632   20.0798 C   0  0  0  0  0  0
  -28.5871  -25.5058   19.2854 C   0  0  0  0  0  0
  -29.6647  -21.7610   19.4728 C   0  0  1  0  0  0
  -28.6047  -22.8939   19.1635 C   0  0  1  0  0  0
  -31.1048  -17.5641   20.5225 N   0  0  0  0  0  0
  -30.8909  -18.9277   20.2922 N   0  0  0  0  0  0
  -29.8940  -15.4980   21.0422 N   0  0  0  0  0  0
  -29.0981  -20.5613   20.1182 N   0  0  0  0  0  0
  -30.0737  -20.4359   17.4505 O   0  0  0  0  0  0
  -28.5299  -17.9435   20.8444 S   0  0  0  0  0  0
  -31.4737  -12.4249   19.1252 H   0  0  0  0  0  0
  -30.3375  -11.3073   19.8230 H   0  0  0  0  0  0
  -29.7401  -11.7813   17.4303 H   0  0  0  0  0  0
  -29.6638  -13.4905   17.7636 H   0  0  0  0  0  0
  -27.8268  -11.3116   18.8123 H   0  0  0  0  0  0
  -27.3689  -12.6445   17.7860 H   0  0  0  0  0  0
  -27.7039  -14.2526   19.5761 H   0  0  0  0  0  0
  -28.6845  -11.9413   21.3248 H   0  0  0  0  0  0
  -28.4609  -13.5686   21.8832 H   0  0  0  0  0  0
  -25.2764   -9.5668   22.4748 H   0  0  0  0  0  0
  -24.0002   -7.4619   22.7471 H   0  0  0  0  0  0
  -21.0841   -8.8774   19.8945 H   0  0  0  0  0  0
  -22.3706  -10.9675   19.6156 H   0  0  0  0  0  0
  -21.2005   -7.6150   23.9715 H   0  0  0  0  0  0
  -21.1481   -6.0528   25.9085 H   0  0  0  0  0  0
  -22.0600   -2.7600   23.2850 H   0  0  0  0  0  0
  -22.4124  -11.9857   22.4763 H   0  0  0  0  0  0
  -21.1127  -13.1233   22.2642 H   0  0  0  0  0  0
  -24.6587  -15.8371   20.5061 H   0  0  0  0  0  0
  -26.2690  -15.6235   20.0465 H   0  0  0  0  0  0
  -26.7112  -32.5515   23.1151 H   0  0  0  0  0  0
  -25.0001  -33.9774   25.0434 H   0  0  0  0  0  0
  -22.6920  -31.3078   21.4119 H   0  0  0  0  0  0
  -23.3742  -35.9658   23.3306 H   0  0  0  0  0  0
  -24.3576  -36.8929   22.2049 H   0  0  0  0  0  0
  -23.7248  -37.6524   23.6664 H   0  0  0  0  0  0
  -26.0544  -31.5901   20.5991 H   0  0  0  0  0  0
  -26.8214  -30.8725   21.9885 H   0  0  0  0  0  0
  -28.1023  -29.0817   21.1472 H   0  0  0  0  0  0
  -25.9755  -25.9367   19.0666 H   0  0  0  0  0  0
  -23.9573  -27.2821   19.0686 H   0  0  0  0  0  0
  -23.7229  -30.6004   19.4057 H   0  0  0  0  0  0
  -22.7343  -29.2479   19.8689 H   0  0  0  0  0  0
  -25.1289  -36.1965   25.0826 H   0  0  0  0  0  0
  -20.9948  -28.3223   24.1444 H   0  0  0  0  0  0
  -20.5646  -26.2278   23.3604 H   0  0  0  0  0  0
  -21.6628  -26.7433   22.1216 H   0  0  0  0  0  0
  -19.6893  -25.6291   21.1238 H   0  0  0  0  0  0
  -19.6662  -27.3195   20.6748 H   0  0  0  0  0  0
  -17.4177  -26.6662   21.4032 H   0  0  0  0  0  0
  -18.0315  -26.0055   22.9023 H   0  0  0  0  0  0
  -19.7920  -30.7248   24.2299 H   0  0  0  0  0  0
  -17.5000  -31.6263   24.5161 H   0  0  0  0  0  0
  -15.5334  -30.2994   23.7627 H   0  0  0  0  0  0
  -15.8657  -28.0820   22.7060 H   0  0  0  0  0  0
  -24.5893  -30.7051   25.7811 H   0  0  0  0  0  0
  -24.8906  -32.2856   26.4941 H   0  0  0  0  0  0
  -25.8067  -30.8864   27.0228 H   0  0  0  0  0  0
  -26.2839  -29.6812   24.1158 H   0  0  0  0  0  0
  -27.4027  -29.7271   25.4587 H   0  0  0  0  0  0
  -27.8695  -30.4350   23.9300 H   0  0  0  0  0  0
  -27.2638  -33.3628   26.2084 H   0  0  0  0  0  0
  -28.3821  -32.6909   25.0307 H   0  0  0  0  0  0
  -28.0719  -31.8458   26.5383 H   0  0  0  0  0  0
  -28.2599  -38.0109   24.7513 H   0  0  0  0  0  0
  -28.1073  -36.2639   24.6284 H   0  0  0  0  0  0
  -27.2303  -37.1462   25.8865 H   0  0  0  0  0  0
  -20.9296  -29.8776   21.6978 H   0  0  0  0  0  0
  -26.0180  -38.2870   24.1397 H   0  0  0  0  0  0
  -33.3154  -22.3468   16.4393 H   0  0  0  0  0  0
  -31.9420  -21.4869   15.7548 H   0  0  0  0  0  0
  -32.9246  -20.7249   17.0049 H   0  0  0  0  0  0
  -26.5096  -23.1509   18.6031 H   0  0  0  0  0  0
  -26.7407  -22.0033   19.9102 H   0  0  0  0  0  0
  -27.1368  -21.5492   18.2499 H   0  0  0  0  0  0
  -32.1808  -22.4889   18.6574 H   0  0  0  0  0  0
  -31.1908  -23.2334   17.4229 H   0  0  0  0  0  0
  -27.8042  -24.1256   20.7857 H   0  0  0  0  0  0
  -29.5355  -24.1631   20.6934 H   0  0  0  0  0  0
  -27.8824  -25.4463   18.4583 H   0  0  0  0  0  0
  -29.5499  -25.6178   18.7863 H   0  0  0  0  0  0
  -30.4089  -22.1625   20.1611 H   0  0  0  0  0  0
  -28.8685  -23.2856   18.1787 H   0  0  0  0  0  0
  -29.0085  -15.1800   21.4002 H   0  0  0  0  0  0
  -28.0923  -20.6120   20.2128 H   0  0  0  0  0  0
  1 25  1  0  0  0
  1 30  2  0  0  0
  1 83  1  0  0  0
  2  3  1  0  0  0
  2 25  1  0  0  0
  2 87  1  0  0  0
  2 88  1  0  0  0
  3  4  1  0  0  0
  3 89  1  0  0  0
  3 90  1  0  0  0
  4  5  1  0  0  0
  4 91  1  0  0  0
  4 92  1  0  0  0
  5  6  1  0  0  0
  5 26  1  0  0  0
  5 93  1  0  0  0
  6 25  1  0  0  0
  6 94  1  0  0  0
  6 95  1  0  0  0
  7  8  2  0  0  0
  7 26  1  0  0  0
  7 29  1  0  0  0
  8  9  1  0  0  0
  8 22  1  0  0  0
  9 10  1  0  0  0
  9 27  2  0  0  0
 10 11  2  0  0  0
 10 15  1  0  0  0
 11 12  1  0  0  0
 11 96  1  0  0  0
 12 13  2  0  0  0
 12 97  1  0  0  0
 13 14  1  0  0  0
 13 31  1  0  0  0
 14 15  2  0  0  0
 14 98  1  0  0  0
 15 99  1  0  0  0
 16 17  2  0  0  0
 16 21  1  0  0  0
 16 31  1  0  0  0
 17 18  1  0  0  0
 17100  1  0  0  0
 18 19  2  0  0  0
 18101  1  0  0  0
 19 20  1  0  0  0
 19 24  1  0  0  0
 20 21  2  0  0  0
 20102  1  0  0  0
 21 23  1  0  0  0
 22 28  1  0  0  0
 22 32  2  0  0  0
 26 27  1  0  0  0
 28103  1  0  0  0
 28104  1  0  0  0
 29105  1  0  0  0
 29106  1  0  0  0
 33 34  1  0  0  0
 33 66  1  0  0  0
 33 70  2  0  0  0
 34 36  1  0  0  0
 34 59  1  0  0  0
 34107  1  0  0  0
 35 44  2  0  0  0
 35 45  1  0  0  0
 35 68  1  0  0  0
 36 56  1  0  0  0
 36108  1  0  0  0
 37 39  1  0  0  0
 37 47  1  0  0  0
 37 66  1  0  0  0
 37109  1  0  0  0
 38 43  2  0  0  0
 38 46  1  0  0  0
 38 47  1  0  0  0
 39 64  1  0  0  0
 39 67  2  0  0  0
 40 52  1  0  0  0
 40 53  2  0  0  0
 40 58  1  0  0  0
 41110  1  0  0  0
 41111  1  0  0  0
 41112  1  0  0  0
 41 48  1  0  0  0
 42 43  1  0  0  0
 42 66  1  0  0  0
 42113  1  0  0  0
 42114  1  0  0  0
 43 44  1  0  0  0
 44115  1  0  0  0
 45 46  2  0  0  0
 45116  1  0  0  0
 46117  1  0  0  0
 47118  1  0  0  0
 47119  1  0  0  0
 48 56  1  0  0  0
 48 65  1  0  0  0
 48120  1  0  0  0
 49 50  1  0  0  0
 49 53  1  0  0  0
 49 64  1  0  0  0
 49121  1  0  0  0
 50 51  1  0  0  0
 50122  1  0  0  0
 50123  1  0  0  0
 51 52  1  0  0  0
 51124  1  0  0  0
 51125  1  0  0  0
 52126  1  0  0  0
 52127  1  0  0  0
 53 54  1  0  0  0
 54 55  2  0  0  0
 54128  1  0  0  0
 55 57  1  0  0  0
 55129  1  0  0  0
 56 69  2  0  0  0
 57 58  2  0  0  0
 57130  1  0  0  0
 58131  1  0  0  0
 59 60  1  0  0  0
 59 61  1  0  0  0
 59 62  1  0  0  0
 60132  1  0  0  0
 60133  1  0  0  0
 60134  1  0  0  0
 61135  1  0  0  0
 61136  1  0  0  0
 61137  1  0  0  0
 62138  1  0  0  0
 62139  1  0  0  0
 62140  1  0  0  0
 63 65  1  0  0  0
 63141  1  0  0  0
 63142  1  0  0  0
 63143  1  0  0  0
 64144  1  0  0  0
 65145  1  0  0  0
 68 78  1  0  0  0
 71 81  2  0  0  0
 71 83  1  0  0  0
 71 86  1  0  0  0
 72 82  2  0  0  0
 72 84  1  0  0  0
 72 86  1  0  0  0
 73 76  1  0  0  0
 73 79  1  0  0  0
 73 85  2  0  0  0
 74 76  1  0  0  0
 74146  1  0  0  0
 74147  1  0  0  0
 74148  1  0  0  0
 75149  1  0  0  0
 75150  1  0  0  0
 75151  1  0  0  0
 75 80  1  0  0  0
 76152  1  0  0  0
 76153  1  0  0  0
 77 78  1  0  0  0
 77 80  1  0  0  0
 77154  1  0  0  0
 77155  1  0  0  0
 78156  1  0  0  0
 78157  1  0  0  0
 79 80  1  0  0  0
 79 84  1  0  0  0
 79158  1  0  0  0
 80159  1  0  0  0
 81 82  1  0  0  0
 83160  1  0  0  0
 84161  1  0  0  0
M  ISO  4   1 100  68 101  78 101  83 100
M  END
> <chiral flag>
0

> <version>
0

> <s_m_source_file>
/data/baiqing/PycharmProjects/Reinvent-master-3.2/result/LINK_invent/BTK/process_docking_weight1_custom_product_contain_oxygen_bond_distance_aromatic_linkinvent_7_9_3/rearranged_h_0192.sdf

> <i_m_source_file_index>
81

> <r_mmod_Potential_Energy-OPLS-2005>
-145.917739868164

> <r_mmod_Stretch_Energy-OPLS-2005>
44.9900016784668

> <r_mmod_Bend_Energy-OPLS-2005>
118.217971801758

> <r_mmod_Torsional_Energy-OPLS-2005>
226.009628295898

> <r_mmod_Improper_Torsional_Energy-OPLS-2005>
5.04959392547607

> <r_mmod_Van_der_Waal_Energy-OPLS-2005>
134.624084472656

> <r_mmod_Electrostatic_Energy-OPLS-2005>
-432.219329833984

> <r_mmod_Solvation_Energy-OPLS-2005>
-258.574737548828

> <b_mmod_Minimization_Converged-OPLS-2005>
0

> <r_mmod_RMS_Derivative-OPLS-2005>
1.31227350234985

$$$$
82
                    3D
 Structure written by MMmdl.
158166  0  0  1  0            999 V2000
  -30.6780  -14.5118   20.5634 C   0  0  0  0  0  0
  -30.4271  -12.3277   19.4317 C   0  0  0  0  0  0
  -29.4965  -12.4927   18.2092 C   0  0  0  0  0  0
  -28.0185  -12.3443   18.6230 C   0  0  0  0  0  0
  -27.6539  -13.2016   19.8624 C   0  0  2  0  0  0
  -28.6970  -13.0094   20.9900 C   0  0  0  0  0  0
  -25.2551  -13.8130   20.5654 C   0  0  0  0  0  0
  -24.1835  -13.0429   20.9233 C   0  0  0  0  0  0
  -24.6373  -11.6892   20.8754 C   0  0  0  0  0  0
  -23.9038  -10.4283   21.0404 C   0  0  0  0  0  0
  -24.3600   -9.4194   21.9166 C   0  0  0  0  0  0
  -23.6282   -8.2226   22.0731 C   0  0  0  0  0  0
  -22.4260   -8.0266   21.3534 C   0  0  0  0  0  0
  -21.9897   -9.0234   20.4631 C   0  0  0  0  0  0
  -22.7217  -10.2120   20.3043 C   0  0  0  0  0  0
  -21.6852   -6.0727   22.5275 C   0  0  0  0  0  0
  -21.4010   -6.5629   23.8206 C   0  0  0  0  0  0
  -21.3666   -5.6783   24.9171 C   0  0  0  0  0  0
  -21.6045   -4.3045   24.7222 C   0  0  0  0  0  0
  -21.8825   -3.8137   23.4343 C   0  0  0  0  0  0
  -21.9194   -4.6955   22.3401 C   0  0  0  0  0  0
  -22.7858  -13.5216   21.1900 C   0  0  0  0  0  0
  -22.1661   -4.2145   21.0975 F   0  0  0  0  0  0
  -21.5637   -3.4526   25.7733 F   0  0  0  0  0  0
  -30.0249  -13.3218   20.4397 N   0  0  0  0  0  0
  -26.2957  -12.9293   20.3261 N   0  0  0  0  0  0
  -25.9283  -11.6475   20.5732 N   0  0  0  0  0  0
  -22.0503  -12.8180   22.0437 N   0  0  0  0  0  0
  -25.4305  -15.1834   20.3955 N   0  0  0  0  0  0
  -31.8277  -14.7059   20.1417 O   0  0  0  0  0  0
  -21.6636   -6.8862   21.4231 O   0  0  0  0  0  0
  -22.3555  -14.5541   20.6761 O   0  0  0  0  0  0
  -24.6155  -31.8682   23.2108 C   0  0  0  0  0  0
  -25.9057  -32.4815   23.8387 C   0  0  1  0  0  0
  -27.2268  -27.3977   20.1047 C   0  0  0  0  0  0
  -25.5923  -33.8622   24.2331 N   0  0  0  0  0  0
  -23.4050  -30.4943   21.5525 C   0  0  2  0  0  0
  -24.8473  -28.9587   20.1155 C   0  0  0  0  0  0
  -22.7421  -29.4673   22.4991 C   0  0  0  0  0  0
  -18.0280  -28.1378   22.8524 C   0  0  0  0  0  0
  -24.1495  -36.7308   23.2638 C   0  0  0  0  0  0
  -25.9367  -30.8214   21.3704 C   0  0  0  0  0  0
  -26.0099  -29.4562   20.7132 C   0  0  0  0  0  0
  -27.1983  -28.6851   20.7024 C   0  0  0  0  0  0
  -26.0339  -26.9259   19.5011 C   0  0  0  0  0  0
  -24.8576  -27.6950   19.5080 C   0  0  0  0  0  0
  -23.6115  -29.8302   20.1666 C   0  0  0  0  0  0
  -25.4118  -36.3114   24.0329 C   0  0  1  0  0  0
  -20.5896  -28.3667   23.1323 C   0  0  2  0  0  0
  -20.6813  -26.9424   22.5378 C   0  0  0  0  0  0
  -19.5755  -26.6429   21.5226 C   0  0  0  0  0  0
  -18.1941  -26.7922   22.1666 C   0  0  0  0  0  0
  -19.1541  -28.8836   23.2921 C   0  0  0  0  0  0
  -18.9477  -30.1433   23.8940 C   0  0  0  0  0  0
  -17.6487  -30.6601   24.0587 C   0  0  0  0  0  0
  -25.9049  -34.9474   23.5136 C   0  0  0  0  0  0
  -16.5367  -29.9101   23.6379 C   0  0  0  0  0  0
  -16.7271  -28.6517   23.0408 C   0  0  0  0  0  0
  -26.4484  -31.6599   25.0719 C   0  0  0  0  0  0
  -25.3744  -31.3696   26.1455 C   0  0  0  0  0  0
  -27.0316  -30.3038   24.6118 C   0  0  0  0  0  0
  -27.6059  -32.4316   25.7489 C   0  0  0  0  0  0
  -27.5588  -37.1808   24.8468 C   0  0  0  0  0  0
  -21.4146  -29.3081   22.3772 N   0  0  0  0  0  0
  -26.4310  -37.3787   23.9399 N   0  0  0  0  0  0
  -24.6713  -31.0759   22.1030 N   0  0  0  0  0  0
  -23.4212  -28.8173   23.2987 O   0  0  0  0  0  0
  -28.4149  -26.6739   20.1404 O   0  0  0  0  0  0
  -26.5602  -34.8927   22.4690 O   0  0  0  0  0  0
  -23.5338  -32.1457   23.7486 O   0  0  0  0  0  0
  -28.9202  -20.3991   20.9158 C   0  0  0  0  0  0
  -30.1792  -16.9839   20.8963 C   0  0  0  0  0  0
  -28.1954  -18.1038   19.8366 C   0  0  0  0  0  0
  -29.0350  -17.9773   21.1169 C   0  0  2  0  0  0
  -26.7378  -22.7659   21.1330 C   0  0  0  0  0  0
  -28.7668  -24.2665   20.8866 C   0  0  0  0  0  0
  -28.4795  -25.2818   19.7380 C   0  0  0  0  0  0
  -28.1944  -22.8328   20.6272 C   0  0  1  0  0  0
  -29.5433  -19.3332   21.4765 N   0  0  0  0  0  0
  -29.8693  -15.6474   20.9720 N   0  0  0  0  0  0
  -31.4005  -17.4588   20.5501 N   0  3  0  0  0  0
  -29.0076  -21.7266   21.2193 N   0  3  0  0  0  0
  -27.8199  -19.8569   19.6103 S   0  0  0  0  0  0
  -31.4710  -12.4374   19.1317 H   0  0  0  0  0  0
  -30.3403  -11.3208   19.8443 H   0  0  0  0  0  0
  -29.7463  -11.7553   17.4445 H   0  0  0  0  0  0
  -29.6543  -13.4700   17.7507 H   0  0  0  0  0  0
  -27.8447  -11.2905   18.8432 H   0  0  0  0  0  0
  -27.3641  -12.5928   17.7859 H   0  0  0  0  0  0
  -27.6839  -14.2421   19.5383 H   0  0  0  0  0  0
  -28.6787  -11.9758   21.3436 H   0  0  0  0  0  0
  -28.4544  -13.6193   21.8605 H   0  0  0  0  0  0
  -25.2746   -9.5684   22.4734 H   0  0  0  0  0  0
  -24.0016   -7.4611   22.7430 H   0  0  0  0  0  0
  -21.0838   -8.8733   19.8916 H   0  0  0  0  0  0
  -22.3659  -10.9657   19.6154 H   0  0  0  0  0  0
  -21.1991   -7.6134   23.9709 H   0  0  0  0  0  0
  -21.1489   -6.0511   25.9079 H   0  0  0  0  0  0
  -22.0604   -2.7597   23.2840 H   0  0  0  0  0  0
  -22.4134  -11.9831   22.4798 H   0  0  0  0  0  0
  -21.1101  -13.1166   22.2640 H   0  0  0  0  0  0
  -24.6120  -15.7827   20.4259 H   0  0  0  0  0  0
  -26.1282  -15.5224   19.7481 H   0  0  0  0  0  0
  -26.7118  -32.5515   23.1130 H   0  0  0  0  0  0
  -25.0063  -33.9792   25.0471 H   0  0  0  0  0  0
  -22.6947  -31.3114   21.4163 H   0  0  0  0  0  0
  -23.3763  -35.9645   23.3323 H   0  0  0  0  0  0
  -24.3593  -36.8895   22.2054 H   0  0  0  0  0  0
  -23.7247  -37.6515   23.6643 H   0  0  0  0  0  0
  -26.0584  -31.5874   20.6059 H   0  0  0  0  0  0
  -26.8207  -30.8672   21.9945 H   0  0  0  0  0  0
  -28.0941  -29.0692   21.1688 H   0  0  0  0  0  0
  -25.9536  -25.9700   19.0127 H   0  0  0  0  0  0
  -23.9592  -27.3066   19.0495 H   0  0  0  0  0  0
  -23.7238  -30.6074   19.4089 H   0  0  0  0  0  0
  -22.7309  -29.2551   19.8732 H   0  0  0  0  0  0
  -25.1303  -36.1984   25.0820 H   0  0  0  0  0  0
  -20.9993  -28.3219   24.1443 H   0  0  0  0  0  0
  -20.5782  -26.2249   23.3536 H   0  0  0  0  0  0
  -21.6661  -26.7510   22.1073 H   0  0  0  0  0  0
  -19.6923  -25.6347   21.1243 H   0  0  0  0  0  0
  -19.6678  -27.3278   20.6779 H   0  0  0  0  0  0
  -17.4203  -26.6627   21.4077 H   0  0  0  0  0  0
  -18.0400  -26.0048   22.9066 H   0  0  0  0  0  0
  -19.7976  -30.7211   24.2331 H   0  0  0  0  0  0
  -17.5062  -31.6315   24.5132 H   0  0  0  0  0  0
  -15.5371  -30.3035   23.7663 H   0  0  0  0  0  0
  -15.8641  -28.0867   22.7140 H   0  0  0  0  0  0
  -24.5924  -30.7043   25.7775 H   0  0  0  0  0  0
  -24.8923  -32.2844   26.4914 H   0  0  0  0  0  0
  -25.8085  -30.8843   27.0204 H   0  0  0  0  0  0
  -26.2861  -29.6786   24.1189 H   0  0  0  0  0  0
  -27.4090  -29.7292   25.4586 H   0  0  0  0  0  0
  -27.8702  -30.4348   23.9276 H   0  0  0  0  0  0
  -27.2691  -33.3604   26.2108 H   0  0  0  0  0  0
  -28.3862  -32.6890   25.0316 H   0  0  0  0  0  0
  -28.0752  -31.8412   26.5371 H   0  0  0  0  0  0
  -28.2612  -38.0093   24.7511 H   0  0  0  0  0  0
  -28.1074  -36.2629   24.6321 H   0  0  0  0  0  0
  -27.2299  -37.1481   25.8864 H   0  0  0  0  0  0
  -20.9262  -29.8954   21.7160 H   0  0  0  0  0  0
  -26.0203  -38.2872   24.1378 H   0  0  0  0  0  0
  -27.2711  -17.5346   19.9134 H   0  0  0  0  0  0
  -28.7572  -17.7338   18.9796 H   0  0  0  0  0  0
  -28.4095  -17.6354   21.9422 H   0  0  0  0  0  0
  -26.2405  -21.8427   20.8391 H   0  0  0  0  0  0
  -26.1436  -23.5871   20.7319 H   0  0  0  0  0  0
  -26.6897  -22.8313   22.2206 H   0  0  0  0  0  0
  -28.3235  -24.6559   21.8042 H   0  0  0  0  0  0
  -29.8395  -24.2322   21.0779 H   0  0  0  0  0  0
  -27.6305  -24.9327   19.1648 H   0  0  0  0  0  0
  -29.3045  -25.2085   19.0292 H   0  0  0  0  0  0
  -28.1953  -22.6680   19.5489 H   0  0  0  0  0  0
  -30.1654  -19.4141   22.2661 H   0  0  0  0  0  0
  -28.9300  -15.4759   21.2896 H   0  0  0  0  0  0
  -31.5838  -18.4468   20.4379 H   0  0  0  0  0  0
  -32.1523  -16.8160   20.3224 H   0  0  0  0  0  0
  -29.6148  -21.9928   21.9824 H   0  0  0  0  0  0
  1 25  1  0  0  0
  1 30  2  0  0  0
  1 80  1  0  0  0
  2  3  1  0  0  0
  2 25  1  0  0  0
  2 84  1  0  0  0
  2 85  1  0  0  0
  3  4  1  0  0  0
  3 86  1  0  0  0
  3 87  1  0  0  0
  4  5  1  0  0  0
  4 88  1  0  0  0
  4 89  1  0  0  0
  5  6  1  0  0  0
  5 26  1  0  0  0
  5 90  1  0  0  0
  6 25  1  0  0  0
  6 91  1  0  0  0
  6 92  1  0  0  0
  7  8  2  0  0  0
  7 26  1  0  0  0
  7 29  1  0  0  0
  8  9  1  0  0  0
  8 22  1  0  0  0
  9 10  1  0  0  0
  9 27  2  0  0  0
 10 11  2  0  0  0
 10 15  1  0  0  0
 11 12  1  0  0  0
 11 93  1  0  0  0
 12 13  2  0  0  0
 12 94  1  0  0  0
 13 14  1  0  0  0
 13 31  1  0  0  0
 14 15  2  0  0  0
 14 95  1  0  0  0
 15 96  1  0  0  0
 16 17  2  0  0  0
 16 21  1  0  0  0
 16 31  1  0  0  0
 17 18  1  0  0  0
 17 97  1  0  0  0
 18 19  2  0  0  0
 18 98  1  0  0  0
 19 20  1  0  0  0
 19 24  1  0  0  0
 20 21  2  0  0  0
 20 99  1  0  0  0
 21 23  1  0  0  0
 22 28  1  0  0  0
 22 32  2  0  0  0
 26 27  1  0  0  0
 28100  1  0  0  0
 28101  1  0  0  0
 29102  1  0  0  0
 29103  1  0  0  0
 33 34  1  0  0  0
 33 66  1  0  0  0
 33 70  2  0  0  0
 34 36  1  0  0  0
 34 59  1  0  0  0
 34104  1  0  0  0
 35 44  2  0  0  0
 35 45  1  0  0  0
 35 68  1  0  0  0
 36 56  1  0  0  0
 36105  1  0  0  0
 37 39  1  0  0  0
 37 47  1  0  0  0
 37 66  1  0  0  0
 37106  1  0  0  0
 38 43  2  0  0  0
 38 46  1  0  0  0
 38 47  1  0  0  0
 39 64  1  0  0  0
 39 67  2  0  0  0
 40 52  1  0  0  0
 40 53  2  0  0  0
 40 58  1  0  0  0
 41107  1  0  0  0
 41108  1  0  0  0
 41109  1  0  0  0
 41 48  1  0  0  0
 42 43  1  0  0  0
 42 66  1  0  0  0
 42110  1  0  0  0
 42111  1  0  0  0
 43 44  1  0  0  0
 44112  1  0  0  0
 45 46  2  0  0  0
 45113  1  0  0  0
 46114  1  0  0  0
 47115  1  0  0  0
 47116  1  0  0  0
 48 56  1  0  0  0
 48 65  1  0  0  0
 48117  1  0  0  0
 49 50  1  0  0  0
 49 53  1  0  0  0
 49 64  1  0  0  0
 49118  1  0  0  0
 50 51  1  0  0  0
 50119  1  0  0  0
 50120  1  0  0  0
 51 52  1  0  0  0
 51121  1  0  0  0
 51122  1  0  0  0
 52123  1  0  0  0
 52124  1  0  0  0
 53 54  1  0  0  0
 54 55  2  0  0  0
 54125  1  0  0  0
 55 57  1  0  0  0
 55126  1  0  0  0
 56 69  2  0  0  0
 57 58  2  0  0  0
 57127  1  0  0  0
 58128  1  0  0  0
 59 60  1  0  0  0
 59 61  1  0  0  0
 59 62  1  0  0  0
 60129  1  0  0  0
 60130  1  0  0  0
 60131  1  0  0  0
 61132  1  0  0  0
 61133  1  0  0  0
 61134  1  0  0  0
 62135  1  0  0  0
 62136  1  0  0  0
 62137  1  0  0  0
 63 65  1  0  0  0
 63138  1  0  0  0
 63139  1  0  0  0
 63140  1  0  0  0
 64141  1  0  0  0
 65142  1  0  0  0
 68 77  1  0  0  0
 71 79  1  0  0  0
 71 82  2  0  0  0
 71 83  1  0  0  0
 72 80  1  0  0  0
 72 81  2  0  0  0
 72 74  1  0  0  0
 73 74  1  0  0  0
 73 83  1  0  0  0
 73143  1  0  0  0
 73144  1  0  0  0
 74 79  1  0  0  0
 74145  1  0  0  0
 75146  1  0  0  0
 75147  1  0  0  0
 75148  1  0  0  0
 75 78  1  0  0  0
 76 77  1  0  0  0
 76 78  1  0  0  0
 76149  1  0  0  0
 76150  1  0  0  0
 77151  1  0  0  0
 77152  1  0  0  0
 78 82  1  0  0  0
 78153  1  0  0  0
 79154  1  0  0  0
 80155  1  0  0  0
 81156  1  0  0  0
 81157  1  0  0  0
 82158  1  0  0  0
M  CHG  2  81   1  82   1
M  ISO  4   1 100  68 101  77 101  80 100
M  END
> <chiral flag>
0

> <version>
0

> <s_m_source_file>
/data/baiqing/PycharmProjects/Reinvent-master-3.2/result/LINK_invent/BTK/process_docking_weight1_custom_product_contain_oxygen_bond_distance_aromatic_linkinvent_7_9_3/rearranged_h_0192.sdf

> <i_m_source_file_index>
82

> <r_mmod_Potential_Energy-OPLS-2005>
-309.051727294922

> <r_mmod_Stretch_Energy-OPLS-2005>
47.7480163574219

> <r_mmod_Bend_Energy-OPLS-2005>
143.903793334961

> <r_mmod_Torsional_Energy-OPLS-2005>
230.288543701172

> <r_mmod_Improper_Torsional_Energy-OPLS-2005>
9.83253955841064

> <r_mmod_Van_der_Waal_Energy-OPLS-2005>
136.755935668945

> <r_mmod_Electrostatic_Energy-OPLS-2005>
114.677101135254

> <r_mmod_Solvation_Energy-OPLS-2005>
-1011.37701416016

> <b_mmod_Minimization_Converged-OPLS-2005>
0

> <r_mmod_RMS_Derivative-OPLS-2005>
2.45024704933167

$$$$
83
                    3D
 Structure written by MMmdl.
163171  0  0  1  0            999 V2000
  -30.6609  -14.5256   20.6148 C   0  0  0  0  0  0
  -30.4434  -12.3543   19.4204 C   0  0  0  0  0  0
  -29.4922  -12.4966   18.2102 C   0  0  0  0  0  0
  -28.0181  -12.3373   18.6349 C   0  0  0  0  0  0
  -27.6598  -13.1965   19.8733 C   0  0  2  0  0  0
  -28.7023  -12.9739   20.9916 C   0  0  0  0  0  0
  -25.2573  -13.8156   20.5713 C   0  0  0  0  0  0
  -24.1818  -13.0411   20.9219 C   0  0  0  0  0  0
  -24.6380  -11.6894   20.8787 C   0  0  0  0  0  0
  -23.9046  -10.4276   21.0446 C   0  0  0  0  0  0
  -24.3601   -9.4179   21.9199 C   0  0  0  0  0  0
  -23.6275   -8.2212   22.0748 C   0  0  0  0  0  0
  -22.4245   -8.0279   21.3541 C   0  0  0  0  0  0
  -21.9892   -9.0260   20.4653 C   0  0  0  0  0  0
  -22.7234  -10.2133   20.3086 C   0  0  0  0  0  0
  -21.6835   -6.0743   22.5290 C   0  0  0  0  0  0
  -21.4008   -6.5647   23.8231 C   0  0  0  0  0  0
  -21.3659   -5.6791   24.9190 C   0  0  0  0  0  0
  -21.6048   -4.3050   24.7227 C   0  0  0  0  0  0
  -21.8797   -3.8151   23.4344 C   0  0  0  0  0  0
  -21.9175   -4.6976   22.3410 C   0  0  0  0  0  0
  -22.7840  -13.5213   21.1897 C   0  0  0  0  0  0
  -22.1640   -4.2161   21.0985 F   0  0  0  0  0  0
  -21.5633   -3.4546   25.7737 F   0  0  0  0  0  0
  -30.0299  -13.3251   20.4485 N   0  0  0  0  0  0
  -26.2993  -12.9295   20.3375 N   0  0  0  0  0  0
  -25.9298  -11.6464   20.5801 N   0  0  0  0  0  0
  -22.0481  -12.8223   22.0474 N   0  0  0  0  0  0
  -25.4284  -15.1871   20.4148 N   0  0  0  0  0  0
  -31.7700  -14.7651   20.1177 O   0  0  0  0  0  0
  -21.6603   -6.8881   21.4242 O   0  0  0  0  0  0
  -22.3534  -14.5527   20.6759 O   0  0  0  0  0  0
  -24.6223  -31.8621   23.2058 C   0  0  0  0  0  0
  -25.9112  -32.4765   23.8381 C   0  0  1  0  0  0
  -27.2378  -27.3877   20.0837 C   0  0  0  0  0  0
  -25.5929  -33.8562   24.2305 N   0  0  0  0  0  0
  -23.4143  -30.4842   21.5482 C   0  0  2  0  0  0
  -24.8593  -28.9488   20.1062 C   0  0  0  0  0  0
  -22.7468  -29.4635   22.4976 C   0  0  0  0  0  0
  -18.0303  -28.1336   22.8489 C   0  0  0  0  0  0
  -24.1473  -36.7304   23.2645 C   0  0  0  0  0  0
  -25.9508  -30.8046   21.3743 C   0  0  0  0  0  0
  -26.0220  -29.4418   20.7119 C   0  0  0  0  0  0
  -27.2113  -28.6679   20.6975 C   0  0  0  0  0  0
  -26.0547  -26.9361   19.4494 C   0  0  0  0  0  0
  -24.8736  -27.6985   19.4696 C   0  0  0  0  0  0
  -23.6215  -29.8157   20.1626 C   0  0  0  0  0  0
  -25.4081  -36.3071   24.0353 C   0  0  1  0  0  0
  -20.5893  -28.3641   23.1265 C   0  0  2  0  0  0
  -20.6779  -26.9365   22.5385 C   0  0  0  0  0  0
  -19.5752  -26.6350   21.5191 C   0  0  0  0  0  0
  -18.1939  -26.7891   22.1612 C   0  0  0  0  0  0
  -19.1554  -28.8818   23.2881 C   0  0  0  0  0  0
  -18.9462  -30.1423   23.8879 C   0  0  0  0  0  0
  -17.6461  -30.6543   24.0553 C   0  0  0  0  0  0
  -25.9034  -34.9443   23.5121 C   0  0  0  0  0  0
  -16.5352  -29.9027   23.6303 C   0  0  0  0  0  0
  -16.7290  -28.6453   23.0341 C   0  0  0  0  0  0
  -26.4492  -31.6567   25.0747 C   0  0  0  0  0  0
  -25.3750  -31.3727   26.1494 C   0  0  0  0  0  0
  -27.0334  -30.2993   24.6200 C   0  0  0  0  0  0
  -27.6049  -32.4311   25.7502 C   0  0  0  0  0  0
  -27.5578  -37.1795   24.8468 C   0  0  0  0  0  0
  -21.4200  -29.3010   22.3688 N   0  0  0  0  0  0
  -26.4267  -37.3751   23.9430 N   0  0  0  0  0  0
  -24.6819  -31.0665   22.0995 N   0  0  0  0  0  0
  -23.4202  -28.8183   23.3060 O   0  0  0  0  0  0
  -28.4040  -26.6227   20.1247 O   0  0  0  0  0  0
  -26.5588  -34.8918   22.4682 O   0  0  0  0  0  0
  -23.5402  -32.1386   23.7418 O   0  0  0  0  0  0
  -29.9939  -17.1024   23.0197 C   0  0  0  0  0  0
  -30.1244  -16.8052   21.6513 C   0  0  0  0  0  0
  -29.9706  -18.4402   23.4104 C   0  0  0  0  0  0
  -30.2018  -19.1053   21.2333 C   0  0  0  0  0  0
  -31.5967  -20.1733   19.4098 C   0  0  0  0  0  0
  -28.9969  -20.0133   25.0068 C   0  0  0  0  0  0
  -29.3684  -24.2655   20.4364 C   0  0  0  0  0  0
  -30.1310  -21.7407   20.8228 C   0  0  0  0  0  0
  -28.3295  -25.2188   19.7553 C   0  0  0  0  0  0
  -30.2857  -20.2788   20.2196 C   0  0  2  0  0  0
  -29.2814  -22.7559   19.9929 C   0  0  1  0  0  0
  -30.2070  -17.8394   20.7665 N   0  0  0  0  0  0
  -30.1109  -19.4253   22.5191 N   0  0  0  0  0  0
  -29.9340  -15.4262   21.3150 N   0  0  0  0  0  0
  -29.7628  -18.7963   24.7463 N   0  0  0  0  0  0
  -27.9360  -22.3141   20.0900 O   0  0  0  0  0  0
  -31.4784  -12.5038   19.1026 H   0  0  0  0  0  0
  -30.4035  -11.3419   19.8266 H   0  0  0  0  0  0
  -29.7367  -11.7526   17.4489 H   0  0  0  0  0  0
  -29.6358  -13.4701   17.7405 H   0  0  0  0  0  0
  -27.8535  -11.2837   18.8659 H   0  0  0  0  0  0
  -27.3541  -12.5710   17.8036 H   0  0  0  0  0  0
  -27.6999  -14.2412   19.5606 H   0  0  0  0  0  0
  -28.7004  -11.9276   21.3014 H   0  0  0  0  0  0
  -28.4350  -13.5293   21.8909 H   0  0  0  0  0  0
  -25.2742   -9.5629   22.4783 H   0  0  0  0  0  0
  -23.9985   -7.4571   22.7449 H   0  0  0  0  0  0
  -21.0824   -8.8792   19.8953 H   0  0  0  0  0  0
  -22.3703  -10.9681   19.6207 H   0  0  0  0  0  0
  -21.1995   -7.6158   23.9741 H   0  0  0  0  0  0
  -21.1514   -6.0530   25.9099 H   0  0  0  0  0  0
  -22.0572   -2.7621   23.2848 H   0  0  0  0  0  0
  -22.4076  -11.9886   22.4878 H   0  0  0  0  0  0
  -21.1124  -13.1305   22.2721 H   0  0  0  0  0  0
  -24.6620  -15.8410   20.5380 H   0  0  0  0  0  0
  -26.2754  -15.6297   20.0778 H   0  0  0  0  0  0
  -26.7200  -32.5424   23.1150 H   0  0  0  0  0  0
  -25.0114  -33.9686   25.0469 H   0  0  0  0  0  0
  -22.7108  -31.3077   21.4081 H   0  0  0  0  0  0
  -23.3703  -35.9668   23.3286 H   0  0  0  0  0  0
  -24.3577  -36.8929   22.2067 H   0  0  0  0  0  0
  -23.7256  -37.6528   23.6644 H   0  0  0  0  0  0
  -26.0903  -31.5738   20.6143 H   0  0  0  0  0  0
  -26.8291  -30.8399   22.0075 H   0  0  0  0  0  0
  -28.1074  -29.0362   21.1753 H   0  0  0  0  0  0
  -26.0115  -25.9948   18.9233 H   0  0  0  0  0  0
  -23.9864  -27.3176   18.9829 H   0  0  0  0  0  0
  -23.7293  -30.5889   19.4008 H   0  0  0  0  0  0
  -22.7436  -29.2387   19.8687 H   0  0  0  0  0  0
  -25.1245  -36.1936   25.0839 H   0  0  0  0  0  0
  -21.0016  -28.3217   24.1379 H   0  0  0  0  0  0
  -20.5630  -26.2282   23.3598 H   0  0  0  0  0  0
  -21.6649  -26.7377   22.1212 H   0  0  0  0  0  0
  -19.6901  -25.6267   21.1235 H   0  0  0  0  0  0
  -19.6659  -27.3155   20.6712 H   0  0  0  0  0  0
  -17.4215  -26.6656   21.4018 H   0  0  0  0  0  0
  -18.0333  -26.0000   22.8964 H   0  0  0  0  0  0
  -19.7931  -30.7264   24.2231 H   0  0  0  0  0  0
  -17.4986  -31.6209   24.5168 H   0  0  0  0  0  0
  -15.5338  -30.2910   23.7609 H   0  0  0  0  0  0
  -15.8710  -28.0746   22.7029 H   0  0  0  0  0  0
  -24.5888  -30.7100   25.7867 H   0  0  0  0  0  0
  -24.8969  -32.2904   26.4945 H   0  0  0  0  0  0
  -25.8090  -30.8909   27.0258 H   0  0  0  0  0  0
  -26.2922  -29.6743   24.1207 H   0  0  0  0  0  0
  -27.4029  -29.7251   25.4708 H   0  0  0  0  0  0
  -27.8784  -30.4288   23.9425 H   0  0  0  0  0  0
  -27.2656  -33.3584   26.2117 H   0  0  0  0  0  0
  -28.3820  -32.6919   25.0315 H   0  0  0  0  0  0
  -28.0738  -31.8419   26.5386 H   0  0  0  0  0  0
  -28.2593  -38.0090   24.7478 H   0  0  0  0  0  0
  -28.1071  -36.2629   24.6278 H   0  0  0  0  0  0
  -27.2331  -37.1448   25.8880 H   0  0  0  0  0  0
  -20.9390  -29.8708   21.6867 H   0  0  0  0  0  0
  -26.0161  -38.2842   24.1353 H   0  0  0  0  0  0
  -29.8826  -16.3137   23.7492 H   0  0  0  0  0  0
  -31.6493  -19.2224   18.8785 H   0  0  0  0  0  0
  -32.4699  -20.2275   20.0597 H   0  0  0  0  0  0
  -31.6796  -20.9585   18.6610 H   0  0  0  0  0  0
  -28.7025  -20.0636   26.0573 H   0  0  0  0  0  0
  -28.0857  -20.0431   24.4059 H   0  0  0  0  0  0
  -29.5800  -20.9053   24.7727 H   0  0  0  0  0  0
  -29.2541  -24.3362   21.5176 H   0  0  0  0  0  0
  -30.3723  -24.6372   20.2259 H   0  0  0  0  0  0
  -31.1247  -22.1514   21.0064 H   0  0  0  0  0  0
  -29.6718  -21.7117   21.8098 H   0  0  0  0  0  0
  -27.3570  -24.8216   20.0367 H   0  0  0  0  0  0
  -28.4164  -25.1358   18.6716 H   0  0  0  0  0  0
  -29.4535  -20.1232   19.5319 H   0  0  0  0  0  0
  -29.5884  -22.7013   18.9459 H   0  0  0  0  0  0
  -29.1080  -15.0149   21.7144 H   0  0  0  0  0  0
  -29.5952  -18.0271   25.3878 H   0  0  0  0  0  0
  -27.6353  -22.4519   20.9871 H   0  0  0  0  0  0
  1 25  1  0  0  0
  1 30  2  0  0  0
  1 84  1  0  0  0
  2  3  1  0  0  0
  2 25  1  0  0  0
  2 87  1  0  0  0
  2 88  1  0  0  0
  3  4  1  0  0  0
  3 89  1  0  0  0
  3 90  1  0  0  0
  4  5  1  0  0  0
  4 91  1  0  0  0
  4 92  1  0  0  0
  5  6  1  0  0  0
  5 26  1  0  0  0
  5 93  1  0  0  0
  6 25  1  0  0  0
  6 94  1  0  0  0
  6 95  1  0  0  0
  7  8  2  0  0  0
  7 26  1  0  0  0
  7 29  1  0  0  0
  8  9  1  0  0  0
  8 22  1  0  0  0
  9 10  1  0  0  0
  9 27  2  0  0  0
 10 11  2  0  0  0
 10 15  1  0  0  0
 11 12  1  0  0  0
 11 96  1  0  0  0
 12 13  2  0  0  0
 12 97  1  0  0  0
 13 14  1  0  0  0
 13 31  1  0  0  0
 14 15  2  0  0  0
 14 98  1  0  0  0
 15 99  1  0  0  0
 16 17  2  0  0  0
 16 21  1  0  0  0
 16 31  1  0  0  0
 17 18  1  0  0  0
 17100  1  0  0  0
 18 19  2  0  0  0
 18101  1  0  0  0
 19 20  1  0  0  0
 19 24  1  0  0  0
 20 21  2  0  0  0
 20102  1  0  0  0
 21 23  1  0  0  0
 22 28  1  0  0  0
 22 32  2  0  0  0
 26 27  1  0  0  0
 28103  1  0  0  0
 28104  1  0  0  0
 29105  1  0  0  0
 29106  1  0  0  0
 33 34  1  0  0  0
 33 66  1  0  0  0
 33 70  2  0  0  0
 34 36  1  0  0  0
 34 59  1  0  0  0
 34107  1  0  0  0
 35 44  2  0  0  0
 35 45  1  0  0  0
 35 68  1  0  0  0
 36 56  1  0  0  0
 36108  1  0  0  0
 37 39  1  0  0  0
 37 47  1  0  0  0
 37 66  1  0  0  0
 37109  1  0  0  0
 38 43  2  0  0  0
 38 46  1  0  0  0
 38 47  1  0  0  0
 39 64  1  0  0  0
 39 67  2  0  0  0
 40 52  1  0  0  0
 40 53  2  0  0  0
 40 58  1  0  0  0
 41110  1  0  0  0
 41111  1  0  0  0
 41112  1  0  0  0
 41 48  1  0  0  0
 42 43  1  0  0  0
 42 66  1  0  0  0
 42113  1  0  0  0
 42114  1  0  0  0
 43 44  1  0  0  0
 44115  1  0  0  0
 45 46  2  0  0  0
 45116  1  0  0  0
 46117  1  0  0  0
 47118  1  0  0  0
 47119  1  0  0  0
 48 56  1  0  0  0
 48 65  1  0  0  0
 48120  1  0  0  0
 49 50  1  0  0  0
 49 53  1  0  0  0
 49 64  1  0  0  0
 49121  1  0  0  0
 50 51  1  0  0  0
 50122  1  0  0  0
 50123  1  0  0  0
 51 52  1  0  0  0
 51124  1  0  0  0
 51125  1  0  0  0
 52126  1  0  0  0
 52127  1  0  0  0
 53 54  1  0  0  0
 54 55  2  0  0  0
 54128  1  0  0  0
 55 57  1  0  0  0
 55129  1  0  0  0
 56 69  2  0  0  0
 57 58  2  0  0  0
 57130  1  0  0  0
 58131  1  0  0  0
 59 60  1  0  0  0
 59 61  1  0  0  0
 59 62  1  0  0  0
 60132  1  0  0  0
 60133  1  0  0  0
 60134  1  0  0  0
 61135  1  0  0  0
 61136  1  0  0  0
 61137  1  0  0  0
 62138  1  0  0  0
 62139  1  0  0  0
 62140  1  0  0  0
 63 65  1  0  0  0
 63141  1  0  0  0
 63142  1  0  0  0
 63143  1  0  0  0
 64144  1  0  0  0
 65145  1  0  0  0
 68 79  1  0  0  0
 71 72  2  0  0  0
 71 73  1  0  0  0
 71146  1  0  0  0
 72 82  1  0  0  0
 72 84  1  0  0  0
 73 83  2  0  0  0
 73 85  1  0  0  0
 74 80  1  0  0  0
 74 82  2  0  0  0
 74 83  1  0  0  0
 75147  1  0  0  0
 75148  1  0  0  0
 75149  1  0  0  0
 75 80  1  0  0  0
 76 85  1  0  0  0
 76150  1  0  0  0
 76151  1  0  0  0
 76152  1  0  0  0
 77 79  1  0  0  0
 77 81  1  0  0  0
 77153  1  0  0  0
 77154  1  0  0  0
 78 80  1  0  0  0
 78 81  1  0  0  0
 78155  1  0  0  0
 78156  1  0  0  0
 79157  1  0  0  0
 79158  1  0  0  0
 80159  1  0  0  0
 81 86  1  0  0  0
 81160  1  0  0  0
 84161  1  0  0  0
 85162  1  0  0  0
 86163  1  0  0  0
M  ISO  4   1 100  68 101  79 101  84 100
M  END
> <chiral flag>
0

> <version>
0

> <s_m_source_file>
/data/baiqing/PycharmProjects/Reinvent-master-3.2/result/LINK_invent/BTK/process_docking_weight1_custom_product_contain_oxygen_bond_distance_aromatic_linkinvent_7_9_3/rearranged_h_0192.sdf

> <i_m_source_file_index>
83

> <r_mmod_Potential_Energy-OPLS-2005>
-545.815551757812

> <r_mmod_Stretch_Energy-OPLS-2005>
53.7103118896484

> <r_mmod_Bend_Energy-OPLS-2005>
127.500869750977

> <r_mmod_Torsional_Energy-OPLS-2005>
228.648773193359

> <r_mmod_Improper_Torsional_Energy-OPLS-2005>
6.43375492095947

> <r_mmod_Van_der_Waal_Energy-OPLS-2005>
170.920486450195

> <r_mmod_Electrostatic_Energy-OPLS-2005>
-890.2421875

> <r_mmod_Solvation_Energy-OPLS-2005>
-264.810546875

> <b_mmod_Minimization_Converged-OPLS-2005>
0

> <r_mmod_RMS_Derivative-OPLS-2005>
4.15009737014771

$$$$
84
                    3D
 Structure written by MMmdl.
165173  0  0  1  0            999 V2000
  -30.7325  -14.4963   20.4914 C   0  0  0  0  0  0
  -30.4021  -12.3030   19.4424 C   0  0  0  0  0  0
  -29.4882  -12.4842   18.2141 C   0  0  0  0  0  0
  -28.0110  -12.3513   18.6271 C   0  0  0  0  0  0
  -27.6516  -13.2195   19.8635 C   0  0  2  0  0  0
  -28.6973  -13.0769   20.9939 C   0  0  0  0  0  0
  -25.2541  -13.8196   20.5691 C   0  0  0  0  0  0
  -24.1814  -13.0460   20.9201 C   0  0  0  0  0  0
  -24.6380  -11.6932   20.8753 C   0  0  0  0  0  0
  -23.9060  -10.4308   21.0414 C   0  0  0  0  0  0
  -24.3616   -9.4222   21.9192 C   0  0  0  0  0  0
  -23.6294   -8.2255   22.0756 C   0  0  0  0  0  0
  -22.4271   -8.0291   21.3554 C   0  0  0  0  0  0
  -21.9910   -9.0263   20.4654 C   0  0  0  0  0  0
  -22.7232  -10.2142   20.3064 C   0  0  0  0  0  0
  -21.6858   -6.0735   22.5285 C   0  0  0  0  0  0
  -21.4017   -6.5642   23.8213 C   0  0  0  0  0  0
  -21.3659   -5.6797   24.9181 C   0  0  0  0  0  0
  -21.6039   -4.3058   24.7231 C   0  0  0  0  0  0
  -21.8820   -3.8149   23.4353 C   0  0  0  0  0  0
  -21.9193   -4.6966   22.3406 C   0  0  0  0  0  0
  -22.7830  -13.5242   21.1871 C   0  0  0  0  0  0
  -22.1658   -4.2143   21.0990 F   0  0  0  0  0  0
  -21.5628   -3.4545   25.7750 F   0  0  0  0  0  0
  -30.0236  -13.3373   20.4203 N   0  0  0  0  0  0
  -26.2979  -12.9389   20.3345 N   0  0  0  0  0  0
  -25.9310  -11.6537   20.5784 N   0  0  0  0  0  0
  -22.0473  -12.8223   22.0424 N   0  0  0  0  0  0
  -25.4247  -15.1917   20.4085 N   0  0  0  0  0  0
  -31.9148  -14.5510   20.1507 O   0  0  0  0  0  0
  -21.6646   -6.8880   21.4245 O   0  0  0  0  0  0
  -22.3510  -14.5546   20.6721 O   0  0  0  0  0  0
  -24.6171  -31.8667   23.2110 C   0  0  0  0  0  0
  -25.9058  -32.4818   23.8406 C   0  0  1  0  0  0
  -27.2217  -27.4030   20.1027 C   0  0  0  0  0  0
  -25.5907  -33.8617   24.2336 N   0  0  0  0  0  0
  -23.4047  -30.4935   21.5510 C   0  0  2  0  0  0
  -24.8480  -28.9623   20.1106 C   0  0  0  0  0  0
  -22.7418  -29.4657   22.4967 C   0  0  0  0  0  0
  -18.0272  -28.1374   22.8494 C   0  0  0  0  0  0
  -24.1482  -36.7306   23.2637 C   0  0  0  0  0  0
  -25.9386  -30.8220   21.3705 C   0  0  0  0  0  0
  -26.0107  -29.4559   20.7154 C   0  0  0  0  0  0
  -27.1979  -28.6828   20.7107 C   0  0  0  0  0  0
  -26.0436  -26.9507   19.4604 C   0  0  0  0  0  0
  -24.8611  -27.7101   19.4785 C   0  0  0  0  0  0
  -23.6130  -29.8326   20.1632 C   0  0  0  0  0  0
  -25.4103  -36.3109   24.0339 C   0  0  1  0  0  0
  -20.5868  -28.3658   23.1307 C   0  0  2  0  0  0
  -20.6760  -26.9391   22.5412 C   0  0  0  0  0  0
  -19.5742  -26.6381   21.5209 C   0  0  0  0  0  0
  -18.1919  -26.7921   22.1623 C   0  0  0  0  0  0
  -19.1522  -28.8834   23.2900 C   0  0  0  0  0  0
  -18.9454  -30.1444   23.8905 C   0  0  0  0  0  0
  -17.6456  -30.6582   24.0569 C   0  0  0  0  0  0
  -25.9033  -34.9474   23.5134 C   0  0  0  0  0  0
  -16.5347  -29.9087   23.6329 C   0  0  0  0  0  0
  -16.7263  -28.6503   23.0352 C   0  0  0  0  0  0
  -26.4474  -31.6598   25.0741 C   0  0  0  0  0  0
  -25.3743  -31.3706   26.1496 C   0  0  0  0  0  0
  -27.0297  -30.3037   24.6122 C   0  0  0  0  0  0
  -27.6053  -32.4310   25.7505 C   0  0  0  0  0  0
  -27.5573  -37.1811   24.8470 C   0  0  0  0  0  0
  -21.4142  -29.3035   22.3719 N   0  0  0  0  0  0
  -26.4286  -37.3798   23.9416 N   0  0  0  0  0  0
  -24.6719  -31.0755   22.1020 N   0  0  0  0  0  0
  -23.4186  -28.8186   23.3004 O   0  0  0  0  0  0
  -28.3754  -26.6335   20.1615 O   0  0  0  0  0  0
  -26.5596  -34.8926   22.4700 O   0  0  0  0  0  0
  -23.5359  -32.1421   23.7493 O   0  0  0  0  0  0
  -29.0813  -19.0850   20.3576 C   0  0  0  0  0  0
  -30.8566  -19.9500   22.1840 C   0  0  0  0  0  0
  -30.1308  -18.2359   20.8105 C   0  0  0  0  0  0
  -29.8608  -20.8244   21.6762 C   0  0  0  0  0  0
  -30.9214  -18.1598   16.3475 C   0  0  0  0  0  0
  -27.3843  -22.7027   21.9097 C   0  0  0  0  0  0
  -31.1496  -18.1057   17.8627 C   0  0  0  0  0  0
  -30.3324  -16.9939   18.5497 C   0  0  0  0  0  0
  -29.2055  -24.3151   20.8663 C   0  0  0  0  0  0
  -28.2526  -25.1957   19.9786 C   0  0  0  0  0  0
  -30.5339  -16.9309   20.0887 C   0  0  2  0  0  0
  -28.8401  -23.2206   21.9464 C   0  0  1  0  0  0
  -30.9981  -18.6697   21.7590 N   0  0  0  0  0  0
  -28.9537  -20.3756   20.7750 N   0  0  0  0  0  0
  -29.8683  -22.1724   22.0963 N   0  0  0  0  0  0
  -30.0302  -15.6437   20.6349 N   0  0  0  0  0  0
  -30.2729  -11.3098   19.8757 H   0  0  0  0  0  0
  -31.4500  -12.3617   19.1424 H   0  0  0  0  0  0
  -29.7294  -11.7421   17.4511 H   0  0  0  0  0  0
  -29.6582  -13.4611   17.7575 H   0  0  0  0  0  0
  -27.8250  -11.2992   18.8464 H   0  0  0  0  0  0
  -27.3608  -12.6051   17.7893 H   0  0  0  0  0  0
  -27.6746  -14.2550   19.5248 H   0  0  0  0  0  0
  -28.4795  -13.7622   21.8146 H   0  0  0  0  0  0
  -28.6701  -12.0725   21.4200 H   0  0  0  0  0  0
  -25.2762   -9.5700   22.4766 H   0  0  0  0  0  0
  -24.0014   -7.4640   22.7464 H   0  0  0  0  0  0
  -21.0851   -8.8778   19.8950 H   0  0  0  0  0  0
  -22.3697  -10.9683   19.6176 H   0  0  0  0  0  0
  -21.2006   -7.6148   23.9719 H   0  0  0  0  0  0
  -21.1479   -6.0527   25.9082 H   0  0  0  0  0  0
  -22.0595   -2.7609   23.2860 H   0  0  0  0  0  0
  -22.4094  -11.9870   22.4791 H   0  0  0  0  0  0
  -21.1093  -13.1241   22.2656 H   0  0  0  0  0  0
  -24.6569  -15.8458   20.5135 H   0  0  0  0  0  0
  -26.2687  -15.6292   20.0627 H   0  0  0  0  0  0
  -26.7130  -32.5515   23.1166 H   0  0  0  0  0  0
  -25.0094  -33.9786   25.0506 H   0  0  0  0  0  0
  -22.6950  -31.3116   21.4142 H   0  0  0  0  0  0
  -23.3741  -35.9642   23.3317 H   0  0  0  0  0  0
  -24.3577  -36.8902   22.2049 H   0  0  0  0  0  0
  -23.7240  -37.6518   23.6638 H   0  0  0  0  0  0
  -26.0579  -31.5861   20.6012 H   0  0  0  0  0  0
  -26.8254  -30.8718   21.9904 H   0  0  0  0  0  0
  -28.0901  -29.0533   21.1968 H   0  0  0  0  0  0
  -26.0095  -26.0100   18.9315 H   0  0  0  0  0  0
  -23.9715  -27.3304   18.9945 H   0  0  0  0  0  0
  -23.7256  -30.6104   19.4075 H   0  0  0  0  0  0
  -22.7352  -29.2575   19.8630 H   0  0  0  0  0  0
  -25.1281  -36.1968   25.0831 H   0  0  0  0  0  0
  -20.9967  -28.3217   24.1424 H   0  0  0  0  0  0
  -20.5654  -26.2264   23.3600 H   0  0  0  0  0  0
  -21.6631  -26.7431   22.1211 H   0  0  0  0  0  0
  -19.6908  -25.6297   21.1225 H   0  0  0  0  0  0
  -19.6680  -27.3203   20.6750 H   0  0  0  0  0  0
  -17.4187  -26.6666   21.4028 H   0  0  0  0  0  0
  -18.0322  -26.0058   22.9016 H   0  0  0  0  0  0
  -19.7935  -30.7261   24.2263 H   0  0  0  0  0  0
  -17.5019  -31.6263   24.5172 H   0  0  0  0  0  0
  -15.5352  -30.3004   23.7647 H   0  0  0  0  0  0
  -15.8657  -28.0838   22.7060 H   0  0  0  0  0  0
  -24.5919  -30.7040   25.7849 H   0  0  0  0  0  0
  -24.8927  -32.2860   26.4946 H   0  0  0  0  0  0
  -25.8107  -30.8888   27.0257 H   0  0  0  0  0  0
  -26.2843  -29.6822   24.1147 H   0  0  0  0  0  0
  -27.4033  -29.7248   25.4580 H   0  0  0  0  0  0
  -27.8698  -30.4359   23.9301 H   0  0  0  0  0  0
  -27.2672  -33.3601   26.2111 H   0  0  0  0  0  0
  -28.3852  -32.6886   25.0324 H   0  0  0  0  0  0
  -28.0736  -31.8415   26.5400 H   0  0  0  0  0  0
  -28.2607  -38.0092   24.7507 H   0  0  0  0  0  0
  -28.1049  -36.2630   24.6301 H   0  0  0  0  0  0
  -27.2293  -37.1469   25.8873 H   0  0  0  0  0  0
  -20.9284  -29.8783   21.6976 H   0  0  0  0  0  0
  -26.0169  -38.2874   24.1419 H   0  0  0  0  0  0
  -28.4002  -18.7694   19.5826 H   0  0  0  0  0  0
  -31.5764  -20.2932   22.9127 H   0  0  0  0  0  0
  -31.5076  -18.9608   15.8958 H   0  0  0  0  0  0
  -29.8737  -18.3468   16.1111 H   0  0  0  0  0  0
  -31.2135  -17.2267   15.8635 H   0  0  0  0  0  0
  -26.6762  -23.5192   22.0610 H   0  0  0  0  0  0
  -27.2002  -21.9784   22.7039 H   0  0  0  0  0  0
  -27.1297  -22.2341   20.9591 H   0  0  0  0  0  0
  -30.9094  -19.0805   18.2862 H   0  0  0  0  0  0
  -32.2111  -17.9441   18.0583 H   0  0  0  0  0  0
  -30.6298  -16.0444   18.1033 H   0  0  0  0  0  0
  -29.2743  -17.1052   18.3123 H   0  0  0  0  0  0
  -28.9197  -23.5309   20.1635 H   0  0  0  0  0  0
  -28.7170  -24.9575   21.5984 H   0  0  0  0  0  0
  -28.4411  -25.0192   18.9165 H   0  0  0  0  0  0
  -27.2355  -24.8431   20.1611 H   0  0  0  0  0  0
  -31.6181  -16.9223   20.2230 H   0  0  0  0  0  0
  -28.9176  -23.6834   22.9369 H   0  0  0  0  0  0
  -30.6156  -22.3960   22.7495 H   0  0  0  0  0  0
  -29.0598  -15.5831   20.8995 H   0  0  0  0  0  0
  1 25  1  0  0  0
  1 30  2  0  0  0
  1 86  1  0  0  0
  2  3  1  0  0  0
  2 25  1  0  0  0
  2 87  1  0  0  0
  2 88  1  0  0  0
  3  4  1  0  0  0
  3 89  1  0  0  0
  3 90  1  0  0  0
  4  5  1  0  0  0
  4 91  1  0  0  0
  4 92  1  0  0  0
  5  6  1  0  0  0
  5 26  1  0  0  0
  5 93  1  0  0  0
  6 25  1  0  0  0
  6 94  1  0  0  0
  6 95  1  0  0  0
  7  8  2  0  0  0
  7 26  1  0  0  0
  7 29  1  0  0  0
  8  9  1  0  0  0
  8 22  1  0  0  0
  9 10  1  0  0  0
  9 27  2  0  0  0
 10 11  2  0  0  0
 10 15  1  0  0  0
 11 12  1  0  0  0
 11 96  1  0  0  0
 12 13  2  0  0  0
 12 97  1  0  0  0
 13 14  1  0  0  0
 13 31  1  0  0  0
 14 15  2  0  0  0
 14 98  1  0  0  0
 15 99  1  0  0  0
 16 17  2  0  0  0
 16 21  1  0  0  0
 16 31  1  0  0  0
 17 18  1  0  0  0
 17100  1  0  0  0
 18 19  2  0  0  0
 18101  1  0  0  0
 19 20  1  0  0  0
 19 24  1  0  0  0
 20 21  2  0  0  0
 20102  1  0  0  0
 21 23  1  0  0  0
 22 28  1  0  0  0
 22 32  2  0  0  0
 26 27  1  0  0  0
 28103  1  0  0  0
 28104  1  0  0  0
 29105  1  0  0  0
 29106  1  0  0  0
 33 34  1  0  0  0
 33 66  1  0  0  0
 33 70  2  0  0  0
 34 36  1  0  0  0
 34 59  1  0  0  0
 34107  1  0  0  0
 35 44  2  0  0  0
 35 45  1  0  0  0
 35 68  1  0  0  0
 36 56  1  0  0  0
 36108  1  0  0  0
 37 39  1  0  0  0
 37 47  1  0  0  0
 37 66  1  0  0  0
 37109  1  0  0  0
 38 43  2  0  0  0
 38 46  1  0  0  0
 38 47  1  0  0  0
 39 64  1  0  0  0
 39 67  2  0  0  0
 40 52  1  0  0  0
 40 53  2  0  0  0
 40 58  1  0  0  0
 41110  1  0  0  0
 41111  1  0  0  0
 41112  1  0  0  0
 41 48  1  0  0  0
 42 43  1  0  0  0
 42 66  1  0  0  0
 42113  1  0  0  0
 42114  1  0  0  0
 43 44  1  0  0  0
 44115  1  0  0  0
 45 46  2  0  0  0
 45116  1  0  0  0
 46117  1  0  0  0
 47118  1  0  0  0
 47119  1  0  0  0
 48 56  1  0  0  0
 48 65  1  0  0  0
 48120  1  0  0  0
 49 50  1  0  0  0
 49 53  1  0  0  0
 49 64  1  0  0  0
 49121  1  0  0  0
 50 51  1  0  0  0
 50122  1  0  0  0
 50123  1  0  0  0
 51 52  1  0  0  0
 51124  1  0  0  0
 51125  1  0  0  0
 52126  1  0  0  0
 52127  1  0  0  0
 53 54  1  0  0  0
 54 55  2  0  0  0
 54128  1  0  0  0
 55 57  1  0  0  0
 55129  1  0  0  0
 56 69  2  0  0  0
 57 58  2  0  0  0
 57130  1  0  0  0
 58131  1  0  0  0
 59 60  1  0  0  0
 59 61  1  0  0  0
 59 62  1  0  0  0
 60132  1  0  0  0
 60133  1  0  0  0
 60134  1  0  0  0
 61135  1  0  0  0
 61136  1  0  0  0
 61137  1  0  0  0
 62138  1  0  0  0
 62139  1  0  0  0
 62140  1  0  0  0
 63 65  1  0  0  0
 63141  1  0  0  0
 63142  1  0  0  0
 63143  1  0  0  0
 64144  1  0  0  0
 65145  1  0  0  0
 68 80  1  0  0  0
 71 73  2  0  0  0
 71 84  1  0  0  0
 71146  1  0  0  0
 72 74  1  0  0  0
 72 83  2  0  0  0
 72147  1  0  0  0
 73 81  1  0  0  0
 73 83  1  0  0  0
 74 84  2  0  0  0
 74 85  1  0  0  0
 75 77  1  0  0  0
 75148  1  0  0  0
 75149  1  0  0  0
 75150  1  0  0  0
 76151  1  0  0  0
 76152  1  0  0  0
 76153  1  0  0  0
 76 82  1  0  0  0
 77 78  1  0  0  0
 77154  1  0  0  0
 77155  1  0  0  0
 78156  1  0  0  0
 78157  1  0  0  0
 78 81  1  0  0  0
 79 80  1  0  0  0
 79 82  1  0  0  0
 79158  1  0  0  0
 79159  1  0  0  0
 80160  1  0  0  0
 80161  1  0  0  0
 81 86  1  0  0  0
 81162  1  0  0  0
 82 85  1  0  0  0
 82163  1  0  0  0
 85164  1  0  0  0
 86165  1  0  0  0
M  ISO  4   1 100  68 101  80 101  86 100
M  END
> <chiral flag>
0

> <version>
0

> <s_m_source_file>
/data/baiqing/PycharmProjects/Reinvent-master-3.2/result/LINK_invent/BTK/process_docking_weight1_custom_product_contain_oxygen_bond_distance_aromatic_linkinvent_7_9_3/rearranged_h_0192.sdf

> <i_m_source_file_index>
84

> <r_mmod_Potential_Energy-OPLS-2005>
291.711242675781

> <r_mmod_Stretch_Energy-OPLS-2005>
50.6438064575195

> <r_mmod_Bend_Energy-OPLS-2005>
368.191314697266

> <r_mmod_Torsional_Energy-OPLS-2005>
223.7734375

> <r_mmod_Improper_Torsional_Energy-OPLS-2005>
10.5639371871948

> <r_mmod_Van_der_Waal_Energy-OPLS-2005>
181.272705078125

> <r_mmod_Electrostatic_Energy-OPLS-2005>
-338.910552978516

> <r_mmod_Solvation_Energy-OPLS-2005>
-229.732330322266

> <b_mmod_Minimization_Converged-OPLS-2005>
0

> <r_mmod_RMS_Derivative-OPLS-2005>
1.49055886268616

$$$$
85
                    3D
 Structure written by MMmdl.
156164  0  0  1  0            999 V2000
  -30.6325  -14.7223   20.5372 C   0  0  0  0  0  0
  -30.4332  -12.4583   19.4683 C   0  0  0  0  0  0
  -29.5122  -12.5445   18.2295 C   0  0  0  0  0  0
  -28.0312  -12.3742   18.6255 C   0  0  0  0  0  0
  -27.6479  -13.2321   19.8596 C   0  0  2  0  0  0
  -28.6900  -13.0763   20.9827 C   0  0  0  0  0  0
  -25.2522  -13.8199   20.5671 C   0  0  0  0  0  0
  -24.1811  -13.0440   20.9176 C   0  0  0  0  0  0
  -24.6405  -11.6917   20.8716 C   0  0  0  0  0  0
  -23.9079  -10.4297   21.0393 C   0  0  0  0  0  0
  -24.3634   -9.4210   21.9174 C   0  0  0  0  0  0
  -23.6306   -8.2249   22.0750 C   0  0  0  0  0  0
  -22.4283   -8.0285   21.3544 C   0  0  0  0  0  0
  -21.9919   -9.0255   20.4645 C   0  0  0  0  0  0
  -22.7252  -10.2132   20.3049 C   0  0  0  0  0  0
  -21.6856   -6.0742   22.5283 C   0  0  0  0  0  0
  -21.4022   -6.5642   23.8219 C   0  0  0  0  0  0
  -21.3661   -5.6793   24.9179 C   0  0  0  0  0  0
  -21.6048   -4.3056   24.7226 C   0  0  0  0  0  0
  -21.8822   -3.8149   23.4346 C   0  0  0  0  0  0
  -21.9197   -4.6970   22.3402 C   0  0  0  0  0  0
  -22.7837  -13.5213   21.1863 C   0  0  0  0  0  0
  -22.1662   -4.2154   21.0983 F   0  0  0  0  0  0
  -21.5627   -3.4540   25.7739 F   0  0  0  0  0  0
  -29.9929  -13.4946   20.4416 N   0  0  0  0  0  0
  -26.2959  -12.9409   20.3277 N   0  0  0  0  0  0
  -25.9333  -11.6545   20.5702 N   0  0  0  0  0  0
  -22.0481  -12.8196   22.0417 N   0  0  0  0  0  0
  -25.4215  -15.1923   20.4109 N   0  0  0  0  0  0
  -31.7691  -14.7979   20.0563 O   0  0  0  0  0  0
  -21.6644   -6.8885   21.4245 O   0  0  0  0  0  0
  -22.3513  -14.5523   20.6721 O   0  0  0  0  0  0
  -24.6298  -31.8566   23.1984 C   0  0  0  0  0  0
  -25.9123  -32.4767   23.8333 C   0  0  1  0  0  0
  -27.2221  -27.2772   20.1341 C   0  0  0  0  0  0
  -25.5926  -33.8567   24.2267 N   0  0  0  0  0  0
  -23.4262  -30.4783   21.5419 C   0  0  2  0  0  0
  -24.8738  -28.9229   20.1138 C   0  0  0  0  0  0
  -22.7491  -29.4611   22.4914 C   0  0  0  0  0  0
  -18.0292  -28.1386   22.8482 C   0  0  0  0  0  0
  -24.1486  -36.7288   23.2643 C   0  0  0  0  0  0
  -25.9701  -30.7756   21.3736 C   0  0  0  0  0  0
  -26.0451  -29.3977   20.7186 C   0  0  0  0  0  0
  -27.2258  -28.5892   20.7120 C   0  0  0  0  0  0
  -26.0307  -26.8620   19.5042 C   0  0  0  0  0  0
  -24.8708  -27.6628   19.4941 C   0  0  0  0  0  0
  -23.6439  -29.8094   20.1591 C   0  0  0  0  0  0
  -25.4113  -36.3082   24.0331 C   0  0  1  0  0  0
  -20.5895  -28.3702   23.1272 C   0  0  2  0  0  0
  -20.6783  -26.9416   22.5418 C   0  0  0  0  0  0
  -19.5761  -26.6378   21.5217 C   0  0  0  0  0  0
  -18.1937  -26.7932   22.1619 C   0  0  0  0  0  0
  -19.1545  -28.8856   23.2878 C   0  0  0  0  0  0
  -18.9464  -30.1456   23.8898 C   0  0  0  0  0  0
  -17.6462  -30.6587   24.0560 C   0  0  0  0  0  0
  -25.9048  -34.9450   23.5101 C   0  0  0  0  0  0
  -16.5354  -29.9082   23.6329 C   0  0  0  0  0  0
  -16.7278  -28.6499   23.0353 C   0  0  0  0  0  0
  -26.4495  -31.6586   25.0716 C   0  0  0  0  0  0
  -25.3724  -31.3722   26.1436 C   0  0  0  0  0  0
  -27.0345  -30.3014   24.6177 C   0  0  0  0  0  0
  -27.6042  -32.4329   25.7498 C   0  0  0  0  0  0
  -27.5581  -37.1805   24.8463 C   0  0  0  0  0  0
  -21.4201  -29.3049   22.3656 N   0  0  0  0  0  0
  -26.4290  -37.3780   23.9407 N   0  0  0  0  0  0
  -24.6946  -31.0539   22.0954 N   0  0  0  0  0  0
  -23.4191  -28.8154   23.3014 O   0  0  0  0  0  0
  -28.3228  -26.3968   20.1456 O   0  0  0  0  0  0
  -26.5619  -34.8922   22.4668 O   0  0  0  0  0  0
  -23.5452  -32.1372   23.7293 O   0  0  0  0  0  0
  -29.2896  -17.2664   18.9315 C   0  0  0  0  0  0
  -29.6703  -17.3316   20.2510 C   0  0  0  0  0  0
  -29.2235  -19.6350   19.7682 C   0  0  0  0  0  0
  -29.0499  -15.9649   22.3118 C   0  0  0  0  0  0
  -29.9040  -22.2851   21.8023 C   0  0  0  0  0  0
  -28.1192  -24.9983   20.6517 C   0  0  0  0  0  0
  -30.0683  -16.1094   21.1720 C   0  0  1  0  0  0
  -28.8363  -22.2647   20.7022 C   0  0  1  0  0  0
  -28.7526  -23.6924   19.9245 C   0  0  1  0  0  0
  -29.6082  -18.7134   20.7050 N   0  0  0  0  0  0
  -29.0439  -21.0665   19.8137 N   0  0  0  0  0  0
  -27.9550  -23.4166   18.7849 O   0  0  0  0  0  0
  -28.9101  -18.8306   18.2320 S   0  0  0  0  0  0
  -31.4748  -12.5738   19.1641 H   0  0  0  0  0  0
  -30.3807  -11.4642   19.9141 H   0  0  0  0  0  0
  -29.7933  -11.7889   17.4950 H   0  0  0  0  0  0
  -29.6516  -13.5104   17.7413 H   0  0  0  0  0  0
  -27.8646  -11.3185   18.8413 H   0  0  0  0  0  0
  -27.3850  -12.6187   17.7819 H   0  0  0  0  0  0
  -27.6667  -14.2733   19.5368 H   0  0  0  0  0  0
  -28.7315  -12.0334   21.3012 H   0  0  0  0  0  0
  -28.3879  -13.6050   21.8762 H   0  0  0  0  0  0
  -25.2779   -9.5695   22.4742 H   0  0  0  0  0  0
  -24.0022   -7.4644   22.7460 H   0  0  0  0  0  0
  -21.0856   -8.8779   19.8939 H   0  0  0  0  0  0
  -22.3711  -10.9677   19.6160 H   0  0  0  0  0  0
  -21.2014   -7.6148   23.9729 H   0  0  0  0  0  0
  -21.1477   -6.0515   25.9084 H   0  0  0  0  0  0
  -22.0599   -2.7610   23.2844 H   0  0  0  0  0  0
  -22.4096  -11.9861   22.4810 H   0  0  0  0  0  0
  -21.1089  -13.1214   22.2607 H   0  0  0  0  0  0
  -24.6545  -15.8462   20.5238 H   0  0  0  0  0  0
  -26.2772  -15.6352   20.1034 H   0  0  0  0  0  0
  -26.7189  -32.5427   23.1077 H   0  0  0  0  0  0
  -25.0087  -33.9705   25.0423 H   0  0  0  0  0  0
  -22.7230  -31.3010   21.3955 H   0  0  0  0  0  0
  -23.3756  -35.9611   23.3298 H   0  0  0  0  0  0
  -24.3574  -36.8916   22.2057 H   0  0  0  0  0  0
  -23.7223  -37.6482   23.6667 H   0  0  0  0  0  0
  -26.1021  -31.5340   20.6006 H   0  0  0  0  0  0
  -26.8503  -30.8294   22.0028 H   0  0  0  0  0  0
  -28.1266  -28.9509   21.1874 H   0  0  0  0  0  0
  -25.9879  -25.8938   19.0251 H   0  0  0  0  0  0
  -23.9743  -27.2948   19.0130 H   0  0  0  0  0  0
  -23.7674  -30.5846   19.4017 H   0  0  0  0  0  0
  -22.7620  -29.2424   19.8556 H   0  0  0  0  0  0
  -25.1295  -36.1940   25.0826 H   0  0  0  0  0  0
  -20.9994  -28.3288   24.1391 H   0  0  0  0  0  0
  -20.5681  -26.2312   23.3625 H   0  0  0  0  0  0
  -21.6653  -26.7439   22.1218 H   0  0  0  0  0  0
  -19.6927  -25.6284   21.1258 H   0  0  0  0  0  0
  -19.6710  -27.3178   20.6741 H   0  0  0  0  0  0
  -17.4218  -26.6687   21.4011 H   0  0  0  0  0  0
  -18.0326  -26.0069   22.9008 H   0  0  0  0  0  0
  -19.7935  -30.7272   24.2273 H   0  0  0  0  0  0
  -17.5013  -31.6270   24.5159 H   0  0  0  0  0  0
  -15.5354  -30.2984   23.7648 H   0  0  0  0  0  0
  -15.8679  -28.0813   22.7072 H   0  0  0  0  0  0
  -24.5894  -30.7082   25.7759 H   0  0  0  0  0  0
  -24.8920  -32.2886   26.4873 H   0  0  0  0  0  0
  -25.8042  -30.8885   27.0207 H   0  0  0  0  0  0
  -26.2928  -29.6765   24.1191 H   0  0  0  0  0  0
  -27.4038  -29.7268   25.4682 H   0  0  0  0  0  0
  -27.8796  -30.4308   23.9410 H   0  0  0  0  0  0
  -27.2636  -33.3622   26.2076 H   0  0  0  0  0  0
  -28.3853  -32.6905   25.0333 H   0  0  0  0  0  0
  -28.0709  -31.8458   26.5416 H   0  0  0  0  0  0
  -28.2598  -38.0106   24.7516 H   0  0  0  0  0  0
  -28.1080  -36.2635   24.6282 H   0  0  0  0  0  0
  -27.2298  -37.1447   25.8868 H   0  0  0  0  0  0
  -20.9378  -29.8764   21.6860 H   0  0  0  0  0  0
  -26.0174  -38.2857   24.1412 H   0  0  0  0  0  0
  -29.2159  -16.3847   18.3096 H   0  0  0  0  0  0
  -28.0455  -15.7801   21.9308 H   0  0  0  0  0  0
  -29.0026  -16.8875   22.8913 H   0  0  0  0  0  0
  -29.3311  -15.1785   23.0120 H   0  0  0  0  0  0
  -29.7506  -23.1172   22.4892 H   0  0  0  0  0  0
  -30.9059  -22.3822   21.3833 H   0  0  0  0  0  0
  -29.8761  -21.3691   22.3937 H   0  0  0  0  0  0
  -28.5638  -25.0308   21.6462 H   0  0  0  0  0  0
  -27.0638  -24.8090   20.8496 H   0  0  0  0  0  0
  -30.9618  -16.4513   21.6971 H   0  0  0  0  0  0
  -27.8697  -22.1079   21.1840 H   0  0  0  0  0  0
  -29.7559  -23.9508   19.5820 H   0  0  0  0  0  0
  -28.7817  -21.3954   18.8850 H   0  0  0  0  0  0
  -27.9268  -24.2162   18.2678 H   0  0  0  0  0  0
  1 25  1  0  0  0
  1 30  2  0  0  0
  1 77  1  0  0  0
  2  3  1  0  0  0
  2 25  1  0  0  0
  2 84  1  0  0  0
  2 85  1  0  0  0
  3  4  1  0  0  0
  3 86  1  0  0  0
  3 87  1  0  0  0
  4  5  1  0  0  0
  4 88  1  0  0  0
  4 89  1  0  0  0
  5  6  1  0  0  0
  5 26  1  0  0  0
  5 90  1  0  0  0
  6 25  1  0  0  0
  6 91  1  0  0  0
  6 92  1  0  0  0
  7  8  2  0  0  0
  7 26  1  0  0  0
  7 29  1  0  0  0
  8  9  1  0  0  0
  8 22  1  0  0  0
  9 10  1  0  0  0
  9 27  2  0  0  0
 10 11  2  0  0  0
 10 15  1  0  0  0
 11 12  1  0  0  0
 11 93  1  0  0  0
 12 13  2  0  0  0
 12 94  1  0  0  0
 13 14  1  0  0  0
 13 31  1  0  0  0
 14 15  2  0  0  0
 14 95  1  0  0  0
 15 96  1  0  0  0
 16 17  2  0  0  0
 16 21  1  0  0  0
 16 31  1  0  0  0
 17 18  1  0  0  0
 17 97  1  0  0  0
 18 19  2  0  0  0
 18 98  1  0  0  0
 19 20  1  0  0  0
 19 24  1  0  0  0
 20 21  2  0  0  0
 20 99  1  0  0  0
 21 23  1  0  0  0
 22 28  1  0  0  0
 22 32  2  0  0  0
 26 27  1  0  0  0
 28100  1  0  0  0
 28101  1  0  0  0
 29102  1  0  0  0
 29103  1  0  0  0
 33 34  1  0  0  0
 33 66  1  0  0  0
 33 70  2  0  0  0
 34 36  1  0  0  0
 34 59  1  0  0  0
 34104  1  0  0  0
 35 44  2  0  0  0
 35 45  1  0  0  0
 35 68  1  0  0  0
 36 56  1  0  0  0
 36105  1  0  0  0
 37 39  1  0  0  0
 37 47  1  0  0  0
 37 66  1  0  0  0
 37106  1  0  0  0
 38 43  2  0  0  0
 38 46  1  0  0  0
 38 47  1  0  0  0
 39 64  1  0  0  0
 39 67  2  0  0  0
 40 52  1  0  0  0
 40 53  2  0  0  0
 40 58  1  0  0  0
 41107  1  0  0  0
 41108  1  0  0  0
 41109  1  0  0  0
 41 48  1  0  0  0
 42 43  1  0  0  0
 42 66  1  0  0  0
 42110  1  0  0  0
 42111  1  0  0  0
 43 44  1  0  0  0
 44112  1  0  0  0
 45 46  2  0  0  0
 45113  1  0  0  0
 46114  1  0  0  0
 47115  1  0  0  0
 47116  1  0  0  0
 48 56  1  0  0  0
 48 65  1  0  0  0
 48117  1  0  0  0
 49 50  1  0  0  0
 49 53  1  0  0  0
 49 64  1  0  0  0
 49118  1  0  0  0
 50 51  1  0  0  0
 50119  1  0  0  0
 50120  1  0  0  0
 51 52  1  0  0  0
 51121  1  0  0  0
 51122  1  0  0  0
 52123  1  0  0  0
 52124  1  0  0  0
 53 54  1  0  0  0
 54 55  2  0  0  0
 54125  1  0  0  0
 55 57  1  0  0  0
 55126  1  0  0  0
 56 69  2  0  0  0
 57 58  2  0  0  0
 57127  1  0  0  0
 58128  1  0  0  0
 59 60  1  0  0  0
 59 61  1  0  0  0
 59 62  1  0  0  0
 60129  1  0  0  0
 60130  1  0  0  0
 60131  1  0  0  0
 61132  1  0  0  0
 61133  1  0  0  0
 61134  1  0  0  0
 62135  1  0  0  0
 62136  1  0  0  0
 62137  1  0  0  0
 63 65  1  0  0  0
 63138  1  0  0  0
 63139  1  0  0  0
 63140  1  0  0  0
 64141  1  0  0  0
 65142  1  0  0  0
 68 76  1  0  0  0
 71 72  2  0  0  0
 71 83  1  0  0  0
 71143  1  0  0  0
 72 77  1  0  0  0
 72 80  1  0  0  0
 73 80  2  0  0  0
 73 81  1  0  0  0
 73 83  1  0  0  0
 74144  1  0  0  0
 74145  1  0  0  0
 74146  1  0  0  0
 74 77  1  0  0  0
 75147  1  0  0  0
 75148  1  0  0  0
 75149  1  0  0  0
 75 78  1  0  0  0
 76 79  1  0  0  0
 76150  1  0  0  0
 76151  1  0  0  0
 77152  1  0  0  0
 78 79  1  0  0  0
 78 81  1  0  0  0
 78153  1  0  0  0
 79 82  1  0  0  0
 79154  1  0  0  0
 81155  1  0  0  0
 82156  1  0  0  0
M  ISO  4   1 100  68 101  76 101  77 100
M  END
> <chiral flag>
0

> <version>
0

> <s_m_source_file>
/data/baiqing/PycharmProjects/Reinvent-master-3.2/result/LINK_invent/BTK/process_docking_weight1_custom_product_contain_oxygen_bond_distance_aromatic_linkinvent_7_9_3/rearranged_h_0192.sdf

> <i_m_source_file_index>
85

> <r_mmod_Potential_Energy-OPLS-2005>
111.209518432617

> <r_mmod_Stretch_Energy-OPLS-2005>
120.950347900391

> <r_mmod_Bend_Energy-OPLS-2005>
200.607498168945

> <r_mmod_Torsional_Energy-OPLS-2005>
217.285873413086

> <r_mmod_Improper_Torsional_Energy-OPLS-2005>
2.49002528190613

> <r_mmod_Van_der_Waal_Energy-OPLS-2005>
114.595840454102

> <r_mmod_Electrostatic_Energy-OPLS-2005>
-393.660400390625

> <r_mmod_Solvation_Energy-OPLS-2005>
-218.771057128906

> <b_mmod_Minimization_Converged-OPLS-2005>
0

> <r_mmod_RMS_Derivative-OPLS-2005>
1.35359680652618

$$$$
86
                    3D
 Structure written by MMmdl.
160168  0  0  1  0            999 V2000
  -30.6608  -14.5526   20.4990 C   0  0  0  0  0  0
  -30.4422  -12.3255   19.4512 C   0  0  0  0  0  0
  -29.5177  -12.4510   18.2226 C   0  0  0  0  0  0
  -28.0281  -12.3594   18.6195 C   0  0  0  0  0  0
  -27.6635  -13.2122   19.8655 C   0  0  2  0  0  0
  -28.7039  -13.0262   20.9925 C   0  0  0  0  0  0
  -25.2571  -13.8150   20.5534 C   0  0  0  0  0  0
  -24.1840  -13.0446   20.9099 C   0  0  0  0  0  0
  -24.6411  -11.6902   20.8687 C   0  0  0  0  0  0
  -23.9065  -10.4315   21.0408 C   0  0  0  0  0  0
  -24.3632   -9.4243   21.9195 C   0  0  0  0  0  0
  -23.6318   -8.2269   22.0742 C   0  0  0  0  0  0
  -22.4289   -8.0314   21.3540 C   0  0  0  0  0  0
  -21.9929   -9.0290   20.4633 C   0  0  0  0  0  0
  -22.7232  -10.2186   20.3060 C   0  0  0  0  0  0
  -21.6879   -6.0763   22.5259 C   0  0  0  0  0  0
  -21.4021   -6.5645   23.8196 C   0  0  0  0  0  0
  -21.3673   -5.6798   24.9161 C   0  0  0  0  0  0
  -21.6054   -4.3055   24.7207 C   0  0  0  0  0  0
  -21.8824   -3.8149   23.4324 C   0  0  0  0  0  0
  -21.9189   -4.6980   22.3385 C   0  0  0  0  0  0
  -22.7863  -13.5240   21.1791 C   0  0  0  0  0  0
  -22.1655   -4.2175   21.0965 F   0  0  0  0  0  0
  -21.5652   -3.4524   25.7717 F   0  0  0  0  0  0
  -30.0310  -13.3413   20.4360 N   0  0  0  0  0  0
  -26.3044  -12.9344   20.3269 N   0  0  0  0  0  0
  -25.9346  -11.6504   20.5708 N   0  0  0  0  0  0
  -22.0469  -12.8313   22.0351 N   0  0  0  0  0  0
  -25.4325  -15.1866   20.3831 N   0  0  0  0  0  0
  -31.8041  -14.7331   20.0787 O   0  0  0  0  0  0
  -21.6651   -6.8924   21.4223 O   0  0  0  0  0  0
  -22.3565  -14.5559   20.6633 O   0  0  0  0  0  0
  -24.6227  -31.8622   23.2091 C   0  0  0  0  0  0
  -25.9096  -32.4806   23.8394 C   0  0  1  0  0  0
  -27.2341  -27.3880   20.0978 C   0  0  0  0  0  0
  -25.5923  -33.8597   24.2322 N   0  0  0  0  0  0
  -23.4124  -30.4889   21.5465 C   0  0  2  0  0  0
  -24.8622  -28.9560   20.1050 C   0  0  0  0  0  0
  -22.7450  -29.4641   22.4953 C   0  0  0  0  0  0
  -18.0314  -28.1327   22.8554 C   0  0  0  0  0  0
  -24.1474  -36.7300   23.2644 C   0  0  0  0  0  0
  -25.9478  -30.8127   21.3704 C   0  0  0  0  0  0
  -26.0233  -29.4441   20.7171 C   0  0  0  0  0  0
  -27.2109  -28.6690   20.7086 C   0  0  0  0  0  0
  -26.0586  -26.9490   19.4413 C   0  0  0  0  0  0
  -24.8798  -27.7138   19.4568 C   0  0  0  0  0  0
  -23.6251  -29.8232   20.1609 C   0  0  0  0  0  0
  -25.4087  -36.3072   24.0343 C   0  0  1  0  0  0
  -20.5890  -28.3644   23.1309 C   0  0  2  0  0  0
  -20.6739  -26.9354   22.5427 C   0  0  0  0  0  0
  -19.5694  -26.6360   21.5223 C   0  0  0  0  0  0
  -18.1911  -26.7907   22.1666 C   0  0  0  0  0  0
  -19.1553  -28.8801   23.2952 C   0  0  0  0  0  0
  -18.9477  -30.1414   23.8958 C   0  0  0  0  0  0
  -17.6465  -30.6551   24.0550 C   0  0  0  0  0  0
  -25.9026  -34.9457   23.5123 C   0  0  0  0  0  0
  -16.5359  -29.9033   23.6319 C   0  0  0  0  0  0
  -16.7306  -28.6424   23.0410 C   0  0  0  0  0  0
  -26.4498  -31.6619   25.0750 C   0  0  0  0  0  0
  -25.3776  -31.3757   26.1530 C   0  0  0  0  0  0
  -27.0340  -30.3051   24.6148 C   0  0  0  0  0  0
  -27.6034  -32.4355   25.7540 C   0  0  0  0  0  0
  -27.5549  -37.1796   24.8456 C   0  0  0  0  0  0
  -21.4162  -29.3019   22.3708 N   0  0  0  0  0  0
  -26.4237  -37.3777   23.9440 N   0  0  0  0  0  0
  -24.6800  -31.0687   22.1006 N   0  0  0  0  0  0
  -23.4212  -28.8176   23.2987 O   0  0  0  0  0  0
  -28.3721  -26.5887   20.1666 O   0  0  0  0  0  0
  -26.5558  -34.8888   22.4665 O   0  0  0  0  0  0
  -23.5404  -32.1417   23.7429 O   0  0  0  0  0  0
  -29.4697  -17.3048   19.1894 C   0  0  0  0  0  0
  -29.9130  -16.8757   20.4289 C   0  0  0  0  0  0
  -29.8899  -19.3765   20.0664 C   0  0  0  0  0  0
  -28.9252  -16.4761   18.0673 C   0  0  0  0  0  0
  -31.3691  -24.1253   19.8256 C   0  0  0  0  0  0
  -31.8600  -21.6642   21.2319 C   0  0  0  0  0  0
  -29.0828  -24.2208   20.9170 C   0  0  0  0  0  0
  -28.1819  -25.1506   20.0372 C   0  0  0  0  0  0
  -30.1010  -23.3054   20.1572 C   0  0  2  0  0  0
  -30.3821  -21.9073   20.8664 C   0  0  1  0  0  0
  -29.4779  -18.6928   19.0051 N   0  0  0  0  0  0
  -29.8923  -15.5880   20.9167 N   0  0  0  0  0  0
  -29.9009  -20.7816   20.0519 N   0  0  0  0  0  0
  -30.3504  -18.2939   21.4004 S   0  0  0  0  0  0
  -31.4869  -12.4321   19.1546 H   0  0  0  0  0  0
  -30.3697  -11.3296   19.8894 H   0  0  0  0  0  0
  -29.7591  -11.6618   17.5082 H   0  0  0  0  0  0
  -29.7089  -13.3869   17.7029 H   0  0  0  0  0  0
  -27.8084  -11.3085   18.8178 H   0  0  0  0  0  0
  -27.4006  -12.6498   17.7765 H   0  0  0  0  0  0
  -27.6995  -14.2572   19.5565 H   0  0  0  0  0  0
  -28.6814  -11.9964   21.3574 H   0  0  0  0  0  0
  -28.4621  -13.6453   21.8588 H   0  0  0  0  0  0
  -25.2777   -9.5757   22.4770 H   0  0  0  0  0  0
  -24.0057   -7.4667   22.7468 H   0  0  0  0  0  0
  -21.0856   -8.8809   19.8940 H   0  0  0  0  0  0
  -22.3674  -10.9752   19.6179 H   0  0  0  0  0  0
  -21.2007   -7.6150   23.9731 H   0  0  0  0  0  0
  -21.1490   -6.0508   25.9093 H   0  0  0  0  0  0
  -22.0589   -2.7610   23.2791 H   0  0  0  0  0  0
  -22.4055  -11.9997   22.4820 H   0  0  0  0  0  0
  -21.1096  -13.1419   22.2489 H   0  0  0  0  0  0
  -24.6607  -15.8413   20.4499 H   0  0  0  0  0  0
  -26.2939  -15.6172   20.0703 H   0  0  0  0  0  0
  -26.7164  -32.5497   23.1158 H   0  0  0  0  0  0
  -25.0157  -33.9729   25.0515 H   0  0  0  0  0  0
  -22.7043  -31.3088   21.4046 H   0  0  0  0  0  0
  -23.3685  -35.9677   23.3299 H   0  0  0  0  0  0
  -24.3576  -36.8915   22.2054 H   0  0  0  0  0  0
  -23.7263  -37.6516   23.6669 H   0  0  0  0  0  0
  -26.0574  -31.5688   20.5913 H   0  0  0  0  0  0
  -26.8340  -30.8723   21.9913 H   0  0  0  0  0  0
  -28.1035  -29.0373   21.1962 H   0  0  0  0  0  0
  -26.0278  -26.0130   18.9017 H   0  0  0  0  0  0
  -23.9998  -27.3379   18.9563 H   0  0  0  0  0  0
  -23.7424  -30.5931   19.3999 H   0  0  0  0  0  0
  -22.7488  -29.2450   19.8642 H   0  0  0  0  0  0
  -25.1258  -36.1917   25.0829 H   0  0  0  0  0  0
  -21.0048  -28.3164   24.1393 H   0  0  0  0  0  0
  -20.5577  -26.2238   23.3639 H   0  0  0  0  0  0
  -21.6623  -26.7318   22.1240 H   0  0  0  0  0  0
  -19.6789  -25.6276   21.1225 H   0  0  0  0  0  0
  -19.6579  -27.3192   20.6773 H   0  0  0  0  0  0
  -17.4185  -26.6770   21.4054 H   0  0  0  0  0  0
  -18.0232  -25.9990   22.8989 H   0  0  0  0  0  0
  -19.7929  -30.7245   24.2307 H   0  0  0  0  0  0
  -17.4994  -31.6243   24.5137 H   0  0  0  0  0  0
  -15.5332  -30.2931   23.7573 H   0  0  0  0  0  0
  -15.8727  -28.0708   22.7100 H   0  0  0  0  0  0
  -24.5918  -30.7108   25.7925 H   0  0  0  0  0  0
  -24.9026  -32.2949   26.4979 H   0  0  0  0  0  0
  -25.8174  -30.8965   27.0298 H   0  0  0  0  0  0
  -26.2908  -29.6816   24.1166 H   0  0  0  0  0  0
  -27.4057  -29.7289   25.4632 H   0  0  0  0  0  0
  -27.8769  -30.4351   23.9350 H   0  0  0  0  0  0
  -27.2600  -33.3635   26.2136 H   0  0  0  0  0  0
  -28.3875  -32.6955   25.0414 H   0  0  0  0  0  0
  -28.0694  -31.8494   26.5476 H   0  0  0  0  0  0
  -28.2561  -38.0092   24.7484 H   0  0  0  0  0  0
  -28.1034  -36.2614   24.6286 H   0  0  0  0  0  0
  -27.2289  -37.1482   25.8862 H   0  0  0  0  0  0
  -20.9294  -29.8842   21.7040 H   0  0  0  0  0  0
  -26.0097  -38.2840   24.1436 H   0  0  0  0  0  0
  -29.0346  -16.9816   17.1061 H   0  0  0  0  0  0
  -27.8639  -16.2785   18.2180 H   0  0  0  0  0  0
  -29.4409  -15.5246   17.9849 H   0  0  0  0  0  0
  -31.1254  -25.0720   19.3435 H   0  0  0  0  0  0
  -32.0339  -23.5869   19.1488 H   0  0  0  0  0  0
  -31.9292  -24.3867   20.7237 H   0  0  0  0  0  0
  -31.9671  -20.7844   21.8637 H   0  0  0  0  0  0
  -32.2861  -22.4917   21.7970 H   0  0  0  0  0  0
  -32.4761  -21.5007   20.3440 H   0  0  0  0  0  0
  -28.3989  -23.5640   21.4591 H   0  0  0  0  0  0
  -29.5778  -24.7981   21.6988 H   0  0  0  0  0  0
  -27.1656  -24.8804   20.3291 H   0  0  0  0  0  0
  -28.2563  -24.8740   18.9863 H   0  0  0  0  0  0
  -29.6444  -23.0759   19.1923 H   0  0  0  0  0  0
  -29.8210  -21.8842   21.8019 H   0  0  0  0  0  0
  -29.0070  -15.2907   21.2967 H   0  0  0  0  0  0
  -29.4784  -21.1142   19.1939 H   0  0  0  0  0  0
  1 25  1  0  0  0
  1 30  2  0  0  0
  1 82  1  0  0  0
  2  3  1  0  0  0
  2 25  1  0  0  0
  2 85  1  0  0  0
  2 86  1  0  0  0
  3  4  1  0  0  0
  3 87  1  0  0  0
  3 88  1  0  0  0
  4  5  1  0  0  0
  4 89  1  0  0  0
  4 90  1  0  0  0
  5  6  1  0  0  0
  5 26  1  0  0  0
  5 91  1  0  0  0
  6 25  1  0  0  0
  6 92  1  0  0  0
  6 93  1  0  0  0
  7  8  2  0  0  0
  7 26  1  0  0  0
  7 29  1  0  0  0
  8  9  1  0  0  0
  8 22  1  0  0  0
  9 10  1  0  0  0
  9 27  2  0  0  0
 10 11  2  0  0  0
 10 15  1  0  0  0
 11 12  1  0  0  0
 11 94  1  0  0  0
 12 13  2  0  0  0
 12 95  1  0  0  0
 13 14  1  0  0  0
 13 31  1  0  0  0
 14 15  2  0  0  0
 14 96  1  0  0  0
 15 97  1  0  0  0
 16 17  2  0  0  0
 16 21  1  0  0  0
 16 31  1  0  0  0
 17 18  1  0  0  0
 17 98  1  0  0  0
 18 19  2  0  0  0
 18 99  1  0  0  0
 19 20  1  0  0  0
 19 24  1  0  0  0
 20 21  2  0  0  0
 20100  1  0  0  0
 21 23  1  0  0  0
 22 28  1  0  0  0
 22 32  2  0  0  0
 26 27  1  0  0  0
 28101  1  0  0  0
 28102  1  0  0  0
 29103  1  0  0  0
 29104  1  0  0  0
 33 34  1  0  0  0
 33 66  1  0  0  0
 33 70  2  0  0  0
 34 36  1  0  0  0
 34 59  1  0  0  0
 34105  1  0  0  0
 35 44  2  0  0  0
 35 45  1  0  0  0
 35 68  1  0  0  0
 36 56  1  0  0  0
 36106  1  0  0  0
 37 39  1  0  0  0
 37 47  1  0  0  0
 37 66  1  0  0  0
 37107  1  0  0  0
 38 43  2  0  0  0
 38 46  1  0  0  0
 38 47  1  0  0  0
 39 64  1  0  0  0
 39 67  2  0  0  0
 40 52  1  0  0  0
 40 53  2  0  0  0
 40 58  1  0  0  0
 41108  1  0  0  0
 41109  1  0  0  0
 41110  1  0  0  0
 41 48  1  0  0  0
 42 43  1  0  0  0
 42 66  1  0  0  0
 42111  1  0  0  0
 42112  1  0  0  0
 43 44  1  0  0  0
 44113  1  0  0  0
 45 46  2  0  0  0
 45114  1  0  0  0
 46115  1  0  0  0
 47116  1  0  0  0
 47117  1  0  0  0
 48 56  1  0  0  0
 48 65  1  0  0  0
 48118  1  0  0  0
 49 50  1  0  0  0
 49 53  1  0  0  0
 49 64  1  0  0  0
 49119  1  0  0  0
 50 51  1  0  0  0
 50120  1  0  0  0
 50121  1  0  0  0
 51 52  1  0  0  0
 51122  1  0  0  0
 51123  1  0  0  0
 52124  1  0  0  0
 52125  1  0  0  0
 53 54  1  0  0  0
 54 55  2  0  0  0
 54126  1  0  0  0
 55 57  1  0  0  0
 55127  1  0  0  0
 56 69  2  0  0  0
 57 58  2  0  0  0
 57128  1  0  0  0
 58129  1  0  0  0
 59 60  1  0  0  0
 59 61  1  0  0  0
 59 62  1  0  0  0
 60130  1  0  0  0
 60131  1  0  0  0
 60132  1  0  0  0
 61133  1  0  0  0
 61134  1  0  0  0
 61135  1  0  0  0
 62136  1  0  0  0
 62137  1  0  0  0
 62138  1  0  0  0
 63 65  1  0  0  0
 63139  1  0  0  0
 63140  1  0  0  0
 63141  1  0  0  0
 64142  1  0  0  0
 65143  1  0  0  0
 68 78  1  0  0  0
 71 72  2  0  0  0
 71 74  1  0  0  0
 71 81  1  0  0  0
 72 82  1  0  0  0
 72 84  1  0  0  0
 73 81  2  0  0  0
 73 83  1  0  0  0
 73 84  1  0  0  0
 74144  1  0  0  0
 74145  1  0  0  0
 74146  1  0  0  0
 75147  1  0  0  0
 75148  1  0  0  0
 75149  1  0  0  0
 75 79  1  0  0  0
 76150  1  0  0  0
 76151  1  0  0  0
 76152  1  0  0  0
 76 80  1  0  0  0
 77 78  1  0  0  0
 77 79  1  0  0  0
 77153  1  0  0  0
 77154  1  0  0  0
 78155  1  0  0  0
 78156  1  0  0  0
 79 80  1  0  0  0
 79157  1  0  0  0
 80 83  1  0  0  0
 80158  1  0  0  0
 82159  1  0  0  0
 83160  1  0  0  0
M  ISO  4   1 100  68 101  78 101  82 100
M  END
> <chiral flag>
0

> <version>
0

> <s_m_source_file>
/data/baiqing/PycharmProjects/Reinvent-master-3.2/result/LINK_invent/BTK/process_docking_weight1_custom_product_contain_oxygen_bond_distance_aromatic_linkinvent_7_9_3/rearranged_h_0192.sdf

> <i_m_source_file_index>
86

> <r_mmod_Potential_Energy-OPLS-2005>
-59.2203941345215

> <r_mmod_Stretch_Energy-OPLS-2005>
50.3141860961914

> <r_mmod_Bend_Energy-OPLS-2005>
122.640342712402

> <r_mmod_Torsional_Energy-OPLS-2005>
276.355377197266

> <r_mmod_Improper_Torsional_Energy-OPLS-2005>
5.90634870529175

> <r_mmod_Van_der_Waal_Energy-OPLS-2005>
130.162567138672

> <r_mmod_Electrostatic_Energy-OPLS-2005>
-455.76416015625

> <r_mmod_Solvation_Energy-OPLS-2005>
-216.753143310547

> <b_mmod_Minimization_Converged-OPLS-2005>
0

> <r_mmod_RMS_Derivative-OPLS-2005>
4.54274606704712

$$$$
87
                    3D
 Structure written by MMmdl.
163171  0  0  1  0            999 V2000
  -30.7594  -14.4777   20.5915 C   0  0  0  0  0  0
  -30.4207  -12.3256   19.4196 C   0  0  0  0  0  0
  -29.4977  -12.5082   18.2003 C   0  0  0  0  0  0
  -28.0195  -12.3859   18.6175 C   0  0  0  0  0  0
  -27.6678  -13.2242   19.8776 C   0  0  2  0  0  0
  -28.7148  -13.0310   20.9971 C   0  0  0  0  0  0
  -25.2623  -13.8191   20.5721 C   0  0  0  0  0  0
  -24.1866  -13.0434   20.9116 C   0  0  0  0  0  0
  -24.6460  -11.6907   20.8691 C   0  0  0  0  0  0
  -23.9119  -10.4286   21.0369 C   0  0  0  0  0  0
  -24.3647   -9.4191   21.9158 C   0  0  0  0  0  0
  -23.6294   -8.2247   22.0745 C   0  0  0  0  0  0
  -22.4276   -8.0304   21.3545 C   0  0  0  0  0  0
  -21.9921   -9.0280   20.4647 C   0  0  0  0  0  0
  -22.7277  -10.2136   20.3030 C   0  0  0  0  0  0
  -21.6875   -6.0741   22.5261 C   0  0  0  0  0  0
  -21.4041   -6.5629   23.8195 C   0  0  0  0  0  0
  -21.3646   -5.6769   24.9149 C   0  0  0  0  0  0
  -21.6034   -4.3031   24.7187 C   0  0  0  0  0  0
  -21.8834   -3.8140   23.4307 C   0  0  0  0  0  0
  -21.9208   -4.6969   22.3379 C   0  0  0  0  0  0
  -22.7882  -13.5221   21.1769 C   0  0  0  0  0  0
  -22.1688   -4.2165   21.0954 F   0  0  0  0  0  0
  -21.5607   -3.4506   25.7694 F   0  0  0  0  0  0
  -30.0427  -13.3291   20.4330 N   0  0  0  0  0  0
  -26.3105  -12.9414   20.3423 N   0  0  0  0  0  0
  -25.9404  -11.6532   20.5765 N   0  0  0  0  0  0
  -22.0520  -12.8246   22.0342 N   0  0  0  0  0  0
  -25.4290  -15.1918   20.4297 N   0  0  0  0  0  0
  -31.8572  -14.6274   20.0531 O   0  0  0  0  0  0
  -21.6640   -6.8902   21.4241 O   0  0  0  0  0  0
  -22.3562  -14.5517   20.6598 O   0  0  0  0  0  0
  -24.6219  -31.8664   23.2084 C   0  0  0  0  0  0
  -25.9104  -32.4801   23.8389 C   0  0  1  0  0  0
  -27.2064  -27.3658   20.1064 C   0  0  0  0  0  0
  -25.5932  -33.8611   24.2308 N   0  0  0  0  0  0
  -23.4109  -30.4952   21.5499 C   0  0  2  0  0  0
  -24.8524  -28.9682   20.1092 C   0  0  0  0  0  0
  -22.7463  -29.4649   22.4941 C   0  0  0  0  0  0
  -18.0278  -28.1352   22.8502 C   0  0  0  0  0  0
  -24.1489  -36.7318   23.2638 C   0  0  0  0  0  0
  -25.9524  -30.8101   21.3774 C   0  0  0  0  0  0
  -26.0215  -29.4457   20.7136 C   0  0  0  0  0  0
  -27.2046  -28.6550   20.7065 C   0  0  0  0  0  0
  -26.0108  -26.9420   19.4698 C   0  0  0  0  0  0
  -24.8460  -27.7180   19.4813 C   0  0  0  0  0  0
  -23.6225  -29.8447   20.1601 C   0  0  0  0  0  0
  -25.4111  -36.3110   24.0335 C   0  0  1  0  0  0
  -20.5889  -28.3666   23.1286 C   0  0  2  0  0  0
  -20.6773  -26.9397   22.5397 C   0  0  0  0  0  0
  -19.5737  -26.6370   21.5206 C   0  0  0  0  0  0
  -18.1920  -26.7900   22.1630 C   0  0  0  0  0  0
  -19.1542  -28.8829   23.2889 C   0  0  0  0  0  0
  -18.9462  -30.1433   23.8903 C   0  0  0  0  0  0
  -17.6465  -30.6573   24.0565 C   0  0  0  0  0  0
  -25.9043  -34.9476   23.5124 C   0  0  0  0  0  0
  -16.5351  -29.9072   23.6326 C   0  0  0  0  0  0
  -16.7271  -28.6478   23.0368 C   0  0  0  0  0  0
  -26.4492  -31.6595   25.0752 C   0  0  0  0  0  0
  -25.3727  -31.3768   26.1482 C   0  0  0  0  0  0
  -27.0311  -30.3004   24.6201 C   0  0  0  0  0  0
  -27.6032  -32.4346   25.7535 C   0  0  0  0  0  0
  -27.5580  -37.1820   24.8463 C   0  0  0  0  0  0
  -21.4186  -29.3051   22.3712 N   0  0  0  0  0  0
  -26.4294  -37.3795   23.9414 N   0  0  0  0  0  0
  -24.6801  -31.0713   22.1017 N   0  0  0  0  0  0
  -23.4222  -28.8169   23.2987 O   0  0  0  0  0  0
  -28.3180  -26.5227   20.1739 O   0  0  0  0  0  0
  -26.5592  -34.8930   22.4668 O   0  0  0  0  0  0
  -23.5396  -32.1442   23.7432 O   0  0  0  0  0  0
  -29.7048  -17.9323   21.5813 C   0  0  0  0  0  0
  -28.3568  -17.9148   21.8859 C   0  0  0  0  0  0
  -29.1563  -20.1305   21.1196 C   0  0  0  0  0  0
  -25.9076  -22.3586   19.7050 C   0  0  0  0  0  0
  -32.1316  -17.1503   21.3471 C   0  0  0  0  0  0
  -27.3946  -22.1685   19.3600 C   0  0  0  0  0  0
  -28.0213  -25.1032   19.9905 C   0  0  0  0  0  0
  -30.6934  -16.7814   21.7878 C   0  0  2  0  0  0
  -28.3452  -22.5592   20.5284 C   0  0  2  0  0  0
  -29.0312  -23.9738   20.3917 C   0  0  1  0  0  0
  -30.1311  -19.2113   21.1480 N   0  0  0  0  0  0
  -27.5920  -16.8812   22.4201 N   0  0  0  0  0  0
  -29.3110  -21.4757   20.7566 N   0  0  0  0  0  0
  -30.1844  -15.4620   21.3172 N   0  0  0  0  0  0
  -30.0223  -23.8235   19.3866 O   0  0  0  0  0  0
  -27.6000  -19.4661   21.6058 S   0  0  0  0  0  0
  -31.4654  -12.4050   19.1126 H   0  0  0  0  0  0
  -30.3180  -11.3200   19.8295 H   0  0  0  0  0  0
  -29.7277  -11.7646   17.4365 H   0  0  0  0  0  0
  -29.6819  -13.4802   17.7404 H   0  0  0  0  0  0
  -27.8255  -11.3310   18.8088 H   0  0  0  0  0  0
  -27.3722  -12.6672   17.7845 H   0  0  0  0  0  0
  -27.7036  -14.2726   19.5785 H   0  0  0  0  0  0
  -28.6959  -12.0039   21.3638 H   0  0  0  0  0  0
  -28.4744  -13.6561   21.8583 H   0  0  0  0  0  0
  -25.2799   -9.5646   22.4723 H   0  0  0  0  0  0
  -23.9975   -7.4636   22.7469 H   0  0  0  0  0  0
  -21.0836   -8.8817   19.8973 H   0  0  0  0  0  0
  -22.3745  -10.9670   19.6115 H   0  0  0  0  0  0
  -21.2060   -7.6137   23.9705 H   0  0  0  0  0  0
  -21.1451   -6.0489   25.9046 H   0  0  0  0  0  0
  -22.0630   -2.7614   23.2785 H   0  0  0  0  0  0
  -22.4123  -11.9941   22.4806 H   0  0  0  0  0  0
  -21.1129  -13.1287   22.2468 H   0  0  0  0  0  0
  -24.6762  -15.8321   20.6568 H   0  0  0  0  0  0
  -26.3392  -15.6409   20.4545 H   0  0  0  0  0  0
  -26.7178  -32.5478   23.1150 H   0  0  0  0  0  0
  -25.0143  -33.9758   25.0490 H   0  0  0  0  0  0
  -22.7031  -31.3157   21.4150 H   0  0  0  0  0  0
  -23.3744  -35.9657   23.3305 H   0  0  0  0  0  0
  -24.3584  -36.8917   22.2050 H   0  0  0  0  0  0
  -23.7241  -37.6532   23.6638 H   0  0  0  0  0  0
  -26.0886  -31.5809   20.6162 H   0  0  0  0  0  0
  -26.8337  -30.8478   22.0070 H   0  0  0  0  0  0
  -28.1006  -29.0156   21.1928 H   0  0  0  0  0  0
  -25.9260  -25.9941   18.9609 H   0  0  0  0  0  0
  -23.9513  -27.3474   18.9991 H   0  0  0  0  0  0
  -23.7478  -30.6281   19.4121 H   0  0  0  0  0  0
  -22.7426  -29.2794   19.8495 H   0  0  0  0  0  0
  -25.1282  -36.1976   25.0825 H   0  0  0  0  0  0
  -20.9981  -28.3214   24.1401 H   0  0  0  0  0  0
  -20.5663  -26.2282   23.3592 H   0  0  0  0  0  0
  -21.6639  -26.7402   22.1200 H   0  0  0  0  0  0
  -19.6900  -25.6282   21.1229 H   0  0  0  0  0  0
  -19.6660  -27.3187   20.6743 H   0  0  0  0  0  0
  -17.4191  -26.6665   21.4026 H   0  0  0  0  0  0
  -18.0315  -26.0007   22.9000 H   0  0  0  0  0  0
  -19.7943  -30.7249   24.2266 H   0  0  0  0  0  0
  -17.5021  -31.6247   24.5171 H   0  0  0  0  0  0
  -15.5359  -30.2993   23.7617 H   0  0  0  0  0  0
  -15.8665  -28.0792   22.7097 H   0  0  0  0  0  0
  -24.5885  -30.7114   25.7857 H   0  0  0  0  0  0
  -24.8942  -32.2956   26.4890 H   0  0  0  0  0  0
  -25.8058  -30.8986   27.0270 H   0  0  0  0  0  0
  -26.2876  -29.6800   24.1183 H   0  0  0  0  0  0
  -27.3945  -29.7229   25.4711 H   0  0  0  0  0  0
  -27.8788  -30.4283   23.9464 H   0  0  0  0  0  0
  -27.2591  -33.3628   26.2121 H   0  0  0  0  0  0
  -28.3847  -32.6938   25.0380 H   0  0  0  0  0  0
  -28.0696  -31.8477   26.5456 H   0  0  0  0  0  0
  -28.2602  -38.0116   24.7497 H   0  0  0  0  0  0
  -28.1065  -36.2638   24.6293 H   0  0  0  0  0  0
  -27.2295  -37.1484   25.8866 H   0  0  0  0  0  0
  -20.9326  -29.8853   21.7013 H   0  0  0  0  0  0
  -26.0179  -38.2877   24.1397 H   0  0  0  0  0  0
  -25.2702  -21.9492   18.9209 H   0  0  0  0  0  0
  -25.6422  -23.4097   19.8202 H   0  0  0  0  0  0
  -25.6463  -21.8452   20.6325 H   0  0  0  0  0  0
  -32.4773  -18.0518   21.8560 H   0  0  0  0  0  0
  -32.1815  -17.3384   20.2741 H   0  0  0  0  0  0
  -32.8533  -16.3699   21.5951 H   0  0  0  0  0  0
  -27.6416  -22.7009   18.4412 H   0  0  0  0  0  0
  -27.5177  -21.1149   19.0975 H   0  0  0  0  0  0
  -27.1407  -24.9008   20.6023 H   0  0  0  0  0  0
  -27.7475  -24.9388   18.9476 H   0  0  0  0  0  0
  -30.7634  -16.6398   22.8669 H   0  0  0  0  0  0
  -27.7424  -22.5988   21.4365 H   0  0  0  0  0  0
  -29.5112  -24.2223   21.3399 H   0  0  0  0  0  0
  -28.0043  -16.4002   23.2146 H   0  0  0  0  0  0
  -26.6496  -17.1656   22.6691 H   0  0  0  0  0  0
  -30.2619  -21.7549   20.5355 H   0  0  0  0  0  0
  -29.2423  -15.2663   21.6234 H   0  0  0  0  0  0
  -29.6033  -23.3817   18.6534 H   0  0  0  0  0  0
  1 25  1  0  0  0
  1 30  2  0  0  0
  1 84  1  0  0  0
  2  3  1  0  0  0
  2 25  1  0  0  0
  2 87  1  0  0  0
  2 88  1  0  0  0
  3  4  1  0  0  0
  3 89  1  0  0  0
  3 90  1  0  0  0
  4  5  1  0  0  0
  4 91  1  0  0  0
  4 92  1  0  0  0
  5  6  1  0  0  0
  5 26  1  0  0  0
  5 93  1  0  0  0
  6 25  1  0  0  0
  6 94  1  0  0  0
  6 95  1  0  0  0
  7  8  2  0  0  0
  7 26  1  0  0  0
  7 29  1  0  0  0
  8  9  1  0  0  0
  8 22  1  0  0  0
  9 10  1  0  0  0
  9 27  2  0  0  0
 10 11  2  0  0  0
 10 15  1  0  0  0
 11 12  1  0  0  0
 11 96  1  0  0  0
 12 13  2  0  0  0
 12 97  1  0  0  0
 13 14  1  0  0  0
 13 31  1  0  0  0
 14 15  2  0  0  0
 14 98  1  0  0  0
 15 99  1  0  0  0
 16 17  2  0  0  0
 16 21  1  0  0  0
 16 31  1  0  0  0
 17 18  1  0  0  0
 17100  1  0  0  0
 18 19  2  0  0  0
 18101  1  0  0  0
 19 20  1  0  0  0
 19 24  1  0  0  0
 20 21  2  0  0  0
 20102  1  0  0  0
 21 23  1  0  0  0
 22 28  1  0  0  0
 22 32  2  0  0  0
 26 27  1  0  0  0
 28103  1  0  0  0
 28104  1  0  0  0
 29105  1  0  0  0
 29106  1  0  0  0
 33 34  1  0  0  0
 33 66  1  0  0  0
 33 70  2  0  0  0
 34 36  1  0  0  0
 34 59  1  0  0  0
 34107  1  0  0  0
 35 44  2  0  0  0
 35 45  1  0  0  0
 35 68  1  0  0  0
 36 56  1  0  0  0
 36108  1  0  0  0
 37 39  1  0  0  0
 37 47  1  0  0  0
 37 66  1  0  0  0
 37109  1  0  0  0
 38 43  2  0  0  0
 38 46  1  0  0  0
 38 47  1  0  0  0
 39 64  1  0  0  0
 39 67  2  0  0  0
 40 52  1  0  0  0
 40 53  2  0  0  0
 40 58  1  0  0  0
 41110  1  0  0  0
 41111  1  0  0  0
 41112  1  0  0  0
 41 48  1  0  0  0
 42 43  1  0  0  0
 42 66  1  0  0  0
 42113  1  0  0  0
 42114  1  0  0  0
 43 44  1  0  0  0
 44115  1  0  0  0
 45 46  2  0  0  0
 45116  1  0  0  0
 46117  1  0  0  0
 47118  1  0  0  0
 47119  1  0  0  0
 48 56  1  0  0  0
 48 65  1  0  0  0
 48120  1  0  0  0
 49 50  1  0  0  0
 49 53  1  0  0  0
 49 64  1  0  0  0
 49121  1  0  0  0
 50 51  1  0  0  0
 50122  1  0  0  0
 50123  1  0  0  0
 51 52  1  0  0  0
 51124  1  0  0  0
 51125  1  0  0  0
 52126  1  0  0  0
 52127  1  0  0  0
 53 54  1  0  0  0
 54 55  2  0  0  0
 54128  1  0  0  0
 55 57  1  0  0  0
 55129  1  0  0  0
 56 69  2  0  0  0
 57 58  2  0  0  0
 57130  1  0  0  0
 58131  1  0  0  0
 59 60  1  0  0  0
 59 61  1  0  0  0
 59 62  1  0  0  0
 60132  1  0  0  0
 60133  1  0  0  0
 60134  1  0  0  0
 61135  1  0  0  0
 61136  1  0  0  0
 61137  1  0  0  0
 62138  1  0  0  0
 62139  1  0  0  0
 62140  1  0  0  0
 63 65  1  0  0  0
 63141  1  0  0  0
 63142  1  0  0  0
 63143  1  0  0  0
 64144  1  0  0  0
 65145  1  0  0  0
 68 77  1  0  0  0
 71 72  2  0  0  0
 71 78  1  0  0  0
 71 81  1  0  0  0
 72 82  1  0  0  0
 72 86  1  0  0  0
 73 81  2  0  0  0
 73 83  1  0  0  0
 73 86  1  0  0  0
 74 76  1  0  0  0
 74146  1  0  0  0
 74147  1  0  0  0
 74148  1  0  0  0
 75149  1  0  0  0
 75150  1  0  0  0
 75151  1  0  0  0
 75 78  1  0  0  0
 76152  1  0  0  0
 76153  1  0  0  0
 76 79  1  0  0  0
 77 80  1  0  0  0
 77154  1  0  0  0
 77155  1  0  0  0
 78 84  1  0  0  0
 78156  1  0  0  0
 79 80  1  0  0  0
 79 83  1  0  0  0
 79157  1  0  0  0
 80 85  1  0  0  0
 80158  1  0  0  0
 82159  1  0  0  0
 82160  1  0  0  0
 83161  1  0  0  0
 84162  1  0  0  0
 85163  1  0  0  0
M  ISO  4   1 100  68 101  77 101  84 100
M  END
> <chiral flag>
0

> <version>
0

> <s_m_source_file>
/data/baiqing/PycharmProjects/Reinvent-master-3.2/result/LINK_invent/BTK/process_docking_weight1_custom_product_contain_oxygen_bond_distance_aromatic_linkinvent_7_9_3/rearranged_h_0192.sdf

> <i_m_source_file_index>
87

> <r_mmod_Potential_Energy-OPLS-2005>
-78.7607116699219

> <r_mmod_Stretch_Energy-OPLS-2005>
51.1284484863281

> <r_mmod_Bend_Energy-OPLS-2005>
122.268447875977

> <r_mmod_Torsional_Energy-OPLS-2005>
245.704666137695

> <r_mmod_Improper_Torsional_Energy-OPLS-2005>
9.00702285766602

> <r_mmod_Van_der_Waal_Energy-OPLS-2005>
142.4091796875

> <r_mmod_Electrostatic_Energy-OPLS-2005>
-441.565093994141

> <r_mmod_Solvation_Energy-OPLS-2005>
-233.120712280273

> <b_mmod_Minimization_Converged-OPLS-2005>
0

> <r_mmod_RMS_Derivative-OPLS-2005>
3.49906778335571

$$$$
88
                    3D
 Structure written by MMmdl.
142149  0  0  1  0            999 V2000
  -30.3089  -15.6282   20.3270 C   0  0  0  0  0  0
  -30.4233  -13.0752   19.5372 C   0  0  0  0  0  0
  -29.5490  -12.6531   18.3222 C   0  0  0  0  0  0
  -28.1223  -12.2982   18.7666 C   0  0  0  0  0  0
  -27.5952  -13.3072   19.8117 C   0  0  2  0  0  0
  -28.6117  -13.6415   20.9290 C   0  0  0  0  0  0
  -25.2322  -13.8284   20.5796 C   0  0  0  0  0  0
  -24.1711  -13.0433   20.9292 C   0  0  0  0  0  0
  -24.6412  -11.6944   20.8767 C   0  0  0  0  0  0
  -23.9115  -10.4292   21.0399 C   0  0  0  0  0  0
  -24.3651   -9.4205   21.9181 C   0  0  0  0  0  0
  -23.6313   -8.2246   22.0753 C   0  0  0  0  0  0
  -22.4293   -8.0287   21.3544 C   0  0  0  0  0  0
  -21.9939   -9.0262   20.4644 C   0  0  0  0  0  0
  -22.7282  -10.2134   20.3050 C   0  0  0  0  0  0
  -21.6858   -6.0741   22.5279 C   0  0  0  0  0  0
  -21.4018   -6.5643   23.8213 C   0  0  0  0  0  0
  -21.3660   -5.6794   24.9174 C   0  0  0  0  0  0
  -21.6044   -4.3057   24.7224 C   0  0  0  0  0  0
  -21.8818   -3.8150   23.4344 C   0  0  0  0  0  0
  -21.9194   -4.6968   22.3401 C   0  0  0  0  0  0
  -22.7723  -13.5164   21.1925 C   0  0  0  0  0  0
  -22.1662   -4.2153   21.0979 F   0  0  0  0  0  0
  -21.5627   -3.4539   25.7736 F   0  0  0  0  0  0
  -29.7858  -14.2612   20.2711 N   0  0  0  0  0  0
  -26.2768  -12.9613   20.3232 N   0  0  0  0  0  0
  -25.9357  -11.6685   20.5701 N   0  0  0  0  0  0
  -22.0388  -12.8139   22.0475 N   0  0  0  0  0  0
  -25.3914  -15.2025   20.4235 N   0  0  0  0  0  0
  -31.5443  -15.5516   20.1821 O   0  0  0  0  0  0
  -21.6648   -6.8888   21.4243 O   0  0  0  0  0  0
  -22.3399  -14.5463   20.6760 O   0  0  0  0  0  0
  -24.6846  -31.7986   23.1503 C   0  0  0  0  0  0
  -25.9422  -32.4460   23.8054 C   0  0  1  0  0  0
  -27.2265  -26.6941   20.2166 C   0  0  0  0  0  0
  -25.5996  -33.8286   24.1941 N   0  0  0  0  0  0
  -23.5109  -30.3998   21.5046 C   0  0  2  0  0  0
  -24.9679  -28.7374   20.1192 C   0  0  0  0  0  0
  -22.7769  -29.4308   22.4710 C   0  0  0  0  0  0
  -18.0339  -28.1422   22.8454 C   0  0  0  0  0  0
  -24.1496  -36.7150   23.2654 C   0  0  0  0  0  0
  -26.0918  -30.5291   21.4153 C   0  0  0  0  0  0
  -26.1574  -29.0927   20.7660 C   0  0  0  0  0  0
  -27.2718  -28.0998   20.7797 C   0  0  0  0  0  0
  -26.0030  -26.5484   19.5144 C   0  0  0  0  0  0
  -24.9301  -27.4910   19.4697 C   0  0  0  0  0  0
  -23.7650  -29.6945   20.1409 C   0  0  0  0  0  0
  -25.4147  -36.2891   24.0281 C   0  0  1  0  0  0
  -20.5975  -28.3781   23.1141 C   0  0  2  0  0  0
  -20.6804  -26.9440   22.5404 C   0  0  0  0  0  0
  -19.5781  -26.6370   21.5216 C   0  0  0  0  0  0
  -18.1963  -26.7949   22.1619 C   0  0  0  0  0  0
  -19.1605  -28.8927   23.2778 C   0  0  0  0  0  0
  -18.9511  -30.1510   23.8824 C   0  0  0  0  0  0
  -17.6500  -30.6604   24.0550 C   0  0  0  0  0  0
  -25.9127  -34.9281   23.4949 C   0  0  0  0  0  0
  -16.5390  -29.9085   23.6350 C   0  0  0  0  0  0
  -16.7319  -28.6508   23.0367 C   0  0  0  0  0  0
  -26.4597  -31.6500   25.0682 C   0  0  0  0  0  0
  -25.3660  -31.3820   26.1295 C   0  0  0  0  0  0
  -27.0533  -30.2837   24.6588 C   0  0  0  0  0  0
  -27.6041  -32.4365   25.7503 C   0  0  0  0  0  0
  -27.5562  -37.1734   24.8467 C   0  0  0  0  0  0
  -21.4416  -29.3026   22.3460 N   0  0  0  0  0  0
  -26.4272  -37.3652   23.9406 N   0  0  0  0  0  0
  -24.7861  -30.9424   22.0760 N   0  0  0  0  0  0
  -23.4209  -28.7913   23.3060 O   0  0  0  0  0  0
  -28.1986  -25.4803   20.2837 O   0  0  0  0  0  0
  -26.5770  -34.8862   22.4568 O   0  0  0  0  0  0
  -23.5864  -32.1063   23.6453 O   0  0  0  0  0  0
  -29.7881  -18.5292   20.3177 C   0  0  0  0  0  0
  -28.7721  -20.1038   20.2903 C   0  0  0  0  0  0
  -29.0017  -22.0426   20.3063 C   0  0  0  0  0  0
  -28.0132  -23.7240   20.2027 C   0  0  0  0  0  0
  -29.5415  -16.9898   20.3559 N   0  0  0  0  0  0
  -30.9864  -18.8185   20.2921 O   0  0  0  0  0  0
  -31.4174  -13.3334   19.1706 H   0  0  0  0  0  0
  -30.5816  -12.2322   20.2121 H   0  0  0  0  0  0
  -30.0020  -11.8106   17.7977 H   0  0  0  0  0  0
  -29.5110  -13.4760   17.6069 H   0  0  0  0  0  0
  -28.1487  -11.3005   19.2065 H   0  0  0  0  0  0
  -27.4525  -12.2401   17.9077 H   0  0  0  0  0  0
  -27.4573  -14.2278   19.2427 H   0  0  0  0  0  0
  -28.8707  -12.7611   21.5194 H   0  0  0  0  0  0
  -28.1793  -14.3617   21.6252 H   0  0  0  0  0  0
  -25.2790   -9.5679   22.4766 H   0  0  0  0  0  0
  -24.0013   -7.4638   22.7478 H   0  0  0  0  0  0
  -21.0869   -8.8790   19.8950 H   0  0  0  0  0  0
  -22.3740  -10.9676   19.6163 H   0  0  0  0  0  0
  -21.2013   -7.6151   23.9718 H   0  0  0  0  0  0
  -21.1482   -6.0524   25.9077 H   0  0  0  0  0  0
  -22.0596   -2.7612   23.2843 H   0  0  0  0  0  0
  -22.4030  -11.9815   22.4870 H   0  0  0  0  0  0
  -21.0994  -13.1133   22.2674 H   0  0  0  0  0  0
  -24.6177  -15.8493   20.5333 H   0  0  0  0  0  0
  -26.2276  -15.6428   20.0642 H   0  0  0  0  0  0
  -26.7506  -32.4930   23.0768 H   0  0  0  0  0  0
  -25.0052  -33.9322   25.0032 H   0  0  0  0  0  0
  -22.8368  -31.2373   21.3135 H   0  0  0  0  0  0
  -23.3774  -35.9463   23.3269 H   0  0  0  0  0  0
  -24.3561  -36.8860   22.2077 H   0  0  0  0  0  0
  -23.7241  -37.6311   23.6762 H   0  0  0  0  0  0
  -26.2956  -31.2535   20.6256 H   0  0  0  0  0  0
  -26.9424  -30.5972   22.0811 H   0  0  0  0  0  0
  -28.1683  -28.3794   21.3147 H   0  0  0  0  0  0
  -25.8362  -25.6052   19.0139 H   0  0  0  0  0  0
  -24.0322  -27.2100   18.9365 H   0  0  0  0  0  0
  -23.9414  -30.4534   19.3778 H   0  0  0  0  0  0
  -22.8695  -29.1616   19.8168 H   0  0  0  0  0  0
  -25.1358  -36.1652   25.0771 H   0  0  0  0  0  0
  -21.0056  -28.3408   24.1267 H   0  0  0  0  0  0
  -20.5666  -26.2406   23.3667 H   0  0  0  0  0  0
  -21.6666  -26.7380   22.1224 H   0  0  0  0  0  0
  -19.6936  -25.6261   21.1294 H   0  0  0  0  0  0
  -19.6724  -27.3140   20.6714 H   0  0  0  0  0  0
  -17.4233  -26.6691   21.4022 H   0  0  0  0  0  0
  -18.0351  -26.0109   22.9032 H   0  0  0  0  0  0
  -19.7986  -30.7345   24.2161 H   0  0  0  0  0  0
  -17.5050  -31.6276   24.5167 H   0  0  0  0  0  0
  -15.5387  -30.2963   23.7716 H   0  0  0  0  0  0
  -15.8720  -28.0801   22.7124 H   0  0  0  0  0  0
  -24.5871  -30.7143   25.7594 H   0  0  0  0  0  0
  -24.8822  -32.3042   26.4519 H   0  0  0  0  0  0
  -25.7835  -30.9114   27.0205 H   0  0  0  0  0  0
  -26.3251  -29.6446   24.1584 H   0  0  0  0  0  0
  -27.3960  -29.7290   25.5333 H   0  0  0  0  0  0
  -27.9231  -30.3961   24.0115 H   0  0  0  0  0  0
  -27.2577  -33.3738   26.1870 H   0  0  0  0  0  0
  -28.3960  -32.6813   25.0411 H   0  0  0  0  0  0
  -28.0591  -31.8637   26.5593 H   0  0  0  0  0  0
  -28.2552  -38.0054   24.7507 H   0  0  0  0  0  0
  -28.1085  -36.2575   24.6307 H   0  0  0  0  0  0
  -27.2275  -37.1383   25.8869 H   0  0  0  0  0  0
  -20.9724  -29.8679   21.6521 H   0  0  0  0  0  0
  -26.0098  -38.2700   24.1414 H   0  0  0  0  0  0
  -28.0794  -19.9259   21.1124 H   0  0  0  0  0  0
  -28.1600  -19.9373   19.4044 H   0  0  0  0  0  0
  -29.7535  -22.1795   19.5291 H   0  0  0  0  0  0
  -29.5714  -22.1815   21.2250 H   0  0  0  0  0  0
  -27.2341  -23.5761   20.9506 H   0  0  0  0  0  0
  -27.4776  -23.6198   19.2590 H   0  0  0  0  0  0
  -28.5503  -16.8131   20.4004 H   0  0  0  0  0  0
  1 25  1  0  0  0
  1 30  2  0  0  0
  1 75  1  0  0  0
  2  3  1  0  0  0
  2 25  1  0  0  0
  2 77  1  0  0  0
  2 78  1  0  0  0
  3  4  1  0  0  0
  3 79  1  0  0  0
  3 80  1  0  0  0
  4  5  1  0  0  0
  4 81  1  0  0  0
  4 82  1  0  0  0
  5  6  1  0  0  0
  5 26  1  0  0  0
  5 83  1  0  0  0
  6 25  1  0  0  0
  6 84  1  0  0  0
  6 85  1  0  0  0
  7  8  2  0  0  0
  7 26  1  0  0  0
  7 29  1  0  0  0
  8  9  1  0  0  0
  8 22  1  0  0  0
  9 10  1  0  0  0
  9 27  2  0  0  0
 10 11  2  0  0  0
 10 15  1  0  0  0
 11 12  1  0  0  0
 11 86  1  0  0  0
 12 13  2  0  0  0
 12 87  1  0  0  0
 13 14  1  0  0  0
 13 31  1  0  0  0
 14 15  2  0  0  0
 14 88  1  0  0  0
 15 89  1  0  0  0
 16 17  2  0  0  0
 16 21  1  0  0  0
 16 31  1  0  0  0
 17 18  1  0  0  0
 17 90  1  0  0  0
 18 19  2  0  0  0
 18 91  1  0  0  0
 19 20  1  0  0  0
 19 24  1  0  0  0
 20 21  2  0  0  0
 20 92  1  0  0  0
 21 23  1  0  0  0
 22 28  1  0  0  0
 22 32  2  0  0  0
 26 27  1  0  0  0
 28 93  1  0  0  0
 28 94  1  0  0  0
 29 95  1  0  0  0
 29 96  1  0  0  0
 33 34  1  0  0  0
 33 66  1  0  0  0
 33 70  2  0  0  0
 34 36  1  0  0  0
 34 59  1  0  0  0
 34 97  1  0  0  0
 35 44  2  0  0  0
 35 45  1  0  0  0
 35 68  1  0  0  0
 36 56  1  0  0  0
 36 98  1  0  0  0
 37 39  1  0  0  0
 37 47  1  0  0  0
 37 66  1  0  0  0
 37 99  1  0  0  0
 38 43  2  0  0  0
 38 46  1  0  0  0
 38 47  1  0  0  0
 39 64  1  0  0  0
 39 67  2  0  0  0
 40 52  1  0  0  0
 40 53  2  0  0  0
 40 58  1  0  0  0
 41100  1  0  0  0
 41101  1  0  0  0
 41102  1  0  0  0
 41 48  1  0  0  0
 42 43  1  0  0  0
 42 66  1  0  0  0
 42103  1  0  0  0
 42104  1  0  0  0
 43 44  1  0  0  0
 44105  1  0  0  0
 45 46  2  0  0  0
 45106  1  0  0  0
 46107  1  0  0  0
 47108  1  0  0  0
 47109  1  0  0  0
 48 56  1  0  0  0
 48 65  1  0  0  0
 48110  1  0  0  0
 49 50  1  0  0  0
 49 53  1  0  0  0
 49 64  1  0  0  0
 49111  1  0  0  0
 50 51  1  0  0  0
 50112  1  0  0  0
 50113  1  0  0  0
 51 52  1  0  0  0
 51114  1  0  0  0
 51115  1  0  0  0
 52116  1  0  0  0
 52117  1  0  0  0
 53 54  1  0  0  0
 54 55  2  0  0  0
 54118  1  0  0  0
 55 57  1  0  0  0
 55119  1  0  0  0
 56 69  2  0  0  0
 57 58  2  0  0  0
 57120  1  0  0  0
 58121  1  0  0  0
 59 60  1  0  0  0
 59 61  1  0  0  0
 59 62  1  0  0  0
 60122  1  0  0  0
 60123  1  0  0  0
 60124  1  0  0  0
 61125  1  0  0  0
 61126  1  0  0  0
 61127  1  0  0  0
 62128  1  0  0  0
 62129  1  0  0  0
 62130  1  0  0  0
 63 65  1  0  0  0
 63131  1  0  0  0
 63132  1  0  0  0
 63133  1  0  0  0
 64134  1  0  0  0
 65135  1  0  0  0
 68 74  1  0  0  0
 71 72  1  0  0  0
 71 75  1  0  0  0
 71 76  2  0  0  0
 72 73  1  0  0  0
 72136  1  0  0  0
 72137  1  0  0  0
 73 74  1  0  0  0
 73138  1  0  0  0
 73139  1  0  0  0
 74140  1  0  0  0
 74141  1  0  0  0
 75142  1  0  0  0
M  ISO  4   1 100  68 101  74 101  75 100
M  END
> <chiral flag>
0

> <version>
0

> <s_m_source_file>
/data/baiqing/PycharmProjects/Reinvent-master-3.2/result/LINK_invent/BTK/process_docking_weight1_custom_product_contain_oxygen_bond_distance_aromatic_linkinvent_7_9_3/rearranged_h_0192.sdf

> <i_m_source_file_index>
88

> <r_mmod_Potential_Energy-OPLS-2005>
2342.64111328125

> <r_mmod_Stretch_Energy-OPLS-2005>
1152.82373046875

> <r_mmod_Bend_Energy-OPLS-2005>
627.247924804688

> <r_mmod_Torsional_Energy-OPLS-2005>
207.022445678711

> <r_mmod_Improper_Torsional_Energy-OPLS-2005>
3.80306768417358

> <r_mmod_Van_der_Waal_Energy-OPLS-2005>
108.830497741699

> <r_mmod_Electrostatic_Energy-OPLS-2005>
-417.143402099609

> <r_mmod_Solvation_Energy-OPLS-2005>
-238.104232788086

> <b_mmod_Minimization_Converged-OPLS-2005>
1

> <r_mmod_RMS_Derivative-OPLS-2005>
0.0440258681774139

$$$$
89
                    3D
 Structure written by MMmdl.
179187  0  0  1  0            999 V2000
  -30.6544  -14.5884   20.5851 C   0  0  0  0  0  0
  -30.4288  -12.3778   19.4530 C   0  0  0  0  0  0
  -29.5040  -12.5446   18.2267 C   0  0  0  0  0  0
  -28.0244  -12.3801   18.6280 C   0  0  0  0  0  0
  -27.6549  -13.2235   19.8760 C   0  0  2  0  0  0
  -28.6942  -13.0380   21.0067 C   0  0  0  0  0  0
  -25.2414  -13.8096   20.5539 C   0  0  0  0  0  0
  -24.1746  -13.0365   20.9178 C   0  0  0  0  0  0
  -24.6379  -11.6881   20.8771 C   0  0  0  0  0  0
  -23.9063  -10.4268   21.0434 C   0  0  0  0  0  0
  -24.3618   -9.4183   21.9216 C   0  0  0  0  0  0
  -23.6302   -8.2219   22.0776 C   0  0  0  0  0  0
  -22.4282   -8.0272   21.3558 C   0  0  0  0  0  0
  -21.9912   -9.0230   20.4653 C   0  0  0  0  0  0
  -22.7242  -10.2112   20.3070 C   0  0  0  0  0  0
  -21.6835   -6.0740   22.5292 C   0  0  0  0  0  0
  -21.3983   -6.5642   23.8222 C   0  0  0  0  0  0
  -21.3659   -5.6793   24.9189 C   0  0  0  0  0  0
  -21.6059   -4.3053   24.7232 C   0  0  0  0  0  0
  -21.8825   -3.8144   23.4341 C   0  0  0  0  0  0
  -21.9183   -4.6967   22.3402 C   0  0  0  0  0  0
  -22.7777  -13.5170   21.1856 C   0  0  0  0  0  0
  -22.1666   -4.2162   21.0985 F   0  0  0  0  0  0
  -21.5641   -3.4539   25.7730 F   0  0  0  0  0  0
  -30.0294  -13.3714   20.4711 N   0  0  0  0  0  0
  -26.2963  -12.9376   20.3361 N   0  0  0  0  0  0
  -25.9332  -11.6523   20.5837 N   0  0  0  0  0  0
  -22.0412  -12.8192   22.0441 N   0  0  0  0  0  0
  -25.3797  -15.1772   20.3687 N   0  0  0  0  0  0
  -31.7304  -14.8197   20.0220 O   0  0  0  0  0  0
  -21.6627   -6.8881   21.4258 O   0  0  0  0  0  0
  -22.3479  -14.5484   20.6707 O   0  0  0  0  0  0
  -24.6213  -31.8612   23.1995 C   0  0  0  0  0  0
  -25.9069  -32.4783   23.8335 C   0  0  1  0  0  0
  -27.2422  -27.3604   20.1292 C   0  0  0  0  0  0
  -25.5890  -33.8573   24.2265 N   0  0  0  0  0  0
  -23.4149  -30.4794   21.5422 C   0  0  2  0  0  0
  -24.8668  -28.9278   20.1205 C   0  0  0  0  0  0
  -22.7456  -29.4625   22.4963 C   0  0  0  0  0  0
  -18.0286  -28.1381   22.8492 C   0  0  0  0  0  0
  -24.1480  -36.7298   23.2641 C   0  0  0  0  0  0
  -25.9484  -30.8076   21.3591 C   0  0  0  0  0  0
  -26.0302  -29.4304   20.7181 C   0  0  0  0  0  0
  -27.2238  -28.6578   20.7130 C   0  0  0  0  0  0
  -26.0601  -26.8864   19.5259 C   0  0  0  0  0  0
  -24.8797  -27.6571   19.5182 C   0  0  0  0  0  0
  -23.6284  -29.7989   20.1627 C   0  0  0  0  0  0
  -25.4103  -36.3079   24.0330 C   0  0  1  0  0  0
  -20.5883  -28.3670   23.1299 C   0  0  2  0  0  0
  -20.6770  -26.9396   22.5420 C   0  0  0  0  0  0
  -19.5749  -26.6374   21.5216 C   0  0  0  0  0  0
  -18.1930  -26.7927   22.1627 C   0  0  0  0  0  0
  -19.1539  -28.8842   23.2893 C   0  0  0  0  0  0
  -18.9463  -30.1450   23.8902 C   0  0  0  0  0  0
  -17.6462  -30.6588   24.0562 C   0  0  0  0  0  0
  -25.9037  -34.9457   23.5104 C   0  0  0  0  0  0
  -16.5352  -29.9087   23.6331 C   0  0  0  0  0  0
  -16.7271  -28.6502   23.0352 C   0  0  0  0  0  0
  -26.4461  -31.6570   25.0692 C   0  0  0  0  0  0
  -25.3694  -31.3702   26.1416 C   0  0  0  0  0  0
  -27.0286  -30.3004   24.6088 C   0  0  0  0  0  0
  -27.6024  -32.4294   25.7478 C   0  0  0  0  0  0
  -27.5568  -37.1802   24.8464 C   0  0  0  0  0  0
  -21.4180  -29.3024   22.3694 N   0  0  0  0  0  0
  -26.4279  -37.3773   23.9409 N   0  0  0  0  0  0
  -24.6805  -31.0652   22.0924 N   0  0  0  0  0  0
  -23.4192  -28.8197   23.3053 O   0  0  0  0  0  0
  -28.3784  -26.5559   20.0789 O   0  0  0  0  0  0
  -26.5626  -34.8920   22.4679 O   0  0  0  0  0  0
  -23.5385  -32.1391   23.7350 O   0  0  0  0  0  0
  -29.1501  -19.0678   20.6352 C   0  0  0  0  0  0
  -27.8624  -18.6883   20.9545 C   0  0  0  0  0  0
  -29.4609  -16.7890   21.1014 C   0  0  0  0  0  0
  -23.9788  -19.7493   22.3203 C   0  0  0  0  0  0
  -26.7066  -22.2183   24.5582 C   0  0  0  0  0  0
  -25.7564  -23.1409   22.4152 C   0  0  0  0  0  0
  -25.5532  -18.9077   18.8424 C   0  0  0  0  0  0
  -29.3391  -26.0650   22.1429 C   0  0  0  0  0  0
  -29.5273  -20.4770   20.0943 C   0  0  0  0  0  0
  -24.2927  -19.8675   20.8219 C   0  0  0  0  0  0
  -28.2816  -22.7377   22.6375 C   0  0  0  0  0  0
  -29.0804  -24.0710   20.4949 C   0  0  0  0  0  0
  -26.8673  -22.2704   23.0306 C   0  0  0  0  0  0
  -25.4592  -18.9698   20.3714 C   0  0  2  0  0  0
  -28.4628  -25.4476   21.0305 C   0  0  2  0  0  0
  -28.6329  -22.6637   21.1224 C   0  0  1  0  0  0
  -30.0551  -17.9481   20.7029 N   0  0  0  0  0  0
  -26.7116  -19.4770   20.9120 N   0  0  0  0  0  0
  -30.0514  -15.4967   21.3950 N   0  0  0  0  0  0
  -29.6287  -21.5876   21.0423 O   0  0  0  0  0  0
  -27.7673  -17.0246   21.4773 S   0  0  0  0  0  0
  -31.4745  -12.4891   19.1608 H   0  0  0  0  0  0
  -30.3403  -11.3677   19.8564 H   0  0  0  0  0  0
  -29.7675  -11.8245   17.4507 H   0  0  0  0  0  0
  -29.6554  -13.5336   17.7906 H   0  0  0  0  0  0
  -27.8465  -11.3229   18.8278 H   0  0  0  0  0  0
  -27.3736  -12.6466   17.7937 H   0  0  0  0  0  0
  -27.6841  -14.2690   19.5675 H   0  0  0  0  0  0
  -28.6866  -12.0083   21.3646 H   0  0  0  0  0  0
  -28.4193  -13.6442   21.8704 H   0  0  0  0  0  0
  -25.2767   -9.5666   22.4787 H   0  0  0  0  0  0
  -24.0009   -7.4603   22.7505 H   0  0  0  0  0  0
  -21.0839   -8.8730   19.8963 H   0  0  0  0  0  0
  -22.3705  -10.9635   19.6167 H   0  0  0  0  0  0
  -21.1960   -7.6146   23.9722 H   0  0  0  0  0  0
  -21.1489   -6.0527   25.9092 H   0  0  0  0  0  0
  -22.0603   -2.7610   23.2828 H   0  0  0  0  0  0
  -22.3980  -11.9854   22.4854 H   0  0  0  0  0  0
  -21.1041  -13.1254   22.2643 H   0  0  0  0  0  0
  -24.5807  -15.7947   20.4461 H   0  0  0  0  0  0
  -26.2148  -15.6411   20.0397 H   0  0  0  0  0  0
  -26.7151  -32.5477   23.1105 H   0  0  0  0  0  0
  -24.9983  -33.9715   25.0370 H   0  0  0  0  0  0
  -22.7071  -31.2976   21.3924 H   0  0  0  0  0  0
  -23.3738  -35.9634   23.3298 H   0  0  0  0  0  0
  -24.3576  -36.8927   22.2060 H   0  0  0  0  0  0
  -23.7239  -37.6498   23.6668 H   0  0  0  0  0  0
  -26.0558  -31.5616   20.5777 H   0  0  0  0  0  0
  -26.8384  -30.8759   21.9730 H   0  0  0  0  0  0
  -28.1239  -29.0458   21.1690 H   0  0  0  0  0  0
  -26.0544  -25.9087   19.0647 H   0  0  0  0  0  0
  -23.9871  -27.2615   19.0541 H   0  0  0  0  0  0
  -23.7330  -30.5639   19.3925 H   0  0  0  0  0  0
  -22.7540  -29.2121   19.8747 H   0  0  0  0  0  0
  -25.1284  -36.1926   25.0822 H   0  0  0  0  0  0
  -20.9982  -28.3237   24.1417 H   0  0  0  0  0  0
  -20.5664  -26.2278   23.3615 H   0  0  0  0  0  0
  -21.6639  -26.7424   22.1215 H   0  0  0  0  0  0
  -19.6902  -25.6285   21.1246 H   0  0  0  0  0  0
  -19.6692  -27.3184   20.6749 H   0  0  0  0  0  0
  -17.4203  -26.6686   21.4027 H   0  0  0  0  0  0
  -18.0323  -26.0070   22.9020 H   0  0  0  0  0  0
  -19.7939  -30.7267   24.2269 H   0  0  0  0  0  0
  -17.5018  -31.6271   24.5157 H   0  0  0  0  0  0
  -15.5352  -30.2987   23.7654 H   0  0  0  0  0  0
  -15.8676  -28.0821   22.7063 H   0  0  0  0  0  0
  -24.5884  -30.7032   25.7741 H   0  0  0  0  0  0
  -24.8854  -32.2861   26.4824 H   0  0  0  0  0  0
  -25.8017  -30.8898   27.0201 H   0  0  0  0  0  0
  -26.2835  -29.6786   24.1113 H   0  0  0  0  0  0
  -27.4011  -29.7226   25.4554 H   0  0  0  0  0  0
  -27.8684  -30.4310   23.9262 H   0  0  0  0  0  0
  -27.2641  -33.3610   26.2026 H   0  0  0  0  0  0
  -28.3862  -32.6823   25.0328 H   0  0  0  0  0  0
  -28.0644  -31.8423   26.5423 H   0  0  0  0  0  0
  -28.2584  -38.0100   24.7501 H   0  0  0  0  0  0
  -28.1063  -36.2631   24.6293 H   0  0  0  0  0  0
  -27.2291  -37.1455   25.8868 H   0  0  0  0  0  0
  -20.9354  -29.8713   21.6877 H   0  0  0  0  0  0
  -26.0160  -38.2845   24.1408 H   0  0  0  0  0  0
  -23.2375  -20.4890   22.6208 H   0  0  0  0  0  0
  -24.8665  -19.9074   22.9329 H   0  0  0  0  0  0
  -23.5792  -18.7635   22.5619 H   0  0  0  0  0  0
  -25.7383  -21.7970   24.8315 H   0  0  0  0  0  0
  -26.7739  -23.2118   25.0034 H   0  0  0  0  0  0
  -27.4734  -21.5945   25.0187 H   0  0  0  0  0  0
  -24.7711  -22.7465   22.6649 H   0  0  0  0  0  0
  -25.8136  -23.1828   21.3279 H   0  0  0  0  0  0
  -25.8015  -24.1651   22.7869 H   0  0  0  0  0  0
  -24.6189  -18.5522   18.4086 H   0  0  0  0  0  0
  -26.3399  -18.2261   18.5188 H   0  0  0  0  0  0
  -25.7628  -19.8896   18.4145 H   0  0  0  0  0  0
  -29.6549  -25.3574   22.9051 H   0  0  0  0  0  0
  -28.8161  -26.8758   22.6508 H   0  0  0  0  0  0
  -30.2555  -26.4823   21.7247 H   0  0  0  0  0  0
  -28.8427  -20.7580   19.2925 H   0  0  0  0  0  0
  -30.5000  -20.4136   19.6076 H   0  0  0  0  0  0
  -24.5049  -20.9090   20.5703 H   0  0  0  0  0  0
  -23.3906  -19.6055   20.2670 H   0  0  0  0  0  0
  -29.0094  -22.1472   23.1961 H   0  0  0  0  0  0
  -28.3923  -23.7358   23.0359 H   0  0  0  0  0  0
  -30.1658  -24.1473   20.5602 H   0  0  0  0  0  0
  -28.8779  -24.0170   19.4247 H   0  0  0  0  0  0
  -26.7497  -21.2533   22.6773 H   0  0  0  0  0  0
  -25.2728  -17.9610   20.7395 H   0  0  0  0  0  0
  -27.4671  -25.2433   21.4228 H   0  0  0  0  0  0
  -27.7445  -22.3368   20.5833 H   0  0  0  0  0  0
  -26.8265  -20.4814   20.8444 H   0  0  0  0  0  0
  -29.4572  -14.9868   22.0295 H   0  0  0  0  0  0
  1 25  1  0  0  0
  1 30  2  0  0  0
  1 89  1  0  0  0
  2  3  1  0  0  0
  2 25  1  0  0  0
  2 92  1  0  0  0
  2 93  1  0  0  0
  3  4  1  0  0  0
  3 94  1  0  0  0
  3 95  1  0  0  0
  4  5  1  0  0  0
  4 96  1  0  0  0
  4 97  1  0  0  0
  5  6  1  0  0  0
  5 26  1  0  0  0
  5 98  1  0  0  0
  6 25  1  0  0  0
  6 99  1  0  0  0
  6100  1  0  0  0
  7  8  2  0  0  0
  7 26  1  0  0  0
  7 29  1  0  0  0
  8  9  1  0  0  0
  8 22  1  0  0  0
  9 10  1  0  0  0
  9 27  2  0  0  0
 10 11  2  0  0  0
 10 15  1  0  0  0
 11 12  1  0  0  0
 11101  1  0  0  0
 12 13  2  0  0  0
 12102  1  0  0  0
 13 14  1  0  0  0
 13 31  1  0  0  0
 14 15  2  0  0  0
 14103  1  0  0  0
 15104  1  0  0  0
 16 17  2  0  0  0
 16 21  1  0  0  0
 16 31  1  0  0  0
 17 18  1  0  0  0
 17105  1  0  0  0
 18 19  2  0  0  0
 18106  1  0  0  0
 19 20  1  0  0  0
 19 24  1  0  0  0
 20 21  2  0  0  0
 20107  1  0  0  0
 21 23  1  0  0  0
 22 28  1  0  0  0
 22 32  2  0  0  0
 26 27  1  0  0  0
 28108  1  0  0  0
 28109  1  0  0  0
 29110  1  0  0  0
 29111  1  0  0  0
 33 34  1  0  0  0
 33 66  1  0  0  0
 33 70  2  0  0  0
 34 36  1  0  0  0
 34 59  1  0  0  0
 34112  1  0  0  0
 35 44  2  0  0  0
 35 45  1  0  0  0
 35 68  1  0  0  0
 36 56  1  0  0  0
 36113  1  0  0  0
 37 39  1  0  0  0
 37 47  1  0  0  0
 37 66  1  0  0  0
 37114  1  0  0  0
 38 43  2  0  0  0
 38 46  1  0  0  0
 38 47  1  0  0  0
 39 64  1  0  0  0
 39 67  2  0  0  0
 40 52  1  0  0  0
 40 53  2  0  0  0
 40 58  1  0  0  0
 41115  1  0  0  0
 41116  1  0  0  0
 41117  1  0  0  0
 41 48  1  0  0  0
 42 43  1  0  0  0
 42 66  1  0  0  0
 42118  1  0  0  0
 42119  1  0  0  0
 43 44  1  0  0  0
 44120  1  0  0  0
 45 46  2  0  0  0
 45121  1  0  0  0
 46122  1  0  0  0
 47123  1  0  0  0
 47124  1  0  0  0
 48 56  1  0  0  0
 48 65  1  0  0  0
 48125  1  0  0  0
 49 50  1  0  0  0
 49 53  1  0  0  0
 49 64  1  0  0  0
 49126  1  0  0  0
 50 51  1  0  0  0
 50127  1  0  0  0
 50128  1  0  0  0
 51 52  1  0  0  0
 51129  1  0  0  0
 51130  1  0  0  0
 52131  1  0  0  0
 52132  1  0  0  0
 53 54  1  0  0  0
 54 55  2  0  0  0
 54133  1  0  0  0
 55 57  1  0  0  0
 55134  1  0  0  0
 56 69  2  0  0  0
 57 58  2  0  0  0
 57135  1  0  0  0
 58136  1  0  0  0
 59 60  1  0  0  0
 59 61  1  0  0  0
 59 62  1  0  0  0
 60137  1  0  0  0
 60138  1  0  0  0
 60139  1  0  0  0
 61140  1  0  0  0
 61141  1  0  0  0
 61142  1  0  0  0
 62143  1  0  0  0
 62144  1  0  0  0
 62145  1  0  0  0
 63 65  1  0  0  0
 63146  1  0  0  0
 63147  1  0  0  0
 63148  1  0  0  0
 64149  1  0  0  0
 65150  1  0  0  0
 68 85  1  0  0  0
 71 72  2  0  0  0
 71 79  1  0  0  0
 71 87  1  0  0  0
 72 88  1  0  0  0
 72 91  1  0  0  0
 73 87  2  0  0  0
 73 89  1  0  0  0
 73 91  1  0  0  0
 74 80  1  0  0  0
 74151  1  0  0  0
 74152  1  0  0  0
 74153  1  0  0  0
 75154  1  0  0  0
 75155  1  0  0  0
 75156  1  0  0  0
 75 83  1  0  0  0
 76 83  1  0  0  0
 76157  1  0  0  0
 76158  1  0  0  0
 76159  1  0  0  0
 77160  1  0  0  0
 77161  1  0  0  0
 77162  1  0  0  0
 77 84  1  0  0  0
 78163  1  0  0  0
 78164  1  0  0  0
 78165  1  0  0  0
 78 85  1  0  0  0
 79 90  1  0  0  0
 79166  1  0  0  0
 79167  1  0  0  0
 80 84  1  0  0  0
 80168  1  0  0  0
 80169  1  0  0  0
 81 83  1  0  0  0
 81170  1  0  0  0
 81171  1  0  0  0
 81 86  1  0  0  0
 82 85  1  0  0  0
 82 86  1  0  0  0
 82172  1  0  0  0
 82173  1  0  0  0
 83174  1  0  0  0
 84 88  1  0  0  0
 84175  1  0  0  0
 85176  1  0  0  0
 86 90  1  0  0  0
 86177  1  0  0  0
 88178  1  0  0  0
 89179  1  0  0  0
M  ISO  4   1 100  68 101  85 101  89 100
M  END
> <chiral flag>
0

> <version>
0

> <s_m_source_file>
/data/baiqing/PycharmProjects/Reinvent-master-3.2/result/LINK_invent/BTK/process_docking_weight1_custom_product_contain_oxygen_bond_distance_aromatic_linkinvent_7_9_3/rearranged_h_0192.sdf

> <i_m_source_file_index>
89

> <r_mmod_Potential_Energy-OPLS-2005>
146.55403137207

> <r_mmod_Stretch_Energy-OPLS-2005>
76.8730239868164

> <r_mmod_Bend_Energy-OPLS-2005>
171.639999389648

> <r_mmod_Torsional_Energy-OPLS-2005>
316.743621826172

> <r_mmod_Improper_Torsional_Energy-OPLS-2005>
9.21281337738037

> <r_mmod_Van_der_Waal_Energy-OPLS-2005>
96.0016098022461

> <r_mmod_Electrostatic_Energy-OPLS-2005>
-348.119873046875

> <r_mmod_Solvation_Energy-OPLS-2005>
-207.025100708008

> <b_mmod_Minimization_Converged-OPLS-2005>
0

> <r_mmod_RMS_Derivative-OPLS-2005>
2.32241201400757

$$$$
90
                    3D
 Structure written by MMmdl.
163171  0  0  1  0            999 V2000
  -30.7241  -14.4172   20.6168 C   0  0  0  0  0  0
  -30.4234  -12.2906   19.3977 C   0  0  0  0  0  0
  -29.4908  -12.5169   18.1917 C   0  0  0  0  0  0
  -28.0133  -12.3697   18.6049 C   0  0  0  0  0  0
  -27.6646  -13.1963   19.8713 C   0  0  2  0  0  0
  -28.7050  -12.9533   20.9887 C   0  0  0  0  0  0
  -25.2615  -13.8133   20.5596 C   0  0  0  0  0  0
  -24.1858  -13.0436   20.9136 C   0  0  0  0  0  0
  -24.6389  -11.6898   20.8711 C   0  0  0  0  0  0
  -23.9031  -10.4295   21.0399 C   0  0  0  0  0  0
  -24.3603   -9.4223   21.9180 C   0  0  0  0  0  0
  -23.6294   -8.2256   22.0750 C   0  0  0  0  0  0
  -22.4281   -8.0282   21.3547 C   0  0  0  0  0  0
  -21.9901   -9.0241   20.4645 C   0  0  0  0  0  0
  -22.7201  -10.2136   20.3044 C   0  0  0  0  0  0
  -21.6860   -6.0733   22.5288 C   0  0  0  0  0  0
  -21.4016   -6.5638   23.8224 C   0  0  0  0  0  0
  -21.3666   -5.6792   24.9187 C   0  0  0  0  0  0
  -21.6051   -4.3054   24.7241 C   0  0  0  0  0  0
  -21.8828   -3.8145   23.4359 C   0  0  0  0  0  0
  -21.9195   -4.6958   22.3414 C   0  0  0  0  0  0
  -22.7889  -13.5263   21.1824 C   0  0  0  0  0  0
  -22.1654   -4.2144   21.0991 F   0  0  0  0  0  0
  -21.5649   -3.4542   25.7752 F   0  0  0  0  0  0
  -30.0407  -13.2550   20.4406 N   0  0  0  0  0  0
  -26.3041  -12.9279   20.3311 N   0  0  0  0  0  0
  -25.9313  -11.6459   20.5729 N   0  0  0  0  0  0
  -22.0514  -12.8259   22.0387 N   0  0  0  0  0  0
  -25.4360  -15.1847   20.4007 N   0  0  0  0  0  0
  -31.8250  -14.6397   20.1039 O   0  0  0  0  0  0
  -21.6655   -6.8870   21.4251 O   0  0  0  0  0  0
  -22.3586  -14.5571   20.6681 O   0  0  0  0  0  0
  -24.6124  -31.8661   23.2065 C   0  0  0  0  0  0
  -25.9037  -32.4798   23.8358 C   0  0  1  0  0  0
  -27.2371  -27.4471   20.0948 C   0  0  0  0  0  0
  -25.5882  -33.8587   24.2283 N   0  0  0  0  0  0
  -23.3993  -30.4925   21.5429 C   0  0  2  0  0  0
  -24.8486  -28.9539   20.1131 C   0  0  0  0  0  0
  -22.7391  -29.4676   22.4927 C   0  0  0  0  0  0
  -18.0283  -28.1387   22.8486 C   0  0  0  0  0  0
  -24.1485  -36.7310   23.2642 C   0  0  0  0  0  0
  -25.9278  -30.8374   21.3569 C   0  0  0  0  0  0
  -26.0069  -29.4709   20.7072 C   0  0  0  0  0  0
  -27.2075  -28.7253   20.6948 C   0  0  0  0  0  0
  -26.0650  -26.9370   19.5008 C   0  0  0  0  0  0
  -24.8702  -27.6834   19.5099 C   0  0  0  0  0  0
  -23.6075  -29.8174   20.1601 C   0  0  0  0  0  0
  -25.4099  -36.3073   24.0332 C   0  0  1  0  0  0
  -20.5873  -28.3673   23.1291 C   0  0  2  0  0  0
  -20.6760  -26.9397   22.5406 C   0  0  0  0  0  0
  -19.5741  -26.6379   21.5199 C   0  0  0  0  0  0
  -18.1927  -26.7933   22.1623 C   0  0  0  0  0  0
  -19.1537  -28.8841   23.2901 C   0  0  0  0  0  0
  -18.9468  -30.1448   23.8909 C   0  0  0  0  0  0
  -17.6472  -30.6588   24.0567 C   0  0  0  0  0  0
  -25.9023  -34.9450   23.5105 C   0  0  0  0  0  0
  -16.5357  -29.9090   23.6330 C   0  0  0  0  0  0
  -16.7277  -28.6508   23.0345 C   0  0  0  0  0  0
  -26.4469  -31.6594   25.0697 C   0  0  0  0  0  0
  -25.3760  -31.3731   26.1473 C   0  0  0  0  0  0
  -27.0295  -30.3024   24.6097 C   0  0  0  0  0  0
  -27.6020  -32.4334   25.7480 C   0  0  0  0  0  0
  -27.5572  -37.1800   24.8462 C   0  0  0  0  0  0
  -21.4117  -29.3043   22.3680 N   0  0  0  0  0  0
  -26.4275  -37.3762   23.9416 N   0  0  0  0  0  0
  -24.6645  -31.0803   22.0939 N   0  0  0  0  0  0
  -23.4173  -28.8217   23.2964 O   0  0  0  0  0  0
  -28.3907  -26.7015   20.0584 O   0  0  0  0  0  0
  -26.5596  -34.8910   22.4674 O   0  0  0  0  0  0
  -23.5327  -32.1400   23.7485 O   0  0  0  0  0  0
  -29.2576  -18.5284   18.5026 C   0  0  0  0  0  0
  -29.6387  -17.4813   19.3571 C   0  0  0  0  0  0
  -29.3837  -19.8559   18.9572 C   0  0  0  0  0  0
  -30.1261  -17.7916   20.6420 C   0  0  0  0  0  0
  -29.8986  -20.0788   20.2493 C   0  0  0  0  0  0
  -28.9873  -21.3989   22.8116 C   0  0  0  0  0  0
  -30.5694  -16.7019   21.6192 C   0  0  0  0  0  0
  -29.7933  -23.5676   21.8054 C   0  0  0  0  0  0
  -28.4456  -25.6660   21.0474 C   0  0  0  0  0  0
  -29.2515  -22.1400   21.4876 C   0  0  1  0  0  0
  -29.6019  -24.6781   20.7316 C   0  0  1  0  0  0
  -30.2533  -19.0713   21.0773 N   0  0  0  0  0  0
  -29.0120  -20.9322   18.1483 N   0  0  0  0  0  0
  -30.1816  -21.4007   20.6214 N   0  0  0  0  0  0
  -30.0774  -15.3532   21.3185 N   0  0  0  0  0  0
  -30.7899  -25.4565   20.7162 O   0  0  0  0  0  0
  -31.4675  -12.3891   19.0916 H   0  0  0  0  0  0
  -30.3185  -11.2711   19.7736 H   0  0  0  0  0  0
  -29.7298  -11.8179   17.3886 H   0  0  0  0  0  0
  -29.6608  -13.5148   17.7854 H   0  0  0  0  0  0
  -27.8210  -11.3114   18.7862 H   0  0  0  0  0  0
  -27.3635  -12.6562   17.7776 H   0  0  0  0  0  0
  -27.7167  -14.2484   19.5895 H   0  0  0  0  0  0
  -28.6775  -11.9114   21.3149 H   0  0  0  0  0  0
  -28.4582  -13.5374   21.8769 H   0  0  0  0  0  0
  -25.2760   -9.5745   22.4741 H   0  0  0  0  0  0
  -24.0039   -7.4672   22.7467 H   0  0  0  0  0  0
  -21.0831   -8.8715   19.8967 H   0  0  0  0  0  0
  -22.3614  -10.9659   19.6154 H   0  0  0  0  0  0
  -21.1989   -7.6144   23.9715 H   0  0  0  0  0  0
  -21.1483   -6.0525   25.9083 H   0  0  0  0  0  0
  -22.0598   -2.7601   23.2857 H   0  0  0  0  0  0
  -22.4100  -11.9907   22.4766 H   0  0  0  0  0  0
  -21.1133  -13.1307   22.2597 H   0  0  0  0  0  0
  -24.6701  -15.8408   20.4994 H   0  0  0  0  0  0
  -26.2954  -15.6229   20.0951 H   0  0  0  0  0  0
  -26.7109  -32.5511   23.1121 H   0  0  0  0  0  0
  -25.0007  -33.9735   25.0415 H   0  0  0  0  0  0
  -22.6880  -31.3094   21.3991 H   0  0  0  0  0  0
  -23.3712  -35.9675   23.3293 H   0  0  0  0  0  0
  -24.3581  -36.8940   22.2057 H   0  0  0  0  0  0
  -23.7282  -37.6528   23.6675 H   0  0  0  0  0  0
  -26.0462  -31.6035   20.5891 H   0  0  0  0  0  0
  -26.8131  -30.8850   21.9791 H   0  0  0  0  0  0
  -28.1059  -29.1263   21.1430 H   0  0  0  0  0  0
  -26.0787  -25.9652   19.0293 H   0  0  0  0  0  0
  -23.9786  -27.2773   19.0515 H   0  0  0  0  0  0
  -23.7069  -30.5854   19.3927 H   0  0  0  0  0  0
  -22.7334  -29.2297   19.8713 H   0  0  0  0  0  0
  -25.1284  -36.1897   25.0822 H   0  0  0  0  0  0
  -21.0007  -28.3251   24.1394 H   0  0  0  0  0  0
  -20.5622  -26.2288   23.3605 H   0  0  0  0  0  0
  -21.6637  -26.7396   22.1224 H   0  0  0  0  0  0
  -19.6888  -25.6282   21.1237 H   0  0  0  0  0  0
  -19.6694  -27.3183   20.6724 H   0  0  0  0  0  0
  -17.4188  -26.6677   21.4033 H   0  0  0  0  0  0
  -18.0336  -26.0076   22.9024 H   0  0  0  0  0  0
  -19.7949  -30.7259   24.2273 H   0  0  0  0  0  0
  -17.5035  -31.6274   24.5166 H   0  0  0  0  0  0
  -15.5364  -30.3003   23.7644 H   0  0  0  0  0  0
  -15.8676  -28.0836   22.7043 H   0  0  0  0  0  0
  -24.5859  -30.7158   25.7831 H   0  0  0  0  0  0
  -24.9060  -32.2915   26.4994 H   0  0  0  0  0  0
  -25.8130  -30.8833   27.0186 H   0  0  0  0  0  0
  -26.2831  -29.6782   24.1164 H   0  0  0  0  0  0
  -27.4057  -29.7269   25.4569 H   0  0  0  0  0  0
  -27.8675  -30.4313   23.9243 H   0  0  0  0  0  0
  -27.2586  -33.3596   26.2102 H   0  0  0  0  0  0
  -28.3821  -32.6966   25.0326 H   0  0  0  0  0  0
  -28.0702  -31.8447   26.5381 H   0  0  0  0  0  0
  -28.2568  -38.0108   24.7475 H   0  0  0  0  0  0
  -28.1080  -36.2635   24.6299 H   0  0  0  0  0  0
  -27.2302  -37.1465   25.8867 H   0  0  0  0  0  0
  -20.9247  -29.8769   21.6925 H   0  0  0  0  0  0
  -26.0143  -38.2829   24.1416 H   0  0  0  0  0  0
  -28.8815  -18.3112   17.5149 H   0  0  0  0  0  0
  -29.5639  -16.4625   19.0077 H   0  0  0  0  0  0
  -28.3538  -21.9861   23.4763 H   0  0  0  0  0  0
  -29.9194  -21.1995   23.3391 H   0  0  0  0  0  0
  -28.4834  -20.4451   22.6533 H   0  0  0  0  0  0
  -30.2193  -16.9635   22.6190 H   0  0  0  0  0  0
  -31.6591  -16.7054   21.6678 H   0  0  0  0  0  0
  -30.8468  -23.4689   22.0743 H   0  0  0  0  0  0
  -29.3261  -23.9305   22.7218 H   0  0  0  0  0  0
  -28.5776  -26.1261   22.0296 H   0  0  0  0  0  0
  -27.5005  -25.1203   21.0853 H   0  0  0  0  0  0
  -28.3009  -22.2379   20.9611 H   0  0  0  0  0  0
  -29.4576  -24.2294   19.7478 H   0  0  0  0  0  0
  -28.4340  -20.6981   17.3468 H   0  0  0  0  0  0
  -28.6237  -21.7268   18.6445 H   0  0  0  0  0  0
  -30.2743  -21.8805   19.7304 H   0  0  0  0  0  0
  -29.1544  -15.1212   21.6495 H   0  0  0  0  0  0
  -30.6156  -26.2073   20.1551 H   0  0  0  0  0  0
  1 25  1  0  0  0
  1 30  2  0  0  0
  1 85  1  0  0  0
  2  3  1  0  0  0
  2 25  1  0  0  0
  2 87  1  0  0  0
  2 88  1  0  0  0
  3  4  1  0  0  0
  3 89  1  0  0  0
  3 90  1  0  0  0
  4  5  1  0  0  0
  4 91  1  0  0  0
  4 92  1  0  0  0
  5  6  1  0  0  0
  5 26  1  0  0  0
  5 93  1  0  0  0
  6 25  1  0  0  0
  6 94  1  0  0  0
  6 95  1  0  0  0
  7  8  2  0  0  0
  7 26  1  0  0  0
  7 29  1  0  0  0
  8  9  1  0  0  0
  8 22  1  0  0  0
  9 10  1  0  0  0
  9 27  2  0  0  0
 10 11  2  0  0  0
 10 15  1  0  0  0
 11 12  1  0  0  0
 11 96  1  0  0  0
 12 13  2  0  0  0
 12 97  1  0  0  0
 13 14  1  0  0  0
 13 31  1  0  0  0
 14 15  2  0  0  0
 14 98  1  0  0  0
 15 99  1  0  0  0
 16 17  2  0  0  0
 16 21  1  0  0  0
 16 31  1  0  0  0
 17 18  1  0  0  0
 17100  1  0  0  0
 18 19  2  0  0  0
 18101  1  0  0  0
 19 20  1  0  0  0
 19 24  1  0  0  0
 20 21  2  0  0  0
 20102  1  0  0  0
 21 23  1  0  0  0
 22 28  1  0  0  0
 22 32  2  0  0  0
 26 27  1  0  0  0
 28103  1  0  0  0
 28104  1  0  0  0
 29105  1  0  0  0
 29106  1  0  0  0
 33 34  1  0  0  0
 33 66  1  0  0  0
 33 70  2  0  0  0
 34 36  1  0  0  0
 34 59  1  0  0  0
 34107  1  0  0  0
 35 44  2  0  0  0
 35 45  1  0  0  0
 35 68  1  0  0  0
 36 56  1  0  0  0
 36108  1  0  0  0
 37 39  1  0  0  0
 37 47  1  0  0  0
 37 66  1  0  0  0
 37109  1  0  0  0
 38 43  2  0  0  0
 38 46  1  0  0  0
 38 47  1  0  0  0
 39 64  1  0  0  0
 39 67  2  0  0  0
 40 52  1  0  0  0
 40 53  2  0  0  0
 40 58  1  0  0  0
 41110  1  0  0  0
 41111  1  0  0  0
 41112  1  0  0  0
 41 48  1  0  0  0
 42 43  1  0  0  0
 42 66  1  0  0  0
 42113  1  0  0  0
 42114  1  0  0  0
 43 44  1  0  0  0
 44115  1  0  0  0
 45 46  2  0  0  0
 45116  1  0  0  0
 46117  1  0  0  0
 47118  1  0  0  0
 47119  1  0  0  0
 48 56  1  0  0  0
 48 65  1  0  0  0
 48120  1  0  0  0
 49 50  1  0  0  0
 49 53  1  0  0  0
 49 64  1  0  0  0
 49121  1  0  0  0
 50 51  1  0  0  0
 50122  1  0  0  0
 50123  1  0  0  0
 51 52  1  0  0  0
 51124  1  0  0  0
 51125  1  0  0  0
 52126  1  0  0  0
 52127  1  0  0  0
 53 54  1  0  0  0
 54 55  2  0  0  0
 54128  1  0  0  0
 55 57  1  0  0  0
 55129  1  0  0  0
 56 69  2  0  0  0
 57 58  2  0  0  0
 57130  1  0  0  0
 58131  1  0  0  0
 59 60  1  0  0  0
 59 61  1  0  0  0
 59 62  1  0  0  0
 60132  1  0  0  0
 60133  1  0  0  0
 60134  1  0  0  0
 61135  1  0  0  0
 61136  1  0  0  0
 61137  1  0  0  0
 62138  1  0  0  0
 62139  1  0  0  0
 62140  1  0  0  0
 63 65  1  0  0  0
 63141  1  0  0  0
 63142  1  0  0  0
 63143  1  0  0  0
 64144  1  0  0  0
 65145  1  0  0  0
 68 79  1  0  0  0
 71 72  2  0  0  0
 71 73  1  0  0  0
 71146  1  0  0  0
 72 74  1  0  0  0
 72147  1  0  0  0
 73 75  2  0  0  0
 73 83  1  0  0  0
 74 77  1  0  0  0
 74 82  2  0  0  0
 75 82  1  0  0  0
 75 84  1  0  0  0
 76148  1  0  0  0
 76149  1  0  0  0
 76150  1  0  0  0
 76 80  1  0  0  0
 77 85  1  0  0  0
 77151  1  0  0  0
 77152  1  0  0  0
 78 80  1  0  0  0
 78 81  1  0  0  0
 78153  1  0  0  0
 78154  1  0  0  0
 79 81  1  0  0  0
 79155  1  0  0  0
 79156  1  0  0  0
 80 84  1  0  0  0
 80157  1  0  0  0
 81 86  1  0  0  0
 81158  1  0  0  0
 83159  1  0  0  0
 83160  1  0  0  0
 84161  1  0  0  0
 85162  1  0  0  0
 86163  1  0  0  0
M  ISO  4   1 100  68 101  79 101  85 100
M  END
> <chiral flag>
0

> <version>
0

> <s_m_source_file>
/data/baiqing/PycharmProjects/Reinvent-master-3.2/result/LINK_invent/BTK/process_docking_weight1_custom_product_contain_oxygen_bond_distance_aromatic_linkinvent_7_9_3/rearranged_h_0192.sdf

> <i_m_source_file_index>
90

> <r_mmod_Potential_Energy-OPLS-2005>
-387.018463134766

> <r_mmod_Stretch_Energy-OPLS-2005>
36.5519561767578

> <r_mmod_Bend_Energy-OPLS-2005>
101.989135742188

> <r_mmod_Torsional_Energy-OPLS-2005>
265.107696533203

> <r_mmod_Improper_Torsional_Energy-OPLS-2005>
13.5310354232788

> <r_mmod_Van_der_Waal_Energy-OPLS-2005>
158.318740844727

> <r_mmod_Electrostatic_Energy-OPLS-2005>
-712.996704101562

> <r_mmod_Solvation_Energy-OPLS-2005>
-258.291625976562

> <b_mmod_Minimization_Converged-OPLS-2005>
0

> <r_mmod_RMS_Derivative-OPLS-2005>
3.05605101585388

$$$$
91
                    3D
 Structure written by MMmdl.
162170  0  0  1  0            999 V2000
  -30.1777  -14.4352   19.3567 C   0  0  0  0  0  0
  -30.7699  -12.1837   19.4955 C   0  0  0  0  0  0
  -29.7045  -11.7530   18.5124 C   0  0  0  0  0  0
  -28.4218  -11.7159   19.3603 C   0  0  0  0  0  0
  -28.1464  -12.9665   20.4842 C   0  0  2  0  0  0
  -29.3341  -13.1463   21.2740 C   0  0  0  0  0  0
  -25.9848  -14.1297   20.8429 C   0  0  0  0  0  0
  -24.2006  -13.4461   20.6607 C   0  0  0  0  0  0
  -24.0308  -12.2055   20.2511 C   0  0  0  0  0  0
  -23.6494  -10.7422   20.8077 C   0  0  0  0  0  0
  -24.2239   -9.7550   21.7200 C   0  0  0  0  0  0
  -23.6269   -8.4739   21.9799 C   0  0  0  0  0  0
  -22.4267   -8.1104   21.3258 C   0  0  0  0  0  0
  -21.9028   -9.0240   20.4022 C   0  0  0  0  0  0
  -22.5005  -10.2727   20.1539 C   0  0  0  0  0  0
  -21.7469   -6.0979   22.5282 C   0  0  0  0  0  0
  -21.4437   -6.5826   23.8191 C   0  0  0  0  0  0
  -21.3776   -5.6917   24.9105 C   0  0  0  0  0  0
  -21.6051   -4.3161   24.7200 C   0  0  0  0  0  0
  -21.8815   -3.8255   23.4330 C   0  0  0  0  0  0
  -21.9416   -4.7107   22.3417 C   0  0  0  0  0  0
  -22.6234  -13.7974   21.0786 C   0  0  0  0  0  0
  -22.1766   -4.2209   21.1004 F   0  0  0  0  0  0
  -21.5488   -3.4633   25.7701 F   0  0  0  0  0  0
  -30.2593  -13.3612   20.1701 N   0  0  0  0  0  0
  -26.8430  -13.6450   21.0061 N   0  0  0  0  0  0
  -24.9472  -13.3726   20.6133 N   0  0  0  0  0  0
  -21.9892  -12.9949   21.9512 N   0  0  0  0  0  0
  -26.8427  -15.3415   21.0201 N   0  0  0  0  0  0
  -31.1908  -15.1484   19.4550 O   0  0  0  0  0  0
  -21.7538   -6.9055   21.4143 O   0  0  0  0  0  0
  -22.0507  -14.7513   20.5765 O   0  0  0  0  0  0
  -24.6759  -31.8138   23.1713 C   0  0  0  0  0  0
  -25.9419  -32.4527   23.8162 C   0  0  1  0  0  0
  -26.7813  -26.6173   20.3069 C   0  0  0  0  0  0
  -25.6034  -33.8361   24.1990 N   0  0  0  0  0  0
  -23.4784  -30.4516   21.5229 C   0  0  2  0  0  0
  -24.8617  -28.8302   20.0791 C   0  0  0  0  0  0
  -22.7642  -29.4419   22.4647 C   0  0  0  0  0  0
  -18.0291  -28.1414   22.8425 C   0  0  0  0  0  0
  -24.1474  -36.7158   23.2644 C   0  0  0  0  0  0
  -26.0579  -30.5137   21.4497 C   0  0  0  0  0  0
  -26.0442  -29.0890   20.7828 C   0  0  0  0  0  0
  -27.0340  -27.9895   20.8715 C   0  0  0  0  0  0
  -25.6929  -26.6127   19.4396 C   0  0  0  0  0  0
  -24.7416  -27.6401   19.3577 C   0  0  0  0  0  0
  -23.7116  -29.8232   20.1230 C   0  0  0  0  0  0
  -25.4137  -36.2946   24.0284 C   0  0  1  0  0  0
  -20.5934  -28.3781   23.1120 C   0  0  2  0  0  0
  -20.6794  -26.9458   22.5377 C   0  0  0  0  0  0
  -19.5776  -26.6370   21.5192 C   0  0  0  0  0  0
  -18.1940  -26.7931   22.1590 C   0  0  0  0  0  0
  -19.1561  -28.8909   23.2768 C   0  0  0  0  0  0
  -18.9490  -30.1490   23.8827 C   0  0  0  0  0  0
  -17.6488  -30.6611   24.0530 C   0  0  0  0  0  0
  -25.9117  -34.9337   23.4952 C   0  0  0  0  0  0
  -16.5368  -29.9101   23.6345 C   0  0  0  0  0  0
  -16.7278  -28.6519   23.0366 C   0  0  0  0  0  0
  -26.4592  -31.6604   25.0809 C   0  0  0  0  0  0
  -25.3678  -31.4007   26.1466 C   0  0  0  0  0  0
  -27.0603  -30.2942   24.6852 C   0  0  0  0  0  0
  -27.6027  -32.4518   25.7618 C   0  0  0  0  0  0
  -27.5571  -37.1754   24.8461 C   0  0  0  0  0  0
  -21.4302  -29.3045   22.3436 N   0  0  0  0  0  0
  -26.4267  -37.3721   23.9412 N   0  0  0  0  0  0
  -24.7624  -30.9627   22.0961 N   0  0  0  0  0  0
  -23.4158  -28.7891   23.2856 O   0  0  0  0  0  0
  -27.3649  -25.2241   20.4446 O   0  0  0  0  0  0
  -26.5752  -34.8905   22.4558 O   0  0  0  0  0  0
  -23.5826  -32.1280   23.6684 O   0  0  0  0  0  0
  -25.1275  -14.9850   18.9796 C   0  0  0  0  0  0
  -26.1431  -13.0566   18.8050 C   0  0  0  0  0  0
  -24.5235  -15.8084   20.9167 C   0  0  0  0  0  0
  -25.5441  -12.4952   22.5312 C   0  0  0  0  0  0
  -25.8276  -20.2707   21.2555 C   0  0  0  0  0  0
  -25.3837  -18.7844   21.4162 C   0  0  0  0  0  0
  -25.6931  -18.3654   22.8493 C   0  0  0  0  0  0
  -24.8800  -22.0423   19.4794 C   0  0  0  0  0  0
  -27.5601  -13.7270   17.9410 C   0  0  0  0  0  0
  -26.6196  -23.6817   20.9059 C   0  0  0  0  0  0
  -26.1021  -21.8758   20.3866 C   0  0  1  0  0  0
  -26.2033  -11.5940   20.6419 N   0  0  0  0  0  0
  -24.7942  -14.4856   22.6697 N   0  0  0  0  0  0
  -25.7251  -11.8022   23.6927 N   0  0  0  0  0  0
  -24.7332  -17.4293   20.7876 N   0  0  0  0  0  0
  -29.0409  -14.5104   18.3764 N   0  0  0  0  0  0
  -31.7170  -12.3838   18.9913 H   0  0  0  0  0  0
  -30.9688  -11.3965   20.2267 H   0  0  0  0  0  0
  -29.9291  -10.7372   18.1861 H   0  0  0  0  0  0
  -29.7011  -12.3155   17.5841 H   0  0  0  0  0  0
  -28.5784  -10.8500   20.0062 H   0  0  0  0  0  0
  -27.6459  -11.2978   18.7199 H   0  0  0  0  0  0
  -28.1160  -13.8608   20.1083 H   0  0  0  0  0  0
  -29.5765  -12.2734   21.8782 H   0  0  0  0  0  0
  -29.2876  -14.0188   21.9297 H   0  0  0  0  0  0
  -25.1643   -9.9274   22.2096 H   0  0  0  0  0  0
  -24.1124   -7.7821   22.6515 H   0  0  0  0  0  0
  -21.0149   -8.7532   19.8486 H   0  0  0  0  0  0
  -22.0330  -10.9057   19.4136 H   0  0  0  0  0  0
  -21.2554   -7.6348   23.9712 H   0  0  0  0  0  0
  -21.1513   -6.0637   25.9004 H   0  0  0  0  0  0
  -22.0433   -2.7687   23.2835 H   0  0  0  0  0  0
  -22.4565  -12.2087   22.3746 H   0  0  0  0  0  0
  -21.0299  -13.1827   22.1975 H   0  0  0  0  0  0
  -26.5273  -16.3057   20.9782 H   0  0  0  0  0  0
  -27.8188  -15.3015   21.2685 H   0  0  0  0  0  0
  -26.7461  -32.4926   23.0845 H   0  0  0  0  0  0
  -25.0211  -33.9457   25.0154 H   0  0  0  0  0  0
  -22.8028  -31.2959   21.3728 H   0  0  0  0  0  0
  -23.3818  -35.9414   23.3284 H   0  0  0  0  0  0
  -24.3512  -36.8843   22.2059 H   0  0  0  0  0  0
  -23.7155  -37.6292   23.6735 H   0  0  0  0  0  0
  -26.3116  -31.2399   20.6780 H   0  0  0  0  0  0
  -26.8983  -30.5210   22.1302 H   0  0  0  0  0  0
  -27.9052  -28.1262   21.4961 H   0  0  0  0  0  0
  -25.4717  -25.7005   18.9033 H   0  0  0  0  0  0
  -23.8556  -27.4696   18.7580 H   0  0  0  0  0  0
  -23.9380  -30.6142   19.4054 H   0  0  0  0  0  0
  -22.7970  -29.3521   19.7577 H   0  0  0  0  0  0
  -25.1346  -36.1760   25.0790 H   0  0  0  0  0  0
  -21.0027  -28.3427   24.1242 H   0  0  0  0  0  0
  -20.5665  -26.2412   23.3627 H   0  0  0  0  0  0
  -21.6657  -26.7421   22.1192 H   0  0  0  0  0  0
  -19.6963  -25.6253   21.1305 H   0  0  0  0  0  0
  -19.6739  -27.3102   20.6656 H   0  0  0  0  0  0
  -17.4212  -26.6621   21.3993 H   0  0  0  0  0  0
  -18.0355  -26.0088   22.9009 H   0  0  0  0  0  0
  -19.7981  -30.7304   24.2181 H   0  0  0  0  0  0
  -17.5063  -31.6286   24.5156 H   0  0  0  0  0  0
  -15.5381  -30.3003   23.7753 H   0  0  0  0  0  0
  -15.8652  -28.0841   22.7164 H   0  0  0  0  0  0
  -24.5798  -30.7415   25.7822 H   0  0  0  0  0  0
  -24.8980  -32.3297   26.4721 H   0  0  0  0  0  0
  -25.7870  -30.9292   27.0369 H   0  0  0  0  0  0
  -26.3375  -29.6421   24.1956 H   0  0  0  0  0  0
  -27.4094  -29.7583   25.5688 H   0  0  0  0  0  0
  -27.9321  -30.4083   24.0419 H   0  0  0  0  0  0
  -27.2524  -33.3885   26.2004 H   0  0  0  0  0  0
  -28.3941  -32.7000   25.0519 H   0  0  0  0  0  0
  -28.0617  -31.8824   26.5728 H   0  0  0  0  0  0
  -28.2569  -38.0073   24.7572 H   0  0  0  0  0  0
  -28.1099  -36.2614   24.6237 H   0  0  0  0  0  0
  -27.2294  -37.1342   25.8863 H   0  0  0  0  0  0
  -20.9551  -29.8812   21.6640 H   0  0  0  0  0  0
  -26.0120  -38.2785   24.1432 H   0  0  0  0  0  0
  -25.2686  -15.6875   18.1721 H   0  0  0  0  0  0
  -26.2217  -20.5774   22.2139 H   0  0  0  0  0  0
  -25.1370  -18.9907   23.5478 H   0  0  0  0  0  0
  -26.7552  -18.5001   23.0599 H   0  0  0  0  0  0
  -25.4445  -17.3319   23.0916 H   0  0  0  0  0  0
  -24.6603  -21.1189   18.9439 H   0  0  0  0  0  0
  -25.0368  -22.8331   18.7445 H   0  0  0  0  0  0
  -23.9930  -22.2956   20.0631 H   0  0  0  0  0  0
  -27.0868  -14.5306   17.3780 H   0  0  0  0  0  0
  -27.7593  -13.0309   17.1278 H   0  0  0  0  0  0
  -27.3398  -23.4193   21.6836 H   0  0  0  0  0  0
  -25.7531  -24.0340   21.4707 H   0  0  0  0  0  0
  -26.9220  -21.5768   19.7321 H   0  0  0  0  0  0
  -26.3290  -10.9915   23.6682 H   0  0  0  0  0  0
  -25.6907  -12.3170   24.5609 H   0  0  0  0  0  0
  -24.4535  -17.6346   19.8337 H   0  0  0  0  0  0
  -29.1613  -15.3255   17.7918 H   0  0  0  0  0  0
  1 25  1  0  0  0
  1 30  2  0  0  0
  1 86  1  0  0  0
  2  3  1  0  0  0
  2 25  1  0  0  0
  2 87  1  0  0  0
  2 88  1  0  0  0
  3  4  1  0  0  0
  3 89  1  0  0  0
  3 90  1  0  0  0
  4  5  1  0  0  0
  4 91  1  0  0  0
  4 92  1  0  0  0
  5  6  1  0  0  0
  5 26  1  0  0  0
  5 93  1  0  0  0
  6 25  1  0  0  0
  6 94  1  0  0  0
  6 95  1  0  0  0
  7  8  2  0  0  0
  7 26  1  0  0  0
  7 29  1  0  0  0
  8  9  1  0  0  0
  8 22  1  0  0  0
  9 10  1  0  0  0
  9 27  2  0  0  0
 10 11  2  0  0  0
 10 15  1  0  0  0
 11 12  1  0  0  0
 11 96  1  0  0  0
 12 13  2  0  0  0
 12 97  1  0  0  0
 13 14  1  0  0  0
 13 31  1  0  0  0
 14 15  2  0  0  0
 14 98  1  0  0  0
 15 99  1  0  0  0
 16 17  2  0  0  0
 16 21  1  0  0  0
 16 31  1  0  0  0
 17 18  1  0  0  0
 17100  1  0  0  0
 18 19  2  0  0  0
 18101  1  0  0  0
 19 20  1  0  0  0
 19 24  1  0  0  0
 20 21  2  0  0  0
 20102  1  0  0  0
 21 23  1  0  0  0
 22 28  1  0  0  0
 22 32  2  0  0  0
 26 27  1  0  0  0
 28103  1  0  0  0
 28104  1  0  0  0
 29105  1  0  0  0
 29106  1  0  0  0
 33 34  1  0  0  0
 33 66  1  0  0  0
 33 70  2  0  0  0
 34 36  1  0  0  0
 34 59  1  0  0  0
 34107  1  0  0  0
 35 44  2  0  0  0
 35 45  1  0  0  0
 35 68  1  0  0  0
 36 56  1  0  0  0
 36108  1  0  0  0
 37 39  1  0  0  0
 37 47  1  0  0  0
 37 66  1  0  0  0
 37109  1  0  0  0
 38 43  2  0  0  0
 38 46  1  0  0  0
 38 47  1  0  0  0
 39 64  1  0  0  0
 39 67  2  0  0  0
 40 52  1  0  0  0
 40 53  2  0  0  0
 40 58  1  0  0  0
 41110  1  0  0  0
 41111  1  0  0  0
 41112  1  0  0  0
 41 48  1  0  0  0
 42 43  1  0  0  0
 42 66  1  0  0  0
 42113  1  0  0  0
 42114  1  0  0  0
 43 44  1  0  0  0
 44115  1  0  0  0
 45 46  2  0  0  0
 45116  1  0  0  0
 46117  1  0  0  0
 47118  1  0  0  0
 47119  1  0  0  0
 48 56  1  0  0  0
 48 65  1  0  0  0
 48120  1  0  0  0
 49 50  1  0  0  0
 49 53  1  0  0  0
 49 64  1  0  0  0
 49121  1  0  0  0
 50 51  1  0  0  0
 50122  1  0  0  0
 50123  1  0  0  0
 51 52  1  0  0  0
 51124  1  0  0  0
 51125  1  0  0  0
 52126  1  0  0  0
 52127  1  0  0  0
 53 54  1  0  0  0
 54 55  2  0  0  0
 54128  1  0  0  0
 55 57  1  0  0  0
 55129  1  0  0  0
 56 69  2  0  0  0
 57 58  2  0  0  0
 57130  1  0  0  0
 58131  1  0  0  0
 59 60  1  0  0  0
 59 61  1  0  0  0
 59 62  1  0  0  0
 60132  1  0  0  0
 60133  1  0  0  0
 60134  1  0  0  0
 61135  1  0  0  0
 61136  1  0  0  0
 61137  1  0  0  0
 62138  1  0  0  0
 62139  1  0  0  0
 62140  1  0  0  0
 63 65  1  0  0  0
 63141  1  0  0  0
 63142  1  0  0  0
 63143  1  0  0  0
 64144  1  0  0  0
 65145  1  0  0  0
 68 80  1  0  0  0
 71 72  2  0  0  0
 71 73  1  0  0  0
 71146  1  0  0  0
 72 79  1  0  0  0
 72 82  1  0  0  0
 73 83  2  0  0  0
 73 85  1  0  0  0
 74 82  2  0  0  0
 74 83  1  0  0  0
 74 84  1  0  0  0
 75 76  2  0  0  0
 75 81  1  0  0  0
 75147  1  0  0  0
 76 77  1  0  0  0
 76 85  1  0  0  0
 77148  1  0  0  0
 77149  1  0  0  0
 77150  1  0  0  0
 78151  1  0  0  0
 78152  1  0  0  0
 78153  1  0  0  0
 78 81  1  0  0  0
 79 86  1  0  0  0
 79154  1  0  0  0
 79155  1  0  0  0
 80 81  1  0  0  0
 80156  1  0  0  0
 80157  1  0  0  0
 81158  1  0  0  0
 84159  1  0  0  0
 84160  1  0  0  0
 85161  1  0  0  0
 86162  1  0  0  0
M  ISO  4   1 100  68 101  80 101  86 100
M  END
> <chiral flag>
0

> <version>
0

> <s_m_source_file>
/data/baiqing/PycharmProjects/Reinvent-master-3.2/result/LINK_invent/BTK/process_docking_weight1_custom_product_contain_oxygen_bond_distance_aromatic_linkinvent_7_9_3/rearranged_h_0192.sdf

> <i_m_source_file_index>
91

> <r_mmod_Potential_Energy-OPLS-2005>
21428.734375

> <r_mmod_Stretch_Energy-OPLS-2005>
12131.794921875

> <r_mmod_Bend_Energy-OPLS-2005>
2657.6640625

> <r_mmod_Torsional_Energy-OPLS-2005>
607.200378417969

> <r_mmod_Improper_Torsional_Energy-OPLS-2005>
91.5191879272461

> <r_mmod_Van_der_Waal_Energy-OPLS-2005>
4841.99853515625

> <r_mmod_Electrostatic_Energy-OPLS-2005>
-933.923583984375

> <r_mmod_Solvation_Energy-OPLS-2005>
-262.994171142578

> <b_mmod_Minimization_Converged-OPLS-2005>
0

> <r_mmod_RMS_Derivative-OPLS-2005>
8.77382469177246

$$$$
92
                    3D
 Structure written by MMmdl.
162170  0  0  1  0            999 V2000
  -30.6379  -14.6120   20.5376 C   0  0  0  0  0  0
  -30.4225  -12.3812   19.4499 C   0  0  0  0  0  0
  -29.4935  -12.5089   18.2226 C   0  0  0  0  0  0
  -28.0182  -12.3511   18.6372 C   0  0  0  0  0  0
  -27.6490  -13.2166   19.8705 C   0  0  2  0  0  0
  -28.6921  -13.0592   20.9992 C   0  0  0  0  0  0
  -25.2544  -13.8179   20.5744 C   0  0  0  0  0  0
  -24.1804  -13.0452   20.9232 C   0  0  0  0  0  0
  -24.6372  -11.6915   20.8778 C   0  0  0  0  0  0
  -23.9056  -10.4305   21.0448 C   0  0  0  0  0  0
  -24.3612   -9.4213   21.9219 C   0  0  0  0  0  0
  -23.6293   -8.2238   22.0769 C   0  0  0  0  0  0
  -22.4277   -8.0284   21.3551 C   0  0  0  0  0  0
  -21.9920   -9.0264   20.4653 C   0  0  0  0  0  0
  -22.7246  -10.2149   20.3081 C   0  0  0  0  0  0
  -21.6848   -6.0746   22.5286 C   0  0  0  0  0  0
  -21.4012   -6.5648   23.8218 C   0  0  0  0  0  0
  -21.3661   -5.6806   24.9181 C   0  0  0  0  0  0
  -21.6037   -4.3067   24.7224 C   0  0  0  0  0  0
  -21.8818   -3.8155   23.4351 C   0  0  0  0  0  0
  -21.9194   -4.6971   22.3410 C   0  0  0  0  0  0
  -22.7826  -13.5247   21.1896 C   0  0  0  0  0  0
  -22.1667   -4.2158   21.0980 F   0  0  0  0  0  0
  -21.5635   -3.4550   25.7736 F   0  0  0  0  0  0
  -30.0065  -13.4000   20.4354 N   0  0  0  0  0  0
  -26.2958  -12.9358   20.3381 N   0  0  0  0  0  0
  -25.9291  -11.6518   20.5802 N   0  0  0  0  0  0
  -22.0460  -12.8217   22.0434 N   0  0  0  0  0  0
  -25.4270  -15.1896   20.4127 N   0  0  0  0  0  0
  -31.7919  -14.7559   20.1172 O   0  0  0  0  0  0
  -21.6634   -6.8888   21.4248 O   0  0  0  0  0  0
  -22.3507  -14.5567   20.6760 O   0  0  0  0  0  0
  -24.6223  -31.8600   23.2035 C   0  0  0  0  0  0
  -25.9094  -32.4762   23.8358 C   0  0  1  0  0  0
  -27.2308  -27.3628   20.1077 C   0  0  0  0  0  0
  -25.5923  -33.8565   24.2264 N   0  0  0  0  0  0
  -23.4105  -30.4825   21.5467 C   0  0  2  0  0  0
  -24.8526  -28.9321   20.1106 C   0  0  0  0  0  0
  -22.7429  -29.4638   22.4989 C   0  0  0  0  0  0
  -18.0270  -28.1379   22.8482 C   0  0  0  0  0  0
  -24.1482  -36.7316   23.2643 C   0  0  0  0  0  0
  -25.9442  -30.8010   21.3647 C   0  0  0  0  0  0
  -26.0153  -29.4311   20.7083 C   0  0  0  0  0  0
  -27.2034  -28.6566   20.6957 C   0  0  0  0  0  0
  -26.0487  -26.8931   19.4930 C   0  0  0  0  0  0
  -24.8695  -27.6676   19.4943 C   0  0  0  0  0  0
  -23.6156  -29.8050   20.1638 C   0  0  0  0  0  0
  -25.4108  -36.3079   24.0318 C   0  0  1  0  0  0
  -20.5860  -28.3674   23.1295 C   0  0  2  0  0  0
  -20.6763  -26.9407   22.5408 C   0  0  0  0  0  0
  -19.5750  -26.6380   21.5206 C   0  0  0  0  0  0
  -18.1921  -26.7924   22.1607 C   0  0  0  0  0  0
  -19.1519  -28.8850   23.2873 C   0  0  0  0  0  0
  -18.9450  -30.1459   23.8876 C   0  0  0  0  0  0
  -17.6450  -30.6583   24.0560 C   0  0  0  0  0  0
  -25.9044  -34.9446   23.5091 C   0  0  0  0  0  0
  -16.5340  -29.9070   23.6342 C   0  0  0  0  0  0
  -16.7257  -28.6494   23.0358 C   0  0  0  0  0  0
  -26.4479  -31.6593   25.0750 C   0  0  0  0  0  0
  -25.3728  -31.3749   26.1503 C   0  0  0  0  0  0
  -27.0338  -30.3015   24.6221 C   0  0  0  0  0  0
  -27.6005  -32.4359   25.7545 C   0  0  0  0  0  0
  -27.5569  -37.1809   24.8448 C   0  0  0  0  0  0
  -21.4155  -29.3022   22.3702 N   0  0  0  0  0  0
  -26.4283  -37.3773   23.9393 N   0  0  0  0  0  0
  -24.6774  -31.0658   22.0946 N   0  0  0  0  0  0
  -23.4165  -28.8208   23.3083 O   0  0  0  0  0  0
  -28.4052  -26.6176   20.1582 O   0  0  0  0  0  0
  -26.5620  -34.8910   22.4659 O   0  0  0  0  0  0
  -23.5409  -32.1388   23.7399 O   0  0  0  0  0  0
  -31.2383  -17.5712   21.8455 C   0  0  0  0  0  0
  -31.4243  -18.9728   21.9262 C   0  0  0  0  0  0
  -30.1406  -17.0909   21.0791 C   0  0  0  0  0  0
  -29.5183  -19.3463   20.7434 C   0  0  0  0  0  0
  -32.1795  -16.6348   22.5997 C   0  0  0  0  0  0
  -32.5869  -19.6042   22.6738 C   0  0  0  0  0  0
  -29.7694  -21.9495   18.8671 C   0  0  0  0  0  0
  -27.9832  -24.1713   20.8771 C   0  0  0  0  0  0
  -28.6995  -22.7641   21.0535 C   0  0  0  0  0  0
  -28.4801  -25.2023   19.8023 C   0  0  0  0  0  0
  -28.6528  -21.7044   19.8938 C   0  0  2  0  0  0
  -30.5676  -19.8433   21.3648 N   0  0  0  0  0  0
  -29.2704  -18.0329   20.5835 N   0  0  0  0  0  0
  -29.8669  -15.6627   20.9655 N   0  0  0  0  0  0
  -28.5624  -20.2598   20.2782 N   0  0  0  0  0  0
  -31.4677  -12.4875   19.1518 H   0  0  0  0  0  0
  -30.3369  -11.3840   19.8851 H   0  0  0  0  0  0
  -29.7480  -11.7594   17.4714 H   0  0  0  0  0  0
  -29.6383  -13.4792   17.7466 H   0  0  0  0  0  0
  -27.8501  -11.2978   18.8639 H   0  0  0  0  0  0
  -27.3598  -12.5907   17.7998 H   0  0  0  0  0  0
  -27.6727  -14.2531   19.5359 H   0  0  0  0  0  0
  -28.6983  -12.0324   21.3701 H   0  0  0  0  0  0
  -28.4400  -13.6806   21.8592 H   0  0  0  0  0  0
  -25.2760   -9.5676   22.4795 H   0  0  0  0  0  0
  -24.0014   -7.4612   22.7458 H   0  0  0  0  0  0
  -21.0884   -8.8784   19.8925 H   0  0  0  0  0  0
  -22.3731  -10.9696   19.6191 H   0  0  0  0  0  0
  -21.1998   -7.6150   23.9724 H   0  0  0  0  0  0
  -21.1492   -6.0535   25.9091 H   0  0  0  0  0  0
  -22.0590   -2.7611   23.2842 H   0  0  0  0  0  0
  -22.4084  -11.9861   22.4775 H   0  0  0  0  0  0
  -21.1077  -13.1209   22.2657 H   0  0  0  0  0  0
  -24.6602  -15.8453   20.5180 H   0  0  0  0  0  0
  -26.2701  -15.6253   20.0618 H   0  0  0  0  0  0
  -26.7171  -32.5421   23.1117 H   0  0  0  0  0  0
  -25.0060  -33.9699   25.0405 H   0  0  0  0  0  0
  -22.7021  -31.3010   21.4050 H   0  0  0  0  0  0
  -23.3716  -35.9675   23.3301 H   0  0  0  0  0  0
  -24.3569  -36.8955   22.2057 H   0  0  0  0  0  0
  -23.7259  -37.6527   23.6680 H   0  0  0  0  0  0
  -26.0756  -31.5619   20.5950 H   0  0  0  0  0  0
  -26.8263  -30.8455   21.9924 H   0  0  0  0  0  0
  -28.1015  -29.0409   21.1585 H   0  0  0  0  0  0
  -26.0175  -25.9273   19.0107 H   0  0  0  0  0  0
  -23.9769  -27.2792   19.0227 H   0  0  0  0  0  0
  -23.7145  -30.5749   19.3982 H   0  0  0  0  0  0
  -22.7350  -29.2248   19.8803 H   0  0  0  0  0  0
  -25.1286  -36.1934   25.0810 H   0  0  0  0  0  0
  -20.9943  -28.3253   24.1421 H   0  0  0  0  0  0
  -20.5674  -26.2284   23.3600 H   0  0  0  0  0  0
  -21.6631  -26.7448   22.1202 H   0  0  0  0  0  0
  -19.6913  -25.6294   21.1230 H   0  0  0  0  0  0
  -19.6692  -27.3187   20.6738 H   0  0  0  0  0  0
  -17.4194  -26.6671   21.4002 H   0  0  0  0  0  0
  -18.0320  -26.0062   22.9000 H   0  0  0  0  0  0
  -19.7934  -30.7283   24.2214 H   0  0  0  0  0  0
  -17.5012  -31.6261   24.5172 H   0  0  0  0  0  0
  -15.5347  -30.2966   23.7702 H   0  0  0  0  0  0
  -15.8653  -28.0818   22.7076 H   0  0  0  0  0  0
  -24.5834  -30.7166   25.7864 H   0  0  0  0  0  0
  -24.9014  -32.2935   26.5005 H   0  0  0  0  0  0
  -25.8074  -30.8874   27.0237 H   0  0  0  0  0  0
  -26.2932  -29.6767   24.1212 H   0  0  0  0  0  0
  -27.3989  -29.7277   25.4753 H   0  0  0  0  0  0
  -27.8815  -30.4303   23.9483 H   0  0  0  0  0  0
  -27.2538  -33.3597   26.2187 H   0  0  0  0  0  0
  -28.3795  -32.7026   25.0395 H   0  0  0  0  0  0
  -28.0704  -31.8473   26.5435 H   0  0  0  0  0  0
  -28.2576  -38.0115   24.7491 H   0  0  0  0  0  0
  -28.1071  -36.2639   24.6271 H   0  0  0  0  0  0
  -27.2288  -37.1463   25.8854 H   0  0  0  0  0  0
  -20.9350  -29.8692   21.6859 H   0  0  0  0  0  0
  -26.0161  -38.2852   24.1374 H   0  0  0  0  0  0
  -32.5993  -17.1017   23.4910 H   0  0  0  0  0  0
  -33.0099  -16.3333   21.9607 H   0  0  0  0  0  0
  -31.6612  -15.7416   22.9480 H   0  0  0  0  0  0
  -33.5338  -19.1684   22.3526 H   0  0  0  0  0  0
  -32.4795  -19.4581   23.7489 H   0  0  0  0  0  0
  -32.6430  -20.6774   22.4911 H   0  0  0  0  0  0
  -29.7390  -22.9697   18.4851 H   0  0  0  0  0  0
  -29.6800  -21.2828   18.0099 H   0  0  0  0  0  0
  -30.7553  -21.7989   19.3063 H   0  0  0  0  0  0
  -28.0809  -24.6715   21.8422 H   0  0  0  0  0  0
  -26.9096  -24.0211   20.7555 H   0  0  0  0  0  0
  -28.2473  -22.3069   21.9344 H   0  0  0  0  0  0
  -29.7382  -22.9338   21.3391 H   0  0  0  0  0  0
  -28.0229  -25.0081   18.8321 H   0  0  0  0  0  0
  -29.5426  -25.0184   19.6464 H   0  0  0  0  0  0
  -27.7119  -21.8893   19.3735 H   0  0  0  0  0  0
  -28.9081  -15.4104   21.1345 H   0  0  0  0  0  0
  -27.7345  -19.8000   19.9174 H   0  0  0  0  0  0
  1 25  1  0  0  0
  1 30  2  0  0  0
  1 84  1  0  0  0
  2  3  1  0  0  0
  2 25  1  0  0  0
  2 86  1  0  0  0
  2 87  1  0  0  0
  3  4  1  0  0  0
  3 88  1  0  0  0
  3 89  1  0  0  0
  4  5  1  0  0  0
  4 90  1  0  0  0
  4 91  1  0  0  0
  5  6  1  0  0  0
  5 26  1  0  0  0
  5 92  1  0  0  0
  6 25  1  0  0  0
  6 93  1  0  0  0
  6 94  1  0  0  0
  7  8  2  0  0  0
  7 26  1  0  0  0
  7 29  1  0  0  0
  8  9  1  0  0  0
  8 22  1  0  0  0
  9 10  1  0  0  0
  9 27  2  0  0  0
 10 11  2  0  0  0
 10 15  1  0  0  0
 11 12  1  0  0  0
 11 95  1  0  0  0
 12 13  2  0  0  0
 12 96  1  0  0  0
 13 14  1  0  0  0
 13 31  1  0  0  0
 14 15  2  0  0  0
 14 97  1  0  0  0
 15 98  1  0  0  0
 16 17  2  0  0  0
 16 21  1  0  0  0
 16 31  1  0  0  0
 17 18  1  0  0  0
 17 99  1  0  0  0
 18 19  2  0  0  0
 18100  1  0  0  0
 19 20  1  0  0  0
 19 24  1  0  0  0
 20 21  2  0  0  0
 20101  1  0  0  0
 21 23  1  0  0  0
 22 28  1  0  0  0
 22 32  2  0  0  0
 26 27  1  0  0  0
 28102  1  0  0  0
 28103  1  0  0  0
 29104  1  0  0  0
 29105  1  0  0  0
 33 34  1  0  0  0
 33 66  1  0  0  0
 33 70  2  0  0  0
 34 36  1  0  0  0
 34 59  1  0  0  0
 34106  1  0  0  0
 35 44  2  0  0  0
 35 45  1  0  0  0
 35 68  1  0  0  0
 36 56  1  0  0  0
 36107  1  0  0  0
 37 39  1  0  0  0
 37 47  1  0  0  0
 37 66  1  0  0  0
 37108  1  0  0  0
 38 43  2  0  0  0
 38 46  1  0  0  0
 38 47  1  0  0  0
 39 64  1  0  0  0
 39 67  2  0  0  0
 40 52  1  0  0  0
 40 53  2  0  0  0
 40 58  1  0  0  0
 41109  1  0  0  0
 41110  1  0  0  0
 41111  1  0  0  0
 41 48  1  0  0  0
 42 43  1  0  0  0
 42 66  1  0  0  0
 42112  1  0  0  0
 42113  1  0  0  0
 43 44  1  0  0  0
 44114  1  0  0  0
 45 46  2  0  0  0
 45115  1  0  0  0
 46116  1  0  0  0
 47117  1  0  0  0
 47118  1  0  0  0
 48 56  1  0  0  0
 48 65  1  0  0  0
 48119  1  0  0  0
 49 50  1  0  0  0
 49 53  1  0  0  0
 49 64  1  0  0  0
 49120  1  0  0  0
 50 51  1  0  0  0
 50121  1  0  0  0
 50122  1  0  0  0
 51 52  1  0  0  0
 51123  1  0  0  0
 51124  1  0  0  0
 52125  1  0  0  0
 52126  1  0  0  0
 53 54  1  0  0  0
 54 55  2  0  0  0
 54127  1  0  0  0
 55 57  1  0  0  0
 55128  1  0  0  0
 56 69  2  0  0  0
 57 58  2  0  0  0
 57129  1  0  0  0
 58130  1  0  0  0
 59 60  1  0  0  0
 59 61  1  0  0  0
 59 62  1  0  0  0
 60131  1  0  0  0
 60132  1  0  0  0
 60133  1  0  0  0
 61134  1  0  0  0
 61135  1  0  0  0
 61136  1  0  0  0
 62137  1  0  0  0
 62138  1  0  0  0
 62139  1  0  0  0
 63 65  1  0  0  0
 63140  1  0  0  0
 63141  1  0  0  0
 63142  1  0  0  0
 64143  1  0  0  0
 65144  1  0  0  0
 68 80  1  0  0  0
 71 72  2  0  0  0
 71 73  1  0  0  0
 71 75  1  0  0  0
 72 76  1  0  0  0
 72 82  1  0  0  0
 73 83  2  0  0  0
 73 84  1  0  0  0
 74 82  2  0  0  0
 74 83  1  0  0  0
 74 85  1  0  0  0
 75145  1  0  0  0
 75146  1  0  0  0
 75147  1  0  0  0
 76148  1  0  0  0
 76149  1  0  0  0
 76150  1  0  0  0
 77151  1  0  0  0
 77152  1  0  0  0
 77153  1  0  0  0
 77 81  1  0  0  0
 78 79  1  0  0  0
 78 80  1  0  0  0
 78154  1  0  0  0
 78155  1  0  0  0
 79 81  1  0  0  0
 79156  1  0  0  0
 79157  1  0  0  0
 80158  1  0  0  0
 80159  1  0  0  0
 81 85  1  0  0  0
 81160  1  0  0  0
 84161  1  0  0  0
 85162  1  0  0  0
M  ISO  4   1 100  68 101  80 101  84 100
M  END
> <chiral flag>
0

> <version>
0

> <s_m_source_file>
/data/baiqing/PycharmProjects/Reinvent-master-3.2/result/LINK_invent/BTK/process_docking_weight1_custom_product_contain_oxygen_bond_distance_aromatic_linkinvent_7_9_3/rearranged_h_0192.sdf

> <i_m_source_file_index>
92

> <r_mmod_Potential_Energy-OPLS-2005>
-452.554412841797

> <r_mmod_Stretch_Energy-OPLS-2005>
63.4656944274902

> <r_mmod_Bend_Energy-OPLS-2005>
164.184692382812

> <r_mmod_Torsional_Energy-OPLS-2005>
222.47705078125

> <r_mmod_Improper_Torsional_Energy-OPLS-2005>
5.32529544830322

> <r_mmod_Van_der_Waal_Energy-OPLS-2005>
148.272689819336

> <r_mmod_Electrostatic_Energy-OPLS-2005>
-857.701171875

> <r_mmod_Solvation_Energy-OPLS-2005>
-232.154678344727

> <b_mmod_Minimization_Converged-OPLS-2005>
0

> <r_mmod_RMS_Derivative-OPLS-2005>
2.52511644363403

$$$$
93
                    3D
 Structure written by MMmdl.
168176  0  0  1  0            999 V2000
  -30.5846  -14.7714   20.4403 C   0  0  0  0  0  0
  -30.4318  -12.4656   19.4896 C   0  0  0  0  0  0
  -29.5159  -12.5188   18.2456 C   0  0  0  0  0  0
  -28.0402  -12.3421   18.6505 C   0  0  0  0  0  0
  -27.6420  -13.2358   19.8556 C   0  0  2  0  0  0
  -28.6820  -13.1684   20.9957 C   0  0  0  0  0  0
  -25.2505  -13.8206   20.5701 C   0  0  0  0  0  0
  -24.1799  -13.0442   20.9204 C   0  0  0  0  0  0
  -24.6402  -11.6925   20.8740 C   0  0  0  0  0  0
  -23.9085  -10.4297   21.0404 C   0  0  0  0  0  0
  -24.3632   -9.4214   21.9183 C   0  0  0  0  0  0
  -23.6306   -8.2250   22.0754 C   0  0  0  0  0  0
  -22.4284   -8.0288   21.3546 C   0  0  0  0  0  0
  -21.9921   -9.0263   20.4646 C   0  0  0  0  0  0
  -22.7254  -10.2142   20.3058 C   0  0  0  0  0  0
  -21.6856   -6.0740   22.5280 C   0  0  0  0  0  0
  -21.4017   -6.5641   23.8213 C   0  0  0  0  0  0
  -21.3663   -5.6792   24.9174 C   0  0  0  0  0  0
  -21.6049   -4.3055   24.7223 C   0  0  0  0  0  0
  -21.8819   -3.8150   23.4341 C   0  0  0  0  0  0
  -21.9197   -4.6970   22.3401 C   0  0  0  0  0  0
  -22.7818  -13.5218   21.1870 C   0  0  0  0  0  0
  -22.1661   -4.2158   21.0977 F   0  0  0  0  0  0
  -21.5632   -3.4535   25.7733 F   0  0  0  0  0  0
  -29.9851  -13.5283   20.4240 N   0  0  0  0  0  0
  -26.2935  -12.9421   20.3290 N   0  0  0  0  0  0
  -25.9334  -11.6559   20.5744 N   0  0  0  0  0  0
  -22.0468  -12.8202   22.0424 N   0  0  0  0  0  0
  -25.4189  -15.1934   20.4139 N   0  0  0  0  0  0
  -31.7614  -14.8740   20.0788 O   0  0  0  0  0  0
  -21.6646   -6.8887   21.4244 O   0  0  0  0  0  0
  -22.3503  -14.5529   20.6729 O   0  0  0  0  0  0
  -24.6316  -31.8509   23.1925 C   0  0  0  0  0  0
  -25.9136  -32.4725   23.8284 C   0  0  1  0  0  0
  -27.2317  -27.2467   20.1334 C   0  0  0  0  0  0
  -25.5922  -33.8529   24.2215 N   0  0  0  0  0  0
  -23.4292  -30.4688   21.5351 C   0  0  2  0  0  0
  -24.8775  -28.9041   20.1057 C   0  0  0  0  0  0
  -22.7497  -29.4580   22.4900 C   0  0  0  0  0  0
  -18.0290  -28.1392   22.8482 C   0  0  0  0  0  0
  -24.1490  -36.7274   23.2643 C   0  0  0  0  0  0
  -25.9722  -30.7601   21.3709 C   0  0  0  0  0  0
  -26.0440  -29.3795   20.7149 C   0  0  0  0  0  0
  -27.2170  -28.5613   20.7159 C   0  0  0  0  0  0
  -26.0393  -26.8271   19.5086 C   0  0  0  0  0  0
  -24.8810  -27.6381   19.4917 C   0  0  0  0  0  0
  -23.6465  -29.7914   20.1535 C   0  0  0  0  0  0
  -25.4119  -36.3054   24.0320 C   0  0  1  0  0  0
  -20.5890  -28.3702   23.1271 C   0  0  2  0  0  0
  -20.6779  -26.9419   22.5416 C   0  0  0  0  0  0
  -19.5758  -26.6385   21.5216 C   0  0  0  0  0  0
  -18.1935  -26.7934   22.1619 C   0  0  0  0  0  0
  -19.1541  -28.8865   23.2869 C   0  0  0  0  0  0
  -18.9464  -30.1466   23.8889 C   0  0  0  0  0  0
  -17.6463  -30.6591   24.0565 C   0  0  0  0  0  0
  -25.9059  -34.9426   23.5077 C   0  0  0  0  0  0
  -16.5354  -29.9088   23.6335 C   0  0  0  0  0  0
  -16.7276  -28.6507   23.0352 C   0  0  0  0  0  0
  -26.4501  -31.6570   25.0693 C   0  0  0  0  0  0
  -25.3719  -31.3726   26.1410 C   0  0  0  0  0  0
  -27.0359  -30.2988   24.6199 C   0  0  0  0  0  0
  -27.6044  -32.4322   25.7475 C   0  0  0  0  0  0
  -27.5577  -37.1791   24.8463 C   0  0  0  0  0  0
  -21.4203  -29.3036   22.3647 N   0  0  0  0  0  0
  -26.4290  -37.3759   23.9406 N   0  0  0  0  0  0
  -24.6968  -31.0461   22.0896 N   0  0  0  0  0  0
  -23.4190  -28.8149   23.3026 O   0  0  0  0  0  0
  -28.3667  -26.4098   20.2526 O   0  0  0  0  0  0
  -26.5647  -34.8913   22.4657 O   0  0  0  0  0  0
  -23.5466  -32.1337   23.7221 O   0  0  0  0  0  0
  -30.2977  -17.3272   18.7680 C   0  0  0  0  0  0
  -29.6736  -19.5674   18.5323 C   0  0  0  0  0  0
  -29.8430  -17.2609   20.1067 C   0  0  0  0  0  0
  -29.2916  -19.6524   19.9083 C   0  0  0  0  0  0
  -27.6317  -21.3621   15.7191 C   0  0  0  0  0  0
  -30.6267  -21.0413   16.6834 C   0  0  0  0  0  0
  -30.6170  -22.5150   19.8632 C   0  0  0  0  0  0
  -28.5572  -25.0958   18.1410 C   0  0  0  0  0  0
  -28.2054  -20.2150   16.5651 C   0  0  0  0  0  0
  -28.1757  -23.5717   20.2490 C   0  0  0  0  0  0
  -29.3681  -20.6457   17.4850 C   0  0  1  0  0  0
  -29.2198  -22.3158   20.4821 C   0  0  1  0  0  0
  -28.6394  -25.0385   19.6761 C   0  0  2  0  0  0
  -30.1960  -18.4335   17.9992 N   0  0  0  0  0  0
  -29.3493  -18.4623   20.6537 N   0  0  0  0  0  0
  -29.8173  -15.9011   20.7251 N   0  0  0  0  0  0
  -28.7217  -20.8616   20.4933 N   0  0  0  0  0  0
  -31.4750  -12.5857   19.1927 H   0  0  0  0  0  0
  -30.3732  -11.4874   19.9690 H   0  0  0  0  0  0
  -29.8023  -11.7463   17.5309 H   0  0  0  0  0  0
  -29.6464  -13.4733   17.7330 H   0  0  0  0  0  0
  -27.8919  -11.2915   18.9027 H   0  0  0  0  0  0
  -27.3886  -12.5438   17.7996 H   0  0  0  0  0  0
  -27.6366  -14.2593   19.4807 H   0  0  0  0  0  0
  -28.7188  -12.1675   21.4293 H   0  0  0  0  0  0
  -28.4096  -13.8418   21.8095 H   0  0  0  0  0  0
  -25.2777   -9.5687   22.4755 H   0  0  0  0  0  0
  -24.0015   -7.4640   22.7467 H   0  0  0  0  0  0
  -21.0856   -8.8789   19.8942 H   0  0  0  0  0  0
  -22.3720  -10.9685   19.6167 H   0  0  0  0  0  0
  -21.2005   -7.6148   23.9719 H   0  0  0  0  0  0
  -21.1483   -6.0520   25.9079 H   0  0  0  0  0  0
  -22.0596   -2.7613   23.2839 H   0  0  0  0  0  0
  -22.4088  -11.9863   22.4808 H   0  0  0  0  0  0
  -21.1088  -13.1225   22.2635 H   0  0  0  0  0  0
  -24.6488  -15.8436   20.5276 H   0  0  0  0  0  0
  -26.2647  -15.6388   20.0825 H   0  0  0  0  0  0
  -26.7201  -32.5369   23.1020 H   0  0  0  0  0  0
  -25.0055  -33.9655   25.0350 H   0  0  0  0  0  0
  -22.7268  -31.2912   21.3836 H   0  0  0  0  0  0
  -23.3754  -35.9603   23.3295 H   0  0  0  0  0  0
  -24.3577  -36.8913   22.2060 H   0  0  0  0  0  0
  -23.7241  -37.6468   23.6681 H   0  0  0  0  0  0
  -26.1101  -31.5188   20.5993 H   0  0  0  0  0  0
  -26.8497  -30.8116   22.0043 H   0  0  0  0  0  0
  -28.1100  -28.9192   21.2089 H   0  0  0  0  0  0
  -25.9743  -25.8429   19.0716 H   0  0  0  0  0  0
  -23.9829  -27.2634   19.0209 H   0  0  0  0  0  0
  -23.7662  -30.5620   19.3910 H   0  0  0  0  0  0
  -22.7655  -29.2197   19.8561 H   0  0  0  0  0  0
  -25.1307  -36.1891   25.0813 H   0  0  0  0  0  0
  -20.9982  -28.3291   24.1389 H   0  0  0  0  0  0
  -20.5680  -26.2314   23.3622 H   0  0  0  0  0  0
  -21.6649  -26.7443   22.1212 H   0  0  0  0  0  0
  -19.6924  -25.6291   21.1256 H   0  0  0  0  0  0
  -19.6704  -27.3188   20.6740 H   0  0  0  0  0  0
  -17.4209  -26.6681   21.4018 H   0  0  0  0  0  0
  -18.0332  -26.0077   22.9016 H   0  0  0  0  0  0
  -19.7940  -30.7284   24.2250 H   0  0  0  0  0  0
  -17.5018  -31.6270   24.5169 H   0  0  0  0  0  0
  -15.5355  -30.2990   23.7663 H   0  0  0  0  0  0
  -15.8677  -28.0828   22.7070 H   0  0  0  0  0  0
  -24.5896  -30.7075   25.7735 H   0  0  0  0  0  0
  -24.8908  -32.2897   26.4822 H   0  0  0  0  0  0
  -25.8031  -30.8910   27.0197 H   0  0  0  0  0  0
  -26.2950  -29.6719   24.1225 H   0  0  0  0  0  0
  -27.4039  -29.7271   25.4730 H   0  0  0  0  0  0
  -27.8823  -30.4259   23.9443 H   0  0  0  0  0  0
  -27.2644  -33.3628   26.2033 H   0  0  0  0  0  0
  -28.3870  -32.6875   25.0317 H   0  0  0  0  0  0
  -28.0699  -31.8462   26.5412 H   0  0  0  0  0  0
  -28.2590  -38.0094   24.7514 H   0  0  0  0  0  0
  -28.1078  -36.2624   24.6284 H   0  0  0  0  0  0
  -27.2294  -37.1434   25.8867 H   0  0  0  0  0  0
  -20.9396  -29.8723   21.6815 H   0  0  0  0  0  0
  -26.0162  -38.2829   24.1409 H   0  0  0  0  0  0
  -30.6704  -16.4539   18.2539 H   0  0  0  0  0  0
  -26.7667  -21.0270   15.1470 H   0  0  0  0  0  0
  -28.3630  -21.7442   15.0073 H   0  0  0  0  0  0
  -27.3087  -22.1931   16.3475 H   0  0  0  0  0  0
  -31.4544  -21.3040   17.3409 H   0  0  0  0  0  0
  -30.4386  -21.8992   16.0386 H   0  0  0  0  0  0
  -30.9685  -20.2217   16.0509 H   0  0  0  0  0  0
  -31.1453  -23.3210   20.3735 H   0  0  0  0  0  0
  -30.5769  -22.8045   18.8168 H   0  0  0  0  0  0
  -31.2484  -21.6319   19.9603 H   0  0  0  0  0  0
  -29.0653  -24.2433   17.6903 H   0  0  0  0  0  0
  -29.0334  -25.9984   17.7572 H   0  0  0  0  0  0
  -27.5320  -25.0772   17.7763 H   0  0  0  0  0  0
  -28.5153  -19.3912   15.9209 H   0  0  0  0  0  0
  -27.3968  -19.8249   17.1850 H   0  0  0  0  0  0
  -27.6732  -23.7473   21.2007 H   0  0  0  0  0  0
  -27.3773  -23.2156   19.5969 H   0  0  0  0  0  0
  -29.0042  -21.5297   17.9970 H   0  0  0  0  0  0
  -29.4504  -22.4250   21.5435 H   0  0  0  0  0  0
  -29.7096  -25.0268   19.8742 H   0  0  0  0  0  0
  -28.9833  -15.7088   21.2573 H   0  0  0  0  0  0
  -28.2472  -20.6480   21.3659 H   0  0  0  0  0  0
  1 25  1  0  0  0
  1 30  2  0  0  0
  1 86  1  0  0  0
  2  3  1  0  0  0
  2 25  1  0  0  0
  2 88  1  0  0  0
  2 89  1  0  0  0
  3  4  1  0  0  0
  3 90  1  0  0  0
  3 91  1  0  0  0
  4  5  1  0  0  0
  4 92  1  0  0  0
  4 93  1  0  0  0
  5  6  1  0  0  0
  5 26  1  0  0  0
  5 94  1  0  0  0
  6 25  1  0  0  0
  6 95  1  0  0  0
  6 96  1  0  0  0
  7  8  2  0  0  0
  7 26  1  0  0  0
  7 29  1  0  0  0
  8  9  1  0  0  0
  8 22  1  0  0  0
  9 10  1  0  0  0
  9 27  2  0  0  0
 10 11  2  0  0  0
 10 15  1  0  0  0
 11 12  1  0  0  0
 11 97  1  0  0  0
 12 13  2  0  0  0
 12 98  1  0  0  0
 13 14  1  0  0  0
 13 31  1  0  0  0
 14 15  2  0  0  0
 14 99  1  0  0  0
 15100  1  0  0  0
 16 17  2  0  0  0
 16 21  1  0  0  0
 16 31  1  0  0  0
 17 18  1  0  0  0
 17101  1  0  0  0
 18 19  2  0  0  0
 18102  1  0  0  0
 19 20  1  0  0  0
 19 24  1  0  0  0
 20 21  2  0  0  0
 20103  1  0  0  0
 21 23  1  0  0  0
 22 28  1  0  0  0
 22 32  2  0  0  0
 26 27  1  0  0  0
 28104  1  0  0  0
 28105  1  0  0  0
 29106  1  0  0  0
 29107  1  0  0  0
 33 34  1  0  0  0
 33 66  1  0  0  0
 33 70  2  0  0  0
 34 36  1  0  0  0
 34 59  1  0  0  0
 34108  1  0  0  0
 35 44  2  0  0  0
 35 45  1  0  0  0
 35 68  1  0  0  0
 36 56  1  0  0  0
 36109  1  0  0  0
 37 39  1  0  0  0
 37 47  1  0  0  0
 37 66  1  0  0  0
 37110  1  0  0  0
 38 43  2  0  0  0
 38 46  1  0  0  0
 38 47  1  0  0  0
 39 64  1  0  0  0
 39 67  2  0  0  0
 40 52  1  0  0  0
 40 53  2  0  0  0
 40 58  1  0  0  0
 41111  1  0  0  0
 41112  1  0  0  0
 41113  1  0  0  0
 41 48  1  0  0  0
 42 43  1  0  0  0
 42 66  1  0  0  0
 42114  1  0  0  0
 42115  1  0  0  0
 43 44  1  0  0  0
 44116  1  0  0  0
 45 46  2  0  0  0
 45117  1  0  0  0
 46118  1  0  0  0
 47119  1  0  0  0
 47120  1  0  0  0
 48 56  1  0  0  0
 48 65  1  0  0  0
 48121  1  0  0  0
 49 50  1  0  0  0
 49 53  1  0  0  0
 49 64  1  0  0  0
 49122  1  0  0  0
 50 51  1  0  0  0
 50123  1  0  0  0
 50124  1  0  0  0
 51 52  1  0  0  0
 51125  1  0  0  0
 51126  1  0  0  0
 52127  1  0  0  0
 52128  1  0  0  0
 53 54  1  0  0  0
 54 55  2  0  0  0
 54129  1  0  0  0
 55 57  1  0  0  0
 55130  1  0  0  0
 56 69  2  0  0  0
 57 58  2  0  0  0
 57131  1  0  0  0
 58132  1  0  0  0
 59 60  1  0  0  0
 59 61  1  0  0  0
 59 62  1  0  0  0
 60133  1  0  0  0
 60134  1  0  0  0
 60135  1  0  0  0
 61136  1  0  0  0
 61137  1  0  0  0
 61138  1  0  0  0
 62139  1  0  0  0
 62140  1  0  0  0
 62141  1  0  0  0
 63 65  1  0  0  0
 63142  1  0  0  0
 63143  1  0  0  0
 63144  1  0  0  0
 64145  1  0  0  0
 65146  1  0  0  0
 68 83  1  0  0  0
 71 73  2  0  0  0
 71 84  1  0  0  0
 71147  1  0  0  0
 72 74  1  0  0  0
 72 81  1  0  0  0
 72 84  2  0  0  0
 73 85  1  0  0  0
 73 86  1  0  0  0
 74 85  2  0  0  0
 74 87  1  0  0  0
 75 79  1  0  0  0
 75148  1  0  0  0
 75149  1  0  0  0
 75150  1  0  0  0
 76151  1  0  0  0
 76152  1  0  0  0
 76153  1  0  0  0
 76 81  1  0  0  0
 77154  1  0  0  0
 77155  1  0  0  0
 77156  1  0  0  0
 77 82  1  0  0  0
 78157  1  0  0  0
 78158  1  0  0  0
 78159  1  0  0  0
 78 83  1  0  0  0
 79 81  1  0  0  0
 79160  1  0  0  0
 79161  1  0  0  0
 80 82  1  0  0  0
 80 83  1  0  0  0
 80162  1  0  0  0
 80163  1  0  0  0
 81164  1  0  0  0
 82 87  1  0  0  0
 82165  1  0  0  0
 83166  1  0  0  0
 86167  1  0  0  0
 87168  1  0  0  0
M  ISO  4   1 100  68 101  83 101  86 100
M  END
> <chiral flag>
0

> <version>
0

> <s_m_source_file>
/data/baiqing/PycharmProjects/Reinvent-master-3.2/result/LINK_invent/BTK/process_docking_weight1_custom_product_contain_oxygen_bond_distance_aromatic_linkinvent_7_9_3/rearranged_h_0192.sdf

> <i_m_source_file_index>
93

> <r_mmod_Potential_Energy-OPLS-2005>
328.174591064453

> <r_mmod_Stretch_Energy-OPLS-2005>
153.889251708984

> <r_mmod_Bend_Energy-OPLS-2005>
258.453765869141

> <r_mmod_Torsional_Energy-OPLS-2005>
249.939117431641

> <r_mmod_Improper_Torsional_Energy-OPLS-2005>
8.3598051071167

> <r_mmod_Van_der_Waal_Energy-OPLS-2005>
136.938751220703

> <r_mmod_Electrostatic_Energy-OPLS-2005>
-356.391540527344

> <r_mmod_Solvation_Energy-OPLS-2005>
-216.16423034668

> <b_mmod_Minimization_Converged-OPLS-2005>
0

> <r_mmod_RMS_Derivative-OPLS-2005>
0.743966698646545

$$$$
94
                    3D
 Structure written by MMmdl.
161169  0  0  1  0            999 V2000
  -30.6102  -14.6078   20.5466 C   0  0  0  0  0  0
  -30.4486  -12.3852   19.4492 C   0  0  0  0  0  0
  -29.5140  -12.5286   18.2279 C   0  0  0  0  0  0
  -28.0336  -12.3576   18.6319 C   0  0  0  0  0  0
  -27.6596  -13.2028   19.8777 C   0  0  2  0  0  0
  -28.7012  -13.0126   21.0007 C   0  0  0  0  0  0
  -25.2581  -13.8095   20.5649 C   0  0  0  0  0  0
  -24.1813  -13.0412   20.9144 C   0  0  0  0  0  0
  -24.6368  -11.6884   20.8720 C   0  0  0  0  0  0
  -23.9014  -10.4272   21.0389 C   0  0  0  0  0  0
  -24.3582   -9.4212   21.9180 C   0  0  0  0  0  0
  -23.6271   -8.2254   22.0775 C   0  0  0  0  0  0
  -22.4254   -8.0264   21.3547 C   0  0  0  0  0  0
  -21.9865   -9.0224   20.4653 C   0  0  0  0  0  0
  -22.7183  -10.2113   20.3058 C   0  0  0  0  0  0
  -21.6845   -6.0721   22.5263 C   0  0  0  0  0  0
  -21.4006   -6.5626   23.8192 C   0  0  0  0  0  0
  -21.3658   -5.6786   24.9158 C   0  0  0  0  0  0
  -21.6054   -4.3051   24.7208 C   0  0  0  0  0  0
  -21.8819   -3.8136   23.4325 C   0  0  0  0  0  0
  -21.9185   -4.6952   22.3385 C   0  0  0  0  0  0
  -22.7842  -13.5242   21.1793 C   0  0  0  0  0  0
  -22.1656   -4.2149   21.0959 F   0  0  0  0  0  0
  -21.5635   -3.4535   25.7723 F   0  0  0  0  0  0
  -30.0167  -13.3767   20.4499 N   0  0  0  0  0  0
  -26.3005  -12.9276   20.3345 N   0  0  0  0  0  0
  -25.9299  -11.6452   20.5765 N   0  0  0  0  0  0
  -22.0473  -12.8249   22.0364 N   0  0  0  0  0  0
  -25.4273  -15.1817   20.4009 N   0  0  0  0  0  0
  -31.7617  -14.7981   20.1394 O   0  0  0  0  0  0
  -21.6628   -6.8861   21.4233 O   0  0  0  0  0  0
  -22.3553  -14.5560   20.6652 O   0  0  0  0  0  0
  -24.6205  -31.8633   23.2061 C   0  0  0  0  0  0
  -25.9068  -32.4810   23.8369 C   0  0  1  0  0  0
  -27.2323  -27.3572   20.1157 C   0  0  0  0  0  0
  -25.5893  -33.8622   24.2289 N   0  0  0  0  0  0
  -23.4127  -30.4796   21.5502 C   0  0  2  0  0  0
  -24.8652  -28.9359   20.1224 C   0  0  0  0  0  0
  -22.7474  -29.4572   22.5004 C   0  0  0  0  0  0
  -18.0279  -28.1312   22.8461 C   0  0  0  0  0  0
  -24.1478  -36.7324   23.2643 C   0  0  0  0  0  0
  -25.9507  -30.8030   21.3726 C   0  0  0  0  0  0
  -26.0297  -29.4309   20.7232 C   0  0  0  0  0  0
  -27.2230  -28.6520   20.7078 C   0  0  0  0  0  0
  -26.0493  -26.8933   19.5121 C   0  0  0  0  0  0
  -24.8736  -27.6713   19.5077 C   0  0  0  0  0  0
  -23.6279  -29.8119   20.1672 C   0  0  0  0  0  0
  -25.4110  -36.3124   24.0344 C   0  0  1  0  0  0
  -20.5879  -28.3587   23.1326 C   0  0  2  0  0  0
  -20.6756  -26.9314   22.5431 C   0  0  0  0  0  0
  -19.5739  -26.6314   21.5217 C   0  0  0  0  0  0
  -18.1915  -26.7845   22.1610 C   0  0  0  0  0  0
  -19.1539  -28.8772   23.2878 C   0  0  0  0  0  0
  -18.9453  -30.1363   23.8881 C   0  0  0  0  0  0
  -17.6446  -30.6510   24.0515 C   0  0  0  0  0  0
  -25.9056  -34.9478   23.5131 C   0  0  0  0  0  0
  -16.5337  -29.8998   23.6300 C   0  0  0  0  0  0
  -16.7265  -28.6427   23.0324 C   0  0  0  0  0  0
  -26.4448  -31.6615   25.0728 C   0  0  0  0  0  0
  -25.3652  -31.3715   26.1438 C   0  0  0  0  0  0
  -27.0282  -30.3052   24.6115 C   0  0  0  0  0  0
  -27.6026  -32.4341   25.7477 C   0  0  0  0  0  0
  -27.5598  -37.1813   24.8455 C   0  0  0  0  0  0
  -21.4200  -29.2974   22.3770 N   0  0  0  0  0  0
  -26.4305  -37.3807   23.9416 N   0  0  0  0  0  0
  -24.6797  -31.0652   22.0998 N   0  0  0  0  0  0
  -23.4252  -28.8102   23.3053 O   0  0  0  0  0  0
  -28.3650  -26.5563   20.0242 O   0  0  0  0  0  0
  -26.5614  -34.8945   22.4684 O   0  0  0  0  0  0
  -23.5385  -32.1432   23.7407 O   0  0  0  0  0  0
  -28.8132  -17.9011   20.6545 C   0  0  0  0  0  0
  -29.8835  -17.0579   20.8494 C   0  0  0  0  0  0
  -28.6000  -22.9108   18.4972 C   0  0  0  0  0  0
  -30.0677  -25.7132   21.4639 C   0  0  0  0  0  0
  -27.4206  -20.6182   21.5076 C   0  0  0  0  0  0
  -28.2168  -24.0128   20.8167 C   0  0  0  0  0  0
  -29.1241  -23.0496   19.9417 C   0  0  1  0  0  0
  -28.5994  -25.5439   21.0476 C   0  0  2  0  0  0
  -28.5952  -20.5086   20.5032 C   0  0  2  0  0  0
  -31.0148  -17.8603   21.0104 N   0  0  0  0  0  0
  -30.6743  -19.1246   20.9191 N   0  0  0  0  0  0
  -29.3280  -19.2038   20.6978 N   0  0  0  0  0  0
  -29.7791  -15.6164   20.9447 N   0  0  0  0  0  0
  -29.5066  -21.7094   20.5648 N   0  3  0  0  0  0
  -31.4877  -12.5295   19.1484 H   0  0  0  0  0  0
  -30.3943  -11.3807   19.8704 H   0  0  0  0  0  0
  -29.7835  -11.8011   17.4618 H   0  0  0  0  0  0
  -29.6454  -13.5141   17.7769 H   0  0  0  0  0  0
  -27.8661  -11.2985   18.8344 H   0  0  0  0  0  0
  -27.3838  -12.6142   17.7942 H   0  0  0  0  0  0
  -27.6908  -14.2458   19.5668 H   0  0  0  0  0  0
  -28.7147  -11.9711   21.3310 H   0  0  0  0  0  0
  -28.4483  -13.5976   21.8860 H   0  0  0  0  0  0
  -25.2730   -9.5703   22.4744 H   0  0  0  0  0  0
  -23.9971   -7.4658   22.7525 H   0  0  0  0  0  0
  -21.0793   -8.8727   19.8970 H   0  0  0  0  0  0
  -22.3624  -10.9648   19.6166 H   0  0  0  0  0  0
  -21.1998   -7.6142   23.9690 H   0  0  0  0  0  0
  -21.1488   -6.0520   25.9054 H   0  0  0  0  0  0
  -22.0606   -2.7597   23.2821 H   0  0  0  0  0  0
  -22.4080  -11.9914   22.4731 H   0  0  0  0  0  0
  -21.1124  -13.1337   22.2629 H   0  0  0  0  0  0
  -24.6367  -15.8157   20.4501 H   0  0  0  0  0  0
  -26.2481  -15.5985   19.9823 H   0  0  0  0  0  0
  -26.7152  -32.5503   23.1160 H   0  0  0  0  0  0
  -24.9992  -33.9763   25.0381 H   0  0  0  0  0  0
  -22.6967  -31.2914   21.4063 H   0  0  0  0  0  0
  -23.3777  -35.9619   23.3287 H   0  0  0  0  0  0
  -24.3573  -36.8962   22.2056 H   0  0  0  0  0  0
  -23.7195  -37.6506   23.6684 H   0  0  0  0  0  0
  -26.0610  -31.5613   20.5969 H   0  0  0  0  0  0
  -26.8386  -30.8649   21.9915 H   0  0  0  0  0  0
  -28.1308  -29.0329   21.1531 H   0  0  0  0  0  0
  -26.0337  -25.9242   19.0363 H   0  0  0  0  0  0
  -23.9821  -27.2851   19.0342 H   0  0  0  0  0  0
  -23.7459  -30.5866   19.4099 H   0  0  0  0  0  0
  -22.7455  -29.2393   19.8671 H   0  0  0  0  0  0
  -25.1258  -36.2037   25.0840 H   0  0  0  0  0  0
  -20.9861  -28.3129   24.1480 H   0  0  0  0  0  0
  -20.5624  -26.2157   23.3599 H   0  0  0  0  0  0
  -21.6630  -26.7323   22.1231 H   0  0  0  0  0  0
  -19.6859  -25.6229   21.1219 H   0  0  0  0  0  0
  -19.6685  -27.3136   20.6760 H   0  0  0  0  0  0
  -17.4162  -26.6633   21.4009 H   0  0  0  0  0  0
  -18.0280  -25.9937   22.8953 H   0  0  0  0  0  0
  -19.7931  -30.7199   24.2241 H   0  0  0  0  0  0
  -17.4997  -31.6202   24.5088 H   0  0  0  0  0  0
  -15.5340  -30.2888   23.7616 H   0  0  0  0  0  0
  -15.8684  -28.0755   22.7004 H   0  0  0  0  0  0
  -24.5896  -30.7001   25.7761 H   0  0  0  0  0  0
  -24.8736  -32.2817   26.4857 H   0  0  0  0  0  0
  -25.7927  -30.8916   27.0242 H   0  0  0  0  0  0
  -26.2830  -29.6846   24.1139 H   0  0  0  0  0  0
  -27.3997  -29.7283   25.4596 H   0  0  0  0  0  0
  -27.8680  -30.4372   23.9303 H   0  0  0  0  0  0
  -27.2696  -33.3704   26.1989 H   0  0  0  0  0  0
  -28.3860  -32.6819   25.0290 H   0  0  0  0  0  0
  -28.0664  -31.8486   26.5431 H   0  0  0  0  0  0
  -28.2584  -38.0143   24.7552 H   0  0  0  0  0  0
  -28.1122  -36.2670   24.6221 H   0  0  0  0  0  0
  -27.2293  -37.1393   25.8847 H   0  0  0  0  0  0
  -20.9375  -29.8772   21.7040 H   0  0  0  0  0  0
  -26.0216  -38.2882   24.1451 H   0  0  0  0  0  0
  -27.7636  -17.6975   20.4930 H   0  0  0  0  0  0
  -28.5362  -23.8882   18.0225 H   0  0  0  0  0  0
  -27.6075  -22.4628   18.4507 H   0  0  0  0  0  0
  -29.2633  -22.3087   17.8746 H   0  0  0  0  0  0
  -30.3634  -24.9828   22.2176 H   0  0  0  0  0  0
  -30.2409  -26.7083   21.8755 H   0  0  0  0  0  0
  -30.7337  -25.5928   20.6099 H   0  0  0  0  0  0
  -26.7086  -19.8090   21.3615 H   0  0  0  0  0  0
  -26.8554  -21.5413   21.3861 H   0  0  0  0  0  0
  -27.7576  -20.5619   22.5432 H   0  0  0  0  0  0
  -28.1943  -23.5758   21.8161 H   0  0  0  0  0  0
  -27.1769  -23.9448   20.4949 H   0  0  0  0  0  0
  -30.0867  -23.5505   19.8422 H   0  0  0  0  0  0
  -28.0123  -25.8497   21.9144 H   0  0  0  0  0  0
  -28.1758  -20.4589   19.4955 H   0  0  0  0  0  0
  -28.8658  -15.2826   21.2094 H   0  0  0  0  0  0
  -29.8118  -21.8527   21.5118 H   0  0  0  0  0  0
  -30.3334  -21.4130   20.0684 H   0  0  0  0  0  0
  1 25  1  0  0  0
  1 30  2  0  0  0
  1 83  1  0  0  0
  2  3  1  0  0  0
  2 25  1  0  0  0
  2 85  1  0  0  0
  2 86  1  0  0  0
  3  4  1  0  0  0
  3 87  1  0  0  0
  3 88  1  0  0  0
  4  5  1  0  0  0
  4 89  1  0  0  0
  4 90  1  0  0  0
  5  6  1  0  0  0
  5 26  1  0  0  0
  5 91  1  0  0  0
  6 25  1  0  0  0
  6 92  1  0  0  0
  6 93  1  0  0  0
  7  8  2  0  0  0
  7 26  1  0  0  0
  7 29  1  0  0  0
  8  9  1  0  0  0
  8 22  1  0  0  0
  9 10  1  0  0  0
  9 27  2  0  0  0
 10 11  2  0  0  0
 10 15  1  0  0  0
 11 12  1  0  0  0
 11 94  1  0  0  0
 12 13  2  0  0  0
 12 95  1  0  0  0
 13 14  1  0  0  0
 13 31  1  0  0  0
 14 15  2  0  0  0
 14 96  1  0  0  0
 15 97  1  0  0  0
 16 17  2  0  0  0
 16 21  1  0  0  0
 16 31  1  0  0  0
 17 18  1  0  0  0
 17 98  1  0  0  0
 18 19  2  0  0  0
 18 99  1  0  0  0
 19 20  1  0  0  0
 19 24  1  0  0  0
 20 21  2  0  0  0
 20100  1  0  0  0
 21 23  1  0  0  0
 22 28  1  0  0  0
 22 32  2  0  0  0
 26 27  1  0  0  0
 28101  1  0  0  0
 28102  1  0  0  0
 29103  1  0  0  0
 29104  1  0  0  0
 33 34  1  0  0  0
 33 66  1  0  0  0
 33 70  2  0  0  0
 34 36  1  0  0  0
 34 59  1  0  0  0
 34105  1  0  0  0
 35 44  2  0  0  0
 35 45  1  0  0  0
 35 68  1  0  0  0
 36 56  1  0  0  0
 36106  1  0  0  0
 37 39  1  0  0  0
 37 47  1  0  0  0
 37 66  1  0  0  0
 37107  1  0  0  0
 38 43  2  0  0  0
 38 46  1  0  0  0
 38 47  1  0  0  0
 39 64  1  0  0  0
 39 67  2  0  0  0
 40 52  1  0  0  0
 40 53  2  0  0  0
 40 58  1  0  0  0
 41108  1  0  0  0
 41109  1  0  0  0
 41110  1  0  0  0
 41 48  1  0  0  0
 42 43  1  0  0  0
 42 66  1  0  0  0
 42111  1  0  0  0
 42112  1  0  0  0
 43 44  1  0  0  0
 44113  1  0  0  0
 45 46  2  0  0  0
 45114  1  0  0  0
 46115  1  0  0  0
 47116  1  0  0  0
 47117  1  0  0  0
 48 56  1  0  0  0
 48 65  1  0  0  0
 48118  1  0  0  0
 49 50  1  0  0  0
 49 53  1  0  0  0
 49 64  1  0  0  0
 49119  1  0  0  0
 50 51  1  0  0  0
 50120  1  0  0  0
 50121  1  0  0  0
 51 52  1  0  0  0
 51122  1  0  0  0
 51123  1  0  0  0
 52124  1  0  0  0
 52125  1  0  0  0
 53 54  1  0  0  0
 54 55  2  0  0  0
 54126  1  0  0  0
 55 57  1  0  0  0
 55127  1  0  0  0
 56 69  2  0  0  0
 57 58  2  0  0  0
 57128  1  0  0  0
 58129  1  0  0  0
 59 60  1  0  0  0
 59 61  1  0  0  0
 59 62  1  0  0  0
 60130  1  0  0  0
 60131  1  0  0  0
 60132  1  0  0  0
 61133  1  0  0  0
 61134  1  0  0  0
 61135  1  0  0  0
 62136  1  0  0  0
 62137  1  0  0  0
 62138  1  0  0  0
 63 65  1  0  0  0
 63139  1  0  0  0
 63140  1  0  0  0
 63141  1  0  0  0
 64142  1  0  0  0
 65143  1  0  0  0
 68 78  1  0  0  0
 71 72  2  0  0  0
 71 82  1  0  0  0
 71144  1  0  0  0
 72 80  1  0  0  0
 72 83  1  0  0  0
 73145  1  0  0  0
 73146  1  0  0  0
 73147  1  0  0  0
 73 77  1  0  0  0
 74148  1  0  0  0
 74149  1  0  0  0
 74150  1  0  0  0
 74 78  1  0  0  0
 75151  1  0  0  0
 75152  1  0  0  0
 75153  1  0  0  0
 75 79  1  0  0  0
 76 77  1  0  0  0
 76 78  1  0  0  0
 76154  1  0  0  0
 76155  1  0  0  0
 77 84  1  0  0  0
 77156  1  0  0  0
 78157  1  0  0  0
 79 82  1  0  0  0
 79 84  1  0  0  0
 79158  1  0  0  0
 80 81  2  0  0  0
 81 82  1  0  0  0
 83159  1  0  0  0
 84160  1  0  0  0
 84161  1  0  0  0
M  CHG  1  84   1
M  ISO  4   1 100  68 101  78 101  83 100
M  END
> <chiral flag>
0

> <version>
0

> <s_m_source_file>
/data/baiqing/PycharmProjects/Reinvent-master-3.2/result/LINK_invent/BTK/process_docking_weight1_custom_product_contain_oxygen_bond_distance_aromatic_linkinvent_7_9_3/rearranged_h_0192.sdf

> <i_m_source_file_index>
94

> <r_mmod_Potential_Energy-OPLS-2005>
-155.551422119141

> <r_mmod_Stretch_Energy-OPLS-2005>
66.8094940185547

> <r_mmod_Bend_Energy-OPLS-2005>
160.590530395508

> <r_mmod_Torsional_Energy-OPLS-2005>
281.796264648438

> <r_mmod_Improper_Torsional_Energy-OPLS-2005>
5.48060750961304

> <r_mmod_Van_der_Waal_Energy-OPLS-2005>
111.614097595215

> <r_mmod_Electrostatic_Energy-OPLS-2005>
-304.4296875

> <r_mmod_Solvation_Energy-OPLS-2005>
-510.996520996094

> <b_mmod_Minimization_Converged-OPLS-2005>
0

> <r_mmod_RMS_Derivative-OPLS-2005>
5.2126898765564

$$$$
95
                    3D
 Structure written by MMmdl.
175183  0  0  1  0            999 V2000
  -30.7143  -14.4513   20.4109 C   0  0  0  0  0  0
  -30.4116  -12.2520   19.4312 C   0  0  0  0  0  0
  -29.4819  -12.4186   18.2101 C   0  0  0  0  0  0
  -28.0041  -12.3151   18.6287 C   0  0  0  0  0  0
  -27.6517  -13.1989   19.8556 C   0  0  2  0  0  0
  -28.7025  -13.0510   20.9817 C   0  0  0  0  0  0
  -25.2573  -13.8158   20.5684 C   0  0  0  0  0  0
  -24.1830  -13.0439   20.9190 C   0  0  0  0  0  0
  -24.6377  -11.6903   20.8766 C   0  0  0  0  0  0
  -23.9054  -10.4292   21.0424 C   0  0  0  0  0  0
  -24.3616   -9.4211   21.9196 C   0  0  0  0  0  0
  -23.6290   -8.2246   22.0764 C   0  0  0  0  0  0
  -22.4276   -8.0283   21.3549 C   0  0  0  0  0  0
  -21.9909   -9.0259   20.4650 C   0  0  0  0  0  0
  -22.7234  -10.2137   20.3064 C   0  0  0  0  0  0
  -21.6858   -6.0736   22.5282 C   0  0  0  0  0  0
  -21.4013   -6.5644   23.8215 C   0  0  0  0  0  0
  -21.3657   -5.6802   24.9178 C   0  0  0  0  0  0
  -21.6045   -4.3067   24.7226 C   0  0  0  0  0  0
  -21.8819   -3.8150   23.4349 C   0  0  0  0  0  0
  -21.9199   -4.6961   22.3402 C   0  0  0  0  0  0
  -22.7851  -13.5228   21.1853 C   0  0  0  0  0  0
  -22.1661   -4.2151   21.0977 F   0  0  0  0  0  0
  -21.5629   -3.4550   25.7739 F   0  0  0  0  0  0
  -30.0345  -13.2801   20.4057 N   0  0  0  0  0  0
  -26.2989  -12.9311   20.3344 N   0  0  0  0  0  0
  -25.9305  -11.6488   20.5824 N   0  0  0  0  0  0
  -22.0501  -12.8205   22.0397 N   0  0  0  0  0  0
  -25.4275  -15.1884   20.4071 N   0  0  0  0  0  0
  -31.9350  -14.5362   20.2751 O   0  0  0  0  0  0
  -21.6640   -6.8880   21.4244 O   0  0  0  0  0  0
  -22.3536  -14.5540   20.6709 O   0  0  0  0  0  0
  -24.6111  -31.8715   23.2131 C   0  0  0  0  0  0
  -25.9019  -32.4841   23.8409 C   0  0  1  0  0  0
  -27.2347  -27.4770   20.0916 C   0  0  0  0  0  0
  -25.5892  -33.8638   24.2352 N   0  0  0  0  0  0
  -23.3951  -30.4967   21.5539 C   0  0  2  0  0  0
  -24.8403  -28.9687   20.1156 C   0  0  0  0  0  0
  -22.7371  -29.4689   22.5008 C   0  0  0  0  0  0
  -18.0267  -28.1372   22.8499 C   0  0  0  0  0  0
  -24.1484  -36.7319   23.2642 C   0  0  0  0  0  0
  -25.9190  -30.8532   21.3558 C   0  0  0  0  0  0
  -25.9989  -29.4914   20.7031 C   0  0  0  0  0  0
  -27.2001  -28.7540   20.6849 C   0  0  0  0  0  0
  -26.0615  -26.9638   19.4911 C   0  0  0  0  0  0
  -24.8638  -27.7015   19.5079 C   0  0  0  0  0  0
  -23.5988  -29.8285   20.1683 C   0  0  0  0  0  0
  -25.4107  -36.3130   24.0346 C   0  0  1  0  0  0
  -20.5851  -28.3658   23.1327 C   0  0  2  0  0  0
  -20.6758  -26.9398   22.5421 C   0  0  0  0  0  0
  -19.5741  -26.6387   21.5209 C   0  0  0  0  0  0
  -18.1915  -26.7924   22.1618 C   0  0  0  0  0  0
  -19.1514  -28.8830   23.2913 C   0  0  0  0  0  0
  -18.9448  -30.1440   23.8919 C   0  0  0  0  0  0
  -17.6455  -30.6587   24.0571 C   0  0  0  0  0  0
  -25.9032  -34.9487   23.5145 C   0  0  0  0  0  0
  -16.5345  -29.9090   23.6331 C   0  0  0  0  0  0
  -16.7258  -28.6501   23.0355 C   0  0  0  0  0  0
  -26.4464  -31.6602   25.0715 C   0  0  0  0  0  0
  -25.3740  -31.3661   26.1461 C   0  0  0  0  0  0
  -27.0315  -30.3070   24.6045 C   0  0  0  0  0  0
  -27.6063  -32.4295   25.7469 C   0  0  0  0  0  0
  -27.5582  -37.1815   24.8466 C   0  0  0  0  0  0
  -21.4106  -29.3032   22.3729 N   0  0  0  0  0  0
  -26.4298  -37.3811   23.9409 N   0  0  0  0  0  0
  -24.6604  -31.0857   22.1010 N   0  0  0  0  0  0
  -23.4160  -28.8239   23.3041 O   0  0  0  0  0  0
  -28.4162  -26.7750   20.1001 O   0  0  0  0  0  0
  -26.5585  -34.8933   22.4701 O   0  0  0  0  0  0
  -23.5319  -32.1439   23.7564 O   0  0  0  0  0  0
  -30.4474  -16.9973   16.6016 C   0  0  0  0  0  0
  -29.5641  -17.7577   17.3182 C   0  0  0  0  0  0
  -30.0916  -16.2173   18.9037 C   0  0  0  0  0  0
  -31.0154  -21.7285   19.5170 C   0  0  0  0  0  0
  -33.5500  -21.3312   19.4902 C   0  0  0  0  0  0
  -30.8092  -20.2655   14.8376 C   0  0  0  0  0  0
  -28.5426  -21.3545   15.1028 C   0  0  0  0  0  0
  -32.3429  -21.9945   18.8054 C   0  0  0  0  0  0
  -28.9556  -20.9163   18.2611 C   0  0  0  0  0  0
  -28.8419  -23.0460   19.6794 C   0  0  0  0  0  0
  -28.3135  -25.3961   20.4509 C   0  0  0  0  0  0
  -29.7299  -22.1475   18.7880 C   0  0  1  0  0  0
  -29.8556  -20.9752   15.8128 C   0  0  0  0  0  0
  -29.6564  -20.1546   17.1174 C   0  0  2  0  0  0
  -29.0349  -24.5459   19.3997 C   0  0  2  0  0  0
  -29.3607  -17.3071   18.6317 N   0  0  0  0  0  0
  -28.9529  -18.9139   16.8295 N   0  0  0  0  0  0
  -29.9506  -15.5165   20.1339 N   0  0  0  0  0  0
  -30.9750  -21.1901   20.6275 O   0  0  0  0  0  0
  -28.4564  -24.8230   18.1369 O   0  0  0  0  0  0
  -31.1268  -15.7187   17.5548 S   0  0  0  0  0  0
  -31.4562  -12.3313   19.1212 H   0  0  0  0  0  0
  -30.2985  -11.2600   19.8723 H   0  0  0  0  0  0
  -29.7093  -11.6570   17.4619 H   0  0  0  0  0  0
  -29.6489  -13.3756   17.7236 H   0  0  0  0  0  0
  -27.8076  -11.2672   18.8601 H   0  0  0  0  0  0
  -27.3547  -12.5620   17.7879 H   0  0  0  0  0  0
  -27.6690  -14.2289   19.5023 H   0  0  0  0  0  0
  -28.6591  -12.0528   21.4207 H   0  0  0  0  0  0
  -28.5007  -13.7520   21.7930 H   0  0  0  0  0  0
  -25.2767   -9.5696   22.4756 H   0  0  0  0  0  0
  -24.0013   -7.4642   22.7478 H   0  0  0  0  0  0
  -21.0856   -8.8781   19.8937 H   0  0  0  0  0  0
  -22.3712  -10.9682   19.6172 H   0  0  0  0  0  0
  -21.2000   -7.6152   23.9716 H   0  0  0  0  0  0
  -21.1478   -6.0532   25.9083 H   0  0  0  0  0  0
  -22.0596   -2.7609   23.2854 H   0  0  0  0  0  0
  -22.4125  -11.9851   22.4755 H   0  0  0  0  0  0
  -21.1120  -13.1217   22.2628 H   0  0  0  0  0  0
  -24.6562  -15.8380   20.5153 H   0  0  0  0  0  0
  -26.2735  -15.6362   20.0803 H   0  0  0  0  0  0
  -26.7098  -32.5573   23.1188 H   0  0  0  0  0  0
  -25.0045  -33.9806   25.0497 H   0  0  0  0  0  0
  -22.6833  -31.3137   21.4181 H   0  0  0  0  0  0
  -23.3757  -35.9641   23.3310 H   0  0  0  0  0  0
  -24.3578  -36.8926   22.2056 H   0  0  0  0  0  0
  -23.7220  -37.6520   23.6646 H   0  0  0  0  0  0
  -26.0196  -31.6218   20.5885 H   0  0  0  0  0  0
  -26.8113  -30.9106   21.9664 H   0  0  0  0  0  0
  -28.0971  -29.1573   21.1332 H   0  0  0  0  0  0
  -26.0643  -25.9990   19.0045 H   0  0  0  0  0  0
  -23.9722  -27.2929   19.0517 H   0  0  0  0  0  0
  -23.6976  -30.6030   19.4066 H   0  0  0  0  0  0
  -22.7237  -29.2427   19.8796 H   0  0  0  0  0  0
  -25.1283  -36.2007   25.0841 H   0  0  0  0  0  0
  -20.9952  -28.3228   24.1444 H   0  0  0  0  0  0
  -20.5662  -26.2265   23.3599 H   0  0  0  0  0  0
  -21.6630  -26.7443   22.1224 H   0  0  0  0  0  0
  -19.6907  -25.6305   21.1218 H   0  0  0  0  0  0
  -19.6685  -27.3211   20.6749 H   0  0  0  0  0  0
  -17.4190  -26.6688   21.4009 H   0  0  0  0  0  0
  -18.0308  -26.0047   22.8998 H   0  0  0  0  0  0
  -19.7927  -30.7244   24.2294 H   0  0  0  0  0  0
  -17.5018  -31.6269   24.5168 H   0  0  0  0  0  0
  -15.5350  -30.3006   23.7645 H   0  0  0  0  0  0
  -15.8654  -28.0831   22.7063 H   0  0  0  0  0  0
  -24.5930  -30.6999   25.7771 H   0  0  0  0  0  0
  -24.8902  -32.2796   26.4929 H   0  0  0  0  0  0
  -25.8103  -30.8808   27.0202 H   0  0  0  0  0  0
  -26.2853  -29.6791   24.1160 H   0  0  0  0  0  0
  -27.4202  -29.7330   25.4468 H   0  0  0  0  0  0
  -27.8620  -30.4436   23.9113 H   0  0  0  0  0  0
  -27.2725  -33.3599   26.2069 H   0  0  0  0  0  0
  -28.3857  -32.6833   25.0274 H   0  0  0  0  0  0
  -28.0737  -31.8384   26.5353 H   0  0  0  0  0  0
  -28.2612  -38.0106   24.7537 H   0  0  0  0  0  0
  -28.1076  -36.2640   24.6283 H   0  0  0  0  0  0
  -27.2295  -37.1458   25.8869 H   0  0  0  0  0  0
  -20.9248  -29.8743   21.6952 H   0  0  0  0  0  0
  -26.0194  -38.2892   24.1421 H   0  0  0  0  0  0
  -30.7794  -17.1298   15.5812 H   0  0  0  0  0  0
  -34.4720  -21.5671   18.9595 H   0  0  0  0  0  0
  -33.4470  -20.2451   19.5099 H   0  0  0  0  0  0
  -33.6651  -21.6752   20.5193 H   0  0  0  0  0  0
  -31.0815  -20.9238   14.0119 H   0  0  0  0  0  0
  -30.3618  -19.3704   14.4056 H   0  0  0  0  0  0
  -31.7340  -19.9714   15.3343 H   0  0  0  0  0  0
  -28.7400  -21.9567   14.2150 H   0  0  0  0  0  0
  -27.8922  -21.9427   15.7487 H   0  0  0  0  0  0
  -27.9852  -20.4760   14.7783 H   0  0  0  0  0  0
  -32.4909  -23.0732   18.7618 H   0  0  0  0  0  0
  -32.2647  -21.6455   17.7759 H   0  0  0  0  0  0
  -27.9616  -21.2173   17.9327 H   0  0  0  0  0  0
  -28.7892  -20.2329   19.0965 H   0  0  0  0  0  0
  -29.0413  -22.8564   20.7359 H   0  0  0  0  0  0
  -27.7882  -22.7936   19.5541 H   0  0  0  0  0  0
  -28.8113  -25.2694   21.4134 H   0  0  0  0  0  0
  -27.2941  -25.0406   20.6083 H   0  0  0  0  0  0
  -30.0276  -22.7508   17.9332 H   0  0  0  0  0  0
  -30.3549  -21.9091   16.0691 H   0  0  0  0  0  0
  -30.6524  -19.8877   17.4759 H   0  0  0  0  0  0
  -30.0945  -24.8099   19.3834 H   0  0  0  0  0  0
  -28.8086  -18.8596   15.8269 H   0  0  0  0  0  0
  -29.0156  -15.5027   20.5077 H   0  0  0  0  0  0
  -28.4618  -25.7716   18.0387 H   0  0  0  0  0  0
  1 25  1  0  0  0
  1 30  2  0  0  0
  1 88  1  0  0  0
  2  3  1  0  0  0
  2 25  1  0  0  0
  2 92  1  0  0  0
  2 93  1  0  0  0
  3  4  1  0  0  0
  3 94  1  0  0  0
  3 95  1  0  0  0
  4  5  1  0  0  0
  4 96  1  0  0  0
  4 97  1  0  0  0
  5  6  1  0  0  0
  5 26  1  0  0  0
  5 98  1  0  0  0
  6 25  1  0  0  0
  6 99  1  0  0  0
  6100  1  0  0  0
  7  8  2  0  0  0
  7 26  1  0  0  0
  7 29  1  0  0  0
  8  9  1  0  0  0
  8 22  1  0  0  0
  9 10  1  0  0  0
  9 27  2  0  0  0
 10 11  2  0  0  0
 10 15  1  0  0  0
 11 12  1  0  0  0
 11101  1  0  0  0
 12 13  2  0  0  0
 12102  1  0  0  0
 13 14  1  0  0  0
 13 31  1  0  0  0
 14 15  2  0  0  0
 14103  1  0  0  0
 15104  1  0  0  0
 16 17  2  0  0  0
 16 21  1  0  0  0
 16 31  1  0  0  0
 17 18  1  0  0  0
 17105  1  0  0  0
 18 19  2  0  0  0
 18106  1  0  0  0
 19 20  1  0  0  0
 19 24  1  0  0  0
 20 21  2  0  0  0
 20107  1  0  0  0
 21 23  1  0  0  0
 22 28  1  0  0  0
 22 32  2  0  0  0
 26 27  1  0  0  0
 28108  1  0  0  0
 28109  1  0  0  0
 29110  1  0  0  0
 29111  1  0  0  0
 33 34  1  0  0  0
 33 66  1  0  0  0
 33 70  2  0  0  0
 34 36  1  0  0  0
 34 59  1  0  0  0
 34112  1  0  0  0
 35 44  2  0  0  0
 35 45  1  0  0  0
 35 68  1  0  0  0
 36 56  1  0  0  0
 36113  1  0  0  0
 37 39  1  0  0  0
 37 47  1  0  0  0
 37 66  1  0  0  0
 37114  1  0  0  0
 38 43  2  0  0  0
 38 46  1  0  0  0
 38 47  1  0  0  0
 39 64  1  0  0  0
 39 67  2  0  0  0
 40 52  1  0  0  0
 40 53  2  0  0  0
 40 58  1  0  0  0
 41115  1  0  0  0
 41116  1  0  0  0
 41117  1  0  0  0
 41 48  1  0  0  0
 42 43  1  0  0  0
 42 66  1  0  0  0
 42118  1  0  0  0
 42119  1  0  0  0
 43 44  1  0  0  0
 44120  1  0  0  0
 45 46  2  0  0  0
 45121  1  0  0  0
 46122  1  0  0  0
 47123  1  0  0  0
 47124  1  0  0  0
 48 56  1  0  0  0
 48 65  1  0  0  0
 48125  1  0  0  0
 49 50  1  0  0  0
 49 53  1  0  0  0
 49 64  1  0  0  0
 49126  1  0  0  0
 50 51  1  0  0  0
 50127  1  0  0  0
 50128  1  0  0  0
 51 52  1  0  0  0
 51129  1  0  0  0
 51130  1  0  0  0
 52131  1  0  0  0
 52132  1  0  0  0
 53 54  1  0  0  0
 54 55  2  0  0  0
 54133  1  0  0  0
 55 57  1  0  0  0
 55134  1  0  0  0
 56 69  2  0  0  0
 57 58  2  0  0  0
 57135  1  0  0  0
 58136  1  0  0  0
 59 60  1  0  0  0
 59 61  1  0  0  0
 59 62  1  0  0  0
 60137  1  0  0  0
 60138  1  0  0  0
 60139  1  0  0  0
 61140  1  0  0  0
 61141  1  0  0  0
 61142  1  0  0  0
 62143  1  0  0  0
 62144  1  0  0  0
 62145  1  0  0  0
 63 65  1  0  0  0
 63146  1  0  0  0
 63147  1  0  0  0
 63148  1  0  0  0
 64149  1  0  0  0
 65150  1  0  0  0
 68 81  1  0  0  0
 71 72  2  0  0  0
 71 91  1  0  0  0
 71151  1  0  0  0
 72 86  1  0  0  0
 72 87  1  0  0  0
 73 86  2  0  0  0
 73 88  1  0  0  0
 73 91  1  0  0  0
 74 78  1  0  0  0
 74 82  1  0  0  0
 74 89  2  0  0  0
 75 78  1  0  0  0
 75152  1  0  0  0
 75153  1  0  0  0
 75154  1  0  0  0
 76155  1  0  0  0
 76156  1  0  0  0
 76157  1  0  0  0
 76 83  1  0  0  0
 77 83  1  0  0  0
 77158  1  0  0  0
 77159  1  0  0  0
 77160  1  0  0  0
 78161  1  0  0  0
 78162  1  0  0  0
 79163  1  0  0  0
 79164  1  0  0  0
 79 82  1  0  0  0
 79 84  1  0  0  0
 80 82  1  0  0  0
 80 85  1  0  0  0
 80165  1  0  0  0
 80166  1  0  0  0
 81 85  1  0  0  0
 81167  1  0  0  0
 81168  1  0  0  0
 82169  1  0  0  0
 83 84  1  0  0  0
 83170  1  0  0  0
 84 87  1  0  0  0
 84171  1  0  0  0
 85 90  1  0  0  0
 85172  1  0  0  0
 87173  1  0  0  0
 88174  1  0  0  0
 90175  1  0  0  0
M  ISO  4   1 100  68 101  81 101  88 100
M  END
> <chiral flag>
0

> <version>
0

> <s_m_source_file>
/data/baiqing/PycharmProjects/Reinvent-master-3.2/result/LINK_invent/BTK/process_docking_weight1_custom_product_contain_oxygen_bond_distance_aromatic_linkinvent_7_9_3/rearranged_h_0192.sdf

> <i_m_source_file_index>
95

> <r_mmod_Potential_Energy-OPLS-2005>
-194.697021484375

> <r_mmod_Stretch_Energy-OPLS-2005>
31.5055847167969

> <r_mmod_Bend_Energy-OPLS-2005>
96.9051513671875

> <r_mmod_Torsional_Energy-OPLS-2005>
322.595855712891

> <r_mmod_Improper_Torsional_Energy-OPLS-2005>
20.9055957794189

> <r_mmod_Van_der_Waal_Energy-OPLS-2005>
131.931732177734

> <r_mmod_Electrostatic_Energy-OPLS-2005>
-590.004699707031

> <r_mmod_Solvation_Energy-OPLS-2005>
-235.886047363281

> <b_mmod_Minimization_Converged-OPLS-2005>
0

> <r_mmod_RMS_Derivative-OPLS-2005>
1.51697957515717

$$$$
96
                    3D
 Structure written by MMmdl.
171179  0  0  1  0            999 V2000
  -30.6065  -14.7416   20.5220 C   0  0  0  0  0  0
  -30.4335  -12.4704   19.4740 C   0  0  0  0  0  0
  -29.5065  -12.5672   18.2375 C   0  0  0  0  0  0
  -28.0248  -12.3949   18.6350 C   0  0  0  0  0  0
  -27.6471  -13.2405   19.8796 C   0  0  2  0  0  0
  -28.6940  -13.1287   21.0124 C   0  0  0  0  0  0
  -25.2373  -13.8184   20.5426 C   0  0  0  0  0  0
  -24.1645  -13.0454   20.9021 C   0  0  0  0  0  0
  -24.6283  -11.6964   20.8662 C   0  0  0  0  0  0
  -23.8975  -10.4335   21.0361 C   0  0  0  0  0  0
  -24.3579   -9.4293   21.9181 C   0  0  0  0  0  0
  -23.6334   -8.2274   22.0765 C   0  0  0  0  0  0
  -22.4307   -8.0277   21.3539 C   0  0  0  0  0  0
  -21.9882   -9.0238   20.4660 C   0  0  0  0  0  0
  -22.7138  -10.2160   20.3063 C   0  0  0  0  0  0
  -21.6893   -6.0744   22.5253 C   0  0  0  0  0  0
  -21.4061   -6.5655   23.8180 C   0  0  0  0  0  0
  -21.3654   -5.6796   24.9128 C   0  0  0  0  0  0
  -21.6027   -4.3044   24.7178 C   0  0  0  0  0  0
  -21.8842   -3.8162   23.4295 C   0  0  0  0  0  0
  -21.9213   -4.6979   22.3349 C   0  0  0  0  0  0
  -22.7606  -13.5243   21.1684 C   0  0  0  0  0  0
  -22.1656   -4.2111   21.0933 F   0  0  0  0  0  0
  -21.5620   -3.4562   25.7718 F   0  0  0  0  0  0
  -30.0004  -13.4994   20.4540 N   0  0  0  0  0  0
  -26.2927  -12.9455   20.3449 N   0  0  0  0  0  0
  -25.9281  -11.6590   20.5863 N   0  0  0  0  0  0
  -22.0290  -12.8282   22.0327 N   0  0  0  0  0  0
  -25.3968  -15.1895   20.3404 N   0  0  0  0  0  0
  -31.7619  -14.8714   20.0922 O   0  0  0  0  0  0
  -21.6658   -6.8912   21.4246 O   0  0  0  0  0  0
  -22.3240  -14.5516   20.6544 O   0  0  0  0  0  0
  -24.6385  -31.8542   23.2021 C   0  0  0  0  0  0
  -25.9232  -32.4739   23.8346 C   0  0  1  0  0  0
  -27.1649  -27.2023   20.1270 C   0  0  0  0  0  0
  -25.6016  -33.8536   24.2239 N   0  0  0  0  0  0
  -23.4300  -30.4909   21.5505 C   0  0  2  0  0  0
  -24.8609  -28.9493   20.1160 C   0  0  0  0  0  0
  -22.7538  -29.4640   22.4909 C   0  0  0  0  0  0
  -18.0298  -28.1370   22.8506 C   0  0  0  0  0  0
  -24.1491  -36.7277   23.2634 C   0  0  0  0  0  0
  -25.9883  -30.7583   21.3864 C   0  0  0  0  0  0
  -26.0510  -29.3842   20.7115 C   0  0  0  0  0  0
  -27.2135  -28.5339   20.6867 C   0  0  0  0  0  0
  -25.9252  -26.8457   19.5527 C   0  0  0  0  0  0
  -24.8065  -27.6876   19.5262 C   0  0  0  0  0  0
  -23.6425  -29.8480   20.1617 C   0  0  0  0  0  0
  -25.4132  -36.3049   24.0308 C   0  0  1  0  0  0
  -20.5920  -28.3699   23.1258 C   0  0  2  0  0  0
  -20.6787  -26.9410   22.5396 C   0  0  0  0  0  0
  -19.5739  -26.6365   21.5218 C   0  0  0  0  0  0
  -18.1933  -26.7920   22.1635 C   0  0  0  0  0  0
  -19.1565  -28.8850   23.2869 C   0  0  0  0  0  0
  -18.9470  -30.1466   23.8843 C   0  0  0  0  0  0
  -17.6466  -30.6589   24.0550 C   0  0  0  0  0  0
  -25.9082  -34.9424   23.5066 C   0  0  0  0  0  0
  -16.5355  -29.9068   23.6343 C   0  0  0  0  0  0
  -16.7290  -28.6490   23.0376 C   0  0  0  0  0  0
  -26.4543  -31.6604   25.0780 C   0  0  0  0  0  0
  -25.3748  -31.3820   26.1497 C   0  0  0  0  0  0
  -27.0393  -30.2987   24.6359 C   0  0  0  0  0  0
  -27.6055  -32.4389   25.7584 C   0  0  0  0  0  0
  -27.5591  -37.1803   24.8462 C   0  0  0  0  0  0
  -21.4246  -29.3043   22.3648 N   0  0  0  0  0  0
  -26.4290  -37.3784   23.9410 N   0  0  0  0  0  0
  -24.7073  -31.0529   22.1008 N   0  0  0  0  0  0
  -23.4255  -28.8140   23.2976 O   0  0  0  0  0  0
  -28.2298  -26.2481   20.1474 O   0  0  0  0  0  0
  -26.5634  -34.8914   22.4609 O   0  0  0  0  0  0
  -23.5548  -32.1375   23.7317 O   0  0  0  0  0  0
  -28.3391  -19.2799   19.2832 C   0  0  0  0  0  0
  -29.1547  -19.4399   20.4189 C   0  0  0  0  0  0
  -28.1742  -17.9907   18.7776 C   0  0  0  0  0  0
  -29.5177  -17.0550   20.3947 C   0  0  0  0  0  0
  -31.9049  -23.6358   17.7191 C   0  0  0  0  0  0
  -28.0556  -25.2527   17.3876 C   0  0  0  0  0  0
  -31.5606  -24.1881   20.8762 C   0  0  0  0  0  0
  -29.4358  -20.9191   20.9766 C   0  0  0  0  0  0
  -30.8986  -23.0162   18.6896 C   0  0  0  0  0  0
  -27.5593  -24.3371   18.5155 C   0  0  0  0  0  0
  -30.4557  -23.9709   19.8263 C   0  0  1  0  0  0
  -29.0753  -23.6205   20.4802 C   0  0  1  0  0  0
  -27.9819  -24.7360   19.9698 C   0  0  1  0  0  0
  -29.7070  -18.2833   20.9815 N   0  0  0  0  0  0
  -28.7562  -16.9107   19.3131 N   0  0  0  0  0  0
  -27.3761  -17.7399   17.6753 N   0  0  0  0  0  0
  -29.8902  -15.8231   21.0143 N   0  0  0  0  0  0
  -28.6797  -22.1087   20.3372 N   0  3  0  0  0  0
  -31.4726  -12.6119   19.1729 H   0  0  0  0  0  0
  -30.3876  -11.4742   19.9150 H   0  0  0  0  0  0
  -29.7867  -11.8105   17.5008 H   0  0  0  0  0  0
  -29.6424  -13.5370   17.7554 H   0  0  0  0  0  0
  -27.8366  -11.3388   18.8220 H   0  0  0  0  0  0
  -27.3810  -12.6731   17.7984 H   0  0  0  0  0  0
  -27.6466  -14.2796   19.5529 H   0  0  0  0  0  0
  -28.7164  -12.1145   21.4171 H   0  0  0  0  0  0
  -28.4248  -13.7777   21.8450 H   0  0  0  0  0  0
  -25.2707   -9.5843   22.4756 H   0  0  0  0  0  0
  -24.0068   -7.4690   22.7504 H   0  0  0  0  0  0
  -21.0817   -8.8758   19.8939 H   0  0  0  0  0  0
  -22.3579  -10.9719   19.6176 H   0  0  0  0  0  0
  -21.2082   -7.6161   23.9677 H   0  0  0  0  0  0
  -21.1455   -6.0510   25.9026 H   0  0  0  0  0  0
  -22.0635   -2.7617   23.2764 H   0  0  0  0  0  0
  -22.4007  -12.0111   22.4914 H   0  0  0  0  0  0
  -21.0924  -13.1390   22.2578 H   0  0  0  0  0  0
  -24.5661  -15.7437   20.1403 H   0  0  0  0  0  0
  -26.2316  -15.5805   19.9182 H   0  0  0  0  0  0
  -26.7290  -32.5346   23.1069 H   0  0  0  0  0  0
  -25.0203  -33.9657   25.0415 H   0  0  0  0  0  0
  -22.7278  -31.3171   21.4211 H   0  0  0  0  0  0
  -23.3761  -35.9609   23.3279 H   0  0  0  0  0  0
  -24.3576  -36.8917   22.2058 H   0  0  0  0  0  0
  -23.7244  -37.6472   23.6664 H   0  0  0  0  0  0
  -26.1468  -31.5305   20.6327 H   0  0  0  0  0  0
  -26.8569  -30.7846   22.0341 H   0  0  0  0  0  0
  -28.1309  -28.8744   21.1486 H   0  0  0  0  0  0
  -25.7271  -25.8782   19.1490 H   0  0  0  0  0  0
  -23.8860  -27.3318   19.0841 H   0  0  0  0  0  0
  -23.7824  -30.6321   19.4156 H   0  0  0  0  0  0
  -22.7520  -29.2976   19.8511 H   0  0  0  0  0  0
  -25.1317  -36.1887   25.0808 H   0  0  0  0  0  0
  -21.0023  -28.3275   24.1377 H   0  0  0  0  0  0
  -20.5731  -26.2304   23.3624 H   0  0  0  0  0  0
  -21.6662  -26.7468   22.1167 H   0  0  0  0  0  0
  -19.6903  -25.6273   21.1262 H   0  0  0  0  0  0
  -19.6671  -27.3168   20.6751 H   0  0  0  0  0  0
  -17.4234  -26.6730   21.4005 H   0  0  0  0  0  0
  -18.0290  -26.0050   22.9014 H   0  0  0  0  0  0
  -19.7950  -30.7302   24.2192 H   0  0  0  0  0  0
  -17.5023  -31.6274   24.5148 H   0  0  0  0  0  0
  -15.5358  -30.2931   23.7699 H   0  0  0  0  0  0
  -15.8718  -28.0778   22.7103 H   0  0  0  0  0  0
  -24.5844  -30.7264   25.7832 H   0  0  0  0  0  0
  -24.9047  -32.3040   26.4934 H   0  0  0  0  0  0
  -25.8027  -30.8964   27.0280 H   0  0  0  0  0  0
  -26.3021  -29.6744   24.1306 H   0  0  0  0  0  0
  -27.3917  -29.7248   25.4944 H   0  0  0  0  0  0
  -27.8958  -30.4170   23.9717 H   0  0  0  0  0  0
  -27.2579  -33.3651   26.2178 H   0  0  0  0  0  0
  -28.3878  -32.7062   25.0466 H   0  0  0  0  0  0
  -28.0744  -31.8560   26.5527 H   0  0  0  0  0  0
  -28.2598  -38.0108   24.7530 H   0  0  0  0  0  0
  -28.1077  -36.2645   24.6241 H   0  0  0  0  0  0
  -27.2297  -37.1410   25.8854 H   0  0  0  0  0  0
  -20.9435  -29.8788   21.6870 H   0  0  0  0  0  0
  -26.0148  -38.2843   24.1431 H   0  0  0  0  0  0
  -27.8477  -20.1162   18.8096 H   0  0  0  0  0  0
  -32.2409  -22.8918   16.9958 H   0  0  0  0  0  0
  -32.7882  -24.0214   18.2273 H   0  0  0  0  0  0
  -31.4460  -24.4557   17.1674 H   0  0  0  0  0  0
  -27.4895  -25.0598   16.4768 H   0  0  0  0  0  0
  -29.1088  -25.0729   17.1769 H   0  0  0  0  0  0
  -27.9376  -26.3076   17.6300 H   0  0  0  0  0  0
  -32.3998  -24.7255   20.4352 H   0  0  0  0  0  0
  -31.9360  -23.2447   21.2683 H   0  0  0  0  0  0
  -31.2084  -24.7900   21.7163 H   0  0  0  0  0  0
  -30.5082  -21.0760   20.8891 H   0  0  0  0  0  0
  -29.2390  -20.9206   22.0495 H   0  0  0  0  0  0
  -31.3279  -22.1068   19.1017 H   0  0  0  0  0  0
  -30.0418  -22.7027   18.0942 H   0  0  0  0  0  0
  -27.8880  -23.3307   18.2691 H   0  0  0  0  0  0
  -26.4812  -24.2001   18.4520 H   0  0  0  0  0  0
  -30.3344  -24.9502   19.3533 H   0  0  0  0  0  0
  -29.1551  -23.7900   21.5541 H   0  0  0  0  0  0
  -27.1156  -24.5383   20.6029 H   0  0  0  0  0  0
  -26.7139  -18.4334   17.3511 H   0  0  0  0  0  0
  -27.1246  -16.7849   17.4581 H   0  0  0  0  0  0
  -29.1619  -15.5018   21.6312 H   0  0  0  0  0  0
  -27.7318  -22.0089   20.6678 H   0  0  0  0  0  0
  -28.6691  -21.8837   19.3554 H   0  0  0  0  0  0
  1 25  1  0  0  0
  1 30  2  0  0  0
  1 87  1  0  0  0
  2  3  1  0  0  0
  2 25  1  0  0  0
  2 89  1  0  0  0
  2 90  1  0  0  0
  3  4  1  0  0  0
  3 91  1  0  0  0
  3 92  1  0  0  0
  4  5  1  0  0  0
  4 93  1  0  0  0
  4 94  1  0  0  0
  5  6  1  0  0  0
  5 26  1  0  0  0
  5 95  1  0  0  0
  6 25  1  0  0  0
  6 96  1  0  0  0
  6 97  1  0  0  0
  7  8  2  0  0  0
  7 26  1  0  0  0
  7 29  1  0  0  0
  8  9  1  0  0  0
  8 22  1  0  0  0
  9 10  1  0  0  0
  9 27  2  0  0  0
 10 11  2  0  0  0
 10 15  1  0  0  0
 11 12  1  0  0  0
 11 98  1  0  0  0
 12 13  2  0  0  0
 12 99  1  0  0  0
 13 14  1  0  0  0
 13 31  1  0  0  0
 14 15  2  0  0  0
 14100  1  0  0  0
 15101  1  0  0  0
 16 17  2  0  0  0
 16 21  1  0  0  0
 16 31  1  0  0  0
 17 18  1  0  0  0
 17102  1  0  0  0
 18 19  2  0  0  0
 18103  1  0  0  0
 19 20  1  0  0  0
 19 24  1  0  0  0
 20 21  2  0  0  0
 20104  1  0  0  0
 21 23  1  0  0  0
 22 28  1  0  0  0
 22 32  2  0  0  0
 26 27  1  0  0  0
 28105  1  0  0  0
 28106  1  0  0  0
 29107  1  0  0  0
 29108  1  0  0  0
 33 34  1  0  0  0
 33 66  1  0  0  0
 33 70  2  0  0  0
 34 36  1  0  0  0
 34 59  1  0  0  0
 34109  1  0  0  0
 35 44  2  0  0  0
 35 45  1  0  0  0
 35 68  1  0  0  0
 36 56  1  0  0  0
 36110  1  0  0  0
 37 39  1  0  0  0
 37 47  1  0  0  0
 37 66  1  0  0  0
 37111  1  0  0  0
 38 43  2  0  0  0
 38 46  1  0  0  0
 38 47  1  0  0  0
 39 64  1  0  0  0
 39 67  2  0  0  0
 40 52  1  0  0  0
 40 53  2  0  0  0
 40 58  1  0  0  0
 41112  1  0  0  0
 41113  1  0  0  0
 41114  1  0  0  0
 41 48  1  0  0  0
 42 43  1  0  0  0
 42 66  1  0  0  0
 42115  1  0  0  0
 42116  1  0  0  0
 43 44  1  0  0  0
 44117  1  0  0  0
 45 46  2  0  0  0
 45118  1  0  0  0
 46119  1  0  0  0
 47120  1  0  0  0
 47121  1  0  0  0
 48 56  1  0  0  0
 48 65  1  0  0  0
 48122  1  0  0  0
 49 50  1  0  0  0
 49 53  1  0  0  0
 49 64  1  0  0  0
 49123  1  0  0  0
 50 51  1  0  0  0
 50124  1  0  0  0
 50125  1  0  0  0
 51 52  1  0  0  0
 51126  1  0  0  0
 51127  1  0  0  0
 52128  1  0  0  0
 52129  1  0  0  0
 53 54  1  0  0  0
 54 55  2  0  0  0
 54130  1  0  0  0
 55 57  1  0  0  0
 55131  1  0  0  0
 56 69  2  0  0  0
 57 58  2  0  0  0
 57132  1  0  0  0
 58133  1  0  0  0
 59 60  1  0  0  0
 59 61  1  0  0  0
 59 62  1  0  0  0
 60134  1  0  0  0
 60135  1  0  0  0
 60136  1  0  0  0
 61137  1  0  0  0
 61138  1  0  0  0
 61139  1  0  0  0
 62140  1  0  0  0
 62141  1  0  0  0
 62142  1  0  0  0
 63 65  1  0  0  0
 63143  1  0  0  0
 63144  1  0  0  0
 63145  1  0  0  0
 64146  1  0  0  0
 65147  1  0  0  0
 68 83  1  0  0  0
 71 72  2  0  0  0
 71 73  1  0  0  0
 71148  1  0  0  0
 72 78  1  0  0  0
 72 84  1  0  0  0
 73 85  2  0  0  0
 73 86  1  0  0  0
 74 84  2  0  0  0
 74 85  1  0  0  0
 74 87  1  0  0  0
 75 79  1  0  0  0
 75149  1  0  0  0
 75150  1  0  0  0
 75151  1  0  0  0
 76 80  1  0  0  0
 76152  1  0  0  0
 76153  1  0  0  0
 76154  1  0  0  0
 77155  1  0  0  0
 77156  1  0  0  0
 77157  1  0  0  0
 77 81  1  0  0  0
 78 88  1  0  0  0
 78158  1  0  0  0
 78159  1  0  0  0
 79 81  1  0  0  0
 79160  1  0  0  0
 79161  1  0  0  0
 80162  1  0  0  0
 80163  1  0  0  0
 80 83  1  0  0  0
 81 82  1  0  0  0
 81164  1  0  0  0
 82 83  1  0  0  0
 82 88  1  0  0  0
 82165  1  0  0  0
 83166  1  0  0  0
 86167  1  0  0  0
 86168  1  0  0  0
 87169  1  0  0  0
 88170  1  0  0  0
 88171  1  0  0  0
M  CHG  1  88   1
M  ISO  4   1 100  68 101  83 101  87 100
M  END
> <chiral flag>
0

> <version>
0

> <s_m_source_file>
/data/baiqing/PycharmProjects/Reinvent-master-3.2/result/LINK_invent/BTK/process_docking_weight1_custom_product_contain_oxygen_bond_distance_aromatic_linkinvent_7_9_3/rearranged_h_0192.sdf

> <i_m_source_file_index>
96

> <r_mmod_Potential_Energy-OPLS-2005>
-429.280181884766

> <r_mmod_Stretch_Energy-OPLS-2005>
156.53092956543

> <r_mmod_Bend_Energy-OPLS-2005>
205.760543823242

> <r_mmod_Torsional_Energy-OPLS-2005>
315.152435302734

> <r_mmod_Improper_Torsional_Energy-OPLS-2005>
10.8632202148438

> <r_mmod_Van_der_Waal_Energy-OPLS-2005>
148.562149047852

> <r_mmod_Electrostatic_Energy-OPLS-2005>
-883.053894042969

> <r_mmod_Solvation_Energy-OPLS-2005>
-486.536926269531

> <b_mmod_Minimization_Converged-OPLS-2005>
0

> <r_mmod_RMS_Derivative-OPLS-2005>
7.55347394943237

$$$$
97
                    3D
 Structure written by MMmdl.
172180  0  0  1  0            999 V2000
  -30.6988  -14.4191   20.6162 C   0  0  0  0  0  0
  -30.4076  -12.2943   19.3982 C   0  0  0  0  0  0
  -29.4564  -12.5222   18.2016 C   0  0  0  0  0  0
  -27.9817  -12.3743   18.6228 C   0  0  0  0  0  0
  -27.6447  -13.2005   19.8884 C   0  0  2  0  0  0
  -28.6908  -12.9395   20.9963 C   0  0  0  0  0  0
  -25.2429  -13.8114   20.6039 C   0  0  0  0  0  0
  -24.1672  -13.0402   20.9377 C   0  0  0  0  0  0
  -24.6283  -11.6884   20.8909 C   0  0  0  0  0  0
  -23.9088  -10.4261   21.0559 C   0  0  0  0  0  0
  -24.3600   -9.4217   21.9412 C   0  0  0  0  0  0
  -23.6317   -8.2204   22.0880 C   0  0  0  0  0  0
  -22.4366   -8.0205   21.3586 C   0  0  0  0  0  0
  -22.0042   -9.0154   20.4624 C   0  0  0  0  0  0
  -22.7351  -10.2055   20.3077 C   0  0  0  0  0  0
  -21.6868   -6.0722   22.5350 C   0  0  0  0  0  0
  -21.3978   -6.5617   23.8295 C   0  0  0  0  0  0
  -21.3612   -5.6743   24.9223 C   0  0  0  0  0  0
  -21.6046   -4.3026   24.7259 C   0  0  0  0  0  0
  -21.8820   -3.8132   23.4399 C   0  0  0  0  0  0
  -21.9199   -4.6964   22.3454 C   0  0  0  0  0  0
  -22.7647  -13.5186   21.1908 C   0  0  0  0  0  0
  -22.1689   -4.2167   21.1042 F   0  0  0  0  0  0
  -21.5642   -3.4491   25.7776 F   0  0  0  0  0  0
  -30.0271  -13.2483   20.4590 N   0  0  0  0  0  0
  -26.2876  -12.9320   20.3570 N   0  0  0  0  0  0
  -25.9212  -11.6467   20.5878 N   0  0  0  0  0  0
  -22.0088  -12.8191   22.0294 N   0  0  0  0  0  0
  -25.4083  -15.1877   20.4702 N   0  0  0  0  0  0
  -31.8341  -14.6052   20.1679 O   0  0  0  0  0  0
  -21.6684   -6.8846   21.4309 O   0  0  0  0  0  0
  -22.3438  -14.5543   20.6707 O   0  0  0  0  0  0
  -24.6060  -31.8779   23.2131 C   0  0  0  0  0  0
  -25.9036  -32.4861   23.8372 C   0  0  1  0  0  0
  -27.2351  -27.4589   20.1003 C   0  0  0  0  0  0
  -25.5956  -33.8659   24.2357 N   0  0  0  0  0  0
  -23.3901  -30.4970   21.5531 C   0  0  2  0  0  0
  -24.8393  -28.9680   20.1121 C   0  0  0  0  0  0
  -22.7340  -29.4753   22.5087 C   0  0  0  0  0  0
  -18.0270  -28.1383   22.8527 C   0  0  0  0  0  0
  -24.1485  -36.7265   23.2607 C   0  0  0  0  0  0
  -25.9108  -30.8518   21.3669 C   0  0  0  0  0  0
  -25.9925  -29.4887   20.7094 C   0  0  0  0  0  0
  -27.1937  -28.7437   20.6885 C   0  0  0  0  0  0
  -26.0502  -26.9436   19.5247 C   0  0  0  0  0  0
  -24.8639  -27.6989   19.5112 C   0  0  0  0  0  0
  -23.5846  -29.8139   20.1707 C   0  0  0  0  0  0
  -25.4104  -36.3131   24.0347 C   0  0  1  0  0  0
  -20.5859  -28.3668   23.1370 C   0  0  2  0  0  0
  -20.6782  -26.9421   22.5448 C   0  0  0  0  0  0
  -19.5767  -26.6413   21.5237 C   0  0  0  0  0  0
  -18.1932  -26.7949   22.1614 C   0  0  0  0  0  0
  -19.1520  -28.8832   23.2941 C   0  0  0  0  0  0
  -18.9437  -30.1436   23.8944 C   0  0  0  0  0  0
  -17.6449  -30.6588   24.0567 C   0  0  0  0  0  0
  -25.9013  -34.9492   23.5109 C   0  0  0  0  0  0
  -16.5346  -29.9089   23.6336 C   0  0  0  0  0  0
  -16.7264  -28.6504   23.0388 C   0  0  0  0  0  0
  -26.4433  -31.6641   25.0713 C   0  0  0  0  0  0
  -25.3636  -31.3836   26.1401 C   0  0  0  0  0  0
  -27.0218  -30.3030   24.6224 C   0  0  0  0  0  0
  -27.6055  -32.4281   25.7486 C   0  0  0  0  0  0
  -27.5597  -37.1780   24.8464 C   0  0  0  0  0  0
  -21.4091  -29.3033   22.3770 N   0  0  0  0  0  0
  -26.4323  -37.3796   23.9385 N   0  0  0  0  0  0
  -24.6519  -31.0867   22.1042 N   0  0  0  0  0  0
  -23.4077  -28.8400   23.3247 O   0  0  0  0  0  0
  -28.4358  -26.7813   20.0526 O   0  0  0  0  0  0
  -26.5537  -34.8944   22.4641 O   0  0  0  0  0  0
  -23.5265  -32.1591   23.7522 O   0  0  0  0  0  0
  -29.8820  -16.4513   18.6392 C   0  0  0  0  0  0
  -28.2429  -17.0651   20.0055 C   0  0  0  0  0  0
  -29.3889  -16.3198   19.9646 C   0  0  0  0  0  0
  -26.5742  -21.7465   22.7049 C   0  0  0  0  0  0
  -25.8362  -17.5434   17.7733 C   0  0  0  0  0  0
  -25.6004  -22.2081   21.6073 C   0  0  0  0  0  0
  -26.6815  -19.6900   18.9489 C   0  0  0  0  0  0
  -28.2004  -24.3656   19.5362 C   0  0  0  0  0  0
  -27.8339  -20.7171   19.1084 C   0  0  0  0  0  0
  -28.4741  -25.4601   20.5968 C   0  0  0  0  0  0
  -27.0437  -18.4269   18.1362 C   0  0  1  0  0  0
  -27.5266  -23.0747   20.0619 C   0  0  1  0  0  0
  -26.1151  -23.3274   20.6734 C   0  0  1  0  0  0
  -29.1255  -17.2562   17.9176 N   0  0  0  0  0  0
  -28.1098  -17.6244   18.7336 N   0  0  0  0  0  0
  -29.9412  -15.4771   20.9893 N   0  0  0  0  0  0
  -27.3327  -22.1131   18.9534 N   0  3  0  0  0  0
  -25.1964  -23.4530   19.5927 O   0  0  0  0  0  0
  -31.4378  -12.4234   19.0626 H   0  0  0  0  0  0
  -30.3467  -11.2647   19.7525 H   0  0  0  0  0  0
  -29.6761  -11.8291   17.3898 H   0  0  0  0  0  0
  -29.6156  -13.5252   17.8049 H   0  0  0  0  0  0
  -27.7783  -11.3176   18.8017 H   0  0  0  0  0  0
  -27.3157  -12.6672   17.8108 H   0  0  0  0  0  0
  -27.6909  -14.2519   19.6090 H   0  0  0  0  0  0
  -28.6499  -11.8866   21.2842 H   0  0  0  0  0  0
  -28.4669  -13.5098   21.8965 H   0  0  0  0  0  0
  -25.2588   -9.5850   22.5188 H   0  0  0  0  0  0
  -24.0009   -7.4628   22.7654 H   0  0  0  0  0  0
  -21.1019   -8.8625   19.8874 H   0  0  0  0  0  0
  -22.3879  -10.9613   19.6184 H   0  0  0  0  0  0
  -21.1992   -7.6121   23.9832 H   0  0  0  0  0  0
  -21.1415   -6.0441   25.9145 H   0  0  0  0  0  0
  -22.0659   -2.7595   23.2926 H   0  0  0  0  0  0
  -22.3403  -11.9810   22.4851 H   0  0  0  0  0  0
  -21.0649  -13.1264   22.2099 H   0  0  0  0  0  0
  -24.6367  -15.8242   20.6360 H   0  0  0  0  0  0
  -26.2552  -15.6444   20.1659 H   0  0  0  0  0  0
  -26.7117  -32.5582   23.1124 H   0  0  0  0  0  0
  -25.0145  -33.9813   25.0536 H   0  0  0  0  0  0
  -22.6795  -31.3170   21.4173 H   0  0  0  0  0  0
  -23.3810  -35.9538   23.3291 H   0  0  0  0  0  0
  -24.3592  -36.8827   22.2017 H   0  0  0  0  0  0
  -23.7162  -37.6460   23.6546 H   0  0  0  0  0  0
  -26.0208  -31.6458   20.6244 H   0  0  0  0  0  0
  -26.7866  -30.8862   22.0009 H   0  0  0  0  0  0
  -28.0861  -29.1463   21.1445 H   0  0  0  0  0  0
  -26.0084  -25.9735   19.0603 H   0  0  0  0  0  0
  -23.9792  -27.2919   19.0398 H   0  0  0  0  0  0
  -23.6396  -30.5681   19.3866 H   0  0  0  0  0  0
  -22.7167  -29.2003   19.9169 H   0  0  0  0  0  0
  -25.1295  -36.2007   25.0863 H   0  0  0  0  0  0
  -20.9934  -28.3201   24.1498 H   0  0  0  0  0  0
  -20.5741  -26.2255   23.3605 H   0  0  0  0  0  0
  -21.6658  -26.7546   22.1225 H   0  0  0  0  0  0
  -19.6956  -25.6346   21.1212 H   0  0  0  0  0  0
  -19.6712  -27.3236   20.6783 H   0  0  0  0  0  0
  -17.4241  -26.6766   21.3968 H   0  0  0  0  0  0
  -18.0326  -26.0040   22.8947 H   0  0  0  0  0  0
  -19.7889  -30.7268   24.2328 H   0  0  0  0  0  0
  -17.4975  -31.6280   24.5134 H   0  0  0  0  0  0
  -15.5330  -30.2987   23.7660 H   0  0  0  0  0  0
  -15.8662  -28.0798   22.7126 H   0  0  0  0  0  0
  -24.5920  -30.7063   25.7732 H   0  0  0  0  0  0
  -24.8680  -32.3003   26.4595 H   0  0  0  0  0  0
  -25.7917  -30.9209   27.0292 H   0  0  0  0  0  0
  -26.2831  -29.6856   24.1104 H   0  0  0  0  0  0
  -27.3676  -29.7264   25.4823 H   0  0  0  0  0  0
  -27.8782  -30.4284   23.9598 H   0  0  0  0  0  0
  -27.2806  -33.3649   26.2008 H   0  0  0  0  0  0
  -28.3906  -32.6686   25.0315 H   0  0  0  0  0  0
  -28.0631  -31.8390   26.5440 H   0  0  0  0  0  0
  -28.2635  -38.0076   24.7559 H   0  0  0  0  0  0
  -28.1097  -36.2603   24.6262 H   0  0  0  0  0  0
  -27.2301  -37.1399   25.8876 H   0  0  0  0  0  0
  -20.9259  -29.8551   21.6810 H   0  0  0  0  0  0
  -26.0237  -38.2881   24.1420 H   0  0  0  0  0  0
  -30.7376  -15.9971   18.1609 H   0  0  0  0  0  0
  -27.5129  -17.2187   20.7915 H   0  0  0  0  0  0
  -26.0525  -21.1217   23.4294 H   0  0  0  0  0  0
  -27.0241  -22.5719   23.2586 H   0  0  0  0  0  0
  -27.3740  -21.1376   22.2817 H   0  0  0  0  0  0
  -25.0437  -18.1095   17.2843 H   0  0  0  0  0  0
  -25.3956  -17.0859   18.6529 H   0  0  0  0  0  0
  -26.1307  -16.7424   17.0888 H   0  0  0  0  0  0
  -24.6837  -22.5541   22.0881 H   0  0  0  0  0  0
  -25.3142  -21.3318   21.0272 H   0  0  0  0  0  0
  -25.8358  -20.1689   18.4532 H   0  0  0  0  0  0
  -26.3123  -19.4017   19.9339 H   0  0  0  0  0  0
  -29.1557  -24.0859   19.0905 H   0  0  0  0  0  0
  -27.6358  -24.7698   18.7032 H   0  0  0  0  0  0
  -28.6138  -20.5668   18.3556 H   0  0  0  0  0  0
  -28.3402  -20.5349   20.0588 H   0  0  0  0  0  0
  -29.4798  -25.2946   20.9841 H   0  0  0  0  0  0
  -27.8350  -25.4025   21.4777 H   0  0  0  0  0  0
  -27.4159  -18.7981   17.1802 H   0  0  0  0  0  0
  -28.2103  -22.6675   20.8073 H   0  0  0  0  0  0
  -26.0856  -24.2632   21.2313 H   0  0  0  0  0  0
  -29.4060  -15.4003   21.8466 H   0  0  0  0  0  0
  -26.3200  -22.1305   18.8894 H   0  0  0  0  0  0
  -27.6576  -22.5025   18.0807 H   0  0  0  0  0  0
  -24.3773  -23.8077   19.9305 H   0  0  0  0  0  0
  1 25  1  0  0  0
  1 30  2  0  0  0
  1 86  1  0  0  0
  2  3  1  0  0  0
  2 25  1  0  0  0
  2 89  1  0  0  0
  2 90  1  0  0  0
  3  4  1  0  0  0
  3 91  1  0  0  0
  3 92  1  0  0  0
  4  5  1  0  0  0
  4 93  1  0  0  0
  4 94  1  0  0  0
  5  6  1  0  0  0
  5 26  1  0  0  0
  5 95  1  0  0  0
  6 25  1  0  0  0
  6 96  1  0  0  0
  6 97  1  0  0  0
  7  8  2  0  0  0
  7 26  1  0  0  0
  7 29  1  0  0  0
  8  9  1  0  0  0
  8 22  1  0  0  0
  9 10  1  0  0  0
  9 27  2  0  0  0
 10 11  2  0  0  0
 10 15  1  0  0  0
 11 12  1  0  0  0
 11 98  1  0  0  0
 12 13  2  0  0  0
 12 99  1  0  0  0
 13 14  1  0  0  0
 13 31  1  0  0  0
 14 15  2  0  0  0
 14100  1  0  0  0
 15101  1  0  0  0
 16 17  2  0  0  0
 16 21  1  0  0  0
 16 31  1  0  0  0
 17 18  1  0  0  0
 17102  1  0  0  0
 18 19  2  0  0  0
 18103  1  0  0  0
 19 20  1  0  0  0
 19 24  1  0  0  0
 20 21  2  0  0  0
 20104  1  0  0  0
 21 23  1  0  0  0
 22 28  1  0  0  0
 22 32  2  0  0  0
 26 27  1  0  0  0
 28105  1  0  0  0
 28106  1  0  0  0
 29107  1  0  0  0
 29108  1  0  0  0
 33 34  1  0  0  0
 33 66  1  0  0  0
 33 70  2  0  0  0
 34 36  1  0  0  0
 34 59  1  0  0  0
 34109  1  0  0  0
 35 44  2  0  0  0
 35 45  1  0  0  0
 35 68  1  0  0  0
 36 56  1  0  0  0
 36110  1  0  0  0
 37 39  1  0  0  0
 37 47  1  0  0  0
 37 66  1  0  0  0
 37111  1  0  0  0
 38 43  2  0  0  0
 38 46  1  0  0  0
 38 47  1  0  0  0
 39 64  1  0  0  0
 39 67  2  0  0  0
 40 52  1  0  0  0
 40 53  2  0  0  0
 40 58  1  0  0  0
 41112  1  0  0  0
 41113  1  0  0  0
 41114  1  0  0  0
 41 48  1  0  0  0
 42 43  1  0  0  0
 42 66  1  0  0  0
 42115  1  0  0  0
 42116  1  0  0  0
 43 44  1  0  0  0
 44117  1  0  0  0
 45 46  2  0  0  0
 45118  1  0  0  0
 46119  1  0  0  0
 47120  1  0  0  0
 47121  1  0  0  0
 48 56  1  0  0  0
 48 65  1  0  0  0
 48122  1  0  0  0
 49 50  1  0  0  0
 49 53  1  0  0  0
 49 64  1  0  0  0
 49123  1  0  0  0
 50 51  1  0  0  0
 50124  1  0  0  0
 50125  1  0  0  0
 51 52  1  0  0  0
 51126  1  0  0  0
 51127  1  0  0  0
 52128  1  0  0  0
 52129  1  0  0  0
 53 54  1  0  0  0
 54 55  2  0  0  0
 54130  1  0  0  0
 55 57  1  0  0  0
 55131  1  0  0  0
 56 69  2  0  0  0
 57 58  2  0  0  0
 57132  1  0  0  0
 58133  1  0  0  0
 59 60  1  0  0  0
 59 61  1  0  0  0
 59 62  1  0  0  0
 60134  1  0  0  0
 60135  1  0  0  0
 60136  1  0  0  0
 61137  1  0  0  0
 61138  1  0  0  0
 61139  1  0  0  0
 62140  1  0  0  0
 62141  1  0  0  0
 62142  1  0  0  0
 63 65  1  0  0  0
 63143  1  0  0  0
 63144  1  0  0  0
 63145  1  0  0  0
 64146  1  0  0  0
 65147  1  0  0  0
 68 80  1  0  0  0
 71 73  1  0  0  0
 71 84  2  0  0  0
 71148  1  0  0  0
 72 73  2  0  0  0
 72 85  1  0  0  0
 72149  1  0  0  0
 73 86  1  0  0  0
 74 76  1  0  0  0
 74150  1  0  0  0
 74151  1  0  0  0
 74152  1  0  0  0
 75153  1  0  0  0
 75154  1  0  0  0
 75155  1  0  0  0
 75 81  1  0  0  0
 76 83  1  0  0  0
 76156  1  0  0  0
 76157  1  0  0  0
 77 79  1  0  0  0
 77 81  1  0  0  0
 77158  1  0  0  0
 77159  1  0  0  0
 78 80  1  0  0  0
 78160  1  0  0  0
 78161  1  0  0  0
 78 82  1  0  0  0
 79 87  1  0  0  0
 79162  1  0  0  0
 79163  1  0  0  0
 80164  1  0  0  0
 80165  1  0  0  0
 81 85  1  0  0  0
 81166  1  0  0  0
 82 83  1  0  0  0
 82 87  1  0  0  0
 82167  1  0  0  0
 83 88  1  0  0  0
 83168  1  0  0  0
 84 85  1  0  0  0
 86169  1  0  0  0
 87170  1  0  0  0
 87171  1  0  0  0
 88172  1  0  0  0
M  CHG  1  87   1
M  ISO  4   1 100  68 101  80 101  86 100
M  END
> <chiral flag>
0

> <version>
0

> <s_m_source_file>
/data/baiqing/PycharmProjects/Reinvent-master-3.2/result/LINK_invent/BTK/process_docking_weight1_custom_product_contain_oxygen_bond_distance_aromatic_linkinvent_7_9_3/rearranged_h_0192.sdf

> <i_m_source_file_index>
97

> <r_mmod_Potential_Energy-OPLS-2005>
-189.028610229492

> <r_mmod_Stretch_Energy-OPLS-2005>
37.7055130004883

> <r_mmod_Bend_Energy-OPLS-2005>
128.604644775391

> <r_mmod_Torsional_Energy-OPLS-2005>
356.715972900391

> <r_mmod_Improper_Torsional_Energy-OPLS-2005>
11.0866661071777

> <r_mmod_Van_der_Waal_Energy-OPLS-2005>
125.517845153809

> <r_mmod_Electrostatic_Energy-OPLS-2005>
-402.415466308594

> <r_mmod_Solvation_Energy-OPLS-2005>
-458.044952392578

> <b_mmod_Minimization_Converged-OPLS-2005>
0

> <r_mmod_RMS_Derivative-OPLS-2005>
11.9994306564331

$$$$
