0
                    3D
 Structure written by MMmdl.
153161  0  0  1  0            999 V2000
  -30.7101  -14.4923   20.5873 C   0  0  0  0  0  0
  -30.4223  -12.3271   19.4266 C   0  0  0  0  0  0
  -29.4949  -12.5075   18.2083 C   0  0  0  0  0  0
  -28.0183  -12.3592   18.6226 C   0  0  0  0  0  0
  -27.6590  -13.2100   19.8701 C   0  0  2  0  0  0
  -28.7011  -13.0118   20.9936 C   0  0  0  0  0  0
  -25.2580  -13.8165   20.5674 C   0  0  0  0  0  0
  -24.1835  -13.0440   20.9173 C   0  0  0  0  0  0
  -24.6391  -11.6908   20.8733 C   0  0  0  0  0  0
  -23.9058  -10.4294   21.0409 C   0  0  0  0  0  0
  -24.3612   -9.4208   21.9188 C   0  0  0  0  0  0
  -23.6287   -8.2240   22.0756 C   0  0  0  0  0  0
  -22.4269   -8.0282   21.3546 C   0  0  0  0  0  0
  -21.9903   -9.0255   20.4649 C   0  0  0  0  0  0
  -22.7231  -10.2136   20.3061 C   0  0  0  0  0  0
  -21.6849   -6.0734   22.5282 C   0  0  0  0  0  0
  -21.4012   -6.5638   23.8214 C   0  0  0  0  0  0
  -21.3660   -5.6793   24.9178 C   0  0  0  0  0  0
  -21.6046   -4.3052   24.7227 C   0  0  0  0  0  0
  -21.8820   -3.8146   23.4346 C   0  0  0  0  0  0
  -21.9191   -4.6964   22.3406 C   0  0  0  0  0  0
  -22.7862  -13.5243   21.1844 C   0  0  0  0  0  0
  -22.1659   -4.2149   21.0982 F   0  0  0  0  0  0
  -21.5631   -3.4539   25.7737 F   0  0  0  0  0  0
  -30.0294  -13.3211   20.4392 N   0  0  0  0  0  0
  -26.3012  -12.9338   20.3343 N   0  0  0  0  0  0
  -25.9317  -11.6497   20.5754 N   0  0  0  0  0  0
  -22.0494  -12.8244   22.0401 N   0  0  0  0  0  0
  -25.4318  -15.1879   20.4078 N   0  0  0  0  0  0
  -31.8310  -14.6697   20.1038 O   0  0  0  0  0  0
  -21.6635   -6.8879   21.4244 O   0  0  0  0  0  0
  -22.3556  -14.5555   20.6695 O   0  0  0  0  0  0
  -24.6192  -31.8658   23.2070 C   0  0  0  0  0  0
  -25.9075  -32.4808   23.8380 C   0  0  1  0  0  0
  -27.2252  -27.3914   20.1007 C   0  0  0  0  0  0
  -25.5918  -33.8608   24.2303 N   0  0  0  0  0  0
  -23.4084  -30.4928   21.5486 C   0  0  2  0  0  0
  -24.8524  -28.9608   20.1091 C   0  0  0  0  0  0
  -22.7437  -29.4659   22.4955 C   0  0  0  0  0  0
  -18.0283  -28.1375   22.8492 C   0  0  0  0  0  0
  -24.1483  -36.7311   23.2630 C   0  0  0  0  0  0
  -25.9439  -30.8183   21.3694 C   0  0  0  0  0  0
  -26.0169  -29.4522   20.7118 C   0  0  0  0  0  0
  -27.2056  -28.6773   20.7032 C   0  0  0  0  0  0
  -26.0391  -26.9408   19.4701 C   0  0  0  0  0  0
  -24.8614  -27.7069   19.4814 C   0  0  0  0  0  0
  -23.6170  -29.8308   20.1617 C   0  0  0  0  0  0
  -25.4106  -36.3105   24.0326 C   0  0  1  0  0  0
  -20.5877  -28.3671   23.1288 C   0  0  2  0  0  0
  -20.6762  -26.9400   22.5400 C   0  0  0  0  0  0
  -19.5735  -26.6379   21.5202 C   0  0  0  0  0  0
  -18.1922  -26.7917   22.1627 C   0  0  0  0  0  0
  -19.1535  -28.8841   23.2889 C   0  0  0  0  0  0
  -18.9460  -30.1448   23.8898 C   0  0  0  0  0  0
  -17.6461  -30.6580   24.0568 C   0  0  0  0  0  0
  -25.9040  -34.9470   23.5109 C   0  0  0  0  0  0
  -16.5354  -29.9084   23.6324 C   0  0  0  0  0  0
  -16.7273  -28.6503   23.0346 C   0  0  0  0  0  0
  -26.4476  -31.6593   25.0728 C   0  0  0  0  0  0
  -25.3726  -31.3733   26.1463 C   0  0  0  0  0  0
  -27.0290  -30.3017   24.6148 C   0  0  0  0  0  0
  -27.6047  -32.4313   25.7506 C   0  0  0  0  0  0
  -27.5574  -37.1806   24.8464 C   0  0  0  0  0  0
  -21.4161  -29.3041   22.3696 N   0  0  0  0  0  0
  -26.4287  -37.3797   23.9411 N   0  0  0  0  0  0
  -24.6756  -31.0743   22.0987 N   0  0  0  0  0  0
  -23.4200  -28.8191   23.3001 O   0  0  0  0  0  0
  -28.3682  -26.5977   20.1555 O   0  0  0  0  0  0
  -26.5607  -34.8922   22.4673 O   0  0  0  0  0  0
  -23.5380  -32.1421   23.7447 O   0  0  0  0  0  0
  -28.7736  -19.5571   19.7258 C   0  0  0  0  0  0
  -28.9704  -18.1548   19.9133 C   0  0  0  0  0  0
  -29.6141  -20.2042   20.5925 C   0  0  0  0  0  0
  -29.9241  -18.0108   20.8827 C   0  0  0  0  0  0
  -29.9179  -21.6648   20.8872 C   0  0  0  0  0  0
  -30.6005  -16.8259   21.5450 C   0  0  0  0  0  0
  -28.9617  -22.7091   20.2348 C   0  0  0  0  0  0
  -29.2749  -24.2184   20.5083 C   0  0  0  0  0  0
  -28.1837  -25.1725   19.9401 C   0  0  0  0  0  0
  -30.0556  -15.4925   21.2120 N   0  0  0  0  0  0
  -30.3228  -19.2610   21.2993 O   0  0  0  0  0  0
  -31.4665  -12.4259   19.1246 H   0  0  0  0  0  0
  -30.3275  -11.3200   19.8354 H   0  0  0  0  0  0
  -29.7411  -11.7774   17.4361 H   0  0  0  0  0  0
  -29.6565  -13.4907   17.7635 H   0  0  0  0  0  0
  -27.8389  -11.3036   18.8322 H   0  0  0  0  0  0
  -27.3643  -12.6168   17.7883 H   0  0  0  0  0  0
  -27.6974  -14.2547   19.5594 H   0  0  0  0  0  0
  -28.6847  -11.9797   21.3473 H   0  0  0  0  0  0
  -28.4555  -13.6222   21.8632 H   0  0  0  0  0  0
  -25.2757   -9.5681   22.4760 H   0  0  0  0  0  0
  -23.9995   -7.4633   22.7472 H   0  0  0  0  0  0
  -21.0831   -8.8775   19.8954 H   0  0  0  0  0  0
  -22.3690  -10.9675   19.6168 H   0  0  0  0  0  0
  -21.2001   -7.6145   23.9719 H   0  0  0  0  0  0
  -21.1485   -6.0520   25.9080 H   0  0  0  0  0  0
  -22.0598   -2.7606   23.2849 H   0  0  0  0  0  0
  -22.4086  -11.9896   22.4792 H   0  0  0  0  0  0
  -21.1129  -13.1297   22.2618 H   0  0  0  0  0  0
  -24.6689  -15.8474   20.5179 H   0  0  0  0  0  0
  -26.2888  -15.6236   20.0920 H   0  0  0  0  0  0
  -26.7160  -32.5493   23.1150 H   0  0  0  0  0  0
  -25.0082  -33.9770   25.0460 H   0  0  0  0  0  0
  -22.6993  -31.3118   21.4094 H   0  0  0  0  0  0
  -23.3739  -35.9653   23.3306 H   0  0  0  0  0  0
  -24.3580  -36.8911   22.2043 H   0  0  0  0  0  0
  -23.7228  -37.6515   23.6640 H   0  0  0  0  0  0
  -26.0672  -31.5841   20.6026 H   0  0  0  0  0  0
  -26.8281  -30.8646   21.9936 H   0  0  0  0  0  0
  -28.0995  -29.0506   21.1834 H   0  0  0  0  0  0
  -25.9909  -25.9876   18.9646 H   0  0  0  0  0  0
  -23.9703  -27.3273   19.0012 H   0  0  0  0  0  0
  -23.7275  -30.6064   19.4028 H   0  0  0  0  0  0
  -22.7400  -29.2534   19.8635 H   0  0  0  0  0  0
  -25.1282  -36.1966   25.0819 H   0  0  0  0  0  0
  -20.9982  -28.3234   24.1403 H   0  0  0  0  0  0
  -20.5635  -26.2294   23.3603 H   0  0  0  0  0  0
  -21.6633  -26.7411   22.1208 H   0  0  0  0  0  0
  -19.6889  -25.6291   21.1222 H   0  0  0  0  0  0
  -19.6652  -27.3200   20.6737 H   0  0  0  0  0  0
  -17.4180  -26.6664   21.4042 H   0  0  0  0  0  0
  -18.0334  -26.0057   22.9022 H   0  0  0  0  0  0
  -19.7939  -30.7267   24.2254 H   0  0  0  0  0  0
  -17.5018  -31.6255   24.5178 H   0  0  0  0  0  0
  -15.5353  -30.2991   23.7634 H   0  0  0  0  0  0
  -15.8677  -28.0824   22.7046 H   0  0  0  0  0  0
  -24.5916  -30.7059   25.7803 H   0  0  0  0  0  0
  -24.8899  -32.2901   26.4858 H   0  0  0  0  0  0
  -25.8058  -30.8938   27.0248 H   0  0  0  0  0  0
  -26.2839  -29.6808   24.1159 H   0  0  0  0  0  0
  -27.3971  -29.7239   25.4633 H   0  0  0  0  0  0
  -27.8728  -30.4298   23.9365 H   0  0  0  0  0  0
  -27.2667  -33.3627   26.2064 H   0  0  0  0  0  0
  -28.3879  -32.6836   25.0346 H   0  0  0  0  0  0
  -28.0689  -31.8437   26.5435 H   0  0  0  0  0  0
  -28.2601  -38.0094   24.7514 H   0  0  0  0  0  0
  -28.1054  -36.2624   24.6290 H   0  0  0  0  0  0
  -27.2295  -37.1465   25.8867 H   0  0  0  0  0  0
  -20.9324  -29.8810   21.6957 H   0  0  0  0  0  0
  -26.0170  -38.2874   24.1418 H   0  0  0  0  0  0
  -28.1003  -20.0365   19.0284 H   0  0  0  0  0  0
  -28.4790  -17.3445   19.3930 H   0  0  0  0  0  0
  -30.9384  -21.8777   20.5679 H   0  0  0  0  0  0
  -29.9127  -21.8111   21.9679 H   0  0  0  0  0  0
  -31.6690  -16.8682   21.3287 H   0  0  0  0  0  0
  -30.5269  -16.9410   22.6267 H   0  0  0  0  0  0
  -27.9482  -22.4950   20.5764 H   0  0  0  0  0  0
  -28.9513  -22.5490   19.1564 H   0  0  0  0  0  0
  -30.2446  -24.4750   20.0826 H   0  0  0  0  0  0
  -29.3603  -24.3792   21.5838 H   0  0  0  0  0  0
  -28.0874  -24.9971   18.8678 H   0  0  0  0  0  0
  -27.2481  -24.8534   20.4017 H   0  0  0  0  0  0
  -29.1288  -15.2845   21.5502 H   0  0  0  0  0  0
  1 25  1  0  0  0
  1 30  2  0  0  0
  1 80  1  0  0  0
  2  3  1  0  0  0
  2 25  1  0  0  0
  2 82  1  0  0  0
  2 83  1  0  0  0
  3  4  1  0  0  0
  3 84  1  0  0  0
  3 85  1  0  0  0
  4  5  1  0  0  0
  4 86  1  0  0  0
  4 87  1  0  0  0
  5  6  1  0  0  0
  5 26  1  0  0  0
  5 88  1  0  0  0
  6 25  1  0  0  0
  6 89  1  0  0  0
  6 90  1  0  0  0
  7  8  2  0  0  0
  7 26  1  0  0  0
  7 29  1  0  0  0
  8  9  1  0  0  0
  8 22  1  0  0  0
  9 10  1  0  0  0
  9 27  2  0  0  0
 10 11  2  0  0  0
 10 15  1  0  0  0
 11 12  1  0  0  0
 11 91  1  0  0  0
 12 13  2  0  0  0
 12 92  1  0  0  0
 13 14  1  0  0  0
 13 31  1  0  0  0
 14 15  2  0  0  0
 14 93  1  0  0  0
 15 94  1  0  0  0
 16 17  2  0  0  0
 16 21  1  0  0  0
 16 31  1  0  0  0
 17 18  1  0  0  0
 17 95  1  0  0  0
 18 19  2  0  0  0
 18 96  1  0  0  0
 19 20  1  0  0  0
 19 24  1  0  0  0
 20 21  2  0  0  0
 20 97  1  0  0  0
 21 23  1  0  0  0
 22 28  1  0  0  0
 22 32  2  0  0  0
 26 27  1  0  0  0
 28 98  1  0  0  0
 28 99  1  0  0  0
 29100  1  0  0  0
 29101  1  0  0  0
 33 34  1  0  0  0
 33 66  1  0  0  0
 33 70  2  0  0  0
 34 36  1  0  0  0
 34 59  1  0  0  0
 34102  1  0  0  0
 35 44  2  0  0  0
 35 45  1  0  0  0
 35 68  1  0  0  0
 36 56  1  0  0  0
 36103  1  0  0  0
 37 39  1  0  0  0
 37 47  1  0  0  0
 37 66  1  0  0  0
 37104  1  0  0  0
 38 43  2  0  0  0
 38 46  1  0  0  0
 38 47  1  0  0  0
 39 64  1  0  0  0
 39 67  2  0  0  0
 40 52  1  0  0  0
 40 53  2  0  0  0
 40 58  1  0  0  0
 41105  1  0  0  0
 41106  1  0  0  0
 41107  1  0  0  0
 41 48  1  0  0  0
 42 43  1  0  0  0
 42 66  1  0  0  0
 42108  1  0  0  0
 42109  1  0  0  0
 43 44  1  0  0  0
 44110  1  0  0  0
 45 46  2  0  0  0
 45111  1  0  0  0
 46112  1  0  0  0
 47113  1  0  0  0
 47114  1  0  0  0
 48 56  1  0  0  0
 48 65  1  0  0  0
 48115  1  0  0  0
 49 50  1  0  0  0
 49 53  1  0  0  0
 49 64  1  0  0  0
 49116  1  0  0  0
 50 51  1  0  0  0
 50117  1  0  0  0
 50118  1  0  0  0
 51 52  1  0  0  0
 51119  1  0  0  0
 51120  1  0  0  0
 52121  1  0  0  0
 52122  1  0  0  0
 53 54  1  0  0  0
 54 55  2  0  0  0
 54123  1  0  0  0
 55 57  1  0  0  0
 55124  1  0  0  0
 56 69  2  0  0  0
 57 58  2  0  0  0
 57125  1  0  0  0
 58126  1  0  0  0
 59 60  1  0  0  0
 59 61  1  0  0  0
 59 62  1  0  0  0
 60127  1  0  0  0
 60128  1  0  0  0
 60129  1  0  0  0
 61130  1  0  0  0
 61131  1  0  0  0
 61132  1  0  0  0
 62133  1  0  0  0
 62134  1  0  0  0
 62135  1  0  0  0
 63 65  1  0  0  0
 63136  1  0  0  0
 63137  1  0  0  0
 63138  1  0  0  0
 64139  1  0  0  0
 65140  1  0  0  0
 68 79  1  0  0  0
 71 72  1  0  0  0
 71 73  2  0  0  0
 71141  1  0  0  0
 72 74  2  0  0  0
 72142  1  0  0  0
 73 75  1  0  0  0
 73 81  1  0  0  0
 74 76  1  0  0  0
 74 81  1  0  0  0
 75 77  1  0  0  0
 75143  1  0  0  0
 75144  1  0  0  0
 76 80  1  0  0  0
 76145  1  0  0  0
 76146  1  0  0  0
 77 78  1  0  0  0
 77147  1  0  0  0
 77148  1  0  0  0
 78 79  1  0  0  0
 78149  1  0  0  0
 78150  1  0  0  0
 79151  1  0  0  0
 79152  1  0  0  0
 80153  1  0  0  0
M  ISO  4   1 100  68 101  79 101  80 100
M  END
> <chiral flag>
0

> <version>
0

> <s_m_source_file>
/data/baiqing/PycharmProjects/Reinvent-master-3.2/result/LINK_invent/BTK/process_docking_weight1_custom_product_contain_oxygen_bond_distance_aromatic_linkinvent_7_9_3/rearranged_h_0132.sdf

> <i_m_source_file_index>
1

> <r_mmod_Potential_Energy-OPLS-2005>
-146.10432434082

> <r_mmod_Stretch_Energy-OPLS-2005>
42.5247344970703

> <r_mmod_Bend_Energy-OPLS-2005>
97.5318145751953

> <r_mmod_Torsional_Energy-OPLS-2005>
184.903915405273

> <r_mmod_Improper_Torsional_Energy-OPLS-2005>
2.35124826431274

> <r_mmod_Van_der_Waal_Energy-OPLS-2005>
131.042922973633

> <r_mmod_Electrostatic_Energy-OPLS-2005>
-415.355102539062

> <r_mmod_Solvation_Energy-OPLS-2005>
-208.57194519043

> <b_mmod_Minimization_Converged-OPLS-2005>
0

> <r_mmod_RMS_Derivative-OPLS-2005>
1.17835092544556

$$$$
1
                    3D
 Structure written by MMmdl.
159167  0  0  1  0            999 V2000
  -30.7072  -14.4770   20.5307 C   0  0  0  0  0  0
  -30.4157  -12.2935   19.4341 C   0  0  0  0  0  0
  -29.4969  -12.4912   18.2103 C   0  0  0  0  0  0
  -28.0174  -12.3524   18.6194 C   0  0  0  0  0  0
  -27.6572  -13.2094   19.8629 C   0  0  2  0  0  0
  -28.7004  -13.0306   20.9904 C   0  0  0  0  0  0
  -25.2575  -13.8174   20.5676 C   0  0  0  0  0  0
  -24.1828  -13.0454   20.9173 C   0  0  0  0  0  0
  -24.6387  -11.6918   20.8742 C   0  0  0  0  0  0
  -23.9058  -10.4300   21.0408 C   0  0  0  0  0  0
  -24.3610   -9.4218   21.9185 C   0  0  0  0  0  0
  -23.6288   -8.2254   22.0763 C   0  0  0  0  0  0
  -22.4271   -8.0283   21.3551 C   0  0  0  0  0  0
  -21.9899   -9.0261   20.4657 C   0  0  0  0  0  0
  -22.7232  -10.2138   20.3058 C   0  0  0  0  0  0
  -21.6854   -6.0727   22.5276 C   0  0  0  0  0  0
  -21.4019   -6.5634   23.8209 C   0  0  0  0  0  0
  -21.3661   -5.6787   24.9172 C   0  0  0  0  0  0
  -21.6048   -4.3050   24.7228 C   0  0  0  0  0  0
  -21.8820   -3.8140   23.4351 C   0  0  0  0  0  0
  -21.9193   -4.6952   22.3404 C   0  0  0  0  0  0
  -22.7854  -13.5254   21.1852 C   0  0  0  0  0  0
  -22.1658   -4.2141   21.0980 F   0  0  0  0  0  0
  -21.5631   -3.4532   25.7739 F   0  0  0  0  0  0
  -30.0329  -13.3002   20.4349 N   0  0  0  0  0  0
  -26.3004  -12.9343   20.3321 N   0  0  0  0  0  0
  -25.9312  -11.6504   20.5756 N   0  0  0  0  0  0
  -22.0479  -12.8258   22.0400 N   0  0  0  0  0  0
  -25.4314  -15.1892   20.4117 N   0  0  0  0  0  0
  -31.8621  -14.5929   20.1110 O   0  0  0  0  0  0
  -21.6645   -6.8874   21.4238 O   0  0  0  0  0  0
  -22.3550  -14.5567   20.6709 O   0  0  0  0  0  0
  -24.6142  -31.8689   23.2100 C   0  0  0  0  0  0
  -25.9046  -32.4829   23.8392 C   0  0  1  0  0  0
  -27.2355  -27.4509   20.0919 C   0  0  0  0  0  0
  -25.5905  -33.8627   24.2331 N   0  0  0  0  0  0
  -23.4000  -30.4920   21.5514 C   0  0  2  0  0  0
  -24.8473  -28.9562   20.1161 C   0  0  0  0  0  0
  -22.7400  -29.4662   22.5010 C   0  0  0  0  0  0
  -18.0275  -28.1362   22.8465 C   0  0  0  0  0  0
  -24.1481  -36.7319   23.2634 C   0  0  0  0  0  0
  -25.9261  -30.8407   21.3571 C   0  0  0  0  0  0
  -26.0068  -29.4738   20.7084 C   0  0  0  0  0  0
  -27.2061  -28.7289   20.6913 C   0  0  0  0  0  0
  -26.0619  -26.9421   19.4951 C   0  0  0  0  0  0
  -24.8688  -27.6878   19.5077 C   0  0  0  0  0  0
  -23.6075  -29.8206   20.1668 C   0  0  0  0  0  0
  -25.4100  -36.3117   24.0336 C   0  0  1  0  0  0
  -20.5855  -28.3651   23.1325 C   0  0  2  0  0  0
  -20.6781  -26.9408   22.5392 C   0  0  0  0  0  0
  -19.5776  -26.6427   21.5157 C   0  0  0  0  0  0
  -18.1947  -26.7921   22.1565 C   0  0  0  0  0  0
  -19.1514  -28.8817   23.2898 C   0  0  0  0  0  0
  -18.9437  -30.1416   23.8926 C   0  0  0  0  0  0
  -17.6440  -30.6563   24.0561 C   0  0  0  0  0  0
  -25.9030  -34.9479   23.5124 C   0  0  0  0  0  0
  -16.5337  -29.9062   23.6313 C   0  0  0  0  0  0
  -16.7265  -28.6485   23.0322 C   0  0  0  0  0  0
  -26.4473  -31.6604   25.0713 C   0  0  0  0  0  0
  -25.3739  -31.3720   26.1465 C   0  0  0  0  0  0
  -27.0294  -30.3051   24.6056 C   0  0  0  0  0  0
  -27.6052  -32.4312   25.7477 C   0  0  0  0  0  0
  -27.5577  -37.1820   24.8464 C   0  0  0  0  0  0
  -21.4131  -29.3044   22.3763 N   0  0  0  0  0  0
  -26.4288  -37.3799   23.9402 N   0  0  0  0  0  0
  -24.6655  -31.0807   22.0995 N   0  0  0  0  0  0
  -23.4183  -28.8194   23.3030 O   0  0  0  0  0  0
  -28.3956  -26.7126   20.0938 O   0  0  0  0  0  0
  -26.5584  -34.8927   22.4684 O   0  0  0  0  0  0
  -23.5346  -32.1439   23.7509 O   0  0  0  0  0  0
  -29.1563  -20.1756   21.9507 C   0  0  0  0  0  0
  -29.7901  -18.9360   21.7366 C   0  0  0  0  0  0
  -28.4961  -20.2474   19.6176 C   0  0  0  0  0  0
  -28.5062  -20.8503   20.8963 C   0  0  0  0  0  0
  -29.7869  -18.3330   20.4620 C   0  0  0  0  0  0
  -29.1259  -18.9998   19.3944 C   0  0  0  0  0  0
  -28.3178  -24.2665   19.7735 C   0  0  0  0  0  0
  -29.0807  -18.4116   17.9939 C   0  0  0  0  0  0
  -27.7824  -22.1639   21.2145 C   0  0  0  0  0  0
  -30.5587  -17.0233   20.2632 C   0  0  0  0  0  0
  -27.3677  -23.0933   20.0433 C   0  0  0  0  0  0
  -28.2776  -25.4454   20.7597 C   0  0  0  0  0  0
  -29.9911  -15.7705   20.9917 C   0  0  0  0  0  0
  -29.0646  -24.2675   18.7901 O   0  0  0  0  0  0
  -31.4641  -12.3658   19.1393 H   0  0  0  0  0  0
  -30.2936  -11.2921   19.8500 H   0  0  0  0  0  0
  -29.7396  -11.7613   17.4368 H   0  0  0  0  0  0
  -29.6711  -13.4756   17.7720 H   0  0  0  0  0  0
  -27.8330  -11.2990   18.8313 H   0  0  0  0  0  0
  -27.3691  -12.6129   17.7813 H   0  0  0  0  0  0
  -27.6874  -14.2481   19.5356 H   0  0  0  0  0  0
  -28.6688  -12.0149   21.3872 H   0  0  0  0  0  0
  -28.4777  -13.6844   21.8344 H   0  0  0  0  0  0
  -25.2752   -9.5698   22.4762 H   0  0  0  0  0  0
  -24.0001   -7.4649   22.7481 H   0  0  0  0  0  0
  -21.0835   -8.8797   19.8962 H   0  0  0  0  0  0
  -22.3701  -10.9687   19.6174 H   0  0  0  0  0  0
  -21.2010   -7.6141   23.9713 H   0  0  0  0  0  0
  -21.1481   -6.0515   25.9079 H   0  0  0  0  0  0
  -22.0595   -2.7602   23.2858 H   0  0  0  0  0  0
  -22.4086  -11.9932   22.4819 H   0  0  0  0  0  0
  -21.1108  -13.1325   22.2603 H   0  0  0  0  0  0
  -24.6702  -15.8487   20.5271 H   0  0  0  0  0  0
  -26.2930  -15.6305   20.1156 H   0  0  0  0  0  0
  -26.7115  -32.5539   23.1156 H   0  0  0  0  0  0
  -25.0086  -33.9778   25.0497 H   0  0  0  0  0  0
  -22.6872  -31.3075   21.4125 H   0  0  0  0  0  0
  -23.3729  -35.9667   23.3314 H   0  0  0  0  0  0
  -24.3582  -36.8919   22.2047 H   0  0  0  0  0  0
  -23.7245  -37.6535   23.6635 H   0  0  0  0  0  0
  -26.0270  -31.6041   20.5845 H   0  0  0  0  0  0
  -26.8180  -30.9028   21.9686 H   0  0  0  0  0  0
  -28.1016  -29.1222   21.1524 H   0  0  0  0  0  0
  -26.0685  -25.9764   19.0105 H   0  0  0  0  0  0
  -23.9777  -27.2851   19.0469 H   0  0  0  0  0  0
  -23.7131  -30.5938   19.4049 H   0  0  0  0  0  0
  -22.7322  -29.2386   19.8734 H   0  0  0  0  0  0
  -25.1277  -36.1984   25.0831 H   0  0  0  0  0  0
  -20.9928  -28.3198   24.1454 H   0  0  0  0  0  0
  -20.5690  -26.2246   23.3543 H   0  0  0  0  0  0
  -21.6657  -26.7477   22.1179 H   0  0  0  0  0  0
  -19.6959  -25.6372   21.1106 H   0  0  0  0  0  0
  -19.6731  -27.3314   20.6749 H   0  0  0  0  0  0
  -17.4230  -26.6693   21.3948 H   0  0  0  0  0  0
  -18.0349  -26.0048   22.8947 H   0  0  0  0  0  0
  -19.7911  -30.7214   24.2330 H   0  0  0  0  0  0
  -17.4990  -31.6236   24.5178 H   0  0  0  0  0  0
  -15.5339  -30.2970   23.7617 H   0  0  0  0  0  0
  -15.8668  -28.0817   22.7015 H   0  0  0  0  0  0
  -24.5894  -30.7085   25.7806 H   0  0  0  0  0  0
  -24.8950  -32.2889   26.4918 H   0  0  0  0  0  0
  -25.8097  -30.8893   27.0218 H   0  0  0  0  0  0
  -26.2839  -29.6824   24.1096 H   0  0  0  0  0  0
  -27.4066  -29.7272   25.4501 H   0  0  0  0  0  0
  -27.8669  -30.4379   23.9198 H   0  0  0  0  0  0
  -27.2673  -33.3586   26.2104 H   0  0  0  0  0  0
  -28.3846  -32.6910   25.0303 H   0  0  0  0  0  0
  -28.0727  -31.8403   26.5361 H   0  0  0  0  0  0
  -28.2611  -38.0099   24.7496 H   0  0  0  0  0  0
  -28.1055  -36.2638   24.6302 H   0  0  0  0  0  0
  -27.2297  -37.1488   25.8867 H   0  0  0  0  0  0
  -20.9287  -29.8819   21.7034 H   0  0  0  0  0  0
  -26.0181  -38.2881   24.1395 H   0  0  0  0  0  0
  -29.1652  -20.6045   22.9435 H   0  0  0  0  0  0
  -30.2892  -18.4513   22.5637 H   0  0  0  0  0  0
  -27.9968  -20.7277   18.7902 H   0  0  0  0  0  0
  -28.4371  -18.9925   17.3313 H   0  0  0  0  0  0
  -28.6940  -17.3926   18.0149 H   0  0  0  0  0  0
  -30.0780  -18.3970   17.5528 H   0  0  0  0  0  0
  -28.3850  -22.7211   21.9340 H   0  0  0  0  0  0
  -26.8776  -21.8891   21.7574 H   0  0  0  0  0  0
  -31.5801  -17.2023   20.6055 H   0  0  0  0  0  0
  -30.6591  -16.8023   19.2014 H   0  0  0  0  0  0
  -27.1430  -22.5587   19.1241 H   0  0  0  0  0  0
  -26.4242  -23.5627   20.3244 H   0  0  0  0  0  0
  -29.1129  -25.3409   21.4511 H   0  0  0  0  0  0
  -27.3692  -25.3925   21.3618 H   0  0  0  0  0  0
  -28.9264  -15.7065   20.7787 H   0  0  0  0  0  0
  -30.0940  -15.8720   22.0717 H   0  0  0  0  0  0
  1 25  1  0  0  0
  1 30  2  0  0  0
  1 83  1  0  0  0
  2  3  1  0  0  0
  2 25  1  0  0  0
  2 85  1  0  0  0
  2 86  1  0  0  0
  3  4  1  0  0  0
  3 87  1  0  0  0
  3 88  1  0  0  0
  4  5  1  0  0  0
  4 89  1  0  0  0
  4 90  1  0  0  0
  5  6  1  0  0  0
  5 26  1  0  0  0
  5 91  1  0  0  0
  6 25  1  0  0  0
  6 92  1  0  0  0
  6 93  1  0  0  0
  7  8  2  0  0  0
  7 26  1  0  0  0
  7 29  1  0  0  0
  8  9  1  0  0  0
  8 22  1  0  0  0
  9 10  1  0  0  0
  9 27  2  0  0  0
 10 11  2  0  0  0
 10 15  1  0  0  0
 11 12  1  0  0  0
 11 94  1  0  0  0
 12 13  2  0  0  0
 12 95  1  0  0  0
 13 14  1  0  0  0
 13 31  1  0  0  0
 14 15  2  0  0  0
 14 96  1  0  0  0
 15 97  1  0  0  0
 16 17  2  0  0  0
 16 21  1  0  0  0
 16 31  1  0  0  0
 17 18  1  0  0  0
 17 98  1  0  0  0
 18 19  2  0  0  0
 18 99  1  0  0  0
 19 20  1  0  0  0
 19 24  1  0  0  0
 20 21  2  0  0  0
 20100  1  0  0  0
 21 23  1  0  0  0
 22 28  1  0  0  0
 22 32  2  0  0  0
 26 27  1  0  0  0
 28101  1  0  0  0
 28102  1  0  0  0
 29103  1  0  0  0
 29104  1  0  0  0
 33 34  1  0  0  0
 33 66  1  0  0  0
 33 70  2  0  0  0
 34 36  1  0  0  0
 34 59  1  0  0  0
 34105  1  0  0  0
 35 44  2  0  0  0
 35 45  1  0  0  0
 35 68  1  0  0  0
 36 56  1  0  0  0
 36106  1  0  0  0
 37 39  1  0  0  0
 37 47  1  0  0  0
 37 66  1  0  0  0
 37107  1  0  0  0
 38 43  2  0  0  0
 38 46  1  0  0  0
 38 47  1  0  0  0
 39 64  1  0  0  0
 39 67  2  0  0  0
 40 52  1  0  0  0
 40 53  2  0  0  0
 40 58  1  0  0  0
 41108  1  0  0  0
 41109  1  0  0  0
 41110  1  0  0  0
 41 48  1  0  0  0
 42 43  1  0  0  0
 42 66  1  0  0  0
 42111  1  0  0  0
 42112  1  0  0  0
 43 44  1  0  0  0
 44113  1  0  0  0
 45 46  2  0  0  0
 45114  1  0  0  0
 46115  1  0  0  0
 47116  1  0  0  0
 47117  1  0  0  0
 48 56  1  0  0  0
 48 65  1  0  0  0
 48118  1  0  0  0
 49 50  1  0  0  0
 49 53  1  0  0  0
 49 64  1  0  0  0
 49119  1  0  0  0
 50 51  1  0  0  0
 50120  1  0  0  0
 50121  1  0  0  0
 51 52  1  0  0  0
 51122  1  0  0  0
 51123  1  0  0  0
 52124  1  0  0  0
 52125  1  0  0  0
 53 54  1  0  0  0
 54 55  2  0  0  0
 54126  1  0  0  0
 55 57  1  0  0  0
 55127  1  0  0  0
 56 69  2  0  0  0
 57 58  2  0  0  0
 57128  1  0  0  0
 58129  1  0  0  0
 59 60  1  0  0  0
 59 61  1  0  0  0
 59 62  1  0  0  0
 60130  1  0  0  0
 60131  1  0  0  0
 60132  1  0  0  0
 61133  1  0  0  0
 61134  1  0  0  0
 61135  1  0  0  0
 62136  1  0  0  0
 62137  1  0  0  0
 62138  1  0  0  0
 63 65  1  0  0  0
 63139  1  0  0  0
 63140  1  0  0  0
 63141  1  0  0  0
 64142  1  0  0  0
 65143  1  0  0  0
 68 82  1  0  0  0
 71 72  2  0  0  0
 71 74  1  0  0  0
 71144  1  0  0  0
 72 75  1  0  0  0
 72145  1  0  0  0
 73 74  2  0  0  0
 73 76  1  0  0  0
 73146  1  0  0  0
 74 79  1  0  0  0
 75 76  2  0  0  0
 75 80  1  0  0  0
 76 78  1  0  0  0
 77 81  1  0  0  0
 77 82  1  0  0  0
 77 84  2  0  0  0
 78147  1  0  0  0
 78148  1  0  0  0
 78149  1  0  0  0
 79 81  1  0  0  0
 79150  1  0  0  0
 79151  1  0  0  0
 80 83  1  0  0  0
 80152  1  0  0  0
 80153  1  0  0  0
 81154  1  0  0  0
 81155  1  0  0  0
 82156  1  0  0  0
 82157  1  0  0  0
 83158  1  0  0  0
 83159  1  0  0  0
M  ISO  4   1 100  68 101  82 101  83 100
M  END
> <chiral flag>
0

> <version>
0

> <s_m_source_file>
/data/baiqing/PycharmProjects/Reinvent-master-3.2/result/LINK_invent/BTK/process_docking_weight1_custom_product_contain_oxygen_bond_distance_aromatic_linkinvent_7_9_3/rearranged_h_0132.sdf

> <i_m_source_file_index>
2

> <r_mmod_Potential_Energy-OPLS-2005>
-45.5506782531738

> <r_mmod_Stretch_Energy-OPLS-2005>
36.5348968505859

> <r_mmod_Bend_Energy-OPLS-2005>
95.5085372924805

> <r_mmod_Torsional_Energy-OPLS-2005>
208.512680053711

> <r_mmod_Improper_Torsional_Energy-OPLS-2005>
3.9155604839325

> <r_mmod_Van_der_Waal_Energy-OPLS-2005>
148.887512207031

> <r_mmod_Electrostatic_Energy-OPLS-2005>
-341.252136230469

> <r_mmod_Solvation_Energy-OPLS-2005>
-212.369003295898

> <b_mmod_Minimization_Converged-OPLS-2005>
0

> <r_mmod_RMS_Derivative-OPLS-2005>
1.68919253349304

$$$$
2
                    3D
 Structure written by MMmdl.
156164  0  0  1  0            999 V2000
  -30.7152  -14.4463   20.5910 C   0  0  0  0  0  0
  -30.4185  -12.2916   19.4236 C   0  0  0  0  0  0
  -29.4942  -12.5009   18.2073 C   0  0  0  0  0  0
  -28.0153  -12.3617   18.6183 C   0  0  0  0  0  0
  -27.6616  -13.2063   19.8716 C   0  0  2  0  0  0
  -28.7028  -12.9985   20.9950 C   0  0  0  0  0  0
  -25.2597  -13.8162   20.5682 C   0  0  0  0  0  0
  -24.1844  -13.0440   20.9171 C   0  0  0  0  0  0
  -24.6395  -11.6905   20.8728 C   0  0  0  0  0  0
  -23.9060  -10.4293   21.0402 C   0  0  0  0  0  0
  -24.3612   -9.4210   21.9181 C   0  0  0  0  0  0
  -23.6290   -8.2245   22.0753 C   0  0  0  0  0  0
  -22.4272   -8.0281   21.3544 C   0  0  0  0  0  0
  -21.9906   -9.0253   20.4645 C   0  0  0  0  0  0
  -22.7233  -10.2134   20.3052 C   0  0  0  0  0  0
  -21.6852   -6.0735   22.5279 C   0  0  0  0  0  0
  -21.4012   -6.5639   23.8212 C   0  0  0  0  0  0
  -21.3660   -5.6792   24.9175 C   0  0  0  0  0  0
  -21.6045   -4.3055   24.7225 C   0  0  0  0  0  0
  -21.8820   -3.8147   23.4346 C   0  0  0  0  0  0
  -21.9193   -4.6963   22.3402 C   0  0  0  0  0  0
  -22.7867  -13.5239   21.1841 C   0  0  0  0  0  0
  -22.1662   -4.2149   21.0980 F   0  0  0  0  0  0
  -21.5630   -3.4539   25.7738 F   0  0  0  0  0  0
  -30.0365  -13.2776   20.4456 N   0  0  0  0  0  0
  -26.3030  -12.9330   20.3355 N   0  0  0  0  0  0
  -25.9323  -11.6490   20.5757 N   0  0  0  0  0  0
  -22.0506  -12.8230   22.0395 N   0  0  0  0  0  0
  -25.4335  -15.1879   20.4107 N   0  0  0  0  0  0
  -31.8400  -14.6049   20.1059 O   0  0  0  0  0  0
  -21.6638   -6.8878   21.4241 O   0  0  0  0  0  0
  -22.3552  -14.5549   20.6696 O   0  0  0  0  0  0
  -24.6125  -31.8698   23.2125 C   0  0  0  0  0  0
  -25.9029  -32.4833   23.8412 C   0  0  1  0  0  0
  -27.2313  -27.4484   20.1039 C   0  0  0  0  0  0
  -25.5897  -33.8631   24.2346 N   0  0  0  0  0  0
  -23.4005  -30.4930   21.5517 C   0  0  2  0  0  0
  -24.8494  -28.9601   20.1173 C   0  0  0  0  0  0
  -22.7401  -29.4665   22.4998 C   0  0  0  0  0  0
  -18.0270  -28.1373   22.8492 C   0  0  0  0  0  0
  -24.1486  -36.7318   23.2637 C   0  0  0  0  0  0
  -25.9273  -30.8379   21.3663 C   0  0  0  0  0  0
  -26.0060  -29.4702   20.7224 C   0  0  0  0  0  0
  -27.2019  -28.7174   20.7233 C   0  0  0  0  0  0
  -26.0685  -26.9570   19.4788 C   0  0  0  0  0  0
  -24.8732  -27.6993   19.4955 C   0  0  0  0  0  0
  -23.6101  -29.8250   20.1661 C   0  0  0  0  0  0
  -25.4105  -36.3119   24.0343 C   0  0  1  0  0  0
  -20.5859  -28.3658   23.1321 C   0  0  2  0  0  0
  -20.6762  -26.9396   22.5415 C   0  0  0  0  0  0
  -19.5742  -26.6385   21.5209 C   0  0  0  0  0  0
  -18.1919  -26.7920   22.1621 C   0  0  0  0  0  0
  -19.1520  -28.8831   23.2904 C   0  0  0  0  0  0
  -18.9450  -30.1437   23.8915 C   0  0  0  0  0  0
  -17.6453  -30.6581   24.0564 C   0  0  0  0  0  0
  -25.9031  -34.9482   23.5140 C   0  0  0  0  0  0
  -16.5344  -29.9084   23.6323 C   0  0  0  0  0  0
  -16.7261  -28.6500   23.0347 C   0  0  0  0  0  0
  -26.4469  -31.6599   25.0724 C   0  0  0  0  0  0
  -25.3745  -31.3694   26.1478 C   0  0  0  0  0  0
  -27.0293  -30.3047   24.6074 C   0  0  0  0  0  0
  -27.6052  -32.4307   25.7483 C   0  0  0  0  0  0
  -27.5583  -37.1813   24.8465 C   0  0  0  0  0  0
  -21.4131  -29.3030   22.3732 N   0  0  0  0  0  0
  -26.4294  -37.3800   23.9410 N   0  0  0  0  0  0
  -24.6645  -31.0812   22.1021 N   0  0  0  0  0  0
  -23.4177  -28.8211   23.3039 O   0  0  0  0  0  0
  -28.3762  -26.6915   20.0479 O   0  0  0  0  0  0
  -26.5586  -34.8927   22.4697 O   0  0  0  0  0  0
  -23.5322  -32.1443   23.7530 O   0  0  0  0  0  0
  -29.1521  -18.7686   20.2319 C   0  0  0  0  0  0
  -28.4925  -20.0031   20.3961 C   0  0  0  0  0  0
  -30.1629  -19.0196   22.4297 C   0  0  0  0  0  0
  -30.0003  -18.2721   21.2431 C   0  0  0  0  0  0
  -28.6648  -20.7626   21.5740 C   0  0  0  0  0  0
  -29.5031  -20.2574   22.5985 C   0  0  0  0  0  0
  -27.9493  -24.6471   21.3673 C   0  0  0  0  0  0
  -30.7962  -16.9935   21.0016 C   0  0  0  0  0  0
  -27.9162  -22.0876   21.7187 C   0  0  0  0  0  0
  -28.7606  -23.3391   21.3726 C   0  0  0  0  0  0
  -28.7194  -25.9786   21.2453 C   0  0  0  0  0  0
  -30.0273  -15.6677   21.2459 C   0  0  0  0  0  0
  -26.7199  -24.6314   21.4867 O   0  0  0  0  0  0
  -29.7496  -21.1408   24.0636 Cl  0  0  0  0  0  0
  -31.4645  -12.3763   19.1239 H   0  0  0  0  0  0
  -30.3062  -11.2816   19.8208 H   0  0  0  0  0  0
  -29.7333  -11.7798   17.4247 H   0  0  0  0  0  0
  -29.6668  -13.4890   17.7776 H   0  0  0  0  0  0
  -27.8261  -11.3062   18.8177 H   0  0  0  0  0  0
  -27.3653  -12.6337   17.7858 H   0  0  0  0  0  0
  -27.7027  -14.2513   19.5654 H   0  0  0  0  0  0
  -28.6684  -11.9708   21.3592 H   0  0  0  0  0  0
  -28.4714  -13.6239   21.8576 H   0  0  0  0  0  0
  -25.2759   -9.5687   22.4753 H   0  0  0  0  0  0
  -24.0001   -7.4637   22.7472 H   0  0  0  0  0  0
  -21.0838   -8.8770   19.8950 H   0  0  0  0  0  0
  -22.3692  -10.9671   19.6159 H   0  0  0  0  0  0
  -21.2002   -7.6146   23.9715 H   0  0  0  0  0  0
  -21.1481   -6.0522   25.9077 H   0  0  0  0  0  0
  -22.0599   -2.7609   23.2847 H   0  0  0  0  0  0
  -22.4118  -11.9885   22.4777 H   0  0  0  0  0  0
  -21.1126  -13.1259   22.2603 H   0  0  0  0  0  0
  -24.6727  -15.8482   20.5282 H   0  0  0  0  0  0
  -26.2970  -15.6275   20.1174 H   0  0  0  0  0  0
  -26.7103  -32.5564   23.1184 H   0  0  0  0  0  0
  -25.0069  -33.9797   25.0505 H   0  0  0  0  0  0
  -22.6882  -31.3089   21.4128 H   0  0  0  0  0  0
  -23.3747  -35.9653   23.3307 H   0  0  0  0  0  0
  -24.3586  -36.8920   22.2051 H   0  0  0  0  0  0
  -23.7236  -37.6527   23.6641 H   0  0  0  0  0  0
  -26.0349  -31.6002   20.5932 H   0  0  0  0  0  0
  -26.8173  -30.8973   21.9807 H   0  0  0  0  0  0
  -28.0967  -29.1088   21.1868 H   0  0  0  0  0  0
  -26.0869  -25.9921   18.9918 H   0  0  0  0  0  0
  -23.9863  -27.3013   19.0221 H   0  0  0  0  0  0
  -23.7172  -30.5993   19.4055 H   0  0  0  0  0  0
  -22.7351  -29.2430   19.8709 H   0  0  0  0  0  0
  -25.1278  -36.1994   25.0836 H   0  0  0  0  0  0
  -20.9951  -28.3221   24.1441 H   0  0  0  0  0  0
  -20.5667  -26.2263   23.3598 H   0  0  0  0  0  0
  -21.6635  -26.7445   22.1208 H   0  0  0  0  0  0
  -19.6905  -25.6301   21.1226 H   0  0  0  0  0  0
  -19.6683  -27.3205   20.6747 H   0  0  0  0  0  0
  -17.4190  -26.6670   21.4021 H   0  0  0  0  0  0
  -18.0320  -26.0054   22.9010 H   0  0  0  0  0  0
  -19.7928  -30.7244   24.2297 H   0  0  0  0  0  0
  -17.5011  -31.6265   24.5158 H   0  0  0  0  0  0
  -15.5346  -30.2994   23.7638 H   0  0  0  0  0  0
  -15.8658  -28.0826   22.7056 H   0  0  0  0  0  0
  -24.5911  -30.7050   25.7814 H   0  0  0  0  0  0
  -24.8947  -32.2845   26.4956 H   0  0  0  0  0  0
  -25.8105  -30.8840   27.0218 H   0  0  0  0  0  0
  -26.2824  -29.6815   24.1140 H   0  0  0  0  0  0
  -27.4088  -29.7274   25.4516 H   0  0  0  0  0  0
  -27.8651  -30.4377   23.9200 H   0  0  0  0  0  0
  -27.2681  -33.3600   26.2089 H   0  0  0  0  0  0
  -28.3850  -32.6875   25.0300 H   0  0  0  0  0  0
  -28.0730  -31.8409   26.5376 H   0  0  0  0  0  0
  -28.2605  -38.0107   24.7517 H   0  0  0  0  0  0
  -28.1073  -36.2640   24.6285 H   0  0  0  0  0  0
  -27.2302  -37.1461   25.8868 H   0  0  0  0  0  0
  -20.9287  -29.8751   21.6957 H   0  0  0  0  0  0
  -26.0188  -38.2881   24.1408 H   0  0  0  0  0  0
  -29.0209  -18.2143   19.3123 H   0  0  0  0  0  0
  -27.8530  -20.3679   19.6042 H   0  0  0  0  0  0
  -30.8159  -18.6581   23.2113 H   0  0  0  0  0  0
  -31.6959  -17.0093   21.6186 H   0  0  0  0  0  0
  -31.1493  -17.0392   19.9698 H   0  0  0  0  0  0
  -27.5269  -22.1707   22.7341 H   0  0  0  0  0  0
  -27.0355  -22.0496   21.0758 H   0  0  0  0  0  0
  -29.5879  -23.4400   22.0749 H   0  0  0  0  0  0
  -29.2005  -23.2223   20.3823 H   0  0  0  0  0  0
  -29.7893  -25.7704   21.2336 H   0  0  0  0  0  0
  -28.5243  -26.5917   22.1258 H   0  0  0  0  0  0
  -29.0321  -15.7622   20.8131 H   0  0  0  0  0  0
  -29.8969  -15.4960   22.3143 H   0  0  0  0  0  0
  1 25  1  0  0  0
  1 30  2  0  0  0
  1 82  1  0  0  0
  2  3  1  0  0  0
  2 25  1  0  0  0
  2 85  1  0  0  0
  2 86  1  0  0  0
  3  4  1  0  0  0
  3 87  1  0  0  0
  3 88  1  0  0  0
  4  5  1  0  0  0
  4 89  1  0  0  0
  4 90  1  0  0  0
  5  6  1  0  0  0
  5 26  1  0  0  0
  5 91  1  0  0  0
  6 25  1  0  0  0
  6 92  1  0  0  0
  6 93  1  0  0  0
  7  8  2  0  0  0
  7 26  1  0  0  0
  7 29  1  0  0  0
  8  9  1  0  0  0
  8 22  1  0  0  0
  9 10  1  0  0  0
  9 27  2  0  0  0
 10 11  2  0  0  0
 10 15  1  0  0  0
 11 12  1  0  0  0
 11 94  1  0  0  0
 12 13  2  0  0  0
 12 95  1  0  0  0
 13 14  1  0  0  0
 13 31  1  0  0  0
 14 15  2  0  0  0
 14 96  1  0  0  0
 15 97  1  0  0  0
 16 17  2  0  0  0
 16 21  1  0  0  0
 16 31  1  0  0  0
 17 18  1  0  0  0
 17 98  1  0  0  0
 18 19  2  0  0  0
 18 99  1  0  0  0
 19 20  1  0  0  0
 19 24  1  0  0  0
 20 21  2  0  0  0
 20100  1  0  0  0
 21 23  1  0  0  0
 22 28  1  0  0  0
 22 32  2  0  0  0
 26 27  1  0  0  0
 28101  1  0  0  0
 28102  1  0  0  0
 29103  1  0  0  0
 29104  1  0  0  0
 33 34  1  0  0  0
 33 66  1  0  0  0
 33 70  2  0  0  0
 34 36  1  0  0  0
 34 59  1  0  0  0
 34105  1  0  0  0
 35 44  2  0  0  0
 35 45  1  0  0  0
 35 68  1  0  0  0
 36 56  1  0  0  0
 36106  1  0  0  0
 37 39  1  0  0  0
 37 47  1  0  0  0
 37 66  1  0  0  0
 37107  1  0  0  0
 38 43  2  0  0  0
 38 46  1  0  0  0
 38 47  1  0  0  0
 39 64  1  0  0  0
 39 67  2  0  0  0
 40 52  1  0  0  0
 40 53  2  0  0  0
 40 58  1  0  0  0
 41108  1  0  0  0
 41109  1  0  0  0
 41110  1  0  0  0
 41 48  1  0  0  0
 42 43  1  0  0  0
 42 66  1  0  0  0
 42111  1  0  0  0
 42112  1  0  0  0
 43 44  1  0  0  0
 44113  1  0  0  0
 45 46  2  0  0  0
 45114  1  0  0  0
 46115  1  0  0  0
 47116  1  0  0  0
 47117  1  0  0  0
 48 56  1  0  0  0
 48 65  1  0  0  0
 48118  1  0  0  0
 49 50  1  0  0  0
 49 53  1  0  0  0
 49 64  1  0  0  0
 49119  1  0  0  0
 50 51  1  0  0  0
 50120  1  0  0  0
 50121  1  0  0  0
 51 52  1  0  0  0
 51122  1  0  0  0
 51123  1  0  0  0
 52124  1  0  0  0
 52125  1  0  0  0
 53 54  1  0  0  0
 54 55  2  0  0  0
 54126  1  0  0  0
 55 57  1  0  0  0
 55127  1  0  0  0
 56 69  2  0  0  0
 57 58  2  0  0  0
 57128  1  0  0  0
 58129  1  0  0  0
 59 60  1  0  0  0
 59 61  1  0  0  0
 59 62  1  0  0  0
 60130  1  0  0  0
 60131  1  0  0  0
 60132  1  0  0  0
 61133  1  0  0  0
 61134  1  0  0  0
 61135  1  0  0  0
 62136  1  0  0  0
 62137  1  0  0  0
 62138  1  0  0  0
 63 65  1  0  0  0
 63139  1  0  0  0
 63140  1  0  0  0
 63141  1  0  0  0
 64142  1  0  0  0
 65143  1  0  0  0
 68 81  1  0  0  0
 71 72  2  0  0  0
 71 74  1  0  0  0
 71144  1  0  0  0
 72 75  1  0  0  0
 72145  1  0  0  0
 73 74  2  0  0  0
 73 76  1  0  0  0
 73146  1  0  0  0
 74 78  1  0  0  0
 75 76  2  0  0  0
 75 79  1  0  0  0
 76 84  1  0  0  0
 77 80  1  0  0  0
 77 81  1  0  0  0
 77 83  2  0  0  0
 78 82  1  0  0  0
 78147  1  0  0  0
 78148  1  0  0  0
 79 80  1  0  0  0
 79149  1  0  0  0
 79150  1  0  0  0
 80151  1  0  0  0
 80152  1  0  0  0
 81153  1  0  0  0
 81154  1  0  0  0
 82155  1  0  0  0
 82156  1  0  0  0
M  ISO  4   1 100  68 101  81 101  82 100
M  END
> <chiral flag>
0

> <version>
0

> <s_m_source_file>
/data/baiqing/PycharmProjects/Reinvent-master-3.2/result/LINK_invent/BTK/process_docking_weight1_custom_product_contain_oxygen_bond_distance_aromatic_linkinvent_7_9_3/rearranged_h_0132.sdf

> <i_m_source_file_index>
3

> <r_mmod_Potential_Energy-OPLS-2005>
-50.5907897949219

> <r_mmod_Stretch_Energy-OPLS-2005>
34.7755317687988

> <r_mmod_Bend_Energy-OPLS-2005>
85.1474380493164

> <r_mmod_Torsional_Energy-OPLS-2005>
201.220794677734

> <r_mmod_Improper_Torsional_Energy-OPLS-2005>
3.16301655769348

> <r_mmod_Van_der_Waal_Energy-OPLS-2005>
145.565673828125

> <r_mmod_Electrostatic_Energy-OPLS-2005>
-328.644378662109

> <r_mmod_Solvation_Energy-OPLS-2005>
-202.382476806641

> <b_mmod_Minimization_Converged-OPLS-2005>
0

> <r_mmod_RMS_Derivative-OPLS-2005>
0.242918461561203

$$$$
3
                    3D
 Structure written by MMmdl.
154162  0  0  1  0            999 V2000
  -30.7092  -14.4496   20.5944 C   0  0  0  0  0  0
  -30.4174  -12.3037   19.4142 C   0  0  0  0  0  0
  -29.4905  -12.5286   18.2006 C   0  0  0  0  0  0
  -28.0087  -12.3925   18.6064 C   0  0  0  0  0  0
  -27.6619  -13.2075   19.8814 C   0  0  2  0  0  0
  -28.7022  -12.9457   20.9916 C   0  0  0  0  0  0
  -25.2567  -13.8165   20.5704 C   0  0  0  0  0  0
  -24.1815  -13.0437   20.9190 C   0  0  0  0  0  0
  -24.6374  -11.6907   20.8748 C   0  0  0  0  0  0
  -23.9043  -10.4291   21.0406 C   0  0  0  0  0  0
  -24.3609   -9.4208   21.9179 C   0  0  0  0  0  0
  -23.6303   -8.2234   22.0749 C   0  0  0  0  0  0
  -22.4275   -8.0270   21.3551 C   0  0  0  0  0  0
  -21.9901   -9.0237   20.4649 C   0  0  0  0  0  0
  -22.7217  -10.2127   20.3053 C   0  0  0  0  0  0
  -21.6851   -6.0737   22.5290 C   0  0  0  0  0  0
  -21.4005   -6.5644   23.8224 C   0  0  0  0  0  0
  -21.3659   -5.6800   24.9188 C   0  0  0  0  0  0
  -21.6047   -4.3062   24.7238 C   0  0  0  0  0  0
  -21.8815   -3.8151   23.4361 C   0  0  0  0  0  0
  -21.9188   -4.6964   22.3414 C   0  0  0  0  0  0
  -22.7836  -13.5232   21.1862 C   0  0  0  0  0  0
  -22.1659   -4.2149   21.0996 F   0  0  0  0  0  0
  -21.5633   -3.4544   25.7749 F   0  0  0  0  0  0
  -30.0348  -13.2718   20.4567 N   0  0  0  0  0  0
  -26.3016  -12.9341   20.3399 N   0  0  0  0  0  0
  -25.9298  -11.6497   20.5772 N   0  0  0  0  0  0
  -22.0471  -12.8240   22.0430 N   0  0  0  0  0  0
  -25.4275  -15.1882   20.4133 N   0  0  0  0  0  0
  -31.8134  -14.6264   20.0697 O   0  0  0  0  0  0
  -21.6644   -6.8868   21.4247 O   0  0  0  0  0  0
  -22.3528  -14.5548   20.6723 O   0  0  0  0  0  0
  -24.6140  -31.8683   23.2102 C   0  0  0  0  0  0
  -25.9031  -32.4829   23.8405 C   0  0  1  0  0  0
  -27.2385  -27.4513   20.1027 C   0  0  0  0  0  0
  -25.5894  -33.8629   24.2336 N   0  0  0  0  0  0
  -23.4023  -30.4906   21.5501 C   0  0  2  0  0  0
  -24.8520  -28.9589   20.1131 C   0  0  0  0  0  0
  -22.7412  -29.4656   22.4993 C   0  0  0  0  0  0
  -18.0268  -28.1379   22.8494 C   0  0  0  0  0  0
  -24.1480  -36.7319   23.2630 C   0  0  0  0  0  0
  -25.9290  -30.8414   21.3592 C   0  0  0  0  0  0
  -26.0104  -29.4767   20.7081 C   0  0  0  0  0  0
  -27.2104  -28.7313   20.6967 C   0  0  0  0  0  0
  -26.0684  -26.9423   19.5016 C   0  0  0  0  0  0
  -24.8760  -27.6911   19.5040 C   0  0  0  0  0  0
  -23.6107  -29.8209   20.1645 C   0  0  0  0  0  0
  -25.4095  -36.3115   24.0337 C   0  0  1  0  0  0
  -20.5861  -28.3665   23.1322 C   0  0  2  0  0  0
  -20.6757  -26.9399   22.5421 C   0  0  0  0  0  0
  -19.5735  -26.6384   21.5218 C   0  0  0  0  0  0
  -18.1915  -26.7926   22.1628 C   0  0  0  0  0  0
  -19.1520  -28.8837   23.2907 C   0  0  0  0  0  0
  -18.9447  -30.1447   23.8913 C   0  0  0  0  0  0
  -17.6447  -30.6581   24.0566 C   0  0  0  0  0  0
  -25.9031  -34.9480   23.5134 C   0  0  0  0  0  0
  -16.5339  -29.9084   23.6327 C   0  0  0  0  0  0
  -16.7257  -28.6505   23.0343 C   0  0  0  0  0  0
  -26.4464  -31.6600   25.0725 C   0  0  0  0  0  0
  -25.3743  -31.3693   26.1484 C   0  0  0  0  0  0
  -27.0284  -30.3043   24.6080 C   0  0  0  0  0  0
  -27.6052  -32.4312   25.7478 C   0  0  0  0  0  0
  -27.5598  -37.1782   24.8440 C   0  0  0  0  0  0
  -21.4138  -29.3033   22.3732 N   0  0  0  0  0  0
  -26.4270  -37.3816   23.9444 N   0  0  0  0  0  0
  -24.6669  -31.0804   22.0991 N   0  0  0  0  0  0
  -23.4191  -28.8202   23.3030 O   0  0  0  0  0  0
  -28.3841  -26.6939   20.1113 O   0  0  0  0  0  0
  -26.5597  -34.8931   22.4697 O   0  0  0  0  0  0
  -23.5332  -32.1425   23.7508 O   0  0  0  0  0  0
  -28.3976  -19.1810   23.3091 C   0  0  0  0  0  0
  -28.9140  -17.9942   22.7541 C   0  0  0  0  0  0
  -28.6063  -20.4185   22.6712 C   0  0  0  0  0  0
  -29.8452  -19.2817   20.9135 C   0  0  0  0  0  0
  -29.6536  -18.0314   21.5512 C   0  0  0  0  0  0
  -29.3322  -20.4816   21.4608 C   0  0  0  0  0  0
  -30.2257  -16.8134   20.9363 C   0  0  0  0  0  0
  -30.0174  -15.5268   21.3045 C   0  0  0  0  0  0
  -29.0439  -24.3454   20.4977 C   0  0  0  0  0  0
  -29.5881  -21.8066   20.7329 C   0  0  0  0  0  0
  -28.8260  -23.0398   21.2825 C   0  0  0  0  0  0
  -28.3045  -25.5870   21.0237 C   0  0  0  0  0  0
  -29.7776  -24.3946   19.5042 O   0  0  0  0  0  0
  -31.4620  -12.3952   19.1124 H   0  0  0  0  0  0
  -30.3139  -11.2851   19.7902 H   0  0  0  0  0  0
  -29.7285  -11.8201   17.4065 H   0  0  0  0  0  0
  -29.6650  -13.5221   17.7839 H   0  0  0  0  0  0
  -27.8059  -11.3353   18.7757 H   0  0  0  0  0  0
  -27.3622  -12.6973   17.7823 H   0  0  0  0  0  0
  -27.7171  -14.2632   19.6166 H   0  0  0  0  0  0
  -28.6818  -11.8920   21.2749 H   0  0  0  0  0  0
  -28.4467  -13.4781   21.9051 H   0  0  0  0  0  0
  -25.2749   -9.5702   22.4763 H   0  0  0  0  0  0
  -24.0025   -7.4620   22.7455 H   0  0  0  0  0  0
  -21.0832   -8.8738   19.8957 H   0  0  0  0  0  0
  -22.3652  -10.9665   19.6173 H   0  0  0  0  0  0
  -21.1994   -7.6150   23.9735 H   0  0  0  0  0  0
  -21.1488   -6.0529   25.9094 H   0  0  0  0  0  0
  -22.0595   -2.7613   23.2864 H   0  0  0  0  0  0
  -22.4088  -11.9927   22.4871 H   0  0  0  0  0  0
  -21.1075  -13.1255   22.2608 H   0  0  0  0  0  0
  -24.6652  -15.8462   20.5325 H   0  0  0  0  0  0
  -26.2968  -15.6317   20.1413 H   0  0  0  0  0  0
  -26.7112  -32.5550   23.1186 H   0  0  0  0  0  0
  -25.0049  -33.9794   25.0482 H   0  0  0  0  0  0
  -22.6911  -31.3074   21.4098 H   0  0  0  0  0  0
  -23.3763  -35.9627   23.3235 H   0  0  0  0  0  0
  -24.3605  -36.8994   22.2061 H   0  0  0  0  0  0
  -23.7190  -37.6485   23.6685 H   0  0  0  0  0  0
  -26.0358  -31.6084   20.5911 H   0  0  0  0  0  0
  -26.8184  -30.8986   21.9747 H   0  0  0  0  0  0
  -28.1062  -29.1283   21.1550 H   0  0  0  0  0  0
  -26.0806  -25.9670   19.0361 H   0  0  0  0  0  0
  -23.9876  -27.2880   19.0374 H   0  0  0  0  0  0
  -23.7143  -30.5945   19.4025 H   0  0  0  0  0  0
  -22.7370  -29.2359   19.8709 H   0  0  0  0  0  0
  -25.1256  -36.1971   25.0826 H   0  0  0  0  0  0
  -20.9955  -28.3224   24.1443 H   0  0  0  0  0  0
  -20.5660  -26.2273   23.3611 H   0  0  0  0  0  0
  -21.6627  -26.7444   22.1211 H   0  0  0  0  0  0
  -19.6892  -25.6298   21.1244 H   0  0  0  0  0  0
  -19.6673  -27.3204   20.6759 H   0  0  0  0  0  0
  -17.4186  -26.6684   21.4027 H   0  0  0  0  0  0
  -18.0305  -26.0062   22.9019 H   0  0  0  0  0  0
  -19.7916  -30.7264   24.2291 H   0  0  0  0  0  0
  -17.4994  -31.6267   24.5157 H   0  0  0  0  0  0
  -15.5339  -30.2992   23.7635 H   0  0  0  0  0  0
  -15.8657  -28.0834   22.7044 H   0  0  0  0  0  0
  -24.5902  -30.7059   25.7817 H   0  0  0  0  0  0
  -24.8951  -32.2844   26.4974 H   0  0  0  0  0  0
  -25.8105  -30.8827   27.0217 H   0  0  0  0  0  0
  -26.2815  -29.6816   24.1141 H   0  0  0  0  0  0
  -27.4066  -29.7267   25.4526 H   0  0  0  0  0  0
  -27.8648  -30.4368   23.9212 H   0  0  0  0  0  0
  -27.2680  -33.3601   26.2092 H   0  0  0  0  0  0
  -28.3835  -32.6894   25.0282 H   0  0  0  0  0  0
  -28.0750  -31.8413   26.5359 H   0  0  0  0  0  0
  -28.2519  -38.0175   24.7644 H   0  0  0  0  0  0
  -28.1191  -36.2724   24.6056 H   0  0  0  0  0  0
  -27.2356  -37.1160   25.8840 H   0  0  0  0  0  0
  -20.9301  -29.8768   21.6964 H   0  0  0  0  0  0
  -26.0155  -38.2872   24.1540 H   0  0  0  0  0  0
  -27.8418  -19.1409   24.2358 H   0  0  0  0  0  0
  -28.7449  -17.0636   23.2757 H   0  0  0  0  0  0
  -28.1990  -21.3086   23.1302 H   0  0  0  0  0  0
  -30.4046  -19.3251   19.9886 H   0  0  0  0  0  0
  -30.8924  -17.0016   20.1050 H   0  0  0  0  0  0
  -29.3593  -15.3118   22.1279 H   0  0  0  0  0  0
  -29.3335  -21.6648   19.6816 H   0  0  0  0  0  0
  -30.6612  -22.0008   20.7620 H   0  0  0  0  0  0
  -27.7557  -22.8352   21.2835 H   0  0  0  0  0  0
  -29.1138  -23.2243   22.3178 H   0  0  0  0  0  0
  -28.7501  -25.8806   21.9743 H   0  0  0  0  0  0
  -27.2708  -25.3081   21.2315 H   0  0  0  0  0  0
  1 25  1  0  0  0
  1 30  2  0  0  0
  1 78  1  0  0  0
  2  3  1  0  0  0
  2 25  1  0  0  0
  2 84  1  0  0  0
  2 85  1  0  0  0
  3  4  1  0  0  0
  3 86  1  0  0  0
  3 87  1  0  0  0
  4  5  1  0  0  0
  4 88  1  0  0  0
  4 89  1  0  0  0
  5  6  1  0  0  0
  5 26  1  0  0  0
  5 90  1  0  0  0
  6 25  1  0  0  0
  6 91  1  0  0  0
  6 92  1  0  0  0
  7  8  2  0  0  0
  7 26  1  0  0  0
  7 29  1  0  0  0
  8  9  1  0  0  0
  8 22  1  0  0  0
  9 10  1  0  0  0
  9 27  2  0  0  0
 10 11  2  0  0  0
 10 15  1  0  0  0
 11 12  1  0  0  0
 11 93  1  0  0  0
 12 13  2  0  0  0
 12 94  1  0  0  0
 13 14  1  0  0  0
 13 31  1  0  0  0
 14 15  2  0  0  0
 14 95  1  0  0  0
 15 96  1  0  0  0
 16 17  2  0  0  0
 16 21  1  0  0  0
 16 31  1  0  0  0
 17 18  1  0  0  0
 17 97  1  0  0  0
 18 19  2  0  0  0
 18 98  1  0  0  0
 19 20  1  0  0  0
 19 24  1  0  0  0
 20 21  2  0  0  0
 20 99  1  0  0  0
 21 23  1  0  0  0
 22 28  1  0  0  0
 22 32  2  0  0  0
 26 27  1  0  0  0
 28100  1  0  0  0
 28101  1  0  0  0
 29102  1  0  0  0
 29103  1  0  0  0
 33 34  1  0  0  0
 33 66  1  0  0  0
 33 70  2  0  0  0
 34 36  1  0  0  0
 34 59  1  0  0  0
 34104  1  0  0  0
 35 44  2  0  0  0
 35 45  1  0  0  0
 35 68  1  0  0  0
 36 56  1  0  0  0
 36105  1  0  0  0
 37 39  1  0  0  0
 37 47  1  0  0  0
 37 66  1  0  0  0
 37106  1  0  0  0
 38 43  2  0  0  0
 38 46  1  0  0  0
 38 47  1  0  0  0
 39 64  1  0  0  0
 39 67  2  0  0  0
 40 52  1  0  0  0
 40 53  2  0  0  0
 40 58  1  0  0  0
 41107  1  0  0  0
 41108  1  0  0  0
 41109  1  0  0  0
 41 48  1  0  0  0
 42 43  1  0  0  0
 42 66  1  0  0  0
 42110  1  0  0  0
 42111  1  0  0  0
 43 44  1  0  0  0
 44112  1  0  0  0
 45 46  2  0  0  0
 45113  1  0  0  0
 46114  1  0  0  0
 47115  1  0  0  0
 47116  1  0  0  0
 48 56  1  0  0  0
 48 65  1  0  0  0
 48117  1  0  0  0
 49 50  1  0  0  0
 49 53  1  0  0  0
 49 64  1  0  0  0
 49118  1  0  0  0
 50 51  1  0  0  0
 50119  1  0  0  0
 50120  1  0  0  0
 51 52  1  0  0  0
 51121  1  0  0  0
 51122  1  0  0  0
 52123  1  0  0  0
 52124  1  0  0  0
 53 54  1  0  0  0
 54 55  2  0  0  0
 54125  1  0  0  0
 55 57  1  0  0  0
 55126  1  0  0  0
 56 69  2  0  0  0
 57 58  2  0  0  0
 57127  1  0  0  0
 58128  1  0  0  0
 59 60  1  0  0  0
 59 61  1  0  0  0
 59 62  1  0  0  0
 60129  1  0  0  0
 60130  1  0  0  0
 60131  1  0  0  0
 61132  1  0  0  0
 61133  1  0  0  0
 61134  1  0  0  0
 62135  1  0  0  0
 62136  1  0  0  0
 62137  1  0  0  0
 63 65  1  0  0  0
 63138  1  0  0  0
 63139  1  0  0  0
 63140  1  0  0  0
 64141  1  0  0  0
 65142  1  0  0  0
 68 82  1  0  0  0
 71 72  2  0  0  0
 71 73  1  0  0  0
 71143  1  0  0  0
 72 75  1  0  0  0
 72144  1  0  0  0
 73 76  2  0  0  0
 73145  1  0  0  0
 74 75  2  0  0  0
 74 76  1  0  0  0
 74146  1  0  0  0
 75 77  1  0  0  0
 76 80  1  0  0  0
 77 78  2  0  0  0
 77147  1  0  0  0
 78148  1  0  0  0
 79 81  1  0  0  0
 79 82  1  0  0  0
 79 83  2  0  0  0
 80 81  1  0  0  0
 80149  1  0  0  0
 80150  1  0  0  0
 81151  1  0  0  0
 81152  1  0  0  0
 82153  1  0  0  0
 82154  1  0  0  0
M  ISO  4   1 100  68 101  78 100  82 101
M  END
> <chiral flag>
0

> <version>
0

> <s_m_source_file>
/data/baiqing/PycharmProjects/Reinvent-master-3.2/result/LINK_invent/BTK/process_docking_weight1_custom_product_contain_oxygen_bond_distance_aromatic_linkinvent_7_9_3/rearranged_h_0132.sdf

> <i_m_source_file_index>
4

> <r_mmod_Potential_Energy-OPLS-2005>
-42.3476715087891

> <r_mmod_Stretch_Energy-OPLS-2005>
36.3030433654785

> <r_mmod_Bend_Energy-OPLS-2005>
91.243049621582

> <r_mmod_Torsional_Energy-OPLS-2005>
199.183517456055

> <r_mmod_Improper_Torsional_Energy-OPLS-2005>
2.53581047058105

> <r_mmod_Van_der_Waal_Energy-OPLS-2005>
156.734222412109

> <r_mmod_Electrostatic_Energy-OPLS-2005>
-327.857116699219

> <r_mmod_Solvation_Energy-OPLS-2005>
-210.790023803711

> <b_mmod_Minimization_Converged-OPLS-2005>
0

> <r_mmod_RMS_Derivative-OPLS-2005>
1.45438706874847

$$$$
4
                    3D
 Structure written by MMmdl.
165173  0  0  1  0            999 V2000
  -30.7000  -14.5791   20.6201 C   0  0  0  0  0  0
  -30.4400  -12.3843   19.4535 C   0  0  0  0  0  0
  -29.5218  -12.5182   18.2221 C   0  0  0  0  0  0
  -28.0415  -12.3609   18.6186 C   0  0  0  0  0  0
  -27.6642  -13.2152   19.8563 C   0  0  2  0  0  0
  -28.6991  -13.0478   20.9909 C   0  0  0  0  0  0
  -25.2639  -13.8191   20.5656 C   0  0  0  0  0  0
  -24.1853  -13.0449   20.9104 C   0  0  0  0  0  0
  -24.6382  -11.6926   20.8634 C   0  0  0  0  0  0
  -23.9025  -10.4316   21.0340 C   0  0  0  0  0  0
  -24.3614   -9.4265   21.9136 C   0  0  0  0  0  0
  -23.6322   -8.2280   22.0714 C   0  0  0  0  0  0
  -22.4296   -8.0296   21.3519 C   0  0  0  0  0  0
  -21.9905   -9.0241   20.4616 C   0  0  0  0  0  0
  -22.7174  -10.2148   20.3006 C   0  0  0  0  0  0
  -21.6890   -6.0747   22.5252 C   0  0  0  0  0  0
  -21.4032   -6.5645   23.8186 C   0  0  0  0  0  0
  -21.3668   -5.6778   24.9141 C   0  0  0  0  0  0
  -21.6036   -4.3030   24.7169 C   0  0  0  0  0  0
  -21.8842   -3.8140   23.4292 C   0  0  0  0  0  0
  -21.9214   -4.6974   22.3361 C   0  0  0  0  0  0
  -22.7886  -13.5276   21.1771 C   0  0  0  0  0  0
  -22.1696   -4.2175   21.0945 F   0  0  0  0  0  0
  -21.5627   -3.4510   25.7686 F   0  0  0  0  0  0
  -30.0333  -13.3879   20.4595 N   0  0  0  0  0  0
  -26.3054  -12.9357   20.3233 N   0  0  0  0  0  0
  -25.9310  -11.6510   20.5602 N   0  0  0  0  0  0
  -22.0535  -12.8294   22.0374 N   0  0  0  0  0  0
  -25.4337  -15.1911   20.4193 N   0  0  0  0  0  0
  -31.7670  -14.7908   20.0366 O   0  0  0  0  0  0
  -21.6661   -6.8891   21.4229 O   0  0  0  0  0  0
  -22.3574  -14.5580   20.6626 O   0  0  0  0  0  0
  -24.6169  -31.8656   23.2103 C   0  0  0  0  0  0
  -25.9056  -32.4812   23.8403 C   0  0  1  0  0  0
  -27.2446  -27.4046   20.1283 C   0  0  0  0  0  0
  -25.5893  -33.8603   24.2316 N   0  0  0  0  0  0
  -23.4070  -30.4894   21.5495 C   0  0  2  0  0  0
  -24.8660  -28.9586   20.1185 C   0  0  0  0  0  0
  -22.7422  -29.4637   22.4986 C   0  0  0  0  0  0
  -18.0261  -28.1343   22.8491 C   0  0  0  0  0  0
  -24.1493  -36.7320   23.2633 C   0  0  0  0  0  0
  -25.9407  -30.8280   21.3696 C   0  0  0  0  0  0
  -26.0263  -29.4564   20.7263 C   0  0  0  0  0  0
  -27.2219  -28.6879   20.7402 C   0  0  0  0  0  0
  -26.0693  -26.9413   19.5069 C   0  0  0  0  0  0
  -24.8828  -27.6978   19.5016 C   0  0  0  0  0  0
  -23.6240  -29.8245   20.1649 C   0  0  0  0  0  0
  -25.4106  -36.3082   24.0331 C   0  0  1  0  0  0
  -20.5859  -28.3632   23.1324 C   0  0  2  0  0  0
  -20.6739  -26.9371   22.5414 C   0  0  0  0  0  0
  -19.5724  -26.6360   21.5200 C   0  0  0  0  0  0
  -18.1906  -26.7897   22.1619 C   0  0  0  0  0  0
  -19.1516  -28.8811   23.2893 C   0  0  0  0  0  0
  -18.9444  -30.1423   23.8893 C   0  0  0  0  0  0
  -17.6443  -30.6558   24.0562 C   0  0  0  0  0  0
  -25.9036  -34.9456   23.5124 C   0  0  0  0  0  0
  -16.5332  -29.9055   23.6316 C   0  0  0  0  0  0
  -16.7255  -28.6469   23.0350 C   0  0  0  0  0  0
  -26.4478  -31.6580   25.0733 C   0  0  0  0  0  0
  -25.3750  -31.3696   26.1484 C   0  0  0  0  0  0
  -27.0281  -30.3007   24.6088 C   0  0  0  0  0  0
  -27.6035  -32.4308   25.7495 C   0  0  0  0  0  0
  -27.5570  -37.1809   24.8449 C   0  0  0  0  0  0
  -21.4150  -29.2993   22.3712 N   0  0  0  0  0  0
  -26.4278  -37.3785   23.9405 N   0  0  0  0  0  0
  -24.6715  -31.0757   22.1001 N   0  0  0  0  0  0
  -23.4188  -28.8154   23.3012 O   0  0  0  0  0  0
  -28.3075  -26.5190   20.0375 O   0  0  0  0  0  0
  -26.5596  -34.8912   22.4689 O   0  0  0  0  0  0
  -23.5352  -32.1417   23.7500 O   0  0  0  0  0  0
  -30.3325  -20.6407   19.3243 C   0  0  0  0  0  0
  -30.2088  -19.4189   18.6268 C   0  0  0  0  0  0
  -30.2602  -19.3872   21.3951 C   0  0  0  0  0  0
  -30.1187  -18.1299   20.7208 C   0  0  0  0  0  0
  -30.3296  -20.6510   20.7302 C   0  0  0  0  0  0
  -30.0696  -18.1777   19.3001 C   0  0  0  0  0  0
  -29.9590  -16.9046   21.6030 C   0  0  0  0  0  0
  -30.1250  -15.5356   21.5905 C   0  0  0  0  0  0
  -29.5997  -25.7620   22.0485 C   0  0  0  0  0  0
  -29.7096  -24.4144   22.2738 C   0  0  0  0  0  0
  -29.7898  -16.9506   18.4538 C   0  0  0  0  0  0
  -30.0095  -24.9476   24.8461 C   0  0  0  0  0  0
  -30.5178  -21.9726   21.5294 C   0  0  0  0  0  0
  -29.5254  -26.6171   20.7738 C   0  0  0  0  0  0
  -29.8911  -23.9058   23.7169 C   0  0  0  0  0  0
  -29.6616  -23.2717   21.2085 C   0  0  0  0  0  0
  -31.4869  -12.4891   19.1625 H   0  0  0  0  0  0
  -30.3533  -11.3807   19.8731 H   0  0  0  0  0  0
  -29.7879  -11.7703   17.4729 H   0  0  0  0  0  0
  -29.6833  -13.4891   17.7526 H   0  0  0  0  0  0
  -27.8665  -11.3074   18.8394 H   0  0  0  0  0  0
  -27.4034  -12.6093   17.7703 H   0  0  0  0  0  0
  -27.6943  -14.2546   19.5328 H   0  0  0  0  0  0
  -28.6961  -12.0233   21.3627 H   0  0  0  0  0  0
  -28.4033  -13.6609   21.8392 H   0  0  0  0  0  0
  -25.2789   -9.5821   22.4645 H   0  0  0  0  0  0
  -24.0072   -7.4731   22.7448 H   0  0  0  0  0  0
  -21.0819   -8.8711   19.8949 H   0  0  0  0  0  0
  -22.3587  -10.9670   19.6089 H   0  0  0  0  0  0
  -21.2027   -7.6162   23.9703 H   0  0  0  0  0  0
  -21.1474   -6.0497   25.9053 H   0  0  0  0  0  0
  -22.0612   -2.7608   23.2749 H   0  0  0  0  0  0
  -22.4154  -12.0017   22.4907 H   0  0  0  0  0  0
  -21.1109  -13.1250   22.2439 H   0  0  0  0  0  0
  -24.6676  -15.8427   20.5395 H   0  0  0  0  0  0
  -26.3014  -15.6394   20.1520 H   0  0  0  0  0  0
  -26.7123  -32.5546   23.1170 H   0  0  0  0  0  0
  -25.0007  -33.9768   25.0428 H   0  0  0  0  0  0
  -22.6951  -31.3059   21.4079 H   0  0  0  0  0  0
  -23.3738  -35.9667   23.3291 H   0  0  0  0  0  0
  -24.3582  -36.8952   22.2043 H   0  0  0  0  0  0
  -23.7278  -37.6540   23.6665 H   0  0  0  0  0  0
  -26.0489  -31.5920   20.6001 H   0  0  0  0  0  0
  -26.8260  -30.8878   21.9877 H   0  0  0  0  0  0
  -28.0992  -29.0946   21.2190 H   0  0  0  0  0  0
  -26.0679  -25.9725   19.0308 H   0  0  0  0  0  0
  -23.9952  -27.3078   19.0235 H   0  0  0  0  0  0
  -23.7305  -30.5988   19.4048 H   0  0  0  0  0  0
  -22.7529  -29.2411   19.8671 H   0  0  0  0  0  0
  -25.1290  -36.1929   25.0825 H   0  0  0  0  0  0
  -20.9939  -28.3172   24.1462 H   0  0  0  0  0  0
  -20.5590  -26.2246   23.3592 H   0  0  0  0  0  0
  -21.6612  -26.7363   22.1244 H   0  0  0  0  0  0
  -19.6871  -25.6268   21.1224 H   0  0  0  0  0  0
  -19.6676  -27.3180   20.6737 H   0  0  0  0  0  0
  -17.4176  -26.6651   21.4023 H   0  0  0  0  0  0
  -18.0307  -26.0028   22.9003 H   0  0  0  0  0  0
  -19.7917  -30.7238   24.2274 H   0  0  0  0  0  0
  -17.4995  -31.6259   24.5123 H   0  0  0  0  0  0
  -15.5332  -30.2961   23.7636 H   0  0  0  0  0  0
  -15.8656  -28.0790   22.7076 H   0  0  0  0  0  0
  -24.5935  -30.7008   25.7858 H   0  0  0  0  0  0
  -24.8934  -32.2854   26.4913 H   0  0  0  0  0  0
  -25.8137  -30.8906   27.0250 H   0  0  0  0  0  0
  -26.2807  -29.6799   24.1122 H   0  0  0  0  0  0
  -27.4009  -29.7198   25.4539 H   0  0  0  0  0  0
  -27.8674  -30.4290   23.9247 H   0  0  0  0  0  0
  -27.2613  -33.3585   26.2084 H   0  0  0  0  0  0
  -28.3841  -32.6904   25.0337 H   0  0  0  0  0  0
  -28.0690  -31.8428   26.5413 H   0  0  0  0  0  0
  -28.2583  -38.0108   24.7502 H   0  0  0  0  0  0
  -28.1079  -36.2655   24.6268 H   0  0  0  0  0  0
  -27.2299  -37.1434   25.8852 H   0  0  0  0  0  0
  -20.9292  -29.8809   21.7028 H   0  0  0  0  0  0
  -26.0162  -38.2857   24.1435 H   0  0  0  0  0  0
  -30.4375  -21.5691   18.7781 H   0  0  0  0  0  0
  -30.1959  -19.4481   17.5451 H   0  0  0  0  0  0
  -30.2994  -19.3816   22.4766 H   0  0  0  0  0  0
  -29.5372  -17.2101   22.5538 H   0  0  0  0  0  0
  -29.8257  -15.0801   22.5217 H   0  0  0  0  0  0
  -29.5980  -26.4104   22.9088 H   0  0  0  0  0  0
  -29.3496  -17.2278   17.4948 H   0  0  0  0  0  0
  -29.0683  -16.2987   18.9390 H   0  0  0  0  0  0
  -30.7087  -16.4013   18.2575 H   0  0  0  0  0  0
  -30.1636  -24.4521   25.8063 H   0  0  0  0  0  0
  -29.1140  -25.5615   24.9463 H   0  0  0  0  0  0
  -30.8672  -25.6066   24.6944 H   0  0  0  0  0  0
  -31.5757  -22.2345   21.4930 H   0  0  0  0  0  0
  -30.3215  -21.6728   22.5558 H   0  0  0  0  0  0
  -30.3294  -26.3010   20.1081 H   0  0  0  0  0  0
  -29.7529  -27.6523   21.0313 H   0  0  0  0  0  0
  -30.8282  -23.3488   23.7611 H   0  0  0  0  0  0
  -29.0864  -23.2093   23.9541 H   0  0  0  0  0  0
  -29.9245  -23.6651   20.2279 H   0  0  0  0  0  0
  -28.6131  -22.9805   21.1326 H   0  0  0  0  0  0
  1 25  1  0  0  0
  1 30  2  0  0  0
  1 78  1  0  0  0
  2  3  1  0  0  0
  2 25  1  0  0  0
  2 87  1  0  0  0
  2 88  1  0  0  0
  3  4  1  0  0  0
  3 89  1  0  0  0
  3 90  1  0  0  0
  4  5  1  0  0  0
  4 91  1  0  0  0
  4 92  1  0  0  0
  5  6  1  0  0  0
  5 26  1  0  0  0
  5 93  1  0  0  0
  6 25  1  0  0  0
  6 94  1  0  0  0
  6 95  1  0  0  0
  7  8  2  0  0  0
  7 26  1  0  0  0
  7 29  1  0  0  0
  8  9  1  0  0  0
  8 22  1  0  0  0
  9 10  1  0  0  0
  9 27  2  0  0  0
 10 11  2  0  0  0
 10 15  1  0  0  0
 11 12  1  0  0  0
 11 96  1  0  0  0
 12 13  2  0  0  0
 12 97  1  0  0  0
 13 14  1  0  0  0
 13 31  1  0  0  0
 14 15  2  0  0  0
 14 98  1  0  0  0
 15 99  1  0  0  0
 16 17  2  0  0  0
 16 21  1  0  0  0
 16 31  1  0  0  0
 17 18  1  0  0  0
 17100  1  0  0  0
 18 19  2  0  0  0
 18101  1  0  0  0
 19 20  1  0  0  0
 19 24  1  0  0  0
 20 21  2  0  0  0
 20102  1  0  0  0
 21 23  1  0  0  0
 22 28  1  0  0  0
 22 32  2  0  0  0
 26 27  1  0  0  0
 28103  1  0  0  0
 28104  1  0  0  0
 29105  1  0  0  0
 29106  1  0  0  0
 33 34  1  0  0  0
 33 66  1  0  0  0
 33 70  2  0  0  0
 34 36  1  0  0  0
 34 59  1  0  0  0
 34107  1  0  0  0
 35 44  2  0  0  0
 35 45  1  0  0  0
 35 68  1  0  0  0
 36 56  1  0  0  0
 36108  1  0  0  0
 37 39  1  0  0  0
 37 47  1  0  0  0
 37 66  1  0  0  0
 37109  1  0  0  0
 38 43  2  0  0  0
 38 46  1  0  0  0
 38 47  1  0  0  0
 39 64  1  0  0  0
 39 67  2  0  0  0
 40 52  1  0  0  0
 40 53  2  0  0  0
 40 58  1  0  0  0
 41110  1  0  0  0
 41111  1  0  0  0
 41112  1  0  0  0
 41 48  1  0  0  0
 42 43  1  0  0  0
 42 66  1  0  0  0
 42113  1  0  0  0
 42114  1  0  0  0
 43 44  1  0  0  0
 44115  1  0  0  0
 45 46  2  0  0  0
 45116  1  0  0  0
 46117  1  0  0  0
 47118  1  0  0  0
 47119  1  0  0  0
 48 56  1  0  0  0
 48 65  1  0  0  0
 48120  1  0  0  0
 49 50  1  0  0  0
 49 53  1  0  0  0
 49 64  1  0  0  0
 49121  1  0  0  0
 50 51  1  0  0  0
 50122  1  0  0  0
 50123  1  0  0  0
 51 52  1  0  0  0
 51124  1  0  0  0
 51125  1  0  0  0
 52126  1  0  0  0
 52127  1  0  0  0
 53 54  1  0  0  0
 54 55  2  0  0  0
 54128  1  0  0  0
 55 57  1  0  0  0
 55129  1  0  0  0
 56 69  2  0  0  0
 57 58  2  0  0  0
 57130  1  0  0  0
 58131  1  0  0  0
 59 60  1  0  0  0
 59 61  1  0  0  0
 59 62  1  0  0  0
 60132  1  0  0  0
 60133  1  0  0  0
 60134  1  0  0  0
 61135  1  0  0  0
 61136  1  0  0  0
 61137  1  0  0  0
 62138  1  0  0  0
 62139  1  0  0  0
 62140  1  0  0  0
 63 65  1  0  0  0
 63141  1  0  0  0
 63142  1  0  0  0
 63143  1  0  0  0
 64144  1  0  0  0
 65145  1  0  0  0
 68 84  1  0  0  0
 71 72  2  0  0  0
 71 75  1  0  0  0
 71146  1  0  0  0
 72 76  1  0  0  0
 72147  1  0  0  0
 73 74  1  0  0  0
 73 75  2  0  0  0
 73148  1  0  0  0
 74 76  2  0  0  0
 74 77  1  0  0  0
 75 83  1  0  0  0
 76 81  1  0  0  0
 77 78  2  0  0  0
 77149  1  0  0  0
 78150  1  0  0  0
 79 80  2  0  0  0
 79 84  1  0  0  0
 79151  1  0  0  0
 80 85  1  0  0  0
 80 86  1  0  0  0
 81152  1  0  0  0
 81153  1  0  0  0
 81154  1  0  0  0
 82 85  1  0  0  0
 82155  1  0  0  0
 82156  1  0  0  0
 82157  1  0  0  0
 83 86  1  0  0  0
 83158  1  0  0  0
 83159  1  0  0  0
 84160  1  0  0  0
 84161  1  0  0  0
 85162  1  0  0  0
 85163  1  0  0  0
 86164  1  0  0  0
 86165  1  0  0  0
M  ISO  4   1 100  68 101  78 100  84 101
M  END
> <chiral flag>
0

> <version>
0

> <s_m_source_file>
/data/baiqing/PycharmProjects/Reinvent-master-3.2/result/LINK_invent/BTK/process_docking_weight1_custom_product_contain_oxygen_bond_distance_aromatic_linkinvent_7_9_3/rearranged_h_0132.sdf

> <i_m_source_file_index>
5

> <r_mmod_Potential_Energy-OPLS-2005>
125.591850280762

> <r_mmod_Stretch_Energy-OPLS-2005>
65.8729019165039

> <r_mmod_Bend_Energy-OPLS-2005>
216.994445800781

> <r_mmod_Torsional_Energy-OPLS-2005>
188.535675048828

> <r_mmod_Improper_Torsional_Energy-OPLS-2005>
3.63786435127258

> <r_mmod_Van_der_Waal_Energy-OPLS-2005>
148.462158203125

> <r_mmod_Electrostatic_Energy-OPLS-2005>
-337.335540771484

> <r_mmod_Solvation_Energy-OPLS-2005>
-188.311706542969

> <b_mmod_Minimization_Converged-OPLS-2005>
0

> <r_mmod_RMS_Derivative-OPLS-2005>
4.92294359207153

$$$$
5
                    3D
 Structure written by MMmdl.
158166  0  0  1  0            999 V2000
  -30.7762  -14.4519   20.5660 C   0  0  0  0  0  0
  -30.4267  -12.3181   19.4164 C   0  0  0  0  0  0
  -29.4917  -12.5012   18.2006 C   0  0  0  0  0  0
  -28.0135  -12.3815   18.6112 C   0  0  0  0  0  0
  -27.6697  -13.2210   19.8737 C   0  0  2  0  0  0
  -28.7155  -12.9936   20.9883 C   0  0  0  0  0  0
  -25.2651  -13.8220   20.5731 C   0  0  0  0  0  0
  -24.1874  -13.0414   20.9146 C   0  0  0  0  0  0
  -24.6452  -11.6912   20.8635 C   0  0  0  0  0  0
  -23.9098  -10.4260   21.0345 C   0  0  0  0  0  0
  -24.3628   -9.4199   21.9178 C   0  0  0  0  0  0
  -23.6288   -8.2223   22.0743 C   0  0  0  0  0  0
  -22.4287   -8.0249   21.3503 C   0  0  0  0  0  0
  -21.9914   -9.0229   20.4628 C   0  0  0  0  0  0
  -22.7233  -10.2123   20.3026 C   0  0  0  0  0  0
  -21.6852   -6.0722   22.5264 C   0  0  0  0  0  0
  -21.4024   -6.5635   23.8190 C   0  0  0  0  0  0
  -21.3649   -5.6789   24.9163 C   0  0  0  0  0  0
  -21.6027   -4.3038   24.7220 C   0  0  0  0  0  0
  -21.8820   -3.8130   23.4339 C   0  0  0  0  0  0
  -21.9201   -4.6954   22.3400 C   0  0  0  0  0  0
  -22.7895  -13.5216   21.1777 C   0  0  0  0  0  0
  -22.1663   -4.2140   21.0970 F   0  0  0  0  0  0
  -21.5619   -3.4520   25.7733 F   0  0  0  0  0  0
  -30.0535  -13.3032   20.4416 N   0  0  0  0  0  0
  -26.3094  -12.9417   20.3375 N   0  0  0  0  0  0
  -25.9381  -11.6546   20.5654 N   0  0  0  0  0  0
  -22.0512  -12.8204   22.0374 N   0  0  0  0  0  0
  -25.4369  -15.1914   20.4224 N   0  0  0  0  0  0
  -31.9115  -14.5588   20.0923 O   0  0  0  0  0  0
  -21.6617   -6.8868   21.4212 O   0  0  0  0  0  0
  -22.3592  -14.5531   20.6696 O   0  0  0  0  0  0
  -24.6104  -31.8679   23.2067 C   0  0  0  0  0  0
  -25.9002  -32.4784   23.8385 C   0  0  1  0  0  0
  -27.1939  -27.4099   20.0395 C   0  0  0  0  0  0
  -25.5880  -33.8626   24.2299 N   0  0  0  0  0  0
  -23.3961  -30.4944   21.5547 C   0  0  2  0  0  0
  -24.8226  -28.9597   20.1211 C   0  0  0  0  0  0
  -22.7320  -29.4680   22.4995 C   0  0  0  0  0  0
  -18.0150  -28.1481   22.8561 C   0  0  0  0  0  0
  -24.1486  -36.7311   23.2635 C   0  0  0  0  0  0
  -25.9315  -30.8257   21.3612 C   0  0  0  0  0  0
  -26.0005  -29.4631   20.6853 C   0  0  0  0  0  0
  -27.1890  -28.6985   20.6394 C   0  0  0  0  0  0
  -25.9782  -26.9222   19.5060 C   0  0  0  0  0  0
  -24.8032  -27.6825   19.5490 C   0  0  0  0  0  0
  -23.5931  -29.8347   20.1688 C   0  0  0  0  0  0
  -25.4117  -36.3096   24.0307 C   0  0  1  0  0  0
  -20.5790  -28.3642   23.1322 C   0  0  2  0  0  0
  -20.6500  -26.9193   22.5918 C   0  0  0  0  0  0
  -19.5617  -26.6176   21.5531 C   0  0  0  0  0  0
  -18.1710  -26.7958   22.1747 C   0  0  0  0  0  0
  -19.1491  -28.8892   23.2872 C   0  0  0  0  0  0
  -18.9486  -30.1528   23.8830 C   0  0  0  0  0  0
  -17.6522  -30.6711   24.0618 C   0  0  0  0  0  0
  -25.9041  -34.9452   23.5103 C   0  0  0  0  0  0
  -16.5342  -29.9233   23.6541 C   0  0  0  0  0  0
  -16.7152  -28.6652   23.0518 C   0  0  0  0  0  0
  -26.4408  -31.6583   25.0772 C   0  0  0  0  0  0
  -25.3622  -31.3710   26.1470 C   0  0  0  0  0  0
  -27.0267  -30.3012   24.6178 C   0  0  0  0  0  0
  -27.5936  -32.4367   25.7557 C   0  0  0  0  0  0
  -27.5569  -37.1822   24.8450 C   0  0  0  0  0  0
  -21.4150  -29.2693   22.3390 N   0  0  0  0  0  0
  -26.4342  -37.3740   23.9334 N   0  0  0  0  0  0
  -24.6651  -31.0732   22.0983 N   0  0  0  0  0  0
  -23.4008  -28.8512   23.3329 O   0  0  0  0  0  0
  -28.3812  -26.6914   19.9832 O   0  0  0  0  0  0
  -26.5657  -34.8887   22.4695 O   0  0  0  0  0  0
  -23.5319  -32.1538   23.7406 O   0  0  0  0  0  0
  -28.5714  -19.8142   22.1474 C   0  0  0  0  0  0
  -28.9183  -18.4218   22.1701 C   0  0  0  0  0  0
  -30.0316  -18.1395   21.4077 C   0  0  0  0  0  0
  -29.4733  -20.6150   21.4965 C   0  0  0  0  0  0
  -30.5724  -16.8571   21.0033 C   0  0  0  0  0  0
  -30.0933  -15.5913   21.1681 C   0  0  0  0  0  0
  -28.1338  -17.4037   22.9360 C   0  0  0  0  0  0
  -27.1812  -24.5728   21.6859 C   0  0  0  0  0  0
  -29.4615  -22.1271   21.4261 C   0  0  0  0  0  0
  -28.5018  -22.8115   20.4187 C   0  0  0  0  0  0
  -28.3835  -25.3078   19.5453 C   0  0  0  0  0  0
  -28.3780  -24.3319   20.7535 C   0  0  1  0  0  0
  -30.7517  -19.6307   20.8114 S   0  0  0  0  0  0
  -31.4603  -12.4246   19.0809 H   0  0  0  0  0  0
  -30.3416  -11.3173   19.8441 H   0  0  0  0  0  0
  -29.7292  -11.7489   17.4489 H   0  0  0  0  0  0
  -29.6570  -13.4675   17.7221 H   0  0  0  0  0  0
  -27.8061  -11.3325   18.8053 H   0  0  0  0  0  0
  -27.3667  -12.6540   17.7733 H   0  0  0  0  0  0
  -27.7184  -14.2751   19.6016 H   0  0  0  0  0  0
  -28.6887  -11.9526   21.3116 H   0  0  0  0  0  0
  -28.4459  -13.5476   21.8841 H   0  0  0  0  0  0
  -25.2762   -9.5673   22.4794 H   0  0  0  0  0  0
  -23.9962   -7.4617   22.7494 H   0  0  0  0  0  0
  -21.0808   -8.8714   19.8974 H   0  0  0  0  0  0
  -22.3627  -10.9646   19.6136 H   0  0  0  0  0  0
  -21.2027   -7.6144   23.9703 H   0  0  0  0  0  0
  -21.1471   -6.0517   25.9074 H   0  0  0  0  0  0
  -22.0634   -2.7590   23.2830 H   0  0  0  0  0  0
  -22.4090  -11.9890   22.4797 H   0  0  0  0  0  0
  -21.1117  -13.1230   22.2491 H   0  0  0  0  0  0
  -24.6885  -15.8539   20.5908 H   0  0  0  0  0  0
  -26.3040  -15.6305   20.1323 H   0  0  0  0  0  0
  -26.7109  -32.5453   23.1175 H   0  0  0  0  0  0
  -24.9875  -33.9789   25.0312 H   0  0  0  0  0  0
  -22.6875  -31.3158   21.4209 H   0  0  0  0  0  0
  -23.3710  -35.9700   23.3432 H   0  0  0  0  0  0
  -24.3512  -36.8831   22.2023 H   0  0  0  0  0  0
  -23.7342  -37.6579   23.6618 H   0  0  0  0  0  0
  -26.0598  -31.6109   20.6109 H   0  0  0  0  0  0
  -26.8108  -30.8517   21.9967 H   0  0  0  0  0  0
  -28.1080  -29.0911   21.0448 H   0  0  0  0  0  0
  -25.8661  -25.9535   19.0510 H   0  0  0  0  0  0
  -23.8788  -27.2737   19.1550 H   0  0  0  0  0  0
  -23.7040  -30.6135   19.4156 H   0  0  0  0  0  0
  -22.7095  -29.2679   19.8714 H   0  0  0  0  0  0
  -25.1311  -36.2006   25.0828 H   0  0  0  0  0  0
  -20.9941  -28.3555   24.1414 H   0  0  0  0  0  0
  -20.4802  -26.2468   23.4345 H   0  0  0  0  0  0
  -21.6488  -26.6852   22.2188 H   0  0  0  0  0  0
  -19.6663  -25.5985   21.1800 H   0  0  0  0  0  0
  -19.6745  -27.2832   20.6963 H   0  0  0  0  0  0
  -17.4022  -26.6737   21.4104 H   0  0  0  0  0  0
  -17.9884  -26.0185   22.9188 H   0  0  0  0  0  0
  -19.8045  -30.7340   24.2010 H   0  0  0  0  0  0
  -17.5182  -31.6452   24.5128 H   0  0  0  0  0  0
  -15.5349  -30.3097   23.8072 H   0  0  0  0  0  0
  -15.8445  -28.0974   22.7485 H   0  0  0  0  0  0
  -24.5705  -30.7205   25.7715 H   0  0  0  0  0  0
  -24.8905  -32.2902   26.4977 H   0  0  0  0  0  0
  -25.7874  -30.8745   27.0203 H   0  0  0  0  0  0
  -26.2816  -29.6755   24.1268 H   0  0  0  0  0  0
  -27.4038  -29.7264   25.4642 H   0  0  0  0  0  0
  -27.8639  -30.4258   23.9312 H   0  0  0  0  0  0
  -27.2430  -33.3596   26.2178 H   0  0  0  0  0  0
  -28.3697  -32.7101   25.0402 H   0  0  0  0  0  0
  -28.0664  -31.8545   26.5452 H   0  0  0  0  0  0
  -28.2634  -38.0060   24.7396 H   0  0  0  0  0  0
  -28.1058  -36.2610   24.6473 H   0  0  0  0  0  0
  -27.2275  -37.1635   25.8850 H   0  0  0  0  0  0
  -20.9566  -29.7527   21.5816 H   0  0  0  0  0  0
  -26.0269  -38.2859   24.1285 H   0  0  0  0  0  0
  -27.6899  -20.1960   22.6424 H   0  0  0  0  0  0
  -31.5126  -16.9703   20.4638 H   0  0  0  0  0  0
  -29.1982  -15.3842   21.7300 H   0  0  0  0  0  0
  -27.3744  -17.8470   23.5800 H   0  0  0  0  0  0
  -28.7988  -16.8120   23.5758 H   0  0  0  0  0  0
  -27.6125  -16.7416   22.2508 H   0  0  0  0  0  0
  -27.1757  -23.8620   22.5112 H   0  0  0  0  0  0
  -26.2316  -24.4808   21.1532 H   0  0  0  0  0  0
  -27.2346  -25.5661   22.1280 H   0  0  0  0  0  0
  -30.4633  -22.5021   21.2158 H   0  0  0  0  0  0
  -29.2258  -22.5014   22.4257 H   0  0  0  0  0  0
  -27.5074  -22.3527   20.4585 H   0  0  0  0  0  0
  -28.8599  -22.6590   19.3994 H   0  0  0  0  0  0
  -27.6277  -25.0404   18.8086 H   0  0  0  0  0  0
  -29.3144  -25.1632   18.9997 H   0  0  0  0  0  0
  -29.2752  -24.6056   21.3076 H   0  0  0  0  0  0
  1 25  1  0  0  0
  1 30  2  0  0  0
  1 76  1  0  0  0
  2  3  1  0  0  0
  2 25  1  0  0  0
  2 84  1  0  0  0
  2 85  1  0  0  0
  3  4  1  0  0  0
  3 86  1  0  0  0
  3 87  1  0  0  0
  4  5  1  0  0  0
  4 88  1  0  0  0
  4 89  1  0  0  0
  5  6  1  0  0  0
  5 26  1  0  0  0
  5 90  1  0  0  0
  6 25  1  0  0  0
  6 91  1  0  0  0
  6 92  1  0  0  0
  7  8  2  0  0  0
  7 26  1  0  0  0
  7 29  1  0  0  0
  8  9  1  0  0  0
  8 22  1  0  0  0
  9 10  1  0  0  0
  9 27  2  0  0  0
 10 11  2  0  0  0
 10 15  1  0  0  0
 11 12  1  0  0  0
 11 93  1  0  0  0
 12 13  2  0  0  0
 12 94  1  0  0  0
 13 14  1  0  0  0
 13 31  1  0  0  0
 14 15  2  0  0  0
 14 95  1  0  0  0
 15 96  1  0  0  0
 16 17  2  0  0  0
 16 21  1  0  0  0
 16 31  1  0  0  0
 17 18  1  0  0  0
 17 97  1  0  0  0
 18 19  2  0  0  0
 18 98  1  0  0  0
 19 20  1  0  0  0
 19 24  1  0  0  0
 20 21  2  0  0  0
 20 99  1  0  0  0
 21 23  1  0  0  0
 22 28  1  0  0  0
 22 32  2  0  0  0
 26 27  1  0  0  0
 28100  1  0  0  0
 28101  1  0  0  0
 29102  1  0  0  0
 29103  1  0  0  0
 33 34  1  0  0  0
 33 66  1  0  0  0
 33 70  2  0  0  0
 34 36  1  0  0  0
 34 59  1  0  0  0
 34104  1  0  0  0
 35 44  2  0  0  0
 35 45  1  0  0  0
 35 68  1  0  0  0
 36 56  1  0  0  0
 36105  1  0  0  0
 37 39  1  0  0  0
 37 47  1  0  0  0
 37 66  1  0  0  0
 37106  1  0  0  0
 38 43  2  0  0  0
 38 46  1  0  0  0
 38 47  1  0  0  0
 39 64  1  0  0  0
 39 67  2  0  0  0
 40 52  1  0  0  0
 40 53  2  0  0  0
 40 58  1  0  0  0
 41107  1  0  0  0
 41108  1  0  0  0
 41109  1  0  0  0
 41 48  1  0  0  0
 42 43  1  0  0  0
 42 66  1  0  0  0
 42110  1  0  0  0
 42111  1  0  0  0
 43 44  1  0  0  0
 44112  1  0  0  0
 45 46  2  0  0  0
 45113  1  0  0  0
 46114  1  0  0  0
 47115  1  0  0  0
 47116  1  0  0  0
 48 56  1  0  0  0
 48 65  1  0  0  0
 48117  1  0  0  0
 49 50  1  0  0  0
 49 53  1  0  0  0
 49 64  1  0  0  0
 49118  1  0  0  0
 50 51  1  0  0  0
 50119  1  0  0  0
 50120  1  0  0  0
 51 52  1  0  0  0
 51121  1  0  0  0
 51122  1  0  0  0
 52123  1  0  0  0
 52124  1  0  0  0
 53 54  1  0  0  0
 54 55  2  0  0  0
 54125  1  0  0  0
 55 57  1  0  0  0
 55126  1  0  0  0
 56 69  2  0  0  0
 57 58  2  0  0  0
 57127  1  0  0  0
 58128  1  0  0  0
 59 60  1  0  0  0
 59 61  1  0  0  0
 59 62  1  0  0  0
 60129  1  0  0  0
 60130  1  0  0  0
 60131  1  0  0  0
 61132  1  0  0  0
 61133  1  0  0  0
 61134  1  0  0  0
 62135  1  0  0  0
 62136  1  0  0  0
 62137  1  0  0  0
 63 65  1  0  0  0
 63138  1  0  0  0
 63139  1  0  0  0
 63140  1  0  0  0
 64141  1  0  0  0
 65142  1  0  0  0
 68 81  1  0  0  0
 71 72  1  0  0  0
 71 74  2  0  0  0
 71143  1  0  0  0
 72 73  2  0  0  0
 72 77  1  0  0  0
 73 75  1  0  0  0
 73 83  1  0  0  0
 74 79  1  0  0  0
 74 83  1  0  0  0
 75 76  2  0  0  0
 75144  1  0  0  0
 76145  1  0  0  0
 77146  1  0  0  0
 77147  1  0  0  0
 77148  1  0  0  0
 78149  1  0  0  0
 78150  1  0  0  0
 78151  1  0  0  0
 78 82  1  0  0  0
 79 80  1  0  0  0
 79152  1  0  0  0
 79153  1  0  0  0
 80 82  1  0  0  0
 80154  1  0  0  0
 80155  1  0  0  0
 81 82  1  0  0  0
 81156  1  0  0  0
 81157  1  0  0  0
 82158  1  0  0  0
M  ISO  4   1 100  68 101  76 100  81 101
M  END
> <chiral flag>
0

> <version>
0

> <s_m_source_file>
/data/baiqing/PycharmProjects/Reinvent-master-3.2/result/LINK_invent/BTK/process_docking_weight1_custom_product_contain_oxygen_bond_distance_aromatic_linkinvent_7_9_3/rearranged_h_0132.sdf

> <i_m_source_file_index>
6

> <r_mmod_Potential_Energy-OPLS-2005>
-7.8726487159729

> <r_mmod_Stretch_Energy-OPLS-2005>
42.1257133483887

> <r_mmod_Bend_Energy-OPLS-2005>
120.013694763184

> <r_mmod_Torsional_Energy-OPLS-2005>
176.253814697266

> <r_mmod_Improper_Torsional_Energy-OPLS-2005>
3.16968894004822

> <r_mmod_Van_der_Waal_Energy-OPLS-2005>
142.998458862305

> <r_mmod_Electrostatic_Energy-OPLS-2005>
-326.857238769531

> <r_mmod_Solvation_Energy-OPLS-2005>
-185.882141113281

> <b_mmod_Minimization_Converged-OPLS-2005>
0

> <r_mmod_RMS_Derivative-OPLS-2005>
11.494833946228

$$$$
6
                    3D
 Structure written by MMmdl.
161169  0  0  1  0            999 V2000
  -30.7550  -14.3910   20.6955 C   0  0  0  0  0  0
  -30.4233  -12.3137   19.3928 C   0  0  0  0  0  0
  -29.4849  -12.5429   18.1927 C   0  0  0  0  0  0
  -28.0091  -12.3898   18.6080 C   0  0  0  0  0  0
  -27.6688  -13.1995   19.8862 C   0  0  2  0  0  0
  -28.7075  -12.9134   20.9917 C   0  0  0  0  0  0
  -25.2623  -13.8154   20.5689 C   0  0  0  0  0  0
  -24.1857  -13.0440   20.9167 C   0  0  0  0  0  0
  -24.6395  -11.6903   20.8725 C   0  0  0  0  0  0
  -23.9055  -10.4293   21.0399 C   0  0  0  0  0  0
  -24.3607   -9.4211   21.9182 C   0  0  0  0  0  0
  -23.6284   -8.2246   22.0755 C   0  0  0  0  0  0
  -22.4268   -8.0281   21.3544 C   0  0  0  0  0  0
  -21.9901   -9.0253   20.4645 C   0  0  0  0  0  0
  -22.7227  -10.2134   20.3052 C   0  0  0  0  0  0
  -21.6850   -6.0733   22.5277 C   0  0  0  0  0  0
  -21.4012   -6.5638   23.8210 C   0  0  0  0  0  0
  -21.3659   -5.6791   24.9174 C   0  0  0  0  0  0
  -21.6045   -4.3054   24.7225 C   0  0  0  0  0  0
  -21.8820   -3.8145   23.4346 C   0  0  0  0  0  0
  -21.9192   -4.6961   22.3401 C   0  0  0  0  0  0
  -22.7881  -13.5247   21.1833 C   0  0  0  0  0  0
  -22.1660   -4.2147   21.0979 F   0  0  0  0  0  0
  -21.5630   -3.4539   25.7740 F   0  0  0  0  0  0
  -30.0454  -13.2463   20.4677 N   0  0  0  0  0  0
  -26.3061  -12.9309   20.3414 N   0  0  0  0  0  0
  -25.9321  -11.6471   20.5761 N   0  0  0  0  0  0
  -22.0517  -12.8239   22.0388 N   0  0  0  0  0  0
  -25.4365  -15.1867   20.4104 N   0  0  0  0  0  0
  -31.7506  -14.7070   20.0323 O   0  0  0  0  0  0
  -21.6635   -6.8876   21.4239 O   0  0  0  0  0  0
  -22.3568  -14.5555   20.6687 O   0  0  0  0  0  0
  -24.6134  -31.8683   23.2108 C   0  0  0  0  0  0
  -25.9031  -32.4825   23.8403 C   0  0  1  0  0  0
  -27.2371  -27.4511   20.0940 C   0  0  0  0  0  0
  -25.5893  -33.8623   24.2336 N   0  0  0  0  0  0
  -23.4014  -30.4912   21.5509 C   0  0  2  0  0  0
  -24.8500  -28.9594   20.1136 C   0  0  0  0  0  0
  -22.7402  -29.4659   22.4998 C   0  0  0  0  0  0
  -18.0267  -28.1377   22.8494 C   0  0  0  0  0  0
  -24.1484  -36.7314   23.2640 C   0  0  0  0  0  0
  -25.9285  -30.8399   21.3609 C   0  0  0  0  0  0
  -26.0093  -29.4758   20.7075 C   0  0  0  0  0  0
  -27.2093  -28.7294   20.6932 C   0  0  0  0  0  0
  -26.0653  -26.9462   19.4923 C   0  0  0  0  0  0
  -24.8719  -27.6929   19.5027 C   0  0  0  0  0  0
  -23.6093  -29.8221   20.1656 C   0  0  0  0  0  0
  -25.4106  -36.3113   24.0339 C   0  0  1  0  0  0
  -20.5856  -28.3662   23.1323 C   0  0  2  0  0  0
  -20.6759  -26.9400   22.5420 C   0  0  0  0  0  0
  -19.5739  -26.6385   21.5214 C   0  0  0  0  0  0
  -18.1915  -26.7925   22.1620 C   0  0  0  0  0  0
  -19.1516  -28.8836   23.2906 C   0  0  0  0  0  0
  -18.9446  -30.1444   23.8914 C   0  0  0  0  0  0
  -17.6450  -30.6586   24.0568 C   0  0  0  0  0  0
  -25.9031  -34.9476   23.5134 C   0  0  0  0  0  0
  -16.5340  -29.9089   23.6329 C   0  0  0  0  0  0
  -16.7257  -28.6504   23.0352 C   0  0  0  0  0  0
  -26.4469  -31.6597   25.0722 C   0  0  0  0  0  0
  -25.3745  -31.3679   26.1474 C   0  0  0  0  0  0
  -27.0306  -30.3048   24.6078 C   0  0  0  0  0  0
  -27.6045  -32.4317   25.7487 C   0  0  0  0  0  0
  -27.5579  -37.1812   24.8467 C   0  0  0  0  0  0
  -21.4131  -29.3031   22.3733 N   0  0  0  0  0  0
  -26.4293  -37.3795   23.9408 N   0  0  0  0  0  0
  -24.6660  -31.0799   22.0999 N   0  0  0  0  0  0
  -23.4176  -28.8202   23.3039 O   0  0  0  0  0  0
  -28.3838  -26.6906   20.1027 O   0  0  0  0  0  0
  -26.5592  -34.8924   22.4694 O   0  0  0  0  0  0
  -23.5330  -32.1425   23.7512 O   0  0  0  0  0  0
  -30.5582  -17.5314   20.8881 C   0  0  0  0  0  0
  -30.1454  -18.8742   20.7199 C   0  0  0  0  0  0
  -28.2406  -18.4363   22.1402 C   0  0  0  0  0  0
  -29.8309  -16.6107   21.6895 C   0  0  0  0  0  0
  -28.6396  -17.0938   22.3163 C   0  0  0  0  0  0
  -28.9801  -19.3439   21.3640 C   0  0  0  0  0  0
  -30.3609  -15.2180   21.9217 C   0  0  0  0  0  0
  -27.9723  -16.5000   24.6989 C   0  0  0  0  0  0
  -27.7344  -16.2435   23.2048 C   0  0  0  0  0  0
  -28.9049  -24.2580   20.2677 C   0  0  0  0  0  0
  -28.5329  -22.9837   21.0597 C   0  0  0  0  0  0
  -28.2809  -25.5133   20.9160 C   0  0  0  0  0  0
  -29.1821  -21.6595   20.6034 C   0  0  0  0  0  0
  -30.4822  -14.7449   23.0934 N   0  0  0  0  0  0
  -28.4940  -20.6342   21.3176 O   0  0  0  0  0  0
  -31.4639  -12.4302   19.0855 H   0  0  0  0  0  0
  -30.3395  -11.2859   19.7493 H   0  0  0  0  0  0
  -29.7221  -11.8436   17.3899 H   0  0  0  0  0  0
  -29.6491  -13.5423   17.7868 H   0  0  0  0  0  0
  -27.8175  -11.3297   18.7793 H   0  0  0  0  0  0
  -27.3542  -12.6876   17.7884 H   0  0  0  0  0  0
  -27.7337  -14.2576   19.6315 H   0  0  0  0  0  0
  -28.6825  -11.8566   21.2620 H   0  0  0  0  0  0
  -28.4421  -13.4325   21.9064 H   0  0  0  0  0  0
  -25.2753   -9.5688   22.4755 H   0  0  0  0  0  0
  -23.9995   -7.4640   22.7476 H   0  0  0  0  0  0
  -21.0834   -8.8767   19.8950 H   0  0  0  0  0  0
  -22.3686  -10.9670   19.6158 H   0  0  0  0  0  0
  -21.2004   -7.6146   23.9714 H   0  0  0  0  0  0
  -21.1481   -6.0522   25.9077 H   0  0  0  0  0  0
  -22.0600   -2.7608   23.2848 H   0  0  0  0  0  0
  -22.4122  -11.9890   22.4762 H   0  0  0  0  0  0
  -21.1139  -13.1273   22.2597 H   0  0  0  0  0  0
  -24.6715  -15.8437   20.5160 H   0  0  0  0  0  0
  -26.2957  -15.6261   20.1052 H   0  0  0  0  0  0
  -26.7107  -32.5550   23.1175 H   0  0  0  0  0  0
  -25.0063  -33.9790   25.0493 H   0  0  0  0  0  0
  -22.6897  -31.3073   21.4114 H   0  0  0  0  0  0
  -23.3743  -35.9650   23.3315 H   0  0  0  0  0  0
  -24.3575  -36.8918   22.2051 H   0  0  0  0  0  0
  -23.7239  -37.6523   23.6647 H   0  0  0  0  0  0
  -26.0369  -31.6073   20.5931 H   0  0  0  0  0  0
  -26.8174  -30.8950   21.9775 H   0  0  0  0  0  0
  -28.1049  -29.1215   21.1548 H   0  0  0  0  0  0
  -26.0765  -25.9720   19.0238 H   0  0  0  0  0  0
  -23.9810  -27.2891   19.0416 H   0  0  0  0  0  0
  -23.7126  -30.5961   19.4043 H   0  0  0  0  0  0
  -22.7349  -29.2380   19.8731 H   0  0  0  0  0  0
  -25.1282  -36.1983   25.0833 H   0  0  0  0  0  0
  -20.9947  -28.3226   24.1444 H   0  0  0  0  0  0
  -20.5668  -26.2265   23.3601 H   0  0  0  0  0  0
  -21.6630  -26.7449   22.1212 H   0  0  0  0  0  0
  -19.6903  -25.6301   21.1231 H   0  0  0  0  0  0
  -19.6682  -27.3205   20.6751 H   0  0  0  0  0  0
  -17.4188  -26.6683   21.4016 H   0  0  0  0  0  0
  -18.0307  -26.0059   22.9007 H   0  0  0  0  0  0
  -19.7923  -30.7255   24.2290 H   0  0  0  0  0  0
  -17.5007  -31.6269   24.5165 H   0  0  0  0  0  0
  -15.5343  -30.2999   23.7647 H   0  0  0  0  0  0
  -15.8654  -28.0833   22.7060 H   0  0  0  0  0  0
  -24.5925  -30.7020   25.7809 H   0  0  0  0  0  0
  -24.8927  -32.2823   26.4947 H   0  0  0  0  0  0
  -25.8111  -30.8834   27.0216 H   0  0  0  0  0  0
  -26.2844  -29.6804   24.1151 H   0  0  0  0  0  0
  -27.4113  -29.7285   25.4521 H   0  0  0  0  0  0
  -27.8659  -30.4385   23.9199 H   0  0  0  0  0  0
  -27.2666  -33.3610   26.2085 H   0  0  0  0  0  0
  -28.3844  -32.6887   25.0306 H   0  0  0  0  0  0
  -28.0724  -31.8428   26.5387 H   0  0  0  0  0  0
  -28.2603  -38.0104   24.7514 H   0  0  0  0  0  0
  -28.1070  -36.2636   24.6297 H   0  0  0  0  0  0
  -27.2295  -37.1475   25.8870 H   0  0  0  0  0  0
  -20.9286  -29.8754   21.6960 H   0  0  0  0  0  0
  -26.0185  -38.2874   24.1408 H   0  0  0  0  0  0
  -31.4758  -17.2222   20.4083 H   0  0  0  0  0  0
  -30.7471  -19.5305   20.1080 H   0  0  0  0  0  0
  -27.3451  -18.7899   22.6324 H   0  0  0  0  0  0
  -27.3044  -15.8890   25.3065 H   0  0  0  0  0  0
  -27.7883  -17.5434   24.9562 H   0  0  0  0  0  0
  -28.9945  -16.2621   24.9918 H   0  0  0  0  0  0
  -27.8264  -15.1838   22.9895 H   0  0  0  0  0  0
  -26.6965  -16.4806   22.9655 H   0  0  0  0  0  0
  -28.5480  -24.1587   19.2420 H   0  0  0  0  0  0
  -29.9882  -24.3716   20.2134 H   0  0  0  0  0  0
  -27.4489  -22.8672   21.0160 H   0  0  0  0  0  0
  -28.7710  -23.1348   22.1135 H   0  0  0  0  0  0
  -28.7810  -25.7172   21.8636 H   0  0  0  0  0  0
  -27.2443  -25.2915   21.1786 H   0  0  0  0  0  0
  -30.2485  -21.6672   20.8328 H   0  0  0  0  0  0
  -29.0600  -21.5096   19.5299 H   0  0  0  0  0  0
  -30.1787  -15.4240   23.7801 H   0  0  0  0  0  0
  1 25  1  0  0  0
  1 30  2  0  0  0
  1 77  1  0  0  0
  2  3  1  0  0  0
  2 25  1  0  0  0
  2 86  1  0  0  0
  2 87  1  0  0  0
  3  4  1  0  0  0
  3 88  1  0  0  0
  3 89  1  0  0  0
  4  5  1  0  0  0
  4 90  1  0  0  0
  4 91  1  0  0  0
  5  6  1  0  0  0
  5 26  1  0  0  0
  5 92  1  0  0  0
  6 25  1  0  0  0
  6 93  1  0  0  0
  6 94  1  0  0  0
  7  8  2  0  0  0
  7 26  1  0  0  0
  7 29  1  0  0  0
  8  9  1  0  0  0
  8 22  1  0  0  0
  9 10  1  0  0  0
  9 27  2  0  0  0
 10 11  2  0  0  0
 10 15  1  0  0  0
 11 12  1  0  0  0
 11 95  1  0  0  0
 12 13  2  0  0  0
 12 96  1  0  0  0
 13 14  1  0  0  0
 13 31  1  0  0  0
 14 15  2  0  0  0
 14 97  1  0  0  0
 15 98  1  0  0  0
 16 17  2  0  0  0
 16 21  1  0  0  0
 16 31  1  0  0  0
 17 18  1  0  0  0
 17 99  1  0  0  0
 18 19  2  0  0  0
 18100  1  0  0  0
 19 20  1  0  0  0
 19 24  1  0  0  0
 20 21  2  0  0  0
 20101  1  0  0  0
 21 23  1  0  0  0
 22 28  1  0  0  0
 22 32  2  0  0  0
 26 27  1  0  0  0
 28102  1  0  0  0
 28103  1  0  0  0
 29104  1  0  0  0
 29105  1  0  0  0
 33 34  1  0  0  0
 33 66  1  0  0  0
 33 70  2  0  0  0
 34 36  1  0  0  0
 34 59  1  0  0  0
 34106  1  0  0  0
 35 44  2  0  0  0
 35 45  1  0  0  0
 35 68  1  0  0  0
 36 56  1  0  0  0
 36107  1  0  0  0
 37 39  1  0  0  0
 37 47  1  0  0  0
 37 66  1  0  0  0
 37108  1  0  0  0
 38 43  2  0  0  0
 38 46  1  0  0  0
 38 47  1  0  0  0
 39 64  1  0  0  0
 39 67  2  0  0  0
 40 52  1  0  0  0
 40 53  2  0  0  0
 40 58  1  0  0  0
 41109  1  0  0  0
 41110  1  0  0  0
 41111  1  0  0  0
 41 48  1  0  0  0
 42 43  1  0  0  0
 42 66  1  0  0  0
 42112  1  0  0  0
 42113  1  0  0  0
 43 44  1  0  0  0
 44114  1  0  0  0
 45 46  2  0  0  0
 45115  1  0  0  0
 46116  1  0  0  0
 47117  1  0  0  0
 47118  1  0  0  0
 48 56  1  0  0  0
 48 65  1  0  0  0
 48119  1  0  0  0
 49 50  1  0  0  0
 49 53  1  0  0  0
 49 64  1  0  0  0
 49120  1  0  0  0
 50 51  1  0  0  0
 50121  1  0  0  0
 50122  1  0  0  0
 51 52  1  0  0  0
 51123  1  0  0  0
 51124  1  0  0  0
 52125  1  0  0  0
 52126  1  0  0  0
 53 54  1  0  0  0
 54 55  2  0  0  0
 54127  1  0  0  0
 55 57  1  0  0  0
 55128  1  0  0  0
 56 69  2  0  0  0
 57 58  2  0  0  0
 57129  1  0  0  0
 58130  1  0  0  0
 59 60  1  0  0  0
 59 61  1  0  0  0
 59 62  1  0  0  0
 60131  1  0  0  0
 60132  1  0  0  0
 60133  1  0  0  0
 61134  1  0  0  0
 61135  1  0  0  0
 61136  1  0  0  0
 62137  1  0  0  0
 62138  1  0  0  0
 62139  1  0  0  0
 63 65  1  0  0  0
 63140  1  0  0  0
 63141  1  0  0  0
 63142  1  0  0  0
 64143  1  0  0  0
 65144  1  0  0  0
 68 82  1  0  0  0
 71 72  2  0  0  0
 71 74  1  0  0  0
 71145  1  0  0  0
 72 76  1  0  0  0
 72146  1  0  0  0
 73 75  1  0  0  0
 73 76  2  0  0  0
 73147  1  0  0  0
 74 75  2  0  0  0
 74 77  1  0  0  0
 75 79  1  0  0  0
 76 85  1  0  0  0
 77 84  2  0  0  0
 78 79  1  0  0  0
 78148  1  0  0  0
 78149  1  0  0  0
 78150  1  0  0  0
 79151  1  0  0  0
 79152  1  0  0  0
 80 81  1  0  0  0
 80 82  1  0  0  0
 80153  1  0  0  0
 80154  1  0  0  0
 81 83  1  0  0  0
 81155  1  0  0  0
 81156  1  0  0  0
 82157  1  0  0  0
 82158  1  0  0  0
 83 85  1  0  0  0
 83159  1  0  0  0
 83160  1  0  0  0
 84161  1  0  0  0
M  ISO  4   1 100  68 101  77 100  82 101
M  END
> <chiral flag>
0

> <version>
0

> <s_m_source_file>
/data/baiqing/PycharmProjects/Reinvent-master-3.2/result/LINK_invent/BTK/process_docking_weight1_custom_product_contain_oxygen_bond_distance_aromatic_linkinvent_7_9_3/rearranged_h_0132.sdf

> <i_m_source_file_index>
7

> <r_mmod_Potential_Energy-OPLS-2005>
139.000122070312

> <r_mmod_Stretch_Energy-OPLS-2005>
41.1783561706543

> <r_mmod_Bend_Energy-OPLS-2005>
112.142143249512

> <r_mmod_Torsional_Energy-OPLS-2005>
240.067687988281

> <r_mmod_Improper_Torsional_Energy-OPLS-2005>
2.88571286201477

> <r_mmod_Van_der_Waal_Energy-OPLS-2005>
150.442352294922

> <r_mmod_Electrostatic_Energy-OPLS-2005>
-228.682952880859

> <r_mmod_Solvation_Energy-OPLS-2005>
-187.714385986328

> <b_mmod_Minimization_Converged-OPLS-2005>
0

> <r_mmod_RMS_Derivative-OPLS-2005>
0.301130801439285

$$$$
7
                    3D
 Structure written by MMmdl.
158166  0  0  1  0            999 V2000
  -30.7646  -14.3874   20.5627 C   0  0  0  0  0  0
  -30.3925  -12.2408   19.4335 C   0  0  0  0  0  0
  -29.4849  -12.4800   18.2088 C   0  0  0  0  0  0
  -28.0033  -12.3654   18.6100 C   0  0  0  0  0  0
  -27.6582  -13.2067   19.8696 C   0  0  2  0  0  0
  -28.6943  -12.9823   20.9933 C   0  0  0  0  0  0
  -25.2582  -13.8159   20.5650 C   0  0  0  0  0  0
  -24.1847  -13.0454   20.9162 C   0  0  0  0  0  0
  -24.6417  -11.6910   20.8779 C   0  0  0  0  0  0
  -23.9113  -10.4285   21.0443 C   0  0  0  0  0  0
  -24.3665   -9.4182   21.9205 C   0  0  0  0  0  0
  -23.6315   -8.2238   22.0777 C   0  0  0  0  0  0
  -22.4303   -8.0295   21.3569 C   0  0  0  0  0  0
  -21.9961   -9.0276   20.4664 C   0  0  0  0  0  0
  -22.7307  -10.2135   20.3081 C   0  0  0  0  0  0
  -21.6852   -6.0745   22.5295 C   0  0  0  0  0  0
  -21.4006   -6.5635   23.8224 C   0  0  0  0  0  0
  -21.3656   -5.6799   24.9187 C   0  0  0  0  0  0
  -21.6048   -4.3054   24.7243 C   0  0  0  0  0  0
  -21.8816   -3.8155   23.4376 C   0  0  0  0  0  0
  -21.9187   -4.6964   22.3418 C   0  0  0  0  0  0
  -22.7849  -13.5227   21.1813 C   0  0  0  0  0  0
  -22.1652   -4.2143   21.0991 F   0  0  0  0  0  0
  -21.5644   -3.4540   25.7765 F   0  0  0  0  0  0
  -30.0344  -13.2440   20.4523 N   0  0  0  0  0  0
  -26.3012  -12.9328   20.3344 N   0  0  0  0  0  0
  -25.9337  -11.6488   20.5819 N   0  0  0  0  0  0
  -22.0512  -12.8219   22.0371 N   0  0  0  0  0  0
  -25.4354  -15.1880   20.4032 N   0  0  0  0  0  0
  -31.9111  -14.4483   20.1117 O   0  0  0  0  0  0
  -21.6648   -6.8913   21.4267 O   0  0  0  0  0  0
  -22.3516  -14.5524   20.6649 O   0  0  0  0  0  0
  -24.6075  -31.8722   23.2190 C   0  0  0  0  0  0
  -25.8969  -32.4859   23.8459 C   0  0  1  0  0  0
  -27.2144  -27.4476   20.1037 C   0  0  0  0  0  0
  -25.5872  -33.8657   24.2397 N   0  0  0  0  0  0
  -23.3973  -30.4913   21.5605 C   0  0  2  0  0  0
  -24.8435  -28.9666   20.1235 C   0  0  0  0  0  0
  -22.7359  -29.4630   22.5059 C   0  0  0  0  0  0
  -18.0228  -28.1342   22.8506 C   0  0  0  0  0  0
  -24.1492  -36.7273   23.2623 C   0  0  0  0  0  0
  -25.9265  -30.8390   21.3802 C   0  0  0  0  0  0
  -26.0035  -29.4792   20.7169 C   0  0  0  0  0  0
  -27.1964  -28.7247   20.7018 C   0  0  0  0  0  0
  -26.0368  -26.9413   19.5123 C   0  0  0  0  0  0
  -24.8528  -27.6985   19.5218 C   0  0  0  0  0  0
  -23.6061  -29.8268   20.1741 C   0  0  0  0  0  0
  -25.4115  -36.3132   24.0357 C   0  0  1  0  0  0
  -20.5819  -28.3598   23.1369 C   0  0  2  0  0  0
  -20.6725  -26.9349   22.5420 C   0  0  0  0  0  0
  -19.5709  -26.6353   21.5205 C   0  0  0  0  0  0
  -18.1881  -26.7894   22.1607 C   0  0  0  0  0  0
  -19.1482  -28.8788   23.2928 C   0  0  0  0  0  0
  -18.9416  -30.1410   23.8917 C   0  0  0  0  0  0
  -17.6426  -30.6574   24.0536 C   0  0  0  0  0  0
  -25.9033  -34.9496   23.5178 C   0  0  0  0  0  0
  -16.5318  -29.9063   23.6337 C   0  0  0  0  0  0
  -16.7226  -28.6476   23.0381 C   0  0  0  0  0  0
  -26.4427  -31.6629   25.0755 C   0  0  0  0  0  0
  -25.3702  -31.3720   26.1511 C   0  0  0  0  0  0
  -27.0198  -30.3061   24.6127 C   0  0  0  0  0  0
  -27.6088  -32.4310   25.7420 C   0  0  0  0  0  0
  -27.5653  -37.1716   24.8401 C   0  0  0  0  0  0
  -21.4084  -29.2993   22.3804 N   0  0  0  0  0  0
  -26.4277  -37.3850   23.9496 N   0  0  0  0  0  0
  -24.6610  -31.0800   22.1118 N   0  0  0  0  0  0
  -23.4143  -28.8143   23.3058 O   0  0  0  0  0  0
  -28.3777  -26.7228   20.0941 O   0  0  0  0  0  0
  -26.5566  -34.8920   22.4717 O   0  0  0  0  0  0
  -23.5265  -32.1506   23.7560 O   0  0  0  0  0  0
  -29.0262  -18.5922   21.4903 C   0  0  0  0  0  0
  -30.8735  -19.1074   19.9902 C   0  0  0  0  0  0
  -28.6403  -19.9548   21.4583 C   0  0  0  0  0  0
  -30.4912  -20.4536   19.9523 C   0  0  0  0  0  0
  -30.1298  -18.1573   20.7204 C   0  0  0  0  0  0
  -29.3482  -20.8815   20.6553 C   0  0  0  0  0  0
  -30.5590  -16.7626   20.5458 C   0  0  0  0  0  0
  -30.0859  -15.5948   21.0434 C   0  0  0  0  0  0
  -30.6254  -25.7085   21.4459 C   0  0  0  0  0  0
  -28.8785  -22.3182   20.4713 C   0  0  0  0  0  0
  -29.7726  -23.3506   21.1822 C   0  0  0  0  0  0
  -28.2749  -25.3961   20.6134 C   0  0  0  0  0  0
  -29.6927  -24.7960   20.6309 C   0  0  1  0  0  0
  -31.4411  -12.2748   19.1415 H   0  0  0  0  0  0
  -30.2342  -11.2325   19.8243 H   0  0  0  0  0  0
  -29.7093  -11.7584   17.4203 H   0  0  0  0  0  0
  -29.6833  -13.4675   17.7880 H   0  0  0  0  0  0
  -27.7955  -11.3110   18.8025 H   0  0  0  0  0  0
  -27.3588  -12.6503   17.7760 H   0  0  0  0  0  0
  -27.7105  -14.2557   19.5748 H   0  0  0  0  0  0
  -28.6417  -11.9484   21.3419 H   0  0  0  0  0  0
  -28.4689  -13.5935   21.8644 H   0  0  0  0  0  0
  -25.2821   -9.5583   22.4771 H   0  0  0  0  0  0
  -23.9985   -7.4617   22.7497 H   0  0  0  0  0  0
  -21.0887   -8.8836   19.8953 H   0  0  0  0  0  0
  -22.3832  -10.9694   19.6176 H   0  0  0  0  0  0
  -21.1995   -7.6144   23.9720 H   0  0  0  0  0  0
  -21.1474   -6.0535   25.9082 H   0  0  0  0  0  0
  -22.0600   -2.7614   23.2902 H   0  0  0  0  0  0
  -22.4167  -11.9877   22.4695 H   0  0  0  0  0  0
  -21.1136  -13.1233   22.2649 H   0  0  0  0  0  0
  -24.6780  -15.8559   20.5002 H   0  0  0  0  0  0
  -26.3000  -15.6104   20.0879 H   0  0  0  0  0  0
  -26.6998  -32.5591   23.1187 H   0  0  0  0  0  0
  -25.0007  -33.9866   25.0531 H   0  0  0  0  0  0
  -22.6883  -31.3083   21.4167 H   0  0  0  0  0  0
  -23.3901  -35.9439   23.3069 H   0  0  0  0  0  0
  -24.3668  -36.9117   22.2094 H   0  0  0  0  0  0
  -23.7028  -37.6312   23.6771 H   0  0  0  0  0  0
  -26.0447  -31.6232   20.6324 H   0  0  0  0  0  0
  -26.8104  -30.8787   22.0052 H   0  0  0  0  0  0
  -28.0965  -29.1053   21.1672 H   0  0  0  0  0  0
  -26.0163  -25.9708   19.0404 H   0  0  0  0  0  0
  -23.9550  -27.3013   19.0711 H   0  0  0  0  0  0
  -23.7139  -30.6005   19.4130 H   0  0  0  0  0  0
  -22.7337  -29.2383   19.8808 H   0  0  0  0  0  0
  -25.1274  -36.1987   25.0835 H   0  0  0  0  0  0
  -20.9871  -28.3091   24.1508 H   0  0  0  0  0  0
  -20.5625  -26.2166   23.3563 H   0  0  0  0  0  0
  -21.6597  -26.7396   22.1217 H   0  0  0  0  0  0
  -19.6874  -25.6259   21.1247 H   0  0  0  0  0  0
  -19.6695  -27.3167   20.6742 H   0  0  0  0  0  0
  -17.4159  -26.6678   21.3992 H   0  0  0  0  0  0
  -18.0254  -26.0011   22.8972 H   0  0  0  0  0  0
  -19.7892  -30.7215   24.2315 H   0  0  0  0  0  0
  -17.4981  -31.6298   24.5048 H   0  0  0  0  0  0
  -15.5320  -30.2979   23.7652 H   0  0  0  0  0  0
  -15.8609  -28.0797   22.7122 H   0  0  0  0  0  0
  -24.5776  -30.7224   25.7779 H   0  0  0  0  0  0
  -24.8989  -32.2861   26.5130 H   0  0  0  0  0  0
  -25.8003  -30.8671   27.0171 H   0  0  0  0  0  0
  -26.2695  -29.6866   24.1199 H   0  0  0  0  0  0
  -27.3946  -29.7281   25.4587 H   0  0  0  0  0  0
  -27.8571  -30.4366   23.9270 H   0  0  0  0  0  0
  -27.2830  -33.3641   26.2030 H   0  0  0  0  0  0
  -28.3804  -32.6840   25.0129 H   0  0  0  0  0  0
  -28.0840  -31.8397   26.5260 H   0  0  0  0  0  0
  -28.2423  -38.0256   24.7894 H   0  0  0  0  0  0
  -28.1407  -36.2851   24.5686 H   0  0  0  0  0  0
  -27.2426  -37.0668   25.8773 H   0  0  0  0  0  0
  -20.9211  -29.8751   21.7082 H   0  0  0  0  0  0
  -26.0167  -38.2851   24.1826 H   0  0  0  0  0  0
  -28.4501  -17.8948   22.0836 H   0  0  0  0  0  0
  -31.7366  -18.7998   19.4139 H   0  0  0  0  0  0
  -27.7771  -20.2736   22.0285 H   0  0  0  0  0  0
  -31.0709  -21.1432   19.3529 H   0  0  0  0  0  0
  -31.3925  -16.6954   19.8597 H   0  0  0  0  0  0
  -29.2619  -15.5719   21.7390 H   0  0  0  0  0  0
  -31.5822  -25.2312   21.6574 H   0  0  0  0  0  0
  -30.1705  -25.9847   22.3997 H   0  0  0  0  0  0
  -30.8369  -26.6297   20.9041 H   0  0  0  0  0  0
  -27.8444  -22.4253   20.7965 H   0  0  0  0  0  0
  -28.8762  -22.5135   19.3991 H   0  0  0  0  0  0
  -30.8111  -23.0311   21.0774 H   0  0  0  0  0  0
  -29.5668  -23.3343   22.2527 H   0  0  0  0  0  0
  -27.8587  -25.4153   21.6238 H   0  0  0  0  0  0
  -27.6119  -24.7858   20.0008 H   0  0  0  0  0  0
  -30.0546  -24.7841   19.6005 H   0  0  0  0  0  0
  1 25  1  0  0  0
  1 30  2  0  0  0
  1 78  1  0  0  0
  2  3  1  0  0  0
  2 25  1  0  0  0
  2 84  1  0  0  0
  2 85  1  0  0  0
  3  4  1  0  0  0
  3 86  1  0  0  0
  3 87  1  0  0  0
  4  5  1  0  0  0
  4 88  1  0  0  0
  4 89  1  0  0  0
  5  6  1  0  0  0
  5 26  1  0  0  0
  5 90  1  0  0  0
  6 25  1  0  0  0
  6 91  1  0  0  0
  6 92  1  0  0  0
  7  8  2  0  0  0
  7 26  1  0  0  0
  7 29  1  0  0  0
  8  9  1  0  0  0
  8 22  1  0  0  0
  9 10  1  0  0  0
  9 27  2  0  0  0
 10 11  2  0  0  0
 10 15  1  0  0  0
 11 12  1  0  0  0
 11 93  1  0  0  0
 12 13  2  0  0  0
 12 94  1  0  0  0
 13 14  1  0  0  0
 13 31  1  0  0  0
 14 15  2  0  0  0
 14 95  1  0  0  0
 15 96  1  0  0  0
 16 17  2  0  0  0
 16 21  1  0  0  0
 16 31  1  0  0  0
 17 18  1  0  0  0
 17 97  1  0  0  0
 18 19  2  0  0  0
 18 98  1  0  0  0
 19 20  1  0  0  0
 19 24  1  0  0  0
 20 21  2  0  0  0
 20 99  1  0  0  0
 21 23  1  0  0  0
 22 28  1  0  0  0
 22 32  2  0  0  0
 26 27  1  0  0  0
 28100  1  0  0  0
 28101  1  0  0  0
 29102  1  0  0  0
 29103  1  0  0  0
 33 34  1  0  0  0
 33 66  1  0  0  0
 33 70  2  0  0  0
 34 36  1  0  0  0
 34 59  1  0  0  0
 34104  1  0  0  0
 35 44  2  0  0  0
 35 45  1  0  0  0
 35 68  1  0  0  0
 36 56  1  0  0  0
 36105  1  0  0  0
 37 39  1  0  0  0
 37 47  1  0  0  0
 37 66  1  0  0  0
 37106  1  0  0  0
 38 43  2  0  0  0
 38 46  1  0  0  0
 38 47  1  0  0  0
 39 64  1  0  0  0
 39 67  2  0  0  0
 40 52  1  0  0  0
 40 53  2  0  0  0
 40 58  1  0  0  0
 41107  1  0  0  0
 41108  1  0  0  0
 41109  1  0  0  0
 41 48  1  0  0  0
 42 43  1  0  0  0
 42 66  1  0  0  0
 42110  1  0  0  0
 42111  1  0  0  0
 43 44  1  0  0  0
 44112  1  0  0  0
 45 46  2  0  0  0
 45113  1  0  0  0
 46114  1  0  0  0
 47115  1  0  0  0
 47116  1  0  0  0
 48 56  1  0  0  0
 48 65  1  0  0  0
 48117  1  0  0  0
 49 50  1  0  0  0
 49 53  1  0  0  0
 49 64  1  0  0  0
 49118  1  0  0  0
 50 51  1  0  0  0
 50119  1  0  0  0
 50120  1  0  0  0
 51 52  1  0  0  0
 51121  1  0  0  0
 51122  1  0  0  0
 52123  1  0  0  0
 52124  1  0  0  0
 53 54  1  0  0  0
 54 55  2  0  0  0
 54125  1  0  0  0
 55 57  1  0  0  0
 55126  1  0  0  0
 56 69  2  0  0  0
 57 58  2  0  0  0
 57127  1  0  0  0
 58128  1  0  0  0
 59 60  1  0  0  0
 59 61  1  0  0  0
 59 62  1  0  0  0
 60129  1  0  0  0
 60130  1  0  0  0
 60131  1  0  0  0
 61132  1  0  0  0
 61133  1  0  0  0
 61134  1  0  0  0
 62135  1  0  0  0
 62136  1  0  0  0
 62137  1  0  0  0
 63 65  1  0  0  0
 63138  1  0  0  0
 63139  1  0  0  0
 63140  1  0  0  0
 64141  1  0  0  0
 65142  1  0  0  0
 68 82  1  0  0  0
 71 73  2  0  0  0
 71 75  1  0  0  0
 71143  1  0  0  0
 72 74  1  0  0  0
 72 75  2  0  0  0
 72144  1  0  0  0
 73 76  1  0  0  0
 73145  1  0  0  0
 74 76  2  0  0  0
 74146  1  0  0  0
 75 77  1  0  0  0
 76 80  1  0  0  0
 77 78  2  0  0  0
 77147  1  0  0  0
 78148  1  0  0  0
 79149  1  0  0  0
 79150  1  0  0  0
 79151  1  0  0  0
 79 83  1  0  0  0
 80 81  1  0  0  0
 80152  1  0  0  0
 80153  1  0  0  0
 81 83  1  0  0  0
 81154  1  0  0  0
 81155  1  0  0  0
 82 83  1  0  0  0
 82156  1  0  0  0
 82157  1  0  0  0
 83158  1  0  0  0
M  ISO  4   1 100  68 101  78 100  82 101
M  END
> <chiral flag>
0

> <version>
0

> <s_m_source_file>
/data/baiqing/PycharmProjects/Reinvent-master-3.2/result/LINK_invent/BTK/process_docking_weight1_custom_product_contain_oxygen_bond_distance_aromatic_linkinvent_7_9_3/rearranged_h_0132.sdf

> <i_m_source_file_index>
8

> <r_mmod_Potential_Energy-OPLS-2005>
10.9647808074951

> <r_mmod_Stretch_Energy-OPLS-2005>
32.8907699584961

> <r_mmod_Bend_Energy-OPLS-2005>
107.056304931641

> <r_mmod_Torsional_Energy-OPLS-2005>
204.557342529297

> <r_mmod_Improper_Torsional_Energy-OPLS-2005>
4.50378561019897

> <r_mmod_Van_der_Waal_Energy-OPLS-2005>
164.938034057617

> <r_mmod_Electrostatic_Energy-OPLS-2005>
-335.82177734375

> <r_mmod_Solvation_Energy-OPLS-2005>
-184.075775146484

> <b_mmod_Minimization_Converged-OPLS-2005>
0

> <r_mmod_RMS_Derivative-OPLS-2005>
4.73524332046509

$$$$
8
                    3D
 Structure written by MMmdl.
164172  0  0  1  0            999 V2000
  -30.6796  -14.5232   20.5544 C   0  0  0  0  0  0
  -30.4265  -12.3302   19.4313 C   0  0  0  0  0  0
  -29.4969  -12.5035   18.2114 C   0  0  0  0  0  0
  -28.0179  -12.3614   18.6240 C   0  0  0  0  0  0
  -27.6605  -13.2117   19.8731 C   0  0  2  0  0  0
  -28.7059  -13.0149   20.9943 C   0  0  0  0  0  0
  -25.2587  -13.8172   20.5696 C   0  0  0  0  0  0
  -24.1840  -13.0443   20.9185 C   0  0  0  0  0  0
  -24.6404  -11.6913   20.8743 C   0  0  0  0  0  0
  -23.9072  -10.4294   21.0410 C   0  0  0  0  0  0
  -24.3618   -9.4208   21.9190 C   0  0  0  0  0  0
  -23.6293   -8.2247   22.0756 C   0  0  0  0  0  0
  -22.4277   -8.0288   21.3548 C   0  0  0  0  0  0
  -21.9915   -9.0261   20.4645 C   0  0  0  0  0  0
  -22.7248  -10.2139   20.3056 C   0  0  0  0  0  0
  -21.6852   -6.0743   22.5281 C   0  0  0  0  0  0
  -21.4006   -6.5642   23.8215 C   0  0  0  0  0  0
  -21.3654   -5.6793   24.9175 C   0  0  0  0  0  0
  -21.6044   -4.3058   24.7223 C   0  0  0  0  0  0
  -21.8819   -3.8154   23.4343 C   0  0  0  0  0  0
  -21.9191   -4.6972   22.3402 C   0  0  0  0  0  0
  -22.7858  -13.5236   21.1850 C   0  0  0  0  0  0
  -22.1660   -4.2159   21.0979 F   0  0  0  0  0  0
  -21.5633   -3.4541   25.7734 F   0  0  0  0  0  0
  -30.0289  -13.3290   20.4386 N   0  0  0  0  0  0
  -26.3031  -12.9349   20.3380 N   0  0  0  0  0  0
  -25.9337  -11.6502   20.5780 N   0  0  0  0  0  0
  -22.0494  -12.8219   22.0393 N   0  0  0  0  0  0
  -25.4305  -15.1888   20.4107 N   0  0  0  0  0  0
  -31.8095  -14.6797   20.0816 O   0  0  0  0  0  0
  -21.6636   -6.8890   21.4248 O   0  0  0  0  0  0
  -22.3543  -14.5552   20.6712 O   0  0  0  0  0  0
  -24.6183  -31.8646   23.2045 C   0  0  0  0  0  0
  -25.9074  -32.4799   23.8354 C   0  0  1  0  0  0
  -27.2383  -27.3995   20.1018 C   0  0  0  0  0  0
  -25.5924  -33.8594   24.2302 N   0  0  0  0  0  0
  -23.4079  -30.4849   21.5456 C   0  0  2  0  0  0
  -24.8552  -28.9407   20.1169 C   0  0  0  0  0  0
  -22.7433  -29.4636   22.4969 C   0  0  0  0  0  0
  -18.0279  -28.1377   22.8469 C   0  0  0  0  0  0
  -24.1486  -36.7288   23.2639 C   0  0  0  0  0  0
  -25.9380  -30.8202   21.3600 C   0  0  0  0  0  0
  -26.0176  -29.4499   20.7094 C   0  0  0  0  0  0
  -27.2129  -28.6898   20.6901 C   0  0  0  0  0  0
  -26.0565  -26.9084   19.5068 C   0  0  0  0  0  0
  -24.8717  -27.6714   19.5116 C   0  0  0  0  0  0
  -23.6184  -29.8118   20.1630 C   0  0  0  0  0  0
  -25.4107  -36.3091   24.0337 C   0  0  1  0  0  0
  -20.5869  -28.3667   23.1313 C   0  0  2  0  0  0
  -20.6772  -26.9396   22.5424 C   0  0  0  0  0  0
  -19.5757  -26.6385   21.5208 C   0  0  0  0  0  0
  -18.1928  -26.7926   22.1598 C   0  0  0  0  0  0
  -19.1527  -28.8838   23.2888 C   0  0  0  0  0  0
  -18.9460  -30.1434   23.8909 C   0  0  0  0  0  0
  -17.6464  -30.6577   24.0559 C   0  0  0  0  0  0
  -25.9050  -34.9462   23.5118 C   0  0  0  0  0  0
  -16.5352  -29.9081   23.6327 C   0  0  0  0  0  0
  -16.7269  -28.6502   23.0337 C   0  0  0  0  0  0
  -26.4485  -31.6576   25.0690 C   0  0  0  0  0  0
  -25.3742  -31.3695   26.1435 C   0  0  0  0  0  0
  -27.0307  -30.3019   24.6066 C   0  0  0  0  0  0
  -27.6058  -32.4292   25.7470 C   0  0  0  0  0  0
  -27.5580  -37.1787   24.8458 C   0  0  0  0  0  0
  -21.4155  -29.3025   22.3715 N   0  0  0  0  0  0
  -26.4281  -37.3787   23.9420 N   0  0  0  0  0  0
  -24.6732  -31.0712   22.0956 N   0  0  0  0  0  0
  -23.4187  -28.8198   23.3041 O   0  0  0  0  0  0
  -28.4088  -26.6598   20.0709 O   0  0  0  0  0  0
  -26.5596  -34.8924   22.4673 O   0  0  0  0  0  0
  -23.5374  -32.1406   23.7428 O   0  0  0  0  0  0
  -29.5728  -18.5399   22.5042 C   0  0  0  0  0  0
  -29.0566  -19.7208   23.0710 C   0  0  0  0  0  0
  -29.4639  -19.5757   20.3065 C   0  0  0  0  0  0
  -29.7683  -18.4362   21.1108 C   0  0  0  0  0  0
  -28.7354  -20.8356   22.2686 C   0  0  0  0  0  0
  -28.9564  -20.7824   20.8697 C   0  0  0  0  0  0
  -28.5007  -24.1341   24.3663 C   0  0  0  0  0  0
  -30.3433  -17.1395   20.4914 C   0  0  0  0  0  0
  -28.1145  -22.0577   22.9328 C   0  0  0  0  0  0
  -29.9866  -15.7718   21.1833 C   0  0  0  0  0  0
  -29.1236  -22.8702   23.7616 C   0  0  0  0  0  0
  -28.9817  -24.2885   19.4343 C   0  0  0  0  0  0
  -28.3617  -25.2667   20.4749 C   0  0  0  0  0  0
  -29.5481  -22.9318   19.9752 C   0  0  0  0  0  0
  -28.5983  -21.8562   20.0663 O   0  0  0  0  0  0
  -31.4706  -12.4274   19.1303 H   0  0  0  0  0  0
  -30.3329  -11.3246   19.8444 H   0  0  0  0  0  0
  -29.7417  -11.7668   17.4449 H   0  0  0  0  0  0
  -29.6604  -13.4830   17.7593 H   0  0  0  0  0  0
  -27.8337  -11.3060   18.8300 H   0  0  0  0  0  0
  -27.3662  -12.6243   17.7905 H   0  0  0  0  0  0
  -27.6974  -14.2561   19.5625 H   0  0  0  0  0  0
  -28.6925  -11.9817   21.3446 H   0  0  0  0  0  0
  -28.4717  -13.6199   21.8704 H   0  0  0  0  0  0
  -25.2764   -9.5683   22.4768 H   0  0  0  0  0  0
  -24.0002   -7.4634   22.7474 H   0  0  0  0  0  0
  -21.0851   -8.8782   19.8943 H   0  0  0  0  0  0
  -22.3717  -10.9679   19.6163 H   0  0  0  0  0  0
  -21.1990   -7.6149   23.9722 H   0  0  0  0  0  0
  -21.1476   -6.0521   25.9078 H   0  0  0  0  0  0
  -22.0602   -2.7618   23.2841 H   0  0  0  0  0  0
  -22.4088  -11.9860   22.4762 H   0  0  0  0  0  0
  -21.1117  -13.1249   22.2604 H   0  0  0  0  0  0
  -24.6671  -15.8469   20.5229 H   0  0  0  0  0  0
  -26.2918  -15.6307   20.1140 H   0  0  0  0  0  0
  -26.7147  -32.5499   23.1116 H   0  0  0  0  0  0
  -25.0103  -33.9754   25.0470 H   0  0  0  0  0  0
  -22.6967  -31.3011   21.4024 H   0  0  0  0  0  0
  -23.3758  -35.9607   23.3289 H   0  0  0  0  0  0
  -24.3584  -36.8914   22.2053 H   0  0  0  0  0  0
  -23.7224  -37.6483   23.6659 H   0  0  0  0  0  0
  -26.0511  -31.5843   20.5889 H   0  0  0  0  0  0
  -26.8255  -30.8760   21.9790 H   0  0  0  0  0  0
  -28.1150  -29.0849   21.1372 H   0  0  0  0  0  0
  -26.0493  -25.9384   19.0295 H   0  0  0  0  0  0
  -23.9789  -27.2755   19.0479 H   0  0  0  0  0  0
  -23.7295  -30.5841   19.4010 H   0  0  0  0  0  0
  -22.7411  -29.2339   19.8662 H   0  0  0  0  0  0
  -25.1280  -36.1937   25.0828 H   0  0  0  0  0  0
  -20.9940  -28.3240   24.1439 H   0  0  0  0  0  0
  -20.5661  -26.2274   23.3616 H   0  0  0  0  0  0
  -21.6648  -26.7433   22.1224 H   0  0  0  0  0  0
  -19.6929  -25.6301   21.1231 H   0  0  0  0  0  0
  -19.6724  -27.3203   20.6739 H   0  0  0  0  0  0
  -17.4211  -26.6686   21.3986 H   0  0  0  0  0  0
  -18.0305  -26.0047   22.8975 H   0  0  0  0  0  0
  -19.7939  -30.7231   24.2290 H   0  0  0  0  0  0
  -17.5027  -31.6256   24.5161 H   0  0  0  0  0  0
  -15.5356  -30.2988   23.7650 H   0  0  0  0  0  0
  -15.8666  -28.0830   22.7045 H   0  0  0  0  0  0
  -24.5959  -30.6983   25.7788 H   0  0  0  0  0  0
  -24.8885  -32.2846   26.4823 H   0  0  0  0  0  0
  -25.8100  -30.8931   27.0228 H   0  0  0  0  0  0
  -26.2836  -29.6782   24.1140 H   0  0  0  0  0  0
  -27.4102  -29.7245   25.4508 H   0  0  0  0  0  0
  -27.8661  -30.4330   23.9183 H   0  0  0  0  0  0
  -27.2683  -33.3608   26.2019 H   0  0  0  0  0  0
  -28.3888  -32.6816   25.0308 H   0  0  0  0  0  0
  -28.0688  -31.8418   26.5408 H   0  0  0  0  0  0
  -28.2574  -38.0105   24.7527 H   0  0  0  0  0  0
  -28.1100  -36.2637   24.6248 H   0  0  0  0  0  0
  -27.2310  -37.1395   25.8863 H   0  0  0  0  0  0
  -20.9329  -29.8743   21.6923 H   0  0  0  0  0  0
  -26.0165  -38.2856   24.1453 H   0  0  0  0  0  0
  -29.8117  -17.7160   23.1605 H   0  0  0  0  0  0
  -28.8953  -19.7638   24.1397 H   0  0  0  0  0  0
  -29.6159  -19.5269   19.2371 H   0  0  0  0  0  0
  -29.2514  -24.7228   24.8946 H   0  0  0  0  0  0
  -27.7130  -23.8845   25.0781 H   0  0  0  0  0  0
  -28.0642  -24.7699   23.5956 H   0  0  0  0  0  0
  -31.4271  -17.2568   20.4551 H   0  0  0  0  0  0
  -30.0175  -17.0920   19.4512 H   0  0  0  0  0  0
  -27.3022  -21.7189   23.5774 H   0  0  0  0  0  0
  -27.6414  -22.6951   22.1863 H   0  0  0  0  0  0
  -28.9042  -15.6649   21.1669 H   0  0  0  0  0  0
  -30.2855  -15.7839   22.2299 H   0  0  0  0  0  0
  -29.5327  -22.2512   24.5610 H   0  0  0  0  0  0
  -29.9705  -23.1583   23.1400 H   0  0  0  0  0  0
  -29.8226  -24.8113   18.9778 H   0  0  0  0  0  0
  -28.2823  -24.1092   18.6173 H   0  0  0  0  0  0
  -28.9523  -25.2088   21.3894 H   0  0  0  0  0  0
  -27.3616  -24.9347   20.7566 H   0  0  0  0  0  0
  -30.0641  -23.0956   20.9194 H   0  0  0  0  0  0
  -30.3201  -22.5912   19.2832 H   0  0  0  0  0  0
  1 25  1  0  0  0
  1 30  2  0  0  0
  1 80  1  0  0  0
  2  3  1  0  0  0
  2 25  1  0  0  0
  2 86  1  0  0  0
  2 87  1  0  0  0
  3  4  1  0  0  0
  3 88  1  0  0  0
  3 89  1  0  0  0
  4  5  1  0  0  0
  4 90  1  0  0  0
  4 91  1  0  0  0
  5  6  1  0  0  0
  5 26  1  0  0  0
  5 92  1  0  0  0
  6 25  1  0  0  0
  6 93  1  0  0  0
  6 94  1  0  0  0
  7  8  2  0  0  0
  7 26  1  0  0  0
  7 29  1  0  0  0
  8  9  1  0  0  0
  8 22  1  0  0  0
  9 10  1  0  0  0
  9 27  2  0  0  0
 10 11  2  0  0  0
 10 15  1  0  0  0
 11 12  1  0  0  0
 11 95  1  0  0  0
 12 13  2  0  0  0
 12 96  1  0  0  0
 13 14  1  0  0  0
 13 31  1  0  0  0
 14 15  2  0  0  0
 14 97  1  0  0  0
 15 98  1  0  0  0
 16 17  2  0  0  0
 16 21  1  0  0  0
 16 31  1  0  0  0
 17 18  1  0  0  0
 17 99  1  0  0  0
 18 19  2  0  0  0
 18100  1  0  0  0
 19 20  1  0  0  0
 19 24  1  0  0  0
 20 21  2  0  0  0
 20101  1  0  0  0
 21 23  1  0  0  0
 22 28  1  0  0  0
 22 32  2  0  0  0
 26 27  1  0  0  0
 28102  1  0  0  0
 28103  1  0  0  0
 29104  1  0  0  0
 29105  1  0  0  0
 33 34  1  0  0  0
 33 66  1  0  0  0
 33 70  2  0  0  0
 34 36  1  0  0  0
 34 59  1  0  0  0
 34106  1  0  0  0
 35 44  2  0  0  0
 35 45  1  0  0  0
 35 68  1  0  0  0
 36 56  1  0  0  0
 36107  1  0  0  0
 37 39  1  0  0  0
 37 47  1  0  0  0
 37 66  1  0  0  0
 37108  1  0  0  0
 38 43  2  0  0  0
 38 46  1  0  0  0
 38 47  1  0  0  0
 39 64  1  0  0  0
 39 67  2  0  0  0
 40 52  1  0  0  0
 40 53  2  0  0  0
 40 58  1  0  0  0
 41109  1  0  0  0
 41110  1  0  0  0
 41111  1  0  0  0
 41 48  1  0  0  0
 42 43  1  0  0  0
 42 66  1  0  0  0
 42112  1  0  0  0
 42113  1  0  0  0
 43 44  1  0  0  0
 44114  1  0  0  0
 45 46  2  0  0  0
 45115  1  0  0  0
 46116  1  0  0  0
 47117  1  0  0  0
 47118  1  0  0  0
 48 56  1  0  0  0
 48 65  1  0  0  0
 48119  1  0  0  0
 49 50  1  0  0  0
 49 53  1  0  0  0
 49 64  1  0  0  0
 49120  1  0  0  0
 50 51  1  0  0  0
 50121  1  0  0  0
 50122  1  0  0  0
 51 52  1  0  0  0
 51123  1  0  0  0
 51124  1  0  0  0
 52125  1  0  0  0
 52126  1  0  0  0
 53 54  1  0  0  0
 54 55  2  0  0  0
 54127  1  0  0  0
 55 57  1  0  0  0
 55128  1  0  0  0
 56 69  2  0  0  0
 57 58  2  0  0  0
 57129  1  0  0  0
 58130  1  0  0  0
 59 60  1  0  0  0
 59 61  1  0  0  0
 59 62  1  0  0  0
 60131  1  0  0  0
 60132  1  0  0  0
 60133  1  0  0  0
 61134  1  0  0  0
 61135  1  0  0  0
 61136  1  0  0  0
 62137  1  0  0  0
 62138  1  0  0  0
 62139  1  0  0  0
 63 65  1  0  0  0
 63140  1  0  0  0
 63141  1  0  0  0
 63142  1  0  0  0
 64143  1  0  0  0
 65144  1  0  0  0
 68 83  1  0  0  0
 71 72  2  0  0  0
 71 74  1  0  0  0
 71145  1  0  0  0
 72 75  1  0  0  0
 72146  1  0  0  0
 73 74  2  0  0  0
 73 76  1  0  0  0
 73147  1  0  0  0
 74 78  1  0  0  0
 75 76  2  0  0  0
 75 79  1  0  0  0
 76 85  1  0  0  0
 77 81  1  0  0  0
 77148  1  0  0  0
 77149  1  0  0  0
 77150  1  0  0  0
 78 80  1  0  0  0
 78151  1  0  0  0
 78152  1  0  0  0
 79 81  1  0  0  0
 79153  1  0  0  0
 79154  1  0  0  0
 80155  1  0  0  0
 80156  1  0  0  0
 81157  1  0  0  0
 81158  1  0  0  0
 82 83  1  0  0  0
 82 84  1  0  0  0
 82159  1  0  0  0
 82160  1  0  0  0
 83161  1  0  0  0
 83162  1  0  0  0
 84 85  1  0  0  0
 84163  1  0  0  0
 84164  1  0  0  0
M  ISO  4   1 100  68 101  80 100  83 101
M  END
> <chiral flag>
0

> <version>
0

> <s_m_source_file>
/data/baiqing/PycharmProjects/Reinvent-master-3.2/result/LINK_invent/BTK/process_docking_weight1_custom_product_contain_oxygen_bond_distance_aromatic_linkinvent_7_9_3/rearranged_h_0132.sdf

> <i_m_source_file_index>
9

> <r_mmod_Potential_Energy-OPLS-2005>
-6.40534400939941

> <r_mmod_Stretch_Energy-OPLS-2005>
48.5793418884277

> <r_mmod_Bend_Energy-OPLS-2005>
106.2861328125

> <r_mmod_Torsional_Energy-OPLS-2005>
221.996307373047

> <r_mmod_Improper_Torsional_Energy-OPLS-2005>
2.76423406600952

> <r_mmod_Van_der_Waal_Energy-OPLS-2005>
136.595626831055

> <r_mmod_Electrostatic_Energy-OPLS-2005>
-349.601989746094

> <r_mmod_Solvation_Energy-OPLS-2005>
-190.634475708008

> <b_mmod_Minimization_Converged-OPLS-2005>
0

> <r_mmod_RMS_Derivative-OPLS-2005>
1.40976476669312

$$$$
9
                    3D
 Structure written by MMmdl.
158167  0  0  1  0            999 V2000
  -30.6937  -14.5014   20.6165 C   0  0  0  0  0  0
  -30.4259  -12.3381   19.4302 C   0  0  0  0  0  0
  -29.4995  -12.5293   18.2120 C   0  0  0  0  0  0
  -28.0196  -12.3807   18.6185 C   0  0  0  0  0  0
  -27.6625  -13.2119   19.8808 C   0  0  2  0  0  0
  -28.7020  -12.9780   20.9975 C   0  0  0  0  0  0
  -25.2583  -13.8171   20.5686 C   0  0  0  0  0  0
  -24.1832  -13.0436   20.9157 C   0  0  0  0  0  0
  -24.6402  -11.6905   20.8716 C   0  0  0  0  0  0
  -23.9075  -10.4285   21.0392 C   0  0  0  0  0  0
  -24.3628   -9.4200   21.9173 C   0  0  0  0  0  0
  -23.6294   -8.2240   22.0756 C   0  0  0  0  0  0
  -22.4275   -8.0277   21.3545 C   0  0  0  0  0  0
  -21.9911   -9.0251   20.4644 C   0  0  0  0  0  0
  -22.7245  -10.2127   20.3043 C   0  0  0  0  0  0
  -21.6859   -6.0727   22.5268 C   0  0  0  0  0  0
  -21.4017   -6.5636   23.8195 C   0  0  0  0  0  0
  -21.3664   -5.6792   24.9163 C   0  0  0  0  0  0
  -21.6051   -4.3055   24.7217 C   0  0  0  0  0  0
  -21.8824   -3.8142   23.4340 C   0  0  0  0  0  0
  -21.9196   -4.6956   22.3394 C   0  0  0  0  0  0
  -22.7855  -13.5220   21.1832 C   0  0  0  0  0  0
  -22.1661   -4.2139   21.0972 F   0  0  0  0  0  0
  -21.5631   -3.4545   25.7733 F   0  0  0  0  0  0
  -30.0268  -13.3189   20.4563 N   0  0  0  0  0  0
  -26.3026  -12.9348   20.3378 N   0  0  0  0  0  0
  -25.9333  -11.6500   20.5753 N   0  0  0  0  0  0
  -22.0522  -12.8196   22.0395 N   0  0  0  0  0  0
  -25.4306  -15.1892   20.4136 N   0  0  0  0  0  0
  -31.7860  -14.6904   20.0685 O   0  0  0  0  0  0
  -21.6640   -6.8873   21.4236 O   0  0  0  0  0  0
  -22.3525  -14.5527   20.6696 O   0  0  0  0  0  0
  -24.6168  -31.8665   23.2092 C   0  0  0  0  0  0
  -25.9054  -32.4814   23.8394 C   0  0  1  0  0  0
  -27.2274  -27.4058   20.1046 C   0  0  0  0  0  0
  -25.5897  -33.8611   24.2318 N   0  0  0  0  0  0
  -23.4061  -30.4908   21.5504 C   0  0  2  0  0  0
  -24.8521  -28.9548   20.1154 C   0  0  0  0  0  0
  -22.7424  -29.4650   22.4981 C   0  0  0  0  0  0
  -18.0276  -28.1382   22.8487 C   0  0  0  0  0  0
  -24.1482  -36.7308   23.2642 C   0  0  0  0  0  0
  -25.9383  -30.8244   21.3673 C   0  0  0  0  0  0
  -26.0156  -29.4578   20.7116 C   0  0  0  0  0  0
  -27.2092  -28.6935   20.6977 C   0  0  0  0  0  0
  -26.0478  -26.9318   19.4893 C   0  0  0  0  0  0
  -24.8650  -27.6931   19.4984 C   0  0  0  0  0  0
  -23.6163  -29.8258   20.1645 C   0  0  0  0  0  0
  -25.4106  -36.3103   24.0335 C   0  0  1  0  0  0
  -20.5870  -28.3668   23.1312 C   0  0  2  0  0  0
  -20.6763  -26.9398   22.5425 C   0  0  0  0  0  0
  -19.5749  -26.6383   21.5211 C   0  0  0  0  0  0
  -18.1922  -26.7932   22.1613 C   0  0  0  0  0  0
  -19.1526  -28.8841   23.2900 C   0  0  0  0  0  0
  -18.9452  -30.1445   23.8913 C   0  0  0  0  0  0
  -17.6453  -30.6584   24.0565 C   0  0  0  0  0  0
  -25.9035  -34.9467   23.5125 C   0  0  0  0  0  0
  -16.5345  -29.9085   23.6324 C   0  0  0  0  0  0
  -16.7265  -28.6504   23.0344 C   0  0  0  0  0  0
  -26.4470  -31.6601   25.0732 C   0  0  0  0  0  0
  -25.3728  -31.3725   26.1478 C   0  0  0  0  0  0
  -27.0291  -30.3030   24.6131 C   0  0  0  0  0  0
  -27.6049  -32.4318   25.7494 C   0  0  0  0  0  0
  -27.5579  -37.1817   24.8466 C   0  0  0  0  0  0
  -21.4149  -29.3031   22.3712 N   0  0  0  0  0  0
  -26.4296  -37.3784   23.9400 N   0  0  0  0  0  0
  -24.6719  -31.0750   22.1004 N   0  0  0  0  0  0
  -23.4190  -28.8188   23.3027 O   0  0  0  0  0  0
  -28.3766  -26.6339   20.1037 O   0  0  0  0  0  0
  -26.5602  -34.8923   22.4690 O   0  0  0  0  0  0
  -23.5355  -32.1425   23.7473 O   0  0  0  0  0  0
  -29.0885  -18.6522   19.3819 C   0  0  0  0  0  0
  -29.2607  -17.2351   19.4556 C   0  0  0  0  0  0
  -29.4940  -19.1724   20.5807 C   0  0  0  0  0  0
  -29.7698  -16.9533   20.6964 C   0  0  0  0  0  0
  -31.0044  -21.0496   21.4441 C   0  0  0  0  0  0
  -31.0135  -22.5807   21.2727 C   0  0  0  0  0  0
  -28.9420  -21.7551   20.3872 C   0  0  0  0  0  0
  -29.5698  -20.5710   21.1740 C   0  0  1  0  0  0
  -29.5614  -23.0226   21.0334 C   0  0  2  0  0  0
  -30.1146  -15.6800   21.4593 C   0  0  0  0  0  0
  -29.4695  -24.3883   20.2730 C   0  0  0  0  0  0
  -28.2308  -25.2731   20.5814 C   0  0  0  0  0  0
  -29.9156  -18.1378   21.3839 O   0  0  0  0  0  0
  -31.4703  -12.4412   19.1332 H   0  0  0  0  0  0
  -30.3350  -11.3251   19.8251 H   0  0  0  0  0  0
  -29.7479  -11.8098   17.4302 H   0  0  0  0  0  0
  -29.6638  -13.5191   17.7824 H   0  0  0  0  0  0
  -27.8331  -11.3233   18.8079 H   0  0  0  0  0  0
  -27.3714  -12.6603   17.7876 H   0  0  0  0  0  0
  -27.7106  -14.2638   19.5987 H   0  0  0  0  0  0
  -28.6922  -11.9277   21.2954 H   0  0  0  0  0  0
  -28.4368  -13.5175   21.9032 H   0  0  0  0  0  0
  -25.2786   -9.5672   22.4730 H   0  0  0  0  0  0
  -24.0005   -7.4637   22.7485 H   0  0  0  0  0  0
  -21.0840   -8.8768   19.8951 H   0  0  0  0  0  0
  -22.3708  -10.9660   19.6136 H   0  0  0  0  0  0
  -21.2008   -7.6146   23.9688 H   0  0  0  0  0  0
  -21.1483   -6.0529   25.9063 H   0  0  0  0  0  0
  -22.0602   -2.7600   23.2842 H   0  0  0  0  0  0
  -22.4172  -11.9856   22.4758 H   0  0  0  0  0  0
  -21.1133  -13.1173   22.2621 H   0  0  0  0  0  0
  -24.6686  -15.8479   20.5292 H   0  0  0  0  0  0
  -26.2970  -15.6314   20.1300 H   0  0  0  0  0  0
  -26.7126  -32.5521   23.1158 H   0  0  0  0  0  0
  -25.0032  -33.9773   25.0453 H   0  0  0  0  0  0
  -22.6955  -31.3081   21.4117 H   0  0  0  0  0  0
  -23.3751  -35.9634   23.3292 H   0  0  0  0  0  0
  -24.3569  -36.8946   22.2058 H   0  0  0  0  0  0
  -23.7227  -37.6501   23.6673 H   0  0  0  0  0  0
  -26.0572  -31.5921   20.6017 H   0  0  0  0  0  0
  -26.8233  -30.8739   21.9901 H   0  0  0  0  0  0
  -28.1079  -29.0779   21.1597 H   0  0  0  0  0  0
  -26.0332  -25.9751   18.9878 H   0  0  0  0  0  0
  -23.9736  -27.3044   19.0254 H   0  0  0  0  0  0
  -23.7292  -30.6023   19.4072 H   0  0  0  0  0  0
  -22.7388  -29.2493   19.8659 H   0  0  0  0  0  0
  -25.1286  -36.1965   25.0828 H   0  0  0  0  0  0
  -20.9965  -28.3236   24.1433 H   0  0  0  0  0  0
  -20.5649  -26.2274   23.3613 H   0  0  0  0  0  0
  -21.6639  -26.7427   22.1231 H   0  0  0  0  0  0
  -19.6908  -25.6296   21.1235 H   0  0  0  0  0  0
  -19.6700  -27.3195   20.6743 H   0  0  0  0  0  0
  -17.4201  -26.6698   21.4001 H   0  0  0  0  0  0
  -18.0306  -26.0064   22.8994 H   0  0  0  0  0  0
  -19.7928  -30.7254   24.2294 H   0  0  0  0  0  0
  -17.5009  -31.6265   24.5169 H   0  0  0  0  0  0
  -15.5344  -30.2991   23.7640 H   0  0  0  0  0  0
  -15.8669  -28.0824   22.7050 H   0  0  0  0  0  0
  -24.5879  -30.7101   25.7807 H   0  0  0  0  0  0
  -24.8951  -32.2895   26.4943 H   0  0  0  0  0  0
  -25.8073  -30.8867   27.0224 H   0  0  0  0  0  0
  -26.2834  -29.6806   24.1170 H   0  0  0  0  0  0
  -27.4016  -29.7264   25.4608 H   0  0  0  0  0  0
  -27.8697  -30.4325   23.9311 H   0  0  0  0  0  0
  -27.2673  -33.3621   26.2077 H   0  0  0  0  0  0
  -28.3859  -32.6869   25.0318 H   0  0  0  0  0  0
  -28.0711  -31.8432   26.5407 H   0  0  0  0  0  0
  -28.2617  -38.0093   24.7477 H   0  0  0  0  0  0
  -28.1054  -36.2620   24.6334 H   0  0  0  0  0  0
  -27.2294  -37.1530   25.8872 H   0  0  0  0  0  0
  -20.9306  -29.8758   21.6939 H   0  0  0  0  0  0
  -26.0185  -38.2867   24.1385 H   0  0  0  0  0  0
  -28.7013  -19.2234   18.5498 H   0  0  0  0  0  0
  -29.0242  -16.5075   18.6906 H   0  0  0  0  0  0
  -31.3417  -20.7409   22.4339 H   0  0  0  0  0  0
  -31.6956  -20.6109   20.7229 H   0  0  0  0  0  0
  -31.6321  -22.8397   20.4117 H   0  0  0  0  0  0
  -31.4475  -23.0846   22.1375 H   0  0  0  0  0  0
  -27.8524  -21.7499   20.4360 H   0  0  0  0  0  0
  -29.2262  -21.6995   19.3357 H   0  0  0  0  0  0
  -29.0582  -20.5403   22.1377 H   0  0  0  0  0  0
  -29.1049  -23.1504   22.0170 H   0  0  0  0  0  0
  -29.2490  -15.3941   22.0472 H   0  0  0  0  0  0
  -30.8760  -15.9185   22.2017 H   0  0  0  0  0  0
  -29.5569  -24.2281   19.1979 H   0  0  0  0  0  0
  -30.3424  -24.9813   20.5490 H   0  0  0  0  0  0
  -28.0892  -25.3271   21.6619 H   0  0  0  0  0  0
  -27.3498  -24.7712   20.1848 H   0  0  0  0  0  0
  1 25  1  0  0  0
  1 30  2  0  0  0
  1 80  1  0  0  0
  2  3  1  0  0  0
  2 25  1  0  0  0
  2 84  1  0  0  0
  2 85  1  0  0  0
  3  4  1  0  0  0
  3 86  1  0  0  0
  3 87  1  0  0  0
  4  5  1  0  0  0
  4 88  1  0  0  0
  4 89  1  0  0  0
  5  6  1  0  0  0
  5 26  1  0  0  0
  5 90  1  0  0  0
  6 25  1  0  0  0
  6 91  1  0  0  0
  6 92  1  0  0  0
  7  8  2  0  0  0
  7 26  1  0  0  0
  7 29  1  0  0  0
  8  9  1  0  0  0
  8 22  1  0  0  0
  9 10  1  0  0  0
  9 27  2  0  0  0
 10 11  2  0  0  0
 10 15  1  0  0  0
 11 12  1  0  0  0
 11 93  1  0  0  0
 12 13  2  0  0  0
 12 94  1  0  0  0
 13 14  1  0  0  0
 13 31  1  0  0  0
 14 15  2  0  0  0
 14 95  1  0  0  0
 15 96  1  0  0  0
 16 17  2  0  0  0
 16 21  1  0  0  0
 16 31  1  0  0  0
 17 18  1  0  0  0
 17 97  1  0  0  0
 18 19  2  0  0  0
 18 98  1  0  0  0
 19 20  1  0  0  0
 19 24  1  0  0  0
 20 21  2  0  0  0
 20 99  1  0  0  0
 21 23  1  0  0  0
 22 28  1  0  0  0
 22 32  2  0  0  0
 26 27  1  0  0  0
 28100  1  0  0  0
 28101  1  0  0  0
 29102  1  0  0  0
 29103  1  0  0  0
 33 34  1  0  0  0
 33 66  1  0  0  0
 33 70  2  0  0  0
 34 36  1  0  0  0
 34 59  1  0  0  0
 34104  1  0  0  0
 35 44  2  0  0  0
 35 45  1  0  0  0
 35 68  1  0  0  0
 36 56  1  0  0  0
 36105  1  0  0  0
 37 39  1  0  0  0
 37 47  1  0  0  0
 37 66  1  0  0  0
 37106  1  0  0  0
 38 43  2  0  0  0
 38 46  1  0  0  0
 38 47  1  0  0  0
 39 64  1  0  0  0
 39 67  2  0  0  0
 40 52  1  0  0  0
 40 53  2  0  0  0
 40 58  1  0  0  0
 41107  1  0  0  0
 41108  1  0  0  0
 41109  1  0  0  0
 41 48  1  0  0  0
 42 43  1  0  0  0
 42 66  1  0  0  0
 42110  1  0  0  0
 42111  1  0  0  0
 43 44  1  0  0  0
 44112  1  0  0  0
 45 46  2  0  0  0
 45113  1  0  0  0
 46114  1  0  0  0
 47115  1  0  0  0
 47116  1  0  0  0
 48 56  1  0  0  0
 48 65  1  0  0  0
 48117  1  0  0  0
 49 50  1  0  0  0
 49 53  1  0  0  0
 49 64  1  0  0  0
 49118  1  0  0  0
 50 51  1  0  0  0
 50119  1  0  0  0
 50120  1  0  0  0
 51 52  1  0  0  0
 51121  1  0  0  0
 51122  1  0  0  0
 52123  1  0  0  0
 52124  1  0  0  0
 53 54  1  0  0  0
 54 55  2  0  0  0
 54125  1  0  0  0
 55 57  1  0  0  0
 55126  1  0  0  0
 56 69  2  0  0  0
 57 58  2  0  0  0
 57127  1  0  0  0
 58128  1  0  0  0
 59 60  1  0  0  0
 59 61  1  0  0  0
 59 62  1  0  0  0
 60129  1  0  0  0
 60130  1  0  0  0
 60131  1  0  0  0
 61132  1  0  0  0
 61133  1  0  0  0
 61134  1  0  0  0
 62135  1  0  0  0
 62136  1  0  0  0
 62137  1  0  0  0
 63 65  1  0  0  0
 63138  1  0  0  0
 63139  1  0  0  0
 63140  1  0  0  0
 64141  1  0  0  0
 65142  1  0  0  0
 68 82  1  0  0  0
 71 72  1  0  0  0
 71 73  2  0  0  0
 71143  1  0  0  0
 72 74  2  0  0  0
 72144  1  0  0  0
 73 83  1  0  0  0
 73 78  1  0  0  0
 74 80  1  0  0  0
 74 83  1  0  0  0
 75 76  1  0  0  0
 75 78  1  0  0  0
 75145  1  0  0  0
 75146  1  0  0  0
 76 79  1  0  0  0
 76147  1  0  0  0
 76148  1  0  0  0
 77 78  1  0  0  0
 77 79  1  0  0  0
 77149  1  0  0  0
 77150  1  0  0  0
 78151  1  0  0  0
 79 81  1  0  0  0
 79152  1  0  0  0
 80153  1  0  0  0
 80154  1  0  0  0
 81 82  1  0  0  0
 81155  1  0  0  0
 81156  1  0  0  0
 82157  1  0  0  0
 82158  1  0  0  0
M  ISO  4   1 100  68 101  80 100  82 101
M  END
> <chiral flag>
0

> <version>
0

> <s_m_source_file>
/data/baiqing/PycharmProjects/Reinvent-master-3.2/result/LINK_invent/BTK/process_docking_weight1_custom_product_contain_oxygen_bond_distance_aromatic_linkinvent_7_9_3/rearranged_h_0132.sdf

> <i_m_source_file_index>
10

> <r_mmod_Potential_Energy-OPLS-2005>
70.3386306762695

> <r_mmod_Stretch_Energy-OPLS-2005>
42.9850997924805

> <r_mmod_Bend_Energy-OPLS-2005>
131.192092895508

> <r_mmod_Torsional_Energy-OPLS-2005>
237.455200195312

> <r_mmod_Improper_Torsional_Energy-OPLS-2005>
1.83426487445831

> <r_mmod_Van_der_Waal_Energy-OPLS-2005>
118.847290039062

> <r_mmod_Electrostatic_Energy-OPLS-2005>
-288.4130859375

> <r_mmod_Solvation_Energy-OPLS-2005>
-189.099533081055

> <b_mmod_Minimization_Converged-OPLS-2005>
0

> <r_mmod_RMS_Derivative-OPLS-2005>
1.1695339679718

$$$$
10
                    3D
 Structure written by MMmdl.
169177  0  0  1  0            999 V2000
  -30.7103  -14.4547   20.6072 C   0  0  0  0  0  0
  -30.4211  -12.3061   19.4144 C   0  0  0  0  0  0
  -29.4914  -12.5157   18.2024 C   0  0  0  0  0  0
  -28.0132  -12.3753   18.6158 C   0  0  0  0  0  0
  -27.6641  -13.2080   19.8790 C   0  0  2  0  0  0
  -28.7079  -12.9820   20.9966 C   0  0  0  0  0  0
  -25.2599  -13.8167   20.5688 C   0  0  0  0  0  0
  -24.1846  -13.0441   20.9172 C   0  0  0  0  0  0
  -24.6401  -11.6909   20.8731 C   0  0  0  0  0  0
  -23.9064  -10.4295   21.0401 C   0  0  0  0  0  0
  -24.3617   -9.4210   21.9178 C   0  0  0  0  0  0
  -23.6293   -8.2243   22.0749 C   0  0  0  0  0  0
  -22.4274   -8.0282   21.3542 C   0  0  0  0  0  0
  -21.9908   -9.0257   20.4645 C   0  0  0  0  0  0
  -22.7236  -10.2135   20.3053 C   0  0  0  0  0  0
  -21.6854   -6.0737   22.5279 C   0  0  0  0  0  0
  -21.4014   -6.5639   23.8214 C   0  0  0  0  0  0
  -21.3658   -5.6793   24.9175 C   0  0  0  0  0  0
  -21.6044   -4.3056   24.7225 C   0  0  0  0  0  0
  -21.8819   -3.8150   23.4346 C   0  0  0  0  0  0
  -21.9193   -4.6966   22.3402 C   0  0  0  0  0  0
  -22.7866  -13.5235   21.1838 C   0  0  0  0  0  0
  -22.1662   -4.2152   21.0978 F   0  0  0  0  0  0
  -21.5627   -3.4541   25.7738 F   0  0  0  0  0  0
  -30.0370  -13.2827   20.4456 N   0  0  0  0  0  0
  -26.3045  -12.9340   20.3398 N   0  0  0  0  0  0
  -25.9332  -11.6496   20.5775 N   0  0  0  0  0  0
  -22.0506  -12.8227   22.0394 N   0  0  0  0  0  0
  -25.4330  -15.1883   20.4102 N   0  0  0  0  0  0
  -31.8081  -14.6468   20.0743 O   0  0  0  0  0  0
  -21.6639   -6.8880   21.4241 O   0  0  0  0  0  0
  -22.3552  -14.5544   20.6691 O   0  0  0  0  0  0
  -24.6128  -31.8695   23.2103 C   0  0  0  0  0  0
  -25.9032  -32.4829   23.8393 C   0  0  1  0  0  0
  -27.2388  -27.4411   20.0994 C   0  0  0  0  0  0
  -25.5889  -33.8624   24.2323 N   0  0  0  0  0  0
  -23.4020  -30.4904   21.5502 C   0  0  2  0  0  0
  -24.8519  -28.9542   20.1185 C   0  0  0  0  0  0
  -22.7406  -29.4651   22.4995 C   0  0  0  0  0  0
  -18.0268  -28.1381   22.8471 C   0  0  0  0  0  0
  -24.1489  -36.7323   23.2634 C   0  0  0  0  0  0
  -25.9295  -30.8337   21.3663 C   0  0  0  0  0  0
  -26.0088  -29.4649   20.7226 C   0  0  0  0  0  0
  -27.2056  -28.7127   20.7199 C   0  0  0  0  0  0
  -26.0724  -26.9481   19.4844 C   0  0  0  0  0  0
  -24.8769  -27.6914   19.5007 C   0  0  0  0  0  0
  -23.6132  -29.8213   20.1657 C   0  0  0  0  0  0
  -25.4105  -36.3116   24.0341 C   0  0  1  0  0  0
  -20.5856  -28.3660   23.1330 C   0  0  2  0  0  0
  -20.6762  -26.9398   22.5440 C   0  0  0  0  0  0
  -19.5754  -26.6381   21.5221 C   0  0  0  0  0  0
  -18.1918  -26.7929   22.1604 C   0  0  0  0  0  0
  -19.1517  -28.8834   23.2897 C   0  0  0  0  0  0
  -18.9454  -30.1432   23.8921 C   0  0  0  0  0  0
  -17.6460  -30.6583   24.0567 C   0  0  0  0  0  0
  -25.9033  -34.9479   23.5132 C   0  0  0  0  0  0
  -16.5347  -29.9094   23.6322 C   0  0  0  0  0  0
  -16.7262  -28.6517   23.0328 C   0  0  0  0  0  0
  -26.4450  -31.6597   25.0716 C   0  0  0  0  0  0
  -25.3709  -31.3749   26.1473 C   0  0  0  0  0  0
  -27.0242  -30.3022   24.6090 C   0  0  0  0  0  0
  -27.6048  -32.4296   25.7467 C   0  0  0  0  0  0
  -27.5598  -37.1793   24.8442 C   0  0  0  0  0  0
  -21.4133  -29.3027   22.3730 N   0  0  0  0  0  0
  -26.4285  -37.3803   23.9421 N   0  0  0  0  0  0
  -24.6660  -31.0786   22.1013 N   0  0  0  0  0  0
  -23.4179  -28.8205   23.3047 O   0  0  0  0  0  0
  -28.3752  -26.6682   20.0252 O   0  0  0  0  0  0
  -26.5596  -34.8932   22.4695 O   0  0  0  0  0  0
  -23.5317  -32.1452   23.7487 O   0  0  0  0  0  0
  -30.3002  -18.0723   23.3400 C   0  0  0  0  0  0
  -29.6710  -19.3709   21.3789 C   0  0  0  0  0  0
  -30.1865  -18.1749   21.9402 C   0  0  0  0  0  0
  -29.8873  -19.1241   24.1811 C   0  0  0  0  0  0
  -29.3629  -20.3151   23.6174 C   0  0  0  0  0  0
  -29.2596  -20.4449   22.2095 C   0  0  0  0  0  0
  -28.7980  -24.8632   21.6435 C   0  0  0  0  0  0
  -30.0231  -18.9449   25.6849 C   0  0  0  0  0  0
  -26.9438  -22.5725   25.6976 C   0  0  0  0  0  0
  -30.6749  -17.0186   21.0628 C   0  0  0  0  0  0
  -28.9098  -21.4647   24.5100 C   0  0  0  0  0  0
  -28.9053  -23.7896   20.5447 C   0  0  0  0  0  0
  -29.0008  -26.3460   21.2688 C   0  0  0  0  0  0
  -30.0759  -15.6209   21.4054 C   0  0  0  0  0  0
  -27.4025  -21.4187   24.7992 C   0  0  0  0  0  0
  -29.5874  -22.4579   20.9721 C   0  0  0  0  0  0
  -28.5413  -24.5543   22.8096 O   0  0  0  0  0  0
  -28.6990  -21.5921   21.6823 O   0  0  0  0  0  0
  -31.4653  -12.4013   19.1119 H   0  0  0  0  0  0
  -30.3184  -11.2922   19.8034 H   0  0  0  0  0  0
  -29.7296  -11.7993   17.4154 H   0  0  0  0  0  0
  -29.6615  -13.5062   17.7769 H   0  0  0  0  0  0
  -27.8193  -11.3187   18.8027 H   0  0  0  0  0  0
  -27.3633  -12.6606   17.7880 H   0  0  0  0  0  0
  -27.7114  -14.2576   19.5886 H   0  0  0  0  0  0
  -28.6809  -11.9448   21.3340 H   0  0  0  0  0  0
  -28.4752  -13.5779   21.8790 H   0  0  0  0  0  0
  -25.2765   -9.5685   22.4749 H   0  0  0  0  0  0
  -24.0007   -7.4635   22.7466 H   0  0  0  0  0  0
  -21.0838   -8.8776   19.8954 H   0  0  0  0  0  0
  -22.3696  -10.9674   19.6163 H   0  0  0  0  0  0
  -21.2007   -7.6148   23.9718 H   0  0  0  0  0  0
  -21.1479   -6.0523   25.9078 H   0  0  0  0  0  0
  -22.0599   -2.7613   23.2847 H   0  0  0  0  0  0
  -22.4117  -11.9885   22.4779 H   0  0  0  0  0  0
  -21.1123  -13.1252   22.2597 H   0  0  0  0  0  0
  -24.6712  -15.8483   20.5222 H   0  0  0  0  0  0
  -26.2963  -15.6274   20.1145 H   0  0  0  0  0  0
  -26.7116  -32.5560   23.1170 H   0  0  0  0  0  0
  -25.0032  -33.9791   25.0462 H   0  0  0  0  0  0
  -22.6901  -31.3063   21.4081 H   0  0  0  0  0  0
  -23.3759  -35.9644   23.3264 H   0  0  0  0  0  0
  -24.3608  -36.8963   22.2056 H   0  0  0  0  0  0
  -23.7218  -37.6511   23.6663 H   0  0  0  0  0  0
  -26.0367  -31.5955   20.5930 H   0  0  0  0  0  0
  -26.8195  -30.8932   21.9804 H   0  0  0  0  0  0
  -28.1001  -29.1120   21.1765 H   0  0  0  0  0  0
  -26.0906  -25.9826   18.9982 H   0  0  0  0  0  0
  -23.9897  -27.2906   19.0296 H   0  0  0  0  0  0
  -23.7232  -30.5962   19.4057 H   0  0  0  0  0  0
  -22.7386  -29.2399   19.8678 H   0  0  0  0  0  0
  -25.1269  -36.1985   25.0829 H   0  0  0  0  0  0
  -20.9928  -28.3242   24.1459 H   0  0  0  0  0  0
  -20.5642  -26.2277   23.3632 H   0  0  0  0  0  0
  -21.6641  -26.7437   22.1246 H   0  0  0  0  0  0
  -19.6924  -25.6293   21.1242 H   0  0  0  0  0  0
  -19.6720  -27.3204   20.6762 H   0  0  0  0  0  0
  -17.4201  -26.6693   21.3989 H   0  0  0  0  0  0
  -18.0290  -26.0066   22.8991 H   0  0  0  0  0  0
  -19.7937  -30.7218   24.2317 H   0  0  0  0  0  0
  -17.5028  -31.6267   24.5161 H   0  0  0  0  0  0
  -15.5351  -30.3004   23.7637 H   0  0  0  0  0  0
  -15.8662  -28.0851   22.7022 H   0  0  0  0  0  0
  -24.5927  -30.7018   25.7861 H   0  0  0  0  0  0
  -24.8838  -32.2913   26.4814 H   0  0  0  0  0  0
  -25.8061  -30.9042   27.0298 H   0  0  0  0  0  0
  -26.2777  -29.6834   24.1091 H   0  0  0  0  0  0
  -27.3937  -29.7211   25.4550 H   0  0  0  0  0  0
  -27.8655  -30.4312   23.9272 H   0  0  0  0  0  0
  -27.2684  -33.3584   26.2083 H   0  0  0  0  0  0
  -28.3830  -32.6864   25.0269 H   0  0  0  0  0  0
  -28.0739  -31.8386   26.5343 H   0  0  0  0  0  0
  -28.2567  -38.0134   24.7547 H   0  0  0  0  0  0
  -28.1131  -36.2671   24.6163 H   0  0  0  0  0  0
  -27.2344  -37.1328   25.8847 H   0  0  0  0  0  0
  -20.9291  -29.8758   21.6966 H   0  0  0  0  0  0
  -26.0183  -38.2868   24.1480 H   0  0  0  0  0  0
  -30.7156  -17.1755   23.7783 H   0  0  0  0  0  0
  -29.5809  -19.4644   20.3056 H   0  0  0  0  0  0
  -30.2890  -17.9195   25.9437 H   0  0  0  0  0  0
  -29.0873  -19.1763   26.1936 H   0  0  0  0  0  0
  -30.8027  -19.5977   26.0783 H   0  0  0  0  0  0
  -25.8672  -22.5332   25.8641 H   0  0  0  0  0  0
  -27.1747  -23.5381   25.2456 H   0  0  0  0  0  0
  -27.4323  -22.5332   26.6718 H   0  0  0  0  0  0
  -31.7619  -16.9910   21.1544 H   0  0  0  0  0  0
  -30.4692  -17.2506   20.0167 H   0  0  0  0  0  0
  -29.1695  -22.4059   24.0293 H   0  0  0  0  0  0
  -29.4704  -21.4728   25.4436 H   0  0  0  0  0  0
  -29.4806  -24.2298   19.7302 H   0  0  0  0  0  0
  -27.9115  -23.5937   20.1422 H   0  0  0  0  0  0
  -30.0704  -26.5308   21.1726 H   0  0  0  0  0  0
  -28.6422  -26.9775   22.0823 H   0  0  0  0  0  0
  -29.0028  -15.6629   21.2225 H   0  0  0  0  0  0
  -30.2093  -15.3911   22.4614 H   0  0  0  0  0  0
  -26.8512  -21.4546   23.8585 H   0  0  0  0  0  0
  -27.1458  -20.4693   25.2711 H   0  0  0  0  0  0
  -30.4692  -22.6639   21.5822 H   0  0  0  0  0  0
  -29.9425  -21.9425   20.0789 H   0  0  0  0  0  0
  1 25  1  0  0  0
  1 30  2  0  0  0
  1 84  1  0  0  0
  2  3  1  0  0  0
  2 25  1  0  0  0
  2 89  1  0  0  0
  2 90  1  0  0  0
  3  4  1  0  0  0
  3 91  1  0  0  0
  3 92  1  0  0  0
  4  5  1  0  0  0
  4 93  1  0  0  0
  4 94  1  0  0  0
  5  6  1  0  0  0
  5 26  1  0  0  0
  5 95  1  0  0  0
  6 25  1  0  0  0
  6 96  1  0  0  0
  6 97  1  0  0  0
  7  8  2  0  0  0
  7 26  1  0  0  0
  7 29  1  0  0  0
  8  9  1  0  0  0
  8 22  1  0  0  0
  9 10  1  0  0  0
  9 27  2  0  0  0
 10 11  2  0  0  0
 10 15  1  0  0  0
 11 12  1  0  0  0
 11 98  1  0  0  0
 12 13  2  0  0  0
 12 99  1  0  0  0
 13 14  1  0  0  0
 13 31  1  0  0  0
 14 15  2  0  0  0
 14100  1  0  0  0
 15101  1  0  0  0
 16 17  2  0  0  0
 16 21  1  0  0  0
 16 31  1  0  0  0
 17 18  1  0  0  0
 17102  1  0  0  0
 18 19  2  0  0  0
 18103  1  0  0  0
 19 20  1  0  0  0
 19 24  1  0  0  0
 20 21  2  0  0  0
 20104  1  0  0  0
 21 23  1  0  0  0
 22 28  1  0  0  0
 22 32  2  0  0  0
 26 27  1  0  0  0
 28105  1  0  0  0
 28106  1  0  0  0
 29107  1  0  0  0
 29108  1  0  0  0
 33 34  1  0  0  0
 33 66  1  0  0  0
 33 70  2  0  0  0
 34 36  1  0  0  0
 34 59  1  0  0  0
 34109  1  0  0  0
 35 44  2  0  0  0
 35 45  1  0  0  0
 35 68  1  0  0  0
 36 56  1  0  0  0
 36110  1  0  0  0
 37 39  1  0  0  0
 37 47  1  0  0  0
 37 66  1  0  0  0
 37111  1  0  0  0
 38 43  2  0  0  0
 38 46  1  0  0  0
 38 47  1  0  0  0
 39 64  1  0  0  0
 39 67  2  0  0  0
 40 52  1  0  0  0
 40 53  2  0  0  0
 40 58  1  0  0  0
 41112  1  0  0  0
 41113  1  0  0  0
 41114  1  0  0  0
 41 48  1  0  0  0
 42 43  1  0  0  0
 42 66  1  0  0  0
 42115  1  0  0  0
 42116  1  0  0  0
 43 44  1  0  0  0
 44117  1  0  0  0
 45 46  2  0  0  0
 45118  1  0  0  0
 46119  1  0  0  0
 47120  1  0  0  0
 47121  1  0  0  0
 48 56  1  0  0  0
 48 65  1  0  0  0
 48122  1  0  0  0
 49 50  1  0  0  0
 49 53  1  0  0  0
 49 64  1  0  0  0
 49123  1  0  0  0
 50 51  1  0  0  0
 50124  1  0  0  0
 50125  1  0  0  0
 51 52  1  0  0  0
 51126  1  0  0  0
 51127  1  0  0  0
 52128  1  0  0  0
 52129  1  0  0  0
 53 54  1  0  0  0
 54 55  2  0  0  0
 54130  1  0  0  0
 55 57  1  0  0  0
 55131  1  0  0  0
 56 69  2  0  0  0
 57 58  2  0  0  0
 57132  1  0  0  0
 58133  1  0  0  0
 59 60  1  0  0  0
 59 61  1  0  0  0
 59 62  1  0  0  0
 60134  1  0  0  0
 60135  1  0  0  0
 60136  1  0  0  0
 61137  1  0  0  0
 61138  1  0  0  0
 61139  1  0  0  0
 62140  1  0  0  0
 62141  1  0  0  0
 62142  1  0  0  0
 63 65  1  0  0  0
 63143  1  0  0  0
 63144  1  0  0  0
 63145  1  0  0  0
 64146  1  0  0  0
 65147  1  0  0  0
 68 83  1  0  0  0
 71 73  2  0  0  0
 71 74  1  0  0  0
 71148  1  0  0  0
 72 73  1  0  0  0
 72 76  2  0  0  0
 72149  1  0  0  0
 73 80  1  0  0  0
 74 75  2  0  0  0
 74 78  1  0  0  0
 75 76  1  0  0  0
 75 81  1  0  0  0
 76 88  1  0  0  0
 77 82  1  0  0  0
 77 83  1  0  0  0
 77 87  2  0  0  0
 78150  1  0  0  0
 78151  1  0  0  0
 78152  1  0  0  0
 79 85  1  0  0  0
 79153  1  0  0  0
 79154  1  0  0  0
 79155  1  0  0  0
 80 84  1  0  0  0
 80156  1  0  0  0
 80157  1  0  0  0
 81 85  1  0  0  0
 81158  1  0  0  0
 81159  1  0  0  0
 82 86  1  0  0  0
 82160  1  0  0  0
 82161  1  0  0  0
 83162  1  0  0  0
 83163  1  0  0  0
 84164  1  0  0  0
 84165  1  0  0  0
 85166  1  0  0  0
 85167  1  0  0  0
 86 88  1  0  0  0
 86168  1  0  0  0
 86169  1  0  0  0
M  ISO  4   1 100  68 101  83 101  84 100
M  END
> <chiral flag>
0

> <version>
0

> <s_m_source_file>
/data/baiqing/PycharmProjects/Reinvent-master-3.2/result/LINK_invent/BTK/process_docking_weight1_custom_product_contain_oxygen_bond_distance_aromatic_linkinvent_7_9_3/rearranged_h_0132.sdf

> <i_m_source_file_index>
11

> <r_mmod_Potential_Energy-OPLS-2005>
-51.0022277832031

> <r_mmod_Stretch_Energy-OPLS-2005>
38.4982109069824

> <r_mmod_Bend_Energy-OPLS-2005>
93.6876754760742

> <r_mmod_Torsional_Energy-OPLS-2005>
215.492721557617

> <r_mmod_Improper_Torsional_Energy-OPLS-2005>
2.27313256263733

> <r_mmod_Van_der_Waal_Energy-OPLS-2005>
140.268402099609

> <r_mmod_Electrostatic_Energy-OPLS-2005>
-346.699035644531

> <r_mmod_Solvation_Energy-OPLS-2005>
-204.600601196289

> <b_mmod_Minimization_Converged-OPLS-2005>
0

> <r_mmod_RMS_Derivative-OPLS-2005>
1.09359407424927

$$$$
11
                    3D
 Structure written by MMmdl.
181190  0  0  1  0            999 V2000
  -30.8392  -14.2933   20.7215 C   0  0  0  0  0  0
  -30.4022  -12.2816   19.3785 C   0  0  0  0  0  0
  -29.4709  -12.5375   18.1836 C   0  0  0  0  0  0
  -28.0027  -12.3776   18.6135 C   0  0  0  0  0  0
  -27.6663  -13.2073   19.8788 C   0  0  2  0  0  0
  -28.7079  -12.9715   20.9965 C   0  0  0  0  0  0
  -25.2613  -13.8163   20.5705 C   0  0  0  0  0  0
  -24.1885  -13.0485   20.9164 C   0  0  0  0  0  0
  -24.6411  -11.6894   20.8738 C   0  0  0  0  0  0
  -23.9083  -10.4295   21.0408 C   0  0  0  0  0  0
  -24.3632   -9.4203   21.9194 C   0  0  0  0  0  0
  -23.6293   -8.2253   22.0767 C   0  0  0  0  0  0
  -22.4288   -8.0295   21.3544 C   0  0  0  0  0  0
  -21.9914   -9.0277   20.4650 C   0  0  0  0  0  0
  -22.7254  -10.2142   20.3051 C   0  0  0  0  0  0
  -21.6856   -6.0738   22.5283 C   0  0  0  0  0  0
  -21.4018   -6.5646   23.8211 C   0  0  0  0  0  0
  -21.3647   -5.6795   24.9180 C   0  0  0  0  0  0
  -21.6058   -4.3054   24.7223 C   0  0  0  0  0  0
  -21.8815   -3.8155   23.4343 C   0  0  0  0  0  0
  -21.9193   -4.6965   22.3407 C   0  0  0  0  0  0
  -22.7875  -13.5231   21.1844 C   0  0  0  0  0  0
  -22.1662   -4.2158   21.0975 F   0  0  0  0  0  0
  -21.5626   -3.4539   25.7732 F   0  0  0  0  0  0
  -30.0587  -13.2213   20.4542 N   0  0  0  0  0  0
  -26.3057  -12.9349   20.3389 N   0  0  0  0  0  0
  -25.9343  -11.6500   20.5778 N   0  0  0  0  0  0
  -22.0517  -12.8251   22.0361 N   0  0  0  0  0  0
  -25.4377  -15.1910   20.4157 N   0  0  0  0  0  0
  -31.7910  -14.6331   20.0122 O   0  0  0  0  0  0
  -21.6642   -6.8892   21.4245 O   0  0  0  0  0  0
  -22.3570  -14.5571   20.6675 O   0  0  0  0  0  0
  -24.6145  -31.8734   23.2097 C   0  0  0  0  0  0
  -25.9107  -32.4803   23.8343 C   0  0  1  0  0  0
  -27.1990  -27.4815   20.0796 C   0  0  0  0  0  0
  -25.5992  -33.8581   24.2322 N   0  0  0  0  0  0
  -23.3923  -30.5070   21.5393 C   0  0  2  0  0  0
  -24.8394  -29.0002   20.0658 C   0  0  0  0  0  0
  -22.7425  -29.4749   22.4893 C   0  0  0  0  0  0
  -18.0278  -28.1375   22.8495 C   0  0  0  0  0  0
  -24.1460  -36.7324   23.2582 C   0  0  0  0  0  0
  -25.9127  -30.8587   21.3466 C   0  0  0  0  0  0
  -25.9921  -29.4985   20.6919 C   0  0  0  0  0  0
  -27.1808  -28.7360   20.7091 C   0  0  0  0  0  0
  -26.0804  -27.0460   19.3543 C   0  0  0  0  0  0
  -24.8801  -27.7794   19.3766 C   0  0  0  0  0  0
  -23.5948  -29.8502   20.1459 C   0  0  0  0  0  0
  -25.4046  -36.3031   24.0283 C   0  0  1  0  0  0
  -20.5897  -28.3651   23.1309 C   0  0  2  0  0  0
  -20.6764  -26.9400   22.5379 C   0  0  0  0  0  0
  -19.5700  -26.6381   21.5225 C   0  0  0  0  0  0
  -18.1899  -26.7917   22.1663 C   0  0  0  0  0  0
  -19.1555  -28.8816   23.2903 C   0  0  0  0  0  0
  -18.9456  -30.1417   23.8914 C   0  0  0  0  0  0
  -17.6478  -30.6560   24.0567 C   0  0  0  0  0  0
  -25.8992  -34.9454   23.5055 C   0  0  0  0  0  0
  -16.5361  -29.9085   23.6298 C   0  0  0  0  0  0
  -16.7281  -28.6499   23.0331 C   0  0  0  0  0  0
  -26.4504  -31.6530   25.0649 C   0  0  0  0  0  0
  -25.3796  -31.3725   26.1447 C   0  0  0  0  0  0
  -27.0274  -30.2919   24.5994 C   0  0  0  0  0  0
  -27.5993  -32.4266   25.7539 C   0  0  0  0  0  0
  -27.5531  -37.1816   24.8441 C   0  0  0  0  0  0
  -21.4171  -29.3071   22.3745 N   0  0  0  0  0  0
  -26.4193  -37.3739   23.9448 N   0  0  0  0  0  0
  -24.6545  -31.0950   22.0911 N   0  0  0  0  0  0
  -23.4312  -28.8369   23.2890 O   0  0  0  0  0  0
  -28.2341  -26.6097   20.2353 O   0  0  0  0  0  0
  -26.5461  -34.8969   22.4569 O   0  0  0  0  0  0
  -23.5371  -32.1378   23.7658 O   0  0  0  0  0  0
  -27.9035  -18.9320   19.7171 C   0  0  0  0  0  0
  -27.0794  -20.0599   19.6351 C   0  0  0  0  0  0
  -29.7939  -20.2742   18.9404 C   0  0  0  0  0  0
  -29.2758  -19.0573   19.4511 C   0  0  0  0  0  0
  -27.6236  -21.3142   19.2740 C   0  0  0  0  0  0
  -28.9751  -21.4269   18.8298 C   0  0  0  0  0  0
  -27.2549  -23.3120   20.7902 C   0  0  0  0  0  0
  -24.6199  -25.6221   22.0180 C   0  0  0  0  0  0
  -25.8796  -26.1673   22.6997 C   0  0  0  0  0  0
  -25.0744  -24.5465   21.0188 C   0  0  0  0  0  0
  -27.0684  -25.3367   22.1883 C   0  0  2  0  0  0
  -30.9343  -22.7726   17.6584 C   0  0  0  0  0  0
  -26.7709  -22.5315   19.5930 C   0  0  0  0  0  0
  -30.1854  -17.9114   19.8437 C   0  0  0  0  0  0
  -29.5646  -22.7880   18.3721 C   0  0  0  0  0  0
  -28.3069  -26.0724   21.5739 C   0  0  0  0  0  0
  -30.3563  -17.8530   21.3771 C   0  0  0  0  0  0
  -31.6616  -17.1642   21.8093 C   0  0  0  0  0  0
  -31.4933  -15.8338   22.5666 C   0  0  0  0  0  0
  -26.5073  -24.3249   21.2860 N   0  0  0  0  0  0
  -30.6128  -14.8747   21.9023 N   0  0  0  0  0  0
  -28.4332  -22.9586   21.3708 N   0  3  0  0  0  0
  -31.4464  -12.3648   19.0703 H   0  0  0  0  0  0
  -30.2818  -11.2589   19.7392 H   0  0  0  0  0  0
  -29.6996  -11.8425   17.3738 H   0  0  0  0  0  0
  -29.6350  -13.5404   17.7848 H   0  0  0  0  0  0
  -27.8271  -11.3161   18.8041 H   0  0  0  0  0  0
  -27.3363  -12.6533   17.7939 H   0  0  0  0  0  0
  -27.7202  -14.2588   19.5964 H   0  0  0  0  0  0
  -28.6542  -11.9445   21.3600 H   0  0  0  0  0  0
  -28.4624  -13.5972   21.8544 H   0  0  0  0  0  0
  -25.2776   -9.5684   22.4763 H   0  0  0  0  0  0
  -24.0008   -7.4645   22.7476 H   0  0  0  0  0  0
  -21.0860   -8.8800   19.8950 H   0  0  0  0  0  0
  -22.3739  -10.9687   19.6160 H   0  0  0  0  0  0
  -21.2005   -7.6151   23.9726 H   0  0  0  0  0  0
  -21.1476   -6.0517   25.9079 H   0  0  0  0  0  0
  -22.0602   -2.7613   23.2842 H   0  0  0  0  0  0
  -22.4118  -11.9892   22.4750 H   0  0  0  0  0  0
  -21.1128  -13.1279   22.2557 H   0  0  0  0  0  0
  -24.6781  -15.8507   20.5319 H   0  0  0  0  0  0
  -26.3013  -15.6241   20.1191 H   0  0  0  0  0  0
  -26.7236  -32.5579   23.1181 H   0  0  0  0  0  0
  -25.0475  -33.9657   25.0704 H   0  0  0  0  0  0
  -22.6544  -31.3018   21.4079 H   0  0  0  0  0  0
  -23.3658  -35.9732   23.3226 H   0  0  0  0  0  0
  -24.3508  -36.8947   22.1973 H   0  0  0  0  0  0
  -23.7365  -37.6588   23.6632 H   0  0  0  0  0  0
  -25.9873  -31.6156   20.5646 H   0  0  0  0  0  0
  -26.8080  -30.9249   21.9533 H   0  0  0  0  0  0
  -28.0725  -29.0838   21.2117 H   0  0  0  0  0  0
  -26.1409  -26.1151   18.8141 H   0  0  0  0  0  0
  -24.0045  -27.3965   18.8685 H   0  0  0  0  0  0
  -23.6981  -30.6242   19.3826 H   0  0  0  0  0  0
  -22.7063  -29.2720   19.8800 H   0  0  0  0  0  0
  -25.1277  -36.1712   25.0742 H   0  0  0  0  0  0
  -20.9939  -28.3143   24.1452 H   0  0  0  0  0  0
  -20.5639  -26.2297   23.3585 H   0  0  0  0  0  0
  -21.6638  -26.7429   22.1217 H   0  0  0  0  0  0
  -19.6861  -25.6289   21.1237 H   0  0  0  0  0  0
  -19.6592  -27.3210   20.6754 H   0  0  0  0  0  0
  -17.4188  -26.6673   21.4027 H   0  0  0  0  0  0
  -18.0257  -26.0047   22.9026 H   0  0  0  0  0  0
  -19.7929  -30.7239   24.2275 H   0  0  0  0  0  0
  -17.5017  -31.6236   24.5186 H   0  0  0  0  0  0
  -15.5343  -30.3025   23.7540 H   0  0  0  0  0  0
  -15.8698  -28.0838   22.7027 H   0  0  0  0  0  0
  -24.5987  -30.6941   25.8005 H   0  0  0  0  0  0
  -24.8984  -32.2898   26.4777 H   0  0  0  0  0  0
  -25.8153  -30.9119   27.0295 H   0  0  0  0  0  0
  -26.2824  -29.6792   24.0858 H   0  0  0  0  0  0
  -27.3785  -29.7007   25.4474 H   0  0  0  0  0  0
  -27.8786  -30.4171   23.9300 H   0  0  0  0  0  0
  -27.2480  -33.3551   26.2069 H   0  0  0  0  0  0
  -28.3928  -32.6832   25.0508 H   0  0  0  0  0  0
  -28.0517  -31.8426   26.5568 H   0  0  0  0  0  0
  -28.2533  -38.0128   24.7496 H   0  0  0  0  0  0
  -28.1034  -36.2666   24.6219 H   0  0  0  0  0  0
  -27.2274  -37.1449   25.8846 H   0  0  0  0  0  0
  -20.9168  -29.8825   21.7146 H   0  0  0  0  0  0
  -26.0025  -38.2783   24.1474 H   0  0  0  0  0  0
  -27.5036  -17.9987   20.0916 H   0  0  0  0  0  0
  -26.0522  -19.9691   19.9626 H   0  0  0  0  0  0
  -30.8467  -20.3276   18.7077 H   0  0  0  0  0  0
  -24.0830  -26.4467   21.5428 H   0  0  0  0  0  0
  -23.9517  -25.1655   22.7522 H   0  0  0  0  0  0
  -25.7686  -26.0355   23.7723 H   0  0  0  0  0  0
  -26.0069  -27.2382   22.5591 H   0  0  0  0  0  0
  -24.8778  -24.8571   19.9963 H   0  0  0  0  0  0
  -24.5071  -23.6271   21.1875 H   0  0  0  0  0  0
  -27.4491  -24.7864   23.0485 H   0  0  0  0  0  0
  -30.9271  -22.1909   16.7356 H   0  0  0  0  0  0
  -31.7317  -22.3874   18.3021 H   0  0  0  0  0  0
  -31.2314  -23.7861   17.3855 H   0  0  0  0  0  0
  -25.7402  -22.2254   19.7785 H   0  0  0  0  0  0
  -26.7274  -23.1924   18.7286 H   0  0  0  0  0  0
  -31.1506  -18.0559   19.3607 H   0  0  0  0  0  0
  -29.7924  -16.9643   19.4730 H   0  0  0  0  0  0
  -29.6611  -23.4601   19.2219 H   0  0  0  0  0  0
  -28.8546  -23.2912   17.7198 H   0  0  0  0  0  0
  -28.6971  -26.8076   22.2803 H   0  0  0  0  0  0
  -29.1029  -25.3383   21.5265 H   0  0  0  0  0  0
  -29.4774  -17.4128   21.8578 H   0  0  0  0  0  0
  -30.3961  -18.8689   21.7671 H   0  0  0  0  0  0
  -32.2225  -17.8529   22.4394 H   0  0  0  0  0  0
  -32.3034  -17.0120   20.9413 H   0  0  0  0  0  0
  -31.1016  -16.0231   23.5667 H   0  0  0  0  0  0
  -32.4771  -15.3799   22.7104 H   0  0  0  0  0  0
  -29.8421  -14.5111   22.4439 H   0  0  0  0  0  0
  -28.9574  -22.1884   20.9666 H   0  0  0  0  0  0
  -28.8122  -23.3508   22.2214 H   0  0  0  0  0  0
  1 25  1  0  0  0
  1 30  2  0  0  0
  1 91  1  0  0  0
  2  3  1  0  0  0
  2 25  1  0  0  0
  2 93  1  0  0  0
  2 94  1  0  0  0
  3  4  1  0  0  0
  3 95  1  0  0  0
  3 96  1  0  0  0
  4  5  1  0  0  0
  4 97  1  0  0  0
  4 98  1  0  0  0
  5  6  1  0  0  0
  5 26  1  0  0  0
  5 99  1  0  0  0
  6 25  1  0  0  0
  6100  1  0  0  0
  6101  1  0  0  0
  7  8  2  0  0  0
  7 26  1  0  0  0
  7 29  1  0  0  0
  8  9  1  0  0  0
  8 22  1  0  0  0
  9 10  1  0  0  0
  9 27  2  0  0  0
 10 11  2  0  0  0
 10 15  1  0  0  0
 11 12  1  0  0  0
 11102  1  0  0  0
 12 13  2  0  0  0
 12103  1  0  0  0
 13 14  1  0  0  0
 13 31  1  0  0  0
 14 15  2  0  0  0
 14104  1  0  0  0
 15105  1  0  0  0
 16 17  2  0  0  0
 16 21  1  0  0  0
 16 31  1  0  0  0
 17 18  1  0  0  0
 17106  1  0  0  0
 18 19  2  0  0  0
 18107  1  0  0  0
 19 20  1  0  0  0
 19 24  1  0  0  0
 20 21  2  0  0  0
 20108  1  0  0  0
 21 23  1  0  0  0
 22 28  1  0  0  0
 22 32  2  0  0  0
 26 27  1  0  0  0
 28109  1  0  0  0
 28110  1  0  0  0
 29111  1  0  0  0
 29112  1  0  0  0
 33 34  1  0  0  0
 33 66  1  0  0  0
 33 70  2  0  0  0
 34 36  1  0  0  0
 34 59  1  0  0  0
 34113  1  0  0  0
 35 44  2  0  0  0
 35 45  1  0  0  0
 35 68  1  0  0  0
 36 56  1  0  0  0
 36114  1  0  0  0
 37 39  1  0  0  0
 37 47  1  0  0  0
 37 66  1  0  0  0
 37115  1  0  0  0
 38 43  2  0  0  0
 38 46  1  0  0  0
 38 47  1  0  0  0
 39 64  1  0  0  0
 39 67  2  0  0  0
 40 52  1  0  0  0
 40 53  2  0  0  0
 40 58  1  0  0  0
 41116  1  0  0  0
 41117  1  0  0  0
 41118  1  0  0  0
 41 48  1  0  0  0
 42 43  1  0  0  0
 42 66  1  0  0  0
 42119  1  0  0  0
 42120  1  0  0  0
 43 44  1  0  0  0
 44121  1  0  0  0
 45 46  2  0  0  0
 45122  1  0  0  0
 46123  1  0  0  0
 47124  1  0  0  0
 47125  1  0  0  0
 48 56  1  0  0  0
 48 65  1  0  0  0
 48126  1  0  0  0
 49 50  1  0  0  0
 49 53  1  0  0  0
 49 64  1  0  0  0
 49127  1  0  0  0
 50 51  1  0  0  0
 50128  1  0  0  0
 50129  1  0  0  0
 51 52  1  0  0  0
 51130  1  0  0  0
 51131  1  0  0  0
 52132  1  0  0  0
 52133  1  0  0  0
 53 54  1  0  0  0
 54 55  2  0  0  0
 54134  1  0  0  0
 55 57  1  0  0  0
 55135  1  0  0  0
 56 69  2  0  0  0
 57 58  2  0  0  0
 57136  1  0  0  0
 58137  1  0  0  0
 59 60  1  0  0  0
 59 61  1  0  0  0
 59 62  1  0  0  0
 60138  1  0  0  0
 60139  1  0  0  0
 60140  1  0  0  0
 61141  1  0  0  0
 61142  1  0  0  0
 61143  1  0  0  0
 62144  1  0  0  0
 62145  1  0  0  0
 62146  1  0  0  0
 63 65  1  0  0  0
 63147  1  0  0  0
 63148  1  0  0  0
 63149  1  0  0  0
 64150  1  0  0  0
 65151  1  0  0  0
 68 86  1  0  0  0
 71 72  2  0  0  0
 71 74  1  0  0  0
 71152  1  0  0  0
 72 75  1  0  0  0
 72153  1  0  0  0
 73 74  2  0  0  0
 73 76  1  0  0  0
 73154  1  0  0  0
 74 84  1  0  0  0
 75 76  2  0  0  0
 75 83  1  0  0  0
 76 85  1  0  0  0
 77 83  1  0  0  0
 77 90  1  0  0  0
 77 92  2  0  0  0
 78 79  1  0  0  0
 78 80  1  0  0  0
 78155  1  0  0  0
 78156  1  0  0  0
 79 81  1  0  0  0
 79157  1  0  0  0
 79158  1  0  0  0
 80 90  1  0  0  0
 80159  1  0  0  0
 80160  1  0  0  0
 81 86  1  0  0  0
 81 90  1  0  0  0
 81161  1  0  0  0
 82 85  1  0  0  0
 82162  1  0  0  0
 82163  1  0  0  0
 82164  1  0  0  0
 83165  1  0  0  0
 83166  1  0  0  0
 84 87  1  0  0  0
 84167  1  0  0  0
 84168  1  0  0  0
 85169  1  0  0  0
 85170  1  0  0  0
 86171  1  0  0  0
 86172  1  0  0  0
 87 88  1  0  0  0
 87173  1  0  0  0
 87174  1  0  0  0
 88 89  1  0  0  0
 88175  1  0  0  0
 88176  1  0  0  0
 89 91  1  0  0  0
 89177  1  0  0  0
 89178  1  0  0  0
 91179  1  0  0  0
 92180  1  0  0  0
 92181  1  0  0  0
M  CHG  1  92   1
M  ISO  4   1 100  68 101  86 101  91 100
M  END
> <chiral flag>
0

> <version>
0

> <s_m_source_file>
/data/baiqing/PycharmProjects/Reinvent-master-3.2/result/LINK_invent/BTK/process_docking_weight1_custom_product_contain_oxygen_bond_distance_aromatic_linkinvent_7_9_3/rearranged_h_0132.sdf

> <i_m_source_file_index>
12

> <r_mmod_Potential_Energy-OPLS-2005>
120.108428955078

> <r_mmod_Stretch_Energy-OPLS-2005>
39.8961029052734

> <r_mmod_Bend_Energy-OPLS-2005>
131.419158935547

> <r_mmod_Torsional_Energy-OPLS-2005>
385.033081054688

> <r_mmod_Improper_Torsional_Energy-OPLS-2005>
5.45502138137817

> <r_mmod_Van_der_Waal_Energy-OPLS-2005>
150.827529907227

> <r_mmod_Electrostatic_Energy-OPLS-2005>
-221.873184204102

> <r_mmod_Solvation_Energy-OPLS-2005>
-394.662658691406

> <b_mmod_Minimization_Converged-OPLS-2005>
0

> <r_mmod_RMS_Derivative-OPLS-2005>
9.81357574462891

$$$$
12
                    3D
 Structure written by MMmdl.
165173  0  0  1  0            999 V2000
  -30.7032  -14.4555   20.6046 C   0  0  0  0  0  0
  -30.4275  -12.3122   19.4051 C   0  0  0  0  0  0
  -29.4937  -12.5147   18.1946 C   0  0  0  0  0  0
  -28.0151  -12.3695   18.6099 C   0  0  0  0  0  0
  -27.6615  -13.2027   19.8714 C   0  0  2  0  0  0
  -28.7043  -12.9636   20.9853 C   0  0  0  0  0  0
  -25.2588  -13.8138   20.5657 C   0  0  0  0  0  0
  -24.1841  -13.0422   20.9166 C   0  0  0  0  0  0
  -24.6385  -11.6887   20.8723 C   0  0  0  0  0  0
  -23.9053  -10.4275   21.0393 C   0  0  0  0  0  0
  -24.3610   -9.4195   21.9171 C   0  0  0  0  0  0
  -23.6285   -8.2233   22.0745 C   0  0  0  0  0  0
  -22.4267   -8.0272   21.3539 C   0  0  0  0  0  0
  -21.9898   -9.0246   20.4638 C   0  0  0  0  0  0
  -22.7229  -10.2119   20.3043 C   0  0  0  0  0  0
  -21.6848   -6.0730   22.5279 C   0  0  0  0  0  0
  -21.4012   -6.5635   23.8213 C   0  0  0  0  0  0
  -21.3660   -5.6792   24.9177 C   0  0  0  0  0  0
  -21.6047   -4.3052   24.7227 C   0  0  0  0  0  0
  -21.8824   -3.8141   23.4348 C   0  0  0  0  0  0
  -21.9191   -4.6961   22.3402 C   0  0  0  0  0  0
  -22.7864  -13.5215   21.1849 C   0  0  0  0  0  0
  -22.1661   -4.2145   21.0982 F   0  0  0  0  0  0
  -21.5631   -3.4537   25.7741 F   0  0  0  0  0  0
  -30.0327  -13.2841   20.4351 N   0  0  0  0  0  0
  -26.3023  -12.9298   20.3330 N   0  0  0  0  0  0
  -25.9307  -11.6458   20.5736 N   0  0  0  0  0  0
  -22.0514  -12.8206   22.0404 N   0  0  0  0  0  0
  -25.4313  -15.1866   20.4063 N   0  0  0  0  0  0
  -31.8365  -14.6513   20.1605 O   0  0  0  0  0  0
  -21.6634   -6.8875   21.4237 O   0  0  0  0  0  0
  -22.3545  -14.5532   20.6712 O   0  0  0  0  0  0
  -24.6159  -31.8705   23.2107 C   0  0  0  0  0  0
  -25.9049  -32.4837   23.8395 C   0  0  1  0  0  0
  -27.2319  -27.4329   20.0984 C   0  0  0  0  0  0
  -25.5888  -33.8632   24.2324 N   0  0  0  0  0  0
  -23.4012  -30.4979   21.5517 C   0  0  2  0  0  0
  -24.8481  -28.9657   20.1127 C   0  0  0  0  0  0
  -22.7412  -29.4695   22.4995 C   0  0  0  0  0  0
  -18.0278  -28.1404   22.8487 C   0  0  0  0  0  0
  -24.1512  -36.7312   23.2639 C   0  0  0  0  0  0
  -25.9320  -30.8356   21.3626 C   0  0  0  0  0  0
  -26.0087  -29.4710   20.7106 C   0  0  0  0  0  0
  -27.2020  -28.7110   20.7017 C   0  0  0  0  0  0
  -26.0510  -26.9482   19.4844 C   0  0  0  0  0  0
  -24.8635  -27.7032   19.4982 C   0  0  0  0  0  0
  -23.6095  -29.8321   20.1651 C   0  0  0  0  0  0
  -25.4124  -36.3110   24.0341 C   0  0  1  0  0  0
  -20.5867  -28.3695   23.1326 C   0  0  2  0  0  0
  -20.6776  -26.9431   22.5431 C   0  0  0  0  0  0
  -19.5768  -26.6402   21.5220 C   0  0  0  0  0  0
  -18.1934  -26.7946   22.1611 C   0  0  0  0  0  0
  -19.1527  -28.8862   23.2905 C   0  0  0  0  0  0
  -18.9461  -30.1444   23.8940 C   0  0  0  0  0  0
  -17.6466  -30.6604   24.0573 C   0  0  0  0  0  0
  -25.9043  -34.9484   23.5125 C   0  0  0  0  0  0
  -16.5356  -29.9114   23.6339 C   0  0  0  0  0  0
  -16.7262  -28.6530   23.0357 C   0  0  0  0  0  0
  -26.4484  -31.6610   25.0706 C   0  0  0  0  0  0
  -25.3712  -31.3671   26.1420 C   0  0  0  0  0  0
  -27.0338  -30.3078   24.6031 C   0  0  0  0  0  0
  -27.6088  -32.4316   25.7439 C   0  0  0  0  0  0
  -27.5604  -37.1787   24.8459 C   0  0  0  0  0  0
  -21.4147  -29.3059   22.3723 N   0  0  0  0  0  0
  -26.4310  -37.3791   23.9412 N   0  0  0  0  0  0
  -24.6677  -31.0817   22.1003 N   0  0  0  0  0  0
  -23.4198  -28.8221   23.3009 O   0  0  0  0  0  0
  -28.4039  -26.6976   20.1341 O   0  0  0  0  0  0
  -26.5623  -34.8933   22.4703 O   0  0  0  0  0  0
  -23.5349  -32.1481   23.7500 O   0  0  0  0  0  0
  -30.7551  -17.6421   19.2583 C   0  0  0  0  0  0
  -30.7419  -19.2194   21.1066 C   0  0  0  0  0  0
  -30.6284  -17.8860   20.6411 C   0  0  0  0  0  0
  -31.0920  -18.6831   18.3672 C   0  0  0  0  0  0
  -31.2788  -20.0034   18.8517 C   0  0  0  0  0  0
  -31.0530  -20.2839   20.2219 C   0  0  0  0  0  0
  -29.2903  -22.9972   20.7199 C   0  0  0  0  0  0
  -31.2941  -18.3402   16.9007 C   0  0  0  0  0  0
  -30.6699  -21.9002   17.2253 C   0  0  0  0  0  0
  -31.7850  -21.1165   17.9309 C   0  0  0  0  0  0
  -30.4618  -16.7479   21.6615 C   0  0  0  0  0  0
  -29.4519  -24.5291   20.7110 C   0  0  0  0  0  0
  -30.2986  -22.1712   21.5347 C   0  0  0  0  0  0
  -28.2826  -25.2697   20.0247 C   0  0  0  0  0  0
  -29.9934  -15.4343   21.1942 N   0  0  0  0  0  0
  -28.3772  -22.4389   20.1020 O   0  0  0  0  0  0
  -31.2613  -21.5747   20.6608 O   0  0  0  0  0  0
  -31.4703  -12.4242   19.1032 H   0  0  0  0  0  0
  -30.3378  -11.2954   19.7919 H   0  0  0  0  0  0
  -29.7335  -11.7975   17.4084 H   0  0  0  0  0  0
  -29.6603  -13.5046   17.7655 H   0  0  0  0  0  0
  -27.8291  -11.3122   18.8030 H   0  0  0  0  0  0
  -27.3628  -12.6454   17.7802 H   0  0  0  0  0  0
  -27.7108  -14.2533   19.5830 H   0  0  0  0  0  0
  -28.6835  -11.9175   21.2981 H   0  0  0  0  0  0
  -28.4631  -13.5365   21.8814 H   0  0  0  0  0  0
  -25.2757   -9.5675   22.4735 H   0  0  0  0  0  0
  -24.0003   -7.4624   22.7457 H   0  0  0  0  0  0
  -21.0835   -8.8762   19.8939 H   0  0  0  0  0  0
  -22.3694  -10.9656   19.6150 H   0  0  0  0  0  0
  -21.2003   -7.6145   23.9717 H   0  0  0  0  0  0
  -21.1477   -6.0519   25.9082 H   0  0  0  0  0  0
  -22.0601   -2.7604   23.2852 H   0  0  0  0  0  0
  -22.4132  -11.9863   22.4789 H   0  0  0  0  0  0
  -21.1128  -13.1216   22.2610 H   0  0  0  0  0  0
  -24.6622  -15.8412   20.5025 H   0  0  0  0  0  0
  -26.2861  -15.6244   20.0853 H   0  0  0  0  0  0
  -26.7116  -32.5581   23.1152 H   0  0  0  0  0  0
  -25.0002  -33.9780   25.0444 H   0  0  0  0  0  0
  -22.6902  -31.3162   21.4149 H   0  0  0  0  0  0
  -23.3780  -35.9644   23.3301 H   0  0  0  0  0  0
  -24.3581  -36.8938   22.2051 H   0  0  0  0  0  0
  -23.7284  -37.6514   23.6671 H   0  0  0  0  0  0
  -26.0398  -31.5998   20.5909 H   0  0  0  0  0  0
  -26.8230  -30.8945   21.9767 H   0  0  0  0  0  0
  -28.0955  -29.0892   21.1793 H   0  0  0  0  0  0
  -26.0273  -25.9876   18.9919 H   0  0  0  0  0  0
  -23.9694  -27.3082   19.0331 H   0  0  0  0  0  0
  -23.7084  -30.6097   19.4070 H   0  0  0  0  0  0
  -22.7331  -29.2507   19.8741 H   0  0  0  0  0  0
  -25.1306  -36.1956   25.0832 H   0  0  0  0  0  0
  -20.9964  -28.3284   24.1446 H   0  0  0  0  0  0
  -20.5756  -26.2283   23.3614 H   0  0  0  0  0  0
  -21.6644  -26.7534   22.1191 H   0  0  0  0  0  0
  -19.6962  -25.6317   21.1247 H   0  0  0  0  0  0
  -19.6734  -27.3232   20.6762 H   0  0  0  0  0  0
  -17.4220  -26.6718   21.3985 H   0  0  0  0  0  0
  -18.0312  -26.0088   22.9001 H   0  0  0  0  0  0
  -19.7933  -30.7225   24.2379 H   0  0  0  0  0  0
  -17.5034  -31.6305   24.5140 H   0  0  0  0  0  0
  -15.5362  -30.3044   23.7649 H   0  0  0  0  0  0
  -15.8642  -28.0862   22.7085 H   0  0  0  0  0  0
  -24.5937  -30.6977   25.7712 H   0  0  0  0  0  0
  -24.8806  -32.2785   26.4846 H   0  0  0  0  0  0
  -25.8017  -30.8846   27.0197 H   0  0  0  0  0  0
  -26.2860  -29.6750   24.1227 H   0  0  0  0  0  0
  -27.4334  -29.7382   25.4430 H   0  0  0  0  0  0
  -27.8585  -30.4461   23.9035 H   0  0  0  0  0  0
  -27.2785  -33.3657   26.2000 H   0  0  0  0  0  0
  -28.3879  -32.6805   25.0217 H   0  0  0  0  0  0
  -28.0775  -31.8427   26.5335 H   0  0  0  0  0  0
  -28.2599  -38.0112   24.7544 H   0  0  0  0  0  0
  -28.1122  -36.2630   24.6237 H   0  0  0  0  0  0
  -27.2290  -37.1367   25.8852 H   0  0  0  0  0  0
  -20.9331  -29.8717   21.6880 H   0  0  0  0  0  0
  -26.0202  -38.2879   24.1390 H   0  0  0  0  0  0
  -30.6590  -16.6376   18.8734 H   0  0  0  0  0  0
  -30.6542  -19.4113   22.1673 H   0  0  0  0  0  0
  -31.0075  -17.3103   16.6851 H   0  0  0  0  0  0
  -32.3429  -18.4511   16.6262 H   0  0  0  0  0  0
  -30.6954  -18.9870   16.2589 H   0  0  0  0  0  0
  -31.0954  -22.6684   16.5783 H   0  0  0  0  0  0
  -30.0203  -22.4014   17.9409 H   0  0  0  0  0  0
  -30.0498  -21.2543   16.6052 H   0  0  0  0  0  0
  -32.4664  -20.7026   17.1882 H   0  0  0  0  0  0
  -32.4013  -21.8092   18.5059 H   0  0  0  0  0  0
  -29.7541  -17.0831   22.4211 H   0  0  0  0  0  0
  -31.4112  -16.6171   22.1832 H   0  0  0  0  0  0
  -30.3921  -24.7703   20.2155 H   0  0  0  0  0  0
  -29.5416  -24.8652   21.7426 H   0  0  0  0  0  0
  -29.7674  -21.4360   22.1388 H   0  0  0  0  0  0
  -30.8181  -22.8315   22.2294 H   0  0  0  0  0  0
  -27.3589  -24.9270   20.4970 H   0  0  0  0  0  0
  -28.2302  -24.9991   18.9687 H   0  0  0  0  0  0
  -29.0568  -15.1825   21.4706 H   0  0  0  0  0  0
  1 25  1  0  0  0
  1 30  2  0  0  0
  1 85  1  0  0  0
  2  3  1  0  0  0
  2 25  1  0  0  0
  2 88  1  0  0  0
  2 89  1  0  0  0
  3  4  1  0  0  0
  3 90  1  0  0  0
  3 91  1  0  0  0
  4  5  1  0  0  0
  4 92  1  0  0  0
  4 93  1  0  0  0
  5  6  1  0  0  0
  5 26  1  0  0  0
  5 94  1  0  0  0
  6 25  1  0  0  0
  6 95  1  0  0  0
  6 96  1  0  0  0
  7  8  2  0  0  0
  7 26  1  0  0  0
  7 29  1  0  0  0
  8  9  1  0  0  0
  8 22  1  0  0  0
  9 10  1  0  0  0
  9 27  2  0  0  0
 10 11  2  0  0  0
 10 15  1  0  0  0
 11 12  1  0  0  0
 11 97  1  0  0  0
 12 13  2  0  0  0
 12 98  1  0  0  0
 13 14  1  0  0  0
 13 31  1  0  0  0
 14 15  2  0  0  0
 14 99  1  0  0  0
 15100  1  0  0  0
 16 17  2  0  0  0
 16 21  1  0  0  0
 16 31  1  0  0  0
 17 18  1  0  0  0
 17101  1  0  0  0
 18 19  2  0  0  0
 18102  1  0  0  0
 19 20  1  0  0  0
 19 24  1  0  0  0
 20 21  2  0  0  0
 20103  1  0  0  0
 21 23  1  0  0  0
 22 28  1  0  0  0
 22 32  2  0  0  0
 26 27  1  0  0  0
 28104  1  0  0  0
 28105  1  0  0  0
 29106  1  0  0  0
 29107  1  0  0  0
 33 34  1  0  0  0
 33 66  1  0  0  0
 33 70  2  0  0  0
 34 36  1  0  0  0
 34 59  1  0  0  0
 34108  1  0  0  0
 35 44  2  0  0  0
 35 45  1  0  0  0
 35 68  1  0  0  0
 36 56  1  0  0  0
 36109  1  0  0  0
 37 39  1  0  0  0
 37 47  1  0  0  0
 37 66  1  0  0  0
 37110  1  0  0  0
 38 43  2  0  0  0
 38 46  1  0  0  0
 38 47  1  0  0  0
 39 64  1  0  0  0
 39 67  2  0  0  0
 40 52  1  0  0  0
 40 53  2  0  0  0
 40 58  1  0  0  0
 41111  1  0  0  0
 41112  1  0  0  0
 41113  1  0  0  0
 41 48  1  0  0  0
 42 43  1  0  0  0
 42 66  1  0  0  0
 42114  1  0  0  0
 42115  1  0  0  0
 43 44  1  0  0  0
 44116  1  0  0  0
 45 46  2  0  0  0
 45117  1  0  0  0
 46118  1  0  0  0
 47119  1  0  0  0
 47120  1  0  0  0
 48 56  1  0  0  0
 48 65  1  0  0  0
 48121  1  0  0  0
 49 50  1  0  0  0
 49 53  1  0  0  0
 49 64  1  0  0  0
 49122  1  0  0  0
 50 51  1  0  0  0
 50123  1  0  0  0
 50124  1  0  0  0
 51 52  1  0  0  0
 51125  1  0  0  0
 51126  1  0  0  0
 52127  1  0  0  0
 52128  1  0  0  0
 53 54  1  0  0  0
 54 55  2  0  0  0
 54129  1  0  0  0
 55 57  1  0  0  0
 55130  1  0  0  0
 56 69  2  0  0  0
 57 58  2  0  0  0
 57131  1  0  0  0
 58132  1  0  0  0
 59 60  1  0  0  0
 59 61  1  0  0  0
 59 62  1  0  0  0
 60133  1  0  0  0
 60134  1  0  0  0
 60135  1  0  0  0
 61136  1  0  0  0
 61137  1  0  0  0
 61138  1  0  0  0
 62139  1  0  0  0
 62140  1  0  0  0
 62141  1  0  0  0
 63 65  1  0  0  0
 63142  1  0  0  0
 63143  1  0  0  0
 63144  1  0  0  0
 64145  1  0  0  0
 65146  1  0  0  0
 68 84  1  0  0  0
 71 73  2  0  0  0
 71 74  1  0  0  0
 71147  1  0  0  0
 72 73  1  0  0  0
 72 76  2  0  0  0
 72148  1  0  0  0
 73 81  1  0  0  0
 74 75  2  0  0  0
 74 78  1  0  0  0
 75 76  1  0  0  0
 75 80  1  0  0  0
 76 87  1  0  0  0
 77 82  1  0  0  0
 77 83  1  0  0  0
 77 86  2  0  0  0
 78149  1  0  0  0
 78150  1  0  0  0
 78151  1  0  0  0
 79 80  1  0  0  0
 79152  1  0  0  0
 79153  1  0  0  0
 79154  1  0  0  0
 80155  1  0  0  0
 80156  1  0  0  0
 81 85  1  0  0  0
 81157  1  0  0  0
 81158  1  0  0  0
 82 84  1  0  0  0
 82159  1  0  0  0
 82160  1  0  0  0
 83 87  1  0  0  0
 83161  1  0  0  0
 83162  1  0  0  0
 84163  1  0  0  0
 84164  1  0  0  0
 85165  1  0  0  0
M  ISO  4   1 100  68 101  84 101  85 100
M  END
> <chiral flag>
0

> <version>
0

> <s_m_source_file>
/data/baiqing/PycharmProjects/Reinvent-master-3.2/result/LINK_invent/BTK/process_docking_weight1_custom_product_contain_oxygen_bond_distance_aromatic_linkinvent_7_9_3/rearranged_h_0132.sdf

> <i_m_source_file_index>
13

> <r_mmod_Potential_Energy-OPLS-2005>
-120.224136352539

> <r_mmod_Stretch_Energy-OPLS-2005>
38.6369361877441

> <r_mmod_Bend_Energy-OPLS-2005>
102.133255004883

> <r_mmod_Torsional_Energy-OPLS-2005>
220.112457275391

> <r_mmod_Improper_Torsional_Energy-OPLS-2005>
3.58709692955017

> <r_mmod_Van_der_Waal_Energy-OPLS-2005>
154.746109008789

> <r_mmod_Electrostatic_Energy-OPLS-2005>
-424.837249755859

> <r_mmod_Solvation_Energy-OPLS-2005>
-227.746948242188

> <b_mmod_Minimization_Converged-OPLS-2005>
0

> <r_mmod_RMS_Derivative-OPLS-2005>
2.32431030273438

$$$$
13
                    3D
 Structure written by MMmdl.
160168  0  0  1  0            999 V2000
  -30.7207  -14.4035   20.6463 C   0  0  0  0  0  0
  -30.4271  -12.2872   19.3963 C   0  0  0  0  0  0
  -29.4926  -12.5223   18.1943 C   0  0  0  0  0  0
  -28.0132  -12.3871   18.6103 C   0  0  0  0  0  0
  -27.6728  -13.2003   19.8880 C   0  0  2  0  0  0
  -28.7178  -12.9256   20.9939 C   0  0  0  0  0  0
  -25.2634  -13.8151   20.5694 C   0  0  0  0  0  0
  -24.1868  -13.0432   20.9164 C   0  0  0  0  0  0
  -24.6415  -11.6899   20.8723 C   0  0  0  0  0  0
  -23.9075  -10.4290   21.0399 C   0  0  0  0  0  0
  -24.3615   -9.4207   21.9183 C   0  0  0  0  0  0
  -23.6286   -8.2248   22.0765 C   0  0  0  0  0  0
  -22.4279   -8.0283   21.3541 C   0  0  0  0  0  0
  -21.9924   -9.0257   20.4642 C   0  0  0  0  0  0
  -22.7249  -10.2137   20.3047 C   0  0  0  0  0  0
  -21.6846   -6.0727   22.5271 C   0  0  0  0  0  0
  -21.4002   -6.5635   23.8207 C   0  0  0  0  0  0
  -21.3672   -5.6791   24.9172 C   0  0  0  0  0  0
  -21.6056   -4.3051   24.7227 C   0  0  0  0  0  0
  -21.8811   -3.8140   23.4343 C   0  0  0  0  0  0
  -21.9191   -4.6953   22.3397 C   0  0  0  0  0  0
  -22.7887  -13.5239   21.1814 C   0  0  0  0  0  0
  -22.1656   -4.2133   21.0976 F   0  0  0  0  0  0
  -21.5655   -3.4540   25.7740 F   0  0  0  0  0  0
  -30.0477  -13.2394   20.4486 N   0  0  0  0  0  0
  -26.3092  -12.9311   20.3444 N   0  0  0  0  0  0
  -25.9347  -11.6470   20.5789 N   0  0  0  0  0  0
  -22.0511  -12.8236   22.0369 N   0  0  0  0  0  0
  -25.4341  -15.1869   20.4092 N   0  0  0  0  0  0
  -31.7969  -14.6446   20.0892 O   0  0  0  0  0  0
  -21.6637   -6.8877   21.4233 O   0  0  0  0  0  0
  -22.3578  -14.5535   20.6658 O   0  0  0  0  0  0
  -24.6090  -31.8695   23.2113 C   0  0  0  0  0  0
  -25.9005  -32.4834   23.8383 C   0  0  1  0  0  0
  -27.2575  -27.4739   20.0869 C   0  0  0  0  0  0
  -25.5882  -33.8623   24.2321 N   0  0  0  0  0  0
  -23.3963  -30.4892   21.5520 C   0  0  2  0  0  0
  -24.8488  -28.9569   20.1198 C   0  0  0  0  0  0
  -22.7379  -29.4655   22.5030 C   0  0  0  0  0  0
  -18.0256  -28.1372   22.8499 C   0  0  0  0  0  0
  -24.1482  -36.7303   23.2641 C   0  0  0  0  0  0
  -25.9194  -30.8454   21.3599 C   0  0  0  0  0  0
  -26.0029  -29.4788   20.7172 C   0  0  0  0  0  0
  -27.2079  -28.7437   20.7110 C   0  0  0  0  0  0
  -26.0862  -26.9624   19.4925 C   0  0  0  0  0  0
  -24.8818  -27.6914   19.5088 C   0  0  0  0  0  0
  -23.6034  -29.8131   20.1696 C   0  0  0  0  0  0
  -25.4100  -36.3102   24.0342 C   0  0  1  0  0  0
  -20.5843  -28.3646   23.1335 C   0  0  2  0  0  0
  -20.6739  -26.9380   22.5432 C   0  0  0  0  0  0
  -19.5735  -26.6382   21.5208 C   0  0  0  0  0  0
  -18.1903  -26.7931   22.1598 C   0  0  0  0  0  0
  -19.1506  -28.8833   23.2907 C   0  0  0  0  0  0
  -18.9439  -30.1446   23.8906 C   0  0  0  0  0  0
  -17.6441  -30.6594   24.0563 C   0  0  0  0  0  0
  -25.9028  -34.9475   23.5125 C   0  0  0  0  0  0
  -16.5332  -29.9092   23.6334 C   0  0  0  0  0  0
  -16.7245  -28.6495   23.0375 C   0  0  0  0  0  0
  -26.4455  -31.6608   25.0699 C   0  0  0  0  0  0
  -25.3717  -31.3665   26.1432 C   0  0  0  0  0  0
  -27.0342  -30.3084   24.6035 C   0  0  0  0  0  0
  -27.5985  -32.4358   25.7501 C   0  0  0  0  0  0
  -27.5591  -37.1782   24.8451 C   0  0  0  0  0  0
  -21.4113  -29.3018   22.3758 N   0  0  0  0  0  0
  -26.4279  -37.3798   23.9431 N   0  0  0  0  0  0
  -24.6596  -31.0811   22.1008 N   0  0  0  0  0  0
  -23.4171  -28.8210   23.3067 O   0  0  0  0  0  0
  -28.3857  -26.6884   19.9949 O   0  0  0  0  0  0
  -26.5597  -34.8933   22.4691 O   0  0  0  0  0  0
  -23.5289  -32.1438   23.7527 O   0  0  0  0  0  0
  -30.6511  -20.2823   22.6837 C   0  0  0  0  0  0
  -30.0789  -19.9016   20.3476 C   0  0  0  0  0  0
  -31.0061  -21.6125   22.3793 C   0  0  0  0  0  0
  -30.4401  -21.2292   20.0416 C   0  0  0  0  0  0
  -30.1887  -19.4179   21.6681 C   0  0  0  0  0  0
  -30.9087  -22.0911   21.0556 C   0  0  0  0  0  0
  -29.7772  -17.9904   21.9970 C   0  0  0  0  0  0
  -31.3286  -23.5146   20.7200 C   0  0  0  0  0  0
  -30.0935  -15.4910   21.5411 C   0  0  0  0  0  0
  -30.6422  -16.9169   21.3053 C   0  0  0  0  0  0
  -30.1945  -24.5416   20.8939 C   0  0  0  0  0  0
  -30.6293  -25.9758   20.5245 C   0  0  0  0  0  0
  -29.5403  -27.0425   20.7446 C   0  0  0  0  0  0
  -31.4712  -12.3863   19.0952 H   0  0  0  0  0  0
  -30.3191  -11.2646   19.7623 H   0  0  0  0  0  0
  -29.7216  -11.8158   17.3951 H   0  0  0  0  0  0
  -29.6707  -13.5185   17.7856 H   0  0  0  0  0  0
  -27.8124  -11.3293   18.7815 H   0  0  0  0  0  0
  -27.3629  -12.6895   17.7892 H   0  0  0  0  0  0
  -27.7341  -14.2562   19.6249 H   0  0  0  0  0  0
  -28.6859  -11.8742   21.2833 H   0  0  0  0  0  0
  -28.4903  -13.4724   21.9080 H   0  0  0  0  0  0
  -25.2763   -9.5695   22.4762 H   0  0  0  0  0  0
  -23.9983   -7.4665   22.7516 H   0  0  0  0  0  0
  -21.0856   -8.8788   19.8944 H   0  0  0  0  0  0
  -22.3710  -10.9684   19.6153 H   0  0  0  0  0  0
  -21.1962   -7.6136   23.9693 H   0  0  0  0  0  0
  -21.1520   -6.0526   25.9086 H   0  0  0  0  0  0
  -22.0579   -2.7599   23.2845 H   0  0  0  0  0  0
  -22.4115  -11.9885   22.4745 H   0  0  0  0  0  0
  -21.1132  -13.1273   22.2575 H   0  0  0  0  0  0
  -24.6673  -15.8431   20.5158 H   0  0  0  0  0  0
  -26.2927  -15.6272   20.1018 H   0  0  0  0  0  0
  -26.7079  -32.5587   23.1154 H   0  0  0  0  0  0
  -25.0065  -33.9790   25.0485 H   0  0  0  0  0  0
  -22.6812  -31.3030   21.4104 H   0  0  0  0  0  0
  -23.3785  -35.9589   23.3234 H   0  0  0  0  0  0
  -24.3594  -36.8999   22.2070 H   0  0  0  0  0  0
  -23.7188  -37.6456   23.6723 H   0  0  0  0  0  0
  -26.0180  -31.6065   20.5856 H   0  0  0  0  0  0
  -26.8117  -30.9100   21.9705 H   0  0  0  0  0  0
  -28.0850  -29.1692   21.1761 H   0  0  0  0  0  0
  -26.1129  -25.9947   19.0099 H   0  0  0  0  0  0
  -23.9967  -27.2792   19.0431 H   0  0  0  0  0  0
  -23.6932  -30.5804   19.3997 H   0  0  0  0  0  0
  -22.7328  -29.2180   19.8900 H   0  0  0  0  0  0
  -25.1262  -36.1949   25.0832 H   0  0  0  0  0  0
  -20.9924  -28.3209   24.1462 H   0  0  0  0  0  0
  -20.5603  -26.2245   23.3607 H   0  0  0  0  0  0
  -21.6619  -26.7424   22.1252 H   0  0  0  0  0  0
  -19.6896  -25.6297   21.1233 H   0  0  0  0  0  0
  -19.6695  -27.3178   20.6725 H   0  0  0  0  0  0
  -17.4190  -26.6730   21.3974 H   0  0  0  0  0  0
  -18.0260  -26.0045   22.8949 H   0  0  0  0  0  0
  -19.7924  -30.7255   24.2267 H   0  0  0  0  0  0
  -17.5014  -31.6278   24.5161 H   0  0  0  0  0  0
  -15.5331  -30.3002   23.7658 H   0  0  0  0  0  0
  -15.8638  -28.0807   22.7111 H   0  0  0  0  0  0
  -24.5954  -30.6933   25.7775 H   0  0  0  0  0  0
  -24.8819  -32.2795   26.4819 H   0  0  0  0  0  0
  -25.8086  -30.8915   27.0223 H   0  0  0  0  0  0
  -26.2900  -29.6818   24.1108 H   0  0  0  0  0  0
  -27.4190  -29.7328   25.4462 H   0  0  0  0  0  0
  -27.8676  -30.4463   23.9144 H   0  0  0  0  0  0
  -27.2537  -33.3615   26.2120 H   0  0  0  0  0  0
  -28.3782  -32.6995   25.0348 H   0  0  0  0  0  0
  -28.0676  -31.8478   26.5398 H   0  0  0  0  0  0
  -28.2531  -38.0156   24.7631 H   0  0  0  0  0  0
  -28.1166  -36.2699   24.6117 H   0  0  0  0  0  0
  -27.2335  -37.1232   25.8853 H   0  0  0  0  0  0
  -20.9260  -29.8738   21.6988 H   0  0  0  0  0  0
  -26.0166  -38.2853   24.1515 H   0  0  0  0  0  0
  -30.7322  -19.9319   23.7041 H   0  0  0  0  0  0
  -29.7168  -19.2546   19.5600 H   0  0  0  0  0  0
  -31.3601  -22.2643   23.1665 H   0  0  0  0  0  0
  -30.3603  -21.5809   19.0220 H   0  0  0  0  0  0
  -28.7330  -17.8722   21.7018 H   0  0  0  0  0  0
  -29.8004  -17.8399   23.0774 H   0  0  0  0  0  0
  -31.6952  -23.5393   19.6927 H   0  0  0  0  0  0
  -32.1776  -23.7870   21.3486 H   0  0  0  0  0  0
  -29.0234  -15.5271   21.3426 H   0  0  0  0  0  0
  -30.2155  -15.2056   22.5863 H   0  0  0  0  0  0
  -31.6712  -16.9878   21.6619 H   0  0  0  0  0  0
  -30.6752  -17.1131   20.2324 H   0  0  0  0  0  0
  -29.8390  -24.5239   21.9244 H   0  0  0  0  0  0
  -29.3487  -24.2464   20.2704 H   0  0  0  0  0  0
  -30.9485  -25.9990   19.4818 H   0  0  0  0  0  0
  -31.5058  -26.2518   21.1128 H   0  0  0  0  0  0
  -29.9191  -28.0105   20.4112 H   0  0  0  0  0  0
  -29.2973  -27.1238   21.8051 H   0  0  0  0  0  0
  1 25  1  0  0  0
  1 30  2  0  0  0
  1 79  1  0  0  0
  2  3  1  0  0  0
  2 25  1  0  0  0
  2 84  1  0  0  0
  2 85  1  0  0  0
  3  4  1  0  0  0
  3 86  1  0  0  0
  3 87  1  0  0  0
  4  5  1  0  0  0
  4 88  1  0  0  0
  4 89  1  0  0  0
  5  6  1  0  0  0
  5 26  1  0  0  0
  5 90  1  0  0  0
  6 25  1  0  0  0
  6 91  1  0  0  0
  6 92  1  0  0  0
  7  8  2  0  0  0
  7 26  1  0  0  0
  7 29  1  0  0  0
  8  9  1  0  0  0
  8 22  1  0  0  0
  9 10  1  0  0  0
  9 27  2  0  0  0
 10 11  2  0  0  0
 10 15  1  0  0  0
 11 12  1  0  0  0
 11 93  1  0  0  0
 12 13  2  0  0  0
 12 94  1  0  0  0
 13 14  1  0  0  0
 13 31  1  0  0  0
 14 15  2  0  0  0
 14 95  1  0  0  0
 15 96  1  0  0  0
 16 17  2  0  0  0
 16 21  1  0  0  0
 16 31  1  0  0  0
 17 18  1  0  0  0
 17 97  1  0  0  0
 18 19  2  0  0  0
 18 98  1  0  0  0
 19 20  1  0  0  0
 19 24  1  0  0  0
 20 21  2  0  0  0
 20 99  1  0  0  0
 21 23  1  0  0  0
 22 28  1  0  0  0
 22 32  2  0  0  0
 26 27  1  0  0  0
 28100  1  0  0  0
 28101  1  0  0  0
 29102  1  0  0  0
 29103  1  0  0  0
 33 34  1  0  0  0
 33 66  1  0  0  0
 33 70  2  0  0  0
 34 36  1  0  0  0
 34 59  1  0  0  0
 34104  1  0  0  0
 35 44  2  0  0  0
 35 45  1  0  0  0
 35 68  1  0  0  0
 36 56  1  0  0  0
 36105  1  0  0  0
 37 39  1  0  0  0
 37 47  1  0  0  0
 37 66  1  0  0  0
 37106  1  0  0  0
 38 43  2  0  0  0
 38 46  1  0  0  0
 38 47  1  0  0  0
 39 64  1  0  0  0
 39 67  2  0  0  0
 40 52  1  0  0  0
 40 53  2  0  0  0
 40 58  1  0  0  0
 41107  1  0  0  0
 41108  1  0  0  0
 41109  1  0  0  0
 41 48  1  0  0  0
 42 43  1  0  0  0
 42 66  1  0  0  0
 42110  1  0  0  0
 42111  1  0  0  0
 43 44  1  0  0  0
 44112  1  0  0  0
 45 46  2  0  0  0
 45113  1  0  0  0
 46114  1  0  0  0
 47115  1  0  0  0
 47116  1  0  0  0
 48 56  1  0  0  0
 48 65  1  0  0  0
 48117  1  0  0  0
 49 50  1  0  0  0
 49 53  1  0  0  0
 49 64  1  0  0  0
 49118  1  0  0  0
 50 51  1  0  0  0
 50119  1  0  0  0
 50120  1  0  0  0
 51 52  1  0  0  0
 51121  1  0  0  0
 51122  1  0  0  0
 52123  1  0  0  0
 52124  1  0  0  0
 53 54  1  0  0  0
 54 55  2  0  0  0
 54125  1  0  0  0
 55 57  1  0  0  0
 55126  1  0  0  0
 56 69  2  0  0  0
 57 58  2  0  0  0
 57127  1  0  0  0
 58128  1  0  0  0
 59 60  1  0  0  0
 59 61  1  0  0  0
 59 62  1  0  0  0
 60129  1  0  0  0
 60130  1  0  0  0
 60131  1  0  0  0
 61132  1  0  0  0
 61133  1  0  0  0
 61134  1  0  0  0
 62135  1  0  0  0
 62136  1  0  0  0
 62137  1  0  0  0
 63 65  1  0  0  0
 63138  1  0  0  0
 63139  1  0  0  0
 63140  1  0  0  0
 64141  1  0  0  0
 65142  1  0  0  0
 68 83  1  0  0  0
 71 73  2  0  0  0
 71 75  1  0  0  0
 71143  1  0  0  0
 72 74  1  0  0  0
 72 75  2  0  0  0
 72144  1  0  0  0
 73 76  1  0  0  0
 73145  1  0  0  0
 74 76  2  0  0  0
 74146  1  0  0  0
 75 77  1  0  0  0
 76 78  1  0  0  0
 77 80  1  0  0  0
 77147  1  0  0  0
 77148  1  0  0  0
 78 81  1  0  0  0
 78149  1  0  0  0
 78150  1  0  0  0
 79 80  1  0  0  0
 79151  1  0  0  0
 79152  1  0  0  0
 80153  1  0  0  0
 80154  1  0  0  0
 81 82  1  0  0  0
 81155  1  0  0  0
 81156  1  0  0  0
 82 83  1  0  0  0
 82157  1  0  0  0
 82158  1  0  0  0
 83159  1  0  0  0
 83160  1  0  0  0
M  ISO  4   1 100  68 101  79 100  83 101
M  END
> <chiral flag>
0

> <version>
0

> <s_m_source_file>
/data/baiqing/PycharmProjects/Reinvent-master-3.2/result/LINK_invent/BTK/process_docking_weight1_custom_product_contain_oxygen_bond_distance_aromatic_linkinvent_7_9_3/rearranged_h_0132.sdf

> <i_m_source_file_index>
14

> <r_mmod_Potential_Energy-OPLS-2005>
-74.6336669921875

> <r_mmod_Stretch_Energy-OPLS-2005>
32.3017539978027

> <r_mmod_Bend_Energy-OPLS-2005>
89.8094711303711

> <r_mmod_Torsional_Energy-OPLS-2005>
161.626098632812

> <r_mmod_Improper_Torsional_Energy-OPLS-2005>
2.01028800010681

> <r_mmod_Van_der_Waal_Energy-OPLS-2005>
149.791976928711

> <r_mmod_Electrostatic_Energy-OPLS-2005>
-326.028198242188

> <r_mmod_Solvation_Energy-OPLS-2005>
-190.852554321289

> <b_mmod_Minimization_Converged-OPLS-2005>
0

> <r_mmod_RMS_Derivative-OPLS-2005>
1.70343661308289

$$$$
14
                    3D
 Structure written by MMmdl.
163171  0  0  1  0            999 V2000
  -30.6310  -14.5793   20.5791 C   0  0  0  0  0  0
  -30.4454  -12.3726   19.4268 C   0  0  0  0  0  0
  -29.5041  -12.5170   18.2106 C   0  0  0  0  0  0
  -28.0267  -12.3554   18.6254 C   0  0  0  0  0  0
  -27.6616  -13.2043   19.8710 C   0  0  2  0  0  0
  -28.7082  -13.0019   20.9897 C   0  0  0  0  0  0
  -25.2606  -13.8138   20.5670 C   0  0  0  0  0  0
  -24.1850  -13.0425   20.9169 C   0  0  0  0  0  0
  -24.6398  -11.6889   20.8726 C   0  0  0  0  0  0
  -23.9056  -10.4281   21.0400 C   0  0  0  0  0  0
  -24.3609   -9.4199   21.9181 C   0  0  0  0  0  0
  -23.6286   -8.2232   22.0751 C   0  0  0  0  0  0
  -22.4270   -8.0267   21.3537 C   0  0  0  0  0  0
  -21.9901   -9.0241   20.4643 C   0  0  0  0  0  0
  -22.7226  -10.2121   20.3053 C   0  0  0  0  0  0
  -21.6849   -6.0726   22.5275 C   0  0  0  0  0  0
  -21.4012   -6.5632   23.8208 C   0  0  0  0  0  0
  -21.3664   -5.6788   24.9172 C   0  0  0  0  0  0
  -21.6047   -4.3050   24.7225 C   0  0  0  0  0  0
  -21.8821   -3.8139   23.4348 C   0  0  0  0  0  0
  -21.9194   -4.6954   22.3401 C   0  0  0  0  0  0
  -22.7873  -13.5225   21.1848 C   0  0  0  0  0  0
  -22.1663   -4.2140   21.0979 F   0  0  0  0  0  0
  -21.5633   -3.4535   25.7740 F   0  0  0  0  0  0
  -30.0259  -13.3583   20.4396 N   0  0  0  0  0  0
  -26.3034  -12.9300   20.3346 N   0  0  0  0  0  0
  -25.9327  -11.6465   20.5748 N   0  0  0  0  0  0
  -22.0521  -12.8212   22.0406 N   0  0  0  0  0  0
  -25.4344  -15.1858   20.4087 N   0  0  0  0  0  0
  -31.7533  -14.7910   20.1047 O   0  0  0  0  0  0
  -21.6633   -6.8867   21.4237 O   0  0  0  0  0  0
  -22.3558  -14.5534   20.6709 O   0  0  0  0  0  0
  -24.6212  -31.8635   23.2054 C   0  0  0  0  0  0
  -25.9070  -32.4800   23.8370 C   0  0  1  0  0  0
  -27.2289  -27.3605   20.1095 C   0  0  0  0  0  0
  -25.5910  -33.8604   24.2295 N   0  0  0  0  0  0
  -23.4133  -30.4871   21.5480 C   0  0  2  0  0  0
  -24.8596  -28.9486   20.1115 C   0  0  0  0  0  0
  -22.7461  -29.4622   22.4950 C   0  0  0  0  0  0
  -18.0283  -28.1375   22.8482 C   0  0  0  0  0  0
  -24.1493  -36.7303   23.2638 C   0  0  0  0  0  0
  -25.9508  -30.8062   21.3713 C   0  0  0  0  0  0
  -26.0259  -29.4375   20.7130 C   0  0  0  0  0  0
  -27.2131  -28.6547   20.7023 C   0  0  0  0  0  0
  -26.0374  -26.9108   19.4923 C   0  0  0  0  0  0
  -24.8651  -27.6886   19.4944 C   0  0  0  0  0  0
  -23.6260  -29.8253   20.1611 C   0  0  0  0  0  0
  -25.4114  -36.3094   24.0333 C   0  0  1  0  0  0
  -20.5882  -28.3665   23.1296 C   0  0  2  0  0  0
  -20.6779  -26.9395   22.5412 C   0  0  0  0  0  0
  -19.5761  -26.6376   21.5209 C   0  0  0  0  0  0
  -18.1936  -26.7916   22.1618 C   0  0  0  0  0  0
  -19.1536  -28.8840   23.2880 C   0  0  0  0  0  0
  -18.9465  -30.1446   23.8890 C   0  0  0  0  0  0
  -17.6465  -30.6578   24.0562 C   0  0  0  0  0  0
  -25.9049  -34.9464   23.5111 C   0  0  0  0  0  0
  -16.5355  -29.9082   23.6319 C   0  0  0  0  0  0
  -16.7273  -28.6500   23.0338 C   0  0  0  0  0  0
  -26.4470  -31.6603   25.0725 C   0  0  0  0  0  0
  -25.3706  -31.3746   26.1455 C   0  0  0  0  0  0
  -27.0301  -30.3031   24.6142 C   0  0  0  0  0  0
  -27.6033  -32.4338   25.7495 C   0  0  0  0  0  0
  -27.5584  -37.1804   24.8463 C   0  0  0  0  0  0
  -21.4177  -29.3023   22.3699 N   0  0  0  0  0  0
  -26.4292  -37.3786   23.9409 N   0  0  0  0  0  0
  -24.6800  -31.0685   22.0986 N   0  0  0  0  0  0
  -23.4204  -28.8140   23.2997 O   0  0  0  0  0  0
  -28.3709  -26.5587   20.1495 O   0  0  0  0  0  0
  -26.5617  -34.8918   22.4677 O   0  0  0  0  0  0
  -23.5380  -32.1414   23.7405 O   0  0  0  0  0  0
  -30.5127  -18.1302   22.0101 C   0  0  0  0  0  0
  -30.5602  -19.5350   21.8202 C   0  0  0  0  0  0
  -29.7923  -17.8462   19.7276 C   0  0  0  0  0  0
  -30.1204  -17.2502   20.9728 C   0  0  0  0  0  0
  -30.2247  -20.1385   20.5830 C   0  0  0  0  0  0
  -29.8528  -19.2596   19.5253 C   0  0  0  0  0  0
  -29.5106  -19.8140   18.1537 C   0  0  0  0  0  0
  -30.6125  -24.6203   19.4840 C   0  0  0  0  0  0
  -29.8177  -24.5379   21.8737 C   0  0  0  0  0  0
  -29.8497  -15.7447   21.2937 C   0  0  0  0  0  0
  -30.4193  -21.6802   20.4122 C   0  0  0  0  0  0
  -29.1762  -22.6489   20.2805 C   0  0  0  0  0  0
  -28.2041  -25.1068   20.0208 C   0  0  0  0  0  0
  -29.4500  -24.2166   20.4108 C   0  0  0  0  0  0
  -31.4836  -12.5112   19.1210 H   0  0  0  0  0  0
  -30.3877  -11.3630   19.8363 H   0  0  0  0  0  0
  -29.7588  -11.7808   17.4472 H   0  0  0  0  0  0
  -29.6499  -13.4957   17.7515 H   0  0  0  0  0  0
  -27.8559  -11.2991   18.8367 H   0  0  0  0  0  0
  -27.3709  -12.6073   17.7915 H   0  0  0  0  0  0
  -27.6957  -14.2468   19.5567 H   0  0  0  0  0  0
  -28.7130  -11.9610   21.3160 H   0  0  0  0  0  0
  -28.4564  -13.5763   21.8814 H   0  0  0  0  0  0
  -25.2754   -9.5670   22.4754 H   0  0  0  0  0  0
  -23.9995   -7.4622   22.7466 H   0  0  0  0  0  0
  -21.0831   -8.8753   19.8950 H   0  0  0  0  0  0
  -22.3680  -10.9657   19.6161 H   0  0  0  0  0  0
  -21.2001   -7.6140   23.9706 H   0  0  0  0  0  0
  -21.1490   -6.0520   25.9075 H   0  0  0  0  0  0
  -22.0602   -2.7601   23.2847 H   0  0  0  0  0  0
  -22.4132  -11.9860   22.4775 H   0  0  0  0  0  0
  -21.1148  -13.1245   22.2642 H   0  0  0  0  0  0
  -24.6701  -15.8441   20.5151 H   0  0  0  0  0  0
  -26.2922  -15.6238   20.0967 H   0  0  0  0  0  0
  -26.7139  -32.5478   23.1124 H   0  0  0  0  0  0
  -25.0069  -33.9761   25.0443 H   0  0  0  0  0  0
  -22.7035  -31.3047   21.4085 H   0  0  0  0  0  0
  -23.3754  -35.9637   23.3306 H   0  0  0  0  0  0
  -24.3588  -36.8909   22.2049 H   0  0  0  0  0  0
  -23.7243  -37.6507   23.6657 H   0  0  0  0  0  0
  -26.0792  -31.5717   20.6049 H   0  0  0  0  0  0
  -26.8329  -30.8543   21.9985 H   0  0  0  0  0  0
  -28.1107  -29.0263   21.1766 H   0  0  0  0  0  0
  -25.9875  -25.9493   19.0051 H   0  0  0  0  0  0
  -23.9715  -27.3083   19.0190 H   0  0  0  0  0  0
  -23.7443  -30.6052   19.4080 H   0  0  0  0  0  0
  -22.7458  -29.2555   19.8575 H   0  0  0  0  0  0
  -25.1291  -36.1955   25.0826 H   0  0  0  0  0  0
  -20.9974  -28.3234   24.1414 H   0  0  0  0  0  0
  -20.5705  -26.2268   23.3602 H   0  0  0  0  0  0
  -21.6648  -26.7440   22.1197 H   0  0  0  0  0  0
  -19.6928  -25.6288   21.1240 H   0  0  0  0  0  0
  -19.6709  -27.3184   20.6736 H   0  0  0  0  0  0
  -17.4210  -26.6657   21.4016 H   0  0  0  0  0  0
  -18.0338  -26.0049   22.9011 H   0  0  0  0  0  0
  -19.7945  -30.7261   24.2260 H   0  0  0  0  0  0
  -17.5022  -31.6262   24.5164 H   0  0  0  0  0  0
  -15.5361  -30.2989   23.7648 H   0  0  0  0  0  0
  -15.8666  -28.0837   22.7034 H   0  0  0  0  0  0
  -24.5900  -30.7064   25.7810 H   0  0  0  0  0  0
  -24.8875  -32.2914   26.4844 H   0  0  0  0  0  0
  -25.8027  -30.8976   27.0259 H   0  0  0  0  0  0
  -26.2863  -29.6809   24.1154 H   0  0  0  0  0  0
  -27.4003  -29.7257   25.4623 H   0  0  0  0  0  0
  -27.8736  -30.4332   23.9355 H   0  0  0  0  0  0
  -27.2648  -33.3651   26.2050 H   0  0  0  0  0  0
  -28.3855  -32.6874   25.0332 H   0  0  0  0  0  0
  -28.0685  -31.8480   26.5430 H   0  0  0  0  0  0
  -28.2594  -38.0109   24.7516 H   0  0  0  0  0  0
  -28.1088  -36.2633   24.6290 H   0  0  0  0  0  0
  -27.2306  -37.1460   25.8868 H   0  0  0  0  0  0
  -20.9336  -29.8760   21.6937 H   0  0  0  0  0  0
  -26.0178  -38.2864   24.1413 H   0  0  0  0  0  0
  -30.7500  -17.7335   22.9879 H   0  0  0  0  0  0
  -30.8716  -20.1566   22.6490 H   0  0  0  0  0  0
  -29.4605  -17.2092   18.9186 H   0  0  0  0  0  0
  -29.3850  -19.0172   17.4198 H   0  0  0  0  0  0
  -30.2990  -20.4730   17.7886 H   0  0  0  0  0  0
  -28.5790  -20.3781   18.1935 H   0  0  0  0  0  0
  -31.5513  -24.1471   19.7714 H   0  0  0  0  0  0
  -30.7842  -25.6972   19.5071 H   0  0  0  0  0  0
  -30.4043  -24.3449   18.4495 H   0  0  0  0  0  0
  -30.7527  -24.0679   22.1755 H   0  0  0  0  0  0
  -29.0415  -24.1942   22.5583 H   0  0  0  0  0  0
  -29.9337  -25.6105   22.0331 H   0  0  0  0  0  0
  -28.7863  -15.6278   21.0994 H   0  0  0  0  0  0
  -29.9677  -15.5888   22.3659 H   0  0  0  0  0  0
  -31.0710  -21.8270   19.5517 H   0  0  0  0  0  0
  -31.0171  -22.0116   21.2603 H   0  0  0  0  0  0
  -28.4417  -22.3673   21.0361 H   0  0  0  0  0  0
  -28.6905  -22.4549   19.3247 H   0  0  0  0  0  0
  -27.3588  -24.7919   20.6360 H   0  0  0  0  0  0
  -27.9382  -24.8816   18.9866 H   0  0  0  0  0  0
  1 25  1  0  0  0
  1 30  2  0  0  0
  1 80  1  0  0  0
  2  3  1  0  0  0
  2 25  1  0  0  0
  2 85  1  0  0  0
  2 86  1  0  0  0
  3  4  1  0  0  0
  3 87  1  0  0  0
  3 88  1  0  0  0
  4  5  1  0  0  0
  4 89  1  0  0  0
  4 90  1  0  0  0
  5  6  1  0  0  0
  5 26  1  0  0  0
  5 91  1  0  0  0
  6 25  1  0  0  0
  6 92  1  0  0  0
  6 93  1  0  0  0
  7  8  2  0  0  0
  7 26  1  0  0  0
  7 29  1  0  0  0
  8  9  1  0  0  0
  8 22  1  0  0  0
  9 10  1  0  0  0
  9 27  2  0  0  0
 10 11  2  0  0  0
 10 15  1  0  0  0
 11 12  1  0  0  0
 11 94  1  0  0  0
 12 13  2  0  0  0
 12 95  1  0  0  0
 13 14  1  0  0  0
 13 31  1  0  0  0
 14 15  2  0  0  0
 14 96  1  0  0  0
 15 97  1  0  0  0
 16 17  2  0  0  0
 16 21  1  0  0  0
 16 31  1  0  0  0
 17 18  1  0  0  0
 17 98  1  0  0  0
 18 19  2  0  0  0
 18 99  1  0  0  0
 19 20  1  0  0  0
 19 24  1  0  0  0
 20 21  2  0  0  0
 20100  1  0  0  0
 21 23  1  0  0  0
 22 28  1  0  0  0
 22 32  2  0  0  0
 26 27  1  0  0  0
 28101  1  0  0  0
 28102  1  0  0  0
 29103  1  0  0  0
 29104  1  0  0  0
 33 34  1  0  0  0
 33 66  1  0  0  0
 33 70  2  0  0  0
 34 36  1  0  0  0
 34 59  1  0  0  0
 34105  1  0  0  0
 35 44  2  0  0  0
 35 45  1  0  0  0
 35 68  1  0  0  0
 36 56  1  0  0  0
 36106  1  0  0  0
 37 39  1  0  0  0
 37 47  1  0  0  0
 37 66  1  0  0  0
 37107  1  0  0  0
 38 43  2  0  0  0
 38 46  1  0  0  0
 38 47  1  0  0  0
 39 64  1  0  0  0
 39 67  2  0  0  0
 40 52  1  0  0  0
 40 53  2  0  0  0
 40 58  1  0  0  0
 41108  1  0  0  0
 41109  1  0  0  0
 41110  1  0  0  0
 41 48  1  0  0  0
 42 43  1  0  0  0
 42 66  1  0  0  0
 42111  1  0  0  0
 42112  1  0  0  0
 43 44  1  0  0  0
 44113  1  0  0  0
 45 46  2  0  0  0
 45114  1  0  0  0
 46115  1  0  0  0
 47116  1  0  0  0
 47117  1  0  0  0
 48 56  1  0  0  0
 48 65  1  0  0  0
 48118  1  0  0  0
 49 50  1  0  0  0
 49 53  1  0  0  0
 49 64  1  0  0  0
 49119  1  0  0  0
 50 51  1  0  0  0
 50120  1  0  0  0
 50121  1  0  0  0
 51 52  1  0  0  0
 51122  1  0  0  0
 51123  1  0  0  0
 52124  1  0  0  0
 52125  1  0  0  0
 53 54  1  0  0  0
 54 55  2  0  0  0
 54126  1  0  0  0
 55 57  1  0  0  0
 55127  1  0  0  0
 56 69  2  0  0  0
 57 58  2  0  0  0
 57128  1  0  0  0
 58129  1  0  0  0
 59 60  1  0  0  0
 59 61  1  0  0  0
 59 62  1  0  0  0
 60130  1  0  0  0
 60131  1  0  0  0
 60132  1  0  0  0
 61133  1  0  0  0
 61134  1  0  0  0
 61135  1  0  0  0
 62136  1  0  0  0
 62137  1  0  0  0
 62138  1  0  0  0
 63 65  1  0  0  0
 63139  1  0  0  0
 63140  1  0  0  0
 63141  1  0  0  0
 64142  1  0  0  0
 65143  1  0  0  0
 68 83  1  0  0  0
 71 72  2  0  0  0
 71 74  1  0  0  0
 71144  1  0  0  0
 72 75  1  0  0  0
 72145  1  0  0  0
 73 74  2  0  0  0
 73 76  1  0  0  0
 73146  1  0  0  0
 74 80  1  0  0  0
 75 76  2  0  0  0
 75 81  1  0  0  0
 76 77  1  0  0  0
 77147  1  0  0  0
 77148  1  0  0  0
 77149  1  0  0  0
 78150  1  0  0  0
 78151  1  0  0  0
 78152  1  0  0  0
 78 84  1  0  0  0
 79 84  1  0  0  0
 79153  1  0  0  0
 79154  1  0  0  0
 79155  1  0  0  0
 80156  1  0  0  0
 80157  1  0  0  0
 81 82  1  0  0  0
 81158  1  0  0  0
 81159  1  0  0  0
 82 84  1  0  0  0
 82160  1  0  0  0
 82161  1  0  0  0
 83 84  1  0  0  0
 83162  1  0  0  0
 83163  1  0  0  0
M  ISO  4   1 100  68 101  80 100  83 101
M  END
> <chiral flag>
0

> <version>
0

> <s_m_source_file>
/data/baiqing/PycharmProjects/Reinvent-master-3.2/result/LINK_invent/BTK/process_docking_weight1_custom_product_contain_oxygen_bond_distance_aromatic_linkinvent_7_9_3/rearranged_h_0132.sdf

> <i_m_source_file_index>
15

> <r_mmod_Potential_Energy-OPLS-2005>
63.7125434875488

> <r_mmod_Stretch_Energy-OPLS-2005>
66.9383773803711

> <r_mmod_Bend_Energy-OPLS-2005>
127.263542175293

> <r_mmod_Torsional_Energy-OPLS-2005>
182.976150512695

> <r_mmod_Improper_Torsional_Energy-OPLS-2005>
3.63078951835632

> <r_mmod_Van_der_Waal_Energy-OPLS-2005>
144.456619262695

> <r_mmod_Electrostatic_Energy-OPLS-2005>
-302.045776367188

> <r_mmod_Solvation_Energy-OPLS-2005>
-190.001052856445

> <b_mmod_Minimization_Converged-OPLS-2005>
0

> <r_mmod_RMS_Derivative-OPLS-2005>
1.26913130283356

$$$$
15
                    3D
 Structure written by MMmdl.
161169  0  0  1  0            999 V2000
  -30.7450  -14.4734   20.6346 C   0  0  0  0  0  0
  -30.4370  -12.3208   19.4503 C   0  0  0  0  0  0
  -29.5111  -12.4710   18.2251 C   0  0  0  0  0  0
  -28.0308  -12.3331   18.6344 C   0  0  0  0  0  0
  -27.6705  -13.1960   19.8718 C   0  0  2  0  0  0
  -28.7055  -13.0026   21.0016 C   0  0  0  0  0  0
  -25.2673  -13.8145   20.5676 C   0  0  0  0  0  0
  -24.1894  -13.0466   20.9195 C   0  0  0  0  0  0
  -24.6391  -11.6929   20.8728 C   0  0  0  0  0  0
  -23.9039  -10.4319   21.0401 C   0  0  0  0  0  0
  -24.3623   -9.4224   21.9166 C   0  0  0  0  0  0
  -23.6343   -8.2242   22.0717 C   0  0  0  0  0  0
  -22.4307   -8.0264   21.3527 C   0  0  0  0  0  0
  -21.9940   -9.0228   20.4627 C   0  0  0  0  0  0
  -22.7214  -10.2132   20.3032 C   0  0  0  0  0  0
  -21.6838   -6.0752   22.5297 C   0  0  0  0  0  0
  -21.3985   -6.5669   23.8235 C   0  0  0  0  0  0
  -21.3654   -5.6802   24.9180 C   0  0  0  0  0  0
  -21.6046   -4.3079   24.7223 C   0  0  0  0  0  0
  -21.8822   -3.8171   23.4339 C   0  0  0  0  0  0
  -21.9192   -4.7002   22.3423 C   0  0  0  0  0  0
  -22.7927  -13.5286   21.1861 C   0  0  0  0  0  0
  -22.1673   -4.2196   21.0990 F   0  0  0  0  0  0
  -21.5637   -3.4537   25.7720 F   0  0  0  0  0  0
  -30.0398  -13.3163   20.4662 N   0  0  0  0  0  0
  -26.3073  -12.9290   20.3338 N   0  0  0  0  0  0
  -25.9335  -11.6470   20.5797 N   0  0  0  0  0  0
  -22.0519  -12.8276   22.0380 N   0  0  0  0  0  0
  -25.4480  -15.1835   20.4097 N   0  0  0  0  0  0
  -31.8284  -14.6428   20.0633 O   0  0  0  0  0  0
  -21.6644   -6.8868   21.4248 O   0  0  0  0  0  0
  -22.3636  -14.5599   20.6695 O   0  0  0  0  0  0
  -24.6142  -31.8670   23.2096 C   0  0  0  0  0  0
  -25.9035  -32.4827   23.8402 C   0  0  1  0  0  0
  -27.2438  -27.4450   20.1091 C   0  0  0  0  0  0
  -25.5902  -33.8622   24.2344 N   0  0  0  0  0  0
  -23.4016  -30.4886   21.5499 C   0  0  2  0  0  0
  -24.8532  -28.9495   20.1192 C   0  0  0  0  0  0
  -22.7402  -29.4663   22.5023 C   0  0  0  0  0  0
  -18.0265  -28.1361   22.8502 C   0  0  0  0  0  0
  -24.1478  -36.7299   23.2636 C   0  0  0  0  0  0
  -25.9280  -30.8415   21.3553 C   0  0  0  0  0  0
  -26.0119  -29.4743   20.7084 C   0  0  0  0  0  0
  -27.2146  -28.7314   20.6940 C   0  0  0  0  0  0
  -26.0730  -26.9271   19.5203 C   0  0  0  0  0  0
  -24.8787  -27.6757   19.5222 C   0  0  0  0  0  0
  -23.6084  -29.8102   20.1685 C   0  0  0  0  0  0
  -25.4102  -36.3104   24.0341 C   0  0  1  0  0  0
  -20.5850  -28.3646   23.1334 C   0  0  2  0  0  0
  -20.6746  -26.9384   22.5435 C   0  0  0  0  0  0
  -19.5735  -26.6374   21.5223 C   0  0  0  0  0  0
  -18.1906  -26.7913   22.1612 C   0  0  0  0  0  0
  -19.1510  -28.8821   23.2903 C   0  0  0  0  0  0
  -18.9445  -30.1439   23.8901 C   0  0  0  0  0  0
  -17.6447  -30.6576   24.0549 C   0  0  0  0  0  0
  -25.9038  -34.9476   23.5143 C   0  0  0  0  0  0
  -16.5339  -29.9068   23.6335 C   0  0  0  0  0  0
  -16.7252  -28.6480   23.0360 C   0  0  0  0  0  0
  -26.4475  -31.6579   25.0707 C   0  0  0  0  0  0
  -25.3767  -31.3658   26.1475 C   0  0  0  0  0  0
  -27.0277  -30.3026   24.6028 C   0  0  0  0  0  0
  -27.6072  -32.4281   25.7445 C   0  0  0  0  0  0
  -27.5592  -37.1788   24.8461 C   0  0  0  0  0  0
  -21.4129  -29.3021   22.3750 N   0  0  0  0  0  0
  -26.4280  -37.3812   23.9433 N   0  0  0  0  0  0
  -24.6666  -31.0799   22.0983 N   0  0  0  0  0  0
  -23.4180  -28.8222   23.3082 O   0  0  0  0  0  0
  -28.4050  -26.7076   20.0907 O   0  0  0  0  0  0
  -26.5586  -34.8922   22.4691 O   0  0  0  0  0  0
  -23.5339  -32.1414   23.7506 O   0  0  0  0  0  0
  -29.6351  -18.1742   23.1611 C   0  0  0  0  0  0
  -29.7839  -19.2492   20.9818 C   0  0  0  0  0  0
  -29.2000  -20.5710   22.9291 C   0  0  0  0  0  0
  -29.9222  -18.0842   21.7771 C   0  0  0  0  0  0
  -29.2767  -19.4188   23.7385 C   0  0  0  0  0  0
  -29.4193  -20.4972   21.5379 C   0  0  0  0  0  0
  -30.3475  -16.8311   21.1051 C   0  0  0  0  0  0
  -30.1479  -15.5367   21.4613 C   0  0  0  0  0  0
  -27.5102  -19.9873   25.4930 C   0  0  0  0  0  0
  -28.9621  -19.5466   25.2266 C   0  0  0  0  0  0
  -29.2664  -21.7211   20.6201 C   0  0  0  0  0  0
  -28.9709  -23.0792   21.3117 C   0  0  0  0  0  0
  -28.8231  -24.2754   20.3346 C   0  0  0  0  0  0
  -28.4458  -25.6132   21.0196 C   0  0  0  0  0  0
  -31.4802  -12.4205   19.1449 H   0  0  0  0  0  0
  -30.3628  -11.3180   19.8722 H   0  0  0  0  0  0
  -29.7644  -11.7015   17.4930 H   0  0  0  0  0  0
  -29.6801  -13.4302   17.7350 H   0  0  0  0  0  0
  -27.8588  -11.2790   18.8586 H   0  0  0  0  0  0
  -27.3787  -12.5676   17.7947 H   0  0  0  0  0  0
  -27.7131  -14.2390   19.5561 H   0  0  0  0  0  0
  -28.6945  -11.9685   21.3529 H   0  0  0  0  0  0
  -28.4384  -13.5961   21.8727 H   0  0  0  0  0  0
  -25.2773   -9.5740   22.4745 H   0  0  0  0  0  0
  -24.0088   -7.4613   22.7409 H   0  0  0  0  0  0
  -21.0863   -8.8696   19.8924 H   0  0  0  0  0  0
  -22.3642  -10.9659   19.6143 H   0  0  0  0  0  0
  -21.1954   -7.6185   23.9763 H   0  0  0  0  0  0
  -21.1474   -6.0519   25.9087 H   0  0  0  0  0  0
  -22.0612   -2.7634   23.2805 H   0  0  0  0  0  0
  -22.4162  -12.0025   22.4911 H   0  0  0  0  0  0
  -21.1087  -13.1245   22.2463 H   0  0  0  0  0  0
  -24.7014  -15.8568   20.5442 H   0  0  0  0  0  0
  -26.3193  -15.6070   20.1197 H   0  0  0  0  0  0
  -26.7112  -32.5544   23.1175 H   0  0  0  0  0  0
  -25.0081  -33.9784   25.0502 H   0  0  0  0  0  0
  -22.6902  -31.3042   21.4081 H   0  0  0  0  0  0
  -23.3750  -35.9626   23.3301 H   0  0  0  0  0  0
  -24.3599  -36.8899   22.2057 H   0  0  0  0  0  0
  -23.7207  -37.6491   23.6652 H   0  0  0  0  0  0
  -26.0307  -31.6065   20.5846 H   0  0  0  0  0  0
  -26.8209  -30.9023   21.9667 H   0  0  0  0  0  0
  -28.1145  -29.1416   21.1315 H   0  0  0  0  0  0
  -26.0884  -25.9478   19.0614 H   0  0  0  0  0  0
  -23.9891  -27.2639   19.0663 H   0  0  0  0  0  0
  -23.7058  -30.5777   19.4008 H   0  0  0  0  0  0
  -22.7350  -29.2201   19.8822 H   0  0  0  0  0  0
  -25.1265  -36.1971   25.0835 H   0  0  0  0  0  0
  -20.9939  -28.3197   24.1450 H   0  0  0  0  0  0
  -20.5638  -26.2254   23.3615 H   0  0  0  0  0  0
  -21.6615  -26.7420   22.1226 H   0  0  0  0  0  0
  -19.6888  -25.6284   21.1245 H   0  0  0  0  0  0
  -19.6686  -27.3181   20.6752 H   0  0  0  0  0  0
  -17.4188  -26.6697   21.3993 H   0  0  0  0  0  0
  -18.0272  -26.0037   22.8984 H   0  0  0  0  0  0
  -19.7922  -30.7258   24.2270 H   0  0  0  0  0  0
  -17.5000  -31.6265   24.5121 H   0  0  0  0  0  0
  -15.5339  -30.2971   23.7680 H   0  0  0  0  0  0
  -15.8632  -28.0816   22.7086 H   0  0  0  0  0  0
  -24.5945  -30.6996   25.7820 H   0  0  0  0  0  0
  -24.8959  -32.2798   26.4975 H   0  0  0  0  0  0
  -25.8159  -30.8802   27.0199 H   0  0  0  0  0  0
  -26.2776  -29.6789   24.1157 H   0  0  0  0  0  0
  -27.4133  -29.7262   25.4443 H   0  0  0  0  0  0
  -27.8580  -30.4354   23.9089 H   0  0  0  0  0  0
  -27.2725  -33.3585   26.2052 H   0  0  0  0  0  0
  -28.3866  -32.6835   25.0248 H   0  0  0  0  0  0
  -28.0757  -31.8375   26.5330 H   0  0  0  0  0  0
  -28.2573  -38.0117   24.7555 H   0  0  0  0  0  0
  -28.1117  -36.2658   24.6213 H   0  0  0  0  0  0
  -27.2331  -37.1305   25.8861 H   0  0  0  0  0  0
  -20.9305  -29.8725   21.6935 H   0  0  0  0  0  0
  -26.0161  -38.2879   24.1479 H   0  0  0  0  0  0
  -29.7283  -17.2959   23.7861 H   0  0  0  0  0  0
  -29.9609  -19.1781   19.9163 H   0  0  0  0  0  0
  -28.9519  -21.5106   23.3983 H   0  0  0  0  0  0
  -30.9284  -17.0106   20.2090 H   0  0  0  0  0  0
  -29.5808  -15.3063   22.3515 H   0  0  0  0  0  0
  -27.3179  -20.1180   26.5594 H   0  0  0  0  0  0
  -26.7949  -19.2532   25.1213 H   0  0  0  0  0  0
  -27.2925  -20.9395   25.0106 H   0  0  0  0  0  0
  -29.6443  -20.2741   25.6715 H   0  0  0  0  0  0
  -29.1588  -18.6033   25.7346 H   0  0  0  0  0  0
  -28.4653  -21.5025   19.9141 H   0  0  0  0  0  0
  -30.1758  -21.8072   20.0220 H   0  0  0  0  0  0
  -29.7651  -23.2994   22.0253 H   0  0  0  0  0  0
  -28.0521  -22.9931   21.8932 H   0  0  0  0  0  0
  -28.0740  -24.0350   19.5799 H   0  0  0  0  0  0
  -29.7643  -24.4082   19.7990 H   0  0  0  0  0  0
  -29.1994  -25.8557   21.7694 H   0  0  0  0  0  0
  -27.5059  -25.5011   21.5673 H   0  0  0  0  0  0
  1 25  1  0  0  0
  1 30  2  0  0  0
  1 78  1  0  0  0
  2  3  1  0  0  0
  2 25  1  0  0  0
  2 85  1  0  0  0
  2 86  1  0  0  0
  3  4  1  0  0  0
  3 87  1  0  0  0
  3 88  1  0  0  0
  4  5  1  0  0  0
  4 89  1  0  0  0
  4 90  1  0  0  0
  5  6  1  0  0  0
  5 26  1  0  0  0
  5 91  1  0  0  0
  6 25  1  0  0  0
  6 92  1  0  0  0
  6 93  1  0  0  0
  7  8  2  0  0  0
  7 26  1  0  0  0
  7 29  1  0  0  0
  8  9  1  0  0  0
  8 22  1  0  0  0
  9 10  1  0  0  0
  9 27  2  0  0  0
 10 11  2  0  0  0
 10 15  1  0  0  0
 11 12  1  0  0  0
 11 94  1  0  0  0
 12 13  2  0  0  0
 12 95  1  0  0  0
 13 14  1  0  0  0
 13 31  1  0  0  0
 14 15  2  0  0  0
 14 96  1  0  0  0
 15 97  1  0  0  0
 16 17  2  0  0  0
 16 21  1  0  0  0
 16 31  1  0  0  0
 17 18  1  0  0  0
 17 98  1  0  0  0
 18 19  2  0  0  0
 18 99  1  0  0  0
 19 20  1  0  0  0
 19 24  1  0  0  0
 20 21  2  0  0  0
 20100  1  0  0  0
 21 23  1  0  0  0
 22 28  1  0  0  0
 22 32  2  0  0  0
 26 27  1  0  0  0
 28101  1  0  0  0
 28102  1  0  0  0
 29103  1  0  0  0
 29104  1  0  0  0
 33 34  1  0  0  0
 33 66  1  0  0  0
 33 70  2  0  0  0
 34 36  1  0  0  0
 34 59  1  0  0  0
 34105  1  0  0  0
 35 44  2  0  0  0
 35 45  1  0  0  0
 35 68  1  0  0  0
 36 56  1  0  0  0
 36106  1  0  0  0
 37 39  1  0  0  0
 37 47  1  0  0  0
 37 66  1  0  0  0
 37107  1  0  0  0
 38 43  2  0  0  0
 38 46  1  0  0  0
 38 47  1  0  0  0
 39 64  1  0  0  0
 39 67  2  0  0  0
 40 52  1  0  0  0
 40 53  2  0  0  0
 40 58  1  0  0  0
 41108  1  0  0  0
 41109  1  0  0  0
 41110  1  0  0  0
 41 48  1  0  0  0
 42 43  1  0  0  0
 42 66  1  0  0  0
 42111  1  0  0  0
 42112  1  0  0  0
 43 44  1  0  0  0
 44113  1  0  0  0
 45 46  2  0  0  0
 45114  1  0  0  0
 46115  1  0  0  0
 47116  1  0  0  0
 47117  1  0  0  0
 48 56  1  0  0  0
 48 65  1  0  0  0
 48118  1  0  0  0
 49 50  1  0  0  0
 49 53  1  0  0  0
 49 64  1  0  0  0
 49119  1  0  0  0
 50 51  1  0  0  0
 50120  1  0  0  0
 50121  1  0  0  0
 51 52  1  0  0  0
 51122  1  0  0  0
 51123  1  0  0  0
 52124  1  0  0  0
 52125  1  0  0  0
 53 54  1  0  0  0
 54 55  2  0  0  0
 54126  1  0  0  0
 55 57  1  0  0  0
 55127  1  0  0  0
 56 69  2  0  0  0
 57 58  2  0  0  0
 57128  1  0  0  0
 58129  1  0  0  0
 59 60  1  0  0  0
 59 61  1  0  0  0
 59 62  1  0  0  0
 60130  1  0  0  0
 60131  1  0  0  0
 60132  1  0  0  0
 61133  1  0  0  0
 61134  1  0  0  0
 61135  1  0  0  0
 62136  1  0  0  0
 62137  1  0  0  0
 62138  1  0  0  0
 63 65  1  0  0  0
 63139  1  0  0  0
 63140  1  0  0  0
 63141  1  0  0  0
 64142  1  0  0  0
 65143  1  0  0  0
 68 84  1  0  0  0
 71 74  2  0  0  0
 71 75  1  0  0  0
 71144  1  0  0  0
 72 74  1  0  0  0
 72 76  2  0  0  0
 72145  1  0  0  0
 73 75  2  0  0  0
 73 76  1  0  0  0
 73146  1  0  0  0
 74 77  1  0  0  0
 75 80  1  0  0  0
 76 81  1  0  0  0
 77 78  2  0  0  0
 77147  1  0  0  0
 78148  1  0  0  0
 79 80  1  0  0  0
 79149  1  0  0  0
 79150  1  0  0  0
 79151  1  0  0  0
 80152  1  0  0  0
 80153  1  0  0  0
 81 82  1  0  0  0
 81154  1  0  0  0
 81155  1  0  0  0
 82 83  1  0  0  0
 82156  1  0  0  0
 82157  1  0  0  0
 83 84  1  0  0  0
 83158  1  0  0  0
 83159  1  0  0  0
 84160  1  0  0  0
 84161  1  0  0  0
M  ISO  4   1 100  68 101  78 100  84 101
M  END
> <chiral flag>
0

> <version>
0

> <s_m_source_file>
/data/baiqing/PycharmProjects/Reinvent-master-3.2/result/LINK_invent/BTK/process_docking_weight1_custom_product_contain_oxygen_bond_distance_aromatic_linkinvent_7_9_3/rearranged_h_0132.sdf

> <i_m_source_file_index>
16

> <r_mmod_Potential_Energy-OPLS-2005>
-16.1192855834961

> <r_mmod_Stretch_Energy-OPLS-2005>
40.2929496765137

> <r_mmod_Bend_Energy-OPLS-2005>
99.0687561035156

> <r_mmod_Torsional_Energy-OPLS-2005>
206.246673583984

> <r_mmod_Improper_Torsional_Energy-OPLS-2005>
1.98637437820435

> <r_mmod_Van_der_Waal_Energy-OPLS-2005>
149.132064819336

> <r_mmod_Electrostatic_Energy-OPLS-2005>
-341.684295654297

> <r_mmod_Solvation_Energy-OPLS-2005>
-183.512573242188

> <b_mmod_Minimization_Converged-OPLS-2005>
0

> <r_mmod_RMS_Derivative-OPLS-2005>
4.542405128479

$$$$
16
                    3D
 Structure written by MMmdl.
167175  0  0  1  0            999 V2000
  -30.6579  -14.5637   20.5106 C   0  0  0  0  0  0
  -30.4294  -12.3415   19.4457 C   0  0  0  0  0  0
  -29.5080  -12.5108   18.2181 C   0  0  0  0  0  0
  -28.0271  -12.3471   18.6221 C   0  0  0  0  0  0
  -27.6548  -13.2026   19.8612 C   0  0  2  0  0  0
  -28.7006  -13.0471   20.9907 C   0  0  0  0  0  0
  -25.2592  -13.8033   20.5679 C   0  0  0  0  0  0
  -24.1849  -13.0348   20.9178 C   0  0  0  0  0  0
  -24.6407  -11.6835   20.8735 C   0  0  0  0  0  0
  -23.9060  -10.4258   21.0411 C   0  0  0  0  0  0
  -24.3616   -9.4192   21.9198 C   0  0  0  0  0  0
  -23.6282   -8.2249   22.0782 C   0  0  0  0  0  0
  -22.4268   -8.0293   21.3570 C   0  0  0  0  0  0
  -21.9883   -9.0262   20.4666 C   0  0  0  0  0  0
  -22.7223  -10.2126   20.3056 C   0  0  0  0  0  0
  -21.6868   -6.0720   22.5279 C   0  0  0  0  0  0
  -21.4024   -6.5624   23.8204 C   0  0  0  0  0  0
  -21.3656   -5.6788   24.9173 C   0  0  0  0  0  0
  -21.6048   -4.3050   24.7237 C   0  0  0  0  0  0
  -21.8821   -3.8139   23.4356 C   0  0  0  0  0  0
  -21.9191   -4.6951   22.3408 C   0  0  0  0  0  0
  -22.7884  -13.5190   21.1808 C   0  0  0  0  0  0
  -22.1638   -4.2127   21.0987 F   0  0  0  0  0  0
  -21.5653   -3.4526   25.7742 F   0  0  0  0  0  0
  -30.0250  -13.3550   20.4344 N   0  0  0  0  0  0
  -26.3000  -12.9221   20.3281 N   0  0  0  0  0  0
  -25.9335  -11.6401   20.5754 N   0  0  0  0  0  0
  -22.0495  -12.8251   22.0390 N   0  0  0  0  0  0
  -25.4288  -15.1705   20.4125 N   0  0  0  0  0  0
  -31.8188  -14.6982   20.1119 O   0  0  0  0  0  0
  -21.6663   -6.8864   21.4237 O   0  0  0  0  0  0
  -22.3582  -14.5473   20.6593 O   0  0  0  0  0  0
  -24.6155  -31.8651   23.2086 C   0  0  0  0  0  0
  -25.9042  -32.4798   23.8377 C   0  0  1  0  0  0
  -27.2470  -27.4138   20.0923 C   0  0  0  0  0  0
  -25.5889  -33.8603   24.2295 N   0  0  0  0  0  0
  -23.4051  -30.4864   21.5483 C   0  0  2  0  0  0
  -24.8551  -28.9472   20.1120 C   0  0  0  0  0  0
  -22.7420  -29.4624   22.4978 C   0  0  0  0  0  0
  -18.0267  -28.1363   22.8492 C   0  0  0  0  0  0
  -24.1485  -36.7330   23.2641 C   0  0  0  0  0  0
  -25.9351  -30.8186   21.3688 C   0  0  0  0  0  0
  -26.0107  -29.4498   20.7197 C   0  0  0  0  0  0
  -27.2016  -28.6836   20.7207 C   0  0  0  0  0  0
  -26.0713  -26.9362   19.4672 C   0  0  0  0  0  0
  -24.8783  -27.6865   19.4922 C   0  0  0  0  0  0
  -23.6184  -29.8191   20.1629 C   0  0  0  0  0  0
  -25.4104  -36.3100   24.0330 C   0  0  1  0  0  0
  -20.5864  -28.3645   23.1321 C   0  0  2  0  0  0
  -20.6764  -26.9370   22.5434 C   0  0  0  0  0  0
  -19.5749  -26.6362   21.5217 C   0  0  0  0  0  0
  -18.1916  -26.7916   22.1606 C   0  0  0  0  0  0
  -19.1521  -28.8811   23.2911 C   0  0  0  0  0  0
  -18.9448  -30.1423   23.8918 C   0  0  0  0  0  0
  -17.6458  -30.6568   24.0555 C   0  0  0  0  0  0
  -25.9027  -34.9464   23.5114 C   0  0  0  0  0  0
  -16.5345  -29.9073   23.6319 C   0  0  0  0  0  0
  -16.7264  -28.6483   23.0347 C   0  0  0  0  0  0
  -26.4464  -31.6588   25.0717 C   0  0  0  0  0  0
  -25.3738  -31.3721   26.1478 C   0  0  0  0  0  0
  -27.0285  -30.3018   24.6105 C   0  0  0  0  0  0
  -27.6016  -32.4317   25.7511 C   0  0  0  0  0  0
  -27.5581  -37.1816   24.8454 C   0  0  0  0  0  0
  -21.4137  -29.3014   22.3726 N   0  0  0  0  0  0
  -26.4283  -37.3789   23.9407 N   0  0  0  0  0  0
  -24.6697  -31.0733   22.0993 N   0  0  0  0  0  0
  -23.4177  -28.8168   23.3027 O   0  0  0  0  0  0
  -28.4225  -26.6795   20.1508 O   0  0  0  0  0  0
  -26.5606  -34.8922   22.4682 O   0  0  0  0  0  0
  -23.5351  -32.1415   23.7458 O   0  0  0  0  0  0
  -27.8881  -18.0994   19.9561 C   0  0  0  0  0  0
  -29.7075  -19.6795   19.8150 C   0  0  0  0  0  0
  -29.2734  -18.3391   20.0060 C   0  0  0  0  0  0
  -26.9620  -19.1174   19.6398 C   0  0  0  0  0  0
  -27.4221  -20.4279   19.3146 C   0  0  0  0  0  0
  -28.8054  -20.7363   19.4955 C   0  0  0  0  0  0
  -24.6614  -19.4675   20.6976 C   0  0  0  0  0  0
  -25.4532  -21.1247   17.6654 C   0  0  0  0  0  0
  -30.2825  -17.1624   20.1243 C   0  0  0  0  0  0
  -25.4908  -18.7155   19.6495 C   0  0  0  0  0  0
  -26.5072  -21.5092   18.7182 C   0  0  0  0  0  0
  -29.8771  -15.8583   20.9186 C   0  0  0  0  0  0
  -28.1573  -24.2527   19.2888 C   0  0  0  0  0  0
  -28.7305  -25.6974   19.1436 C   0  0  0  0  0  0
  -28.9743  -23.1453   20.0383 C   0  0  0  0  0  0
  -29.3361  -21.9973   19.2232 O   0  0  0  0  0  0
  -31.4776  -12.4313   19.1546 H   0  0  0  0  0  0
  -30.3263  -11.3408   19.8684 H   0  0  0  0  0  0
  -29.7718  -11.7900   17.4431 H   0  0  0  0  0  0
  -29.6600  -13.5000   17.7843 H   0  0  0  0  0  0
  -27.8536  -11.2889   18.8255 H   0  0  0  0  0  0
  -27.3757  -12.6041   17.7841 H   0  0  0  0  0  0
  -27.6683  -14.2372   19.5231 H   0  0  0  0  0  0
  -28.6947  -12.0257   21.3752 H   0  0  0  0  0  0
  -28.4627  -13.6844   21.8449 H   0  0  0  0  0  0
  -25.2765   -9.5692   22.4772 H   0  0  0  0  0  0
  -23.9990   -7.4654   22.7495 H   0  0  0  0  0  0
  -21.0827   -8.8783   19.8968 H   0  0  0  0  0  0
  -22.3693  -10.9680   19.6181 H   0  0  0  0  0  0
  -21.2022   -7.6131   23.9693 H   0  0  0  0  0  0
  -21.1465   -6.0525   25.9067 H   0  0  0  0  0  0
  -22.0604   -2.7598   23.2871 H   0  0  0  0  0  0
  -22.4044  -11.9890   22.4780 H   0  0  0  0  0  0
  -21.1135  -13.1358   22.2573 H   0  0  0  0  0  0
  -24.6617  -15.8209   20.5432 H   0  0  0  0  0  0
  -26.2712  -15.6046   20.0627 H   0  0  0  0  0  0
  -26.7102  -32.5490   23.1132 H   0  0  0  0  0  0
  -25.0016  -33.9755   25.0422 H   0  0  0  0  0  0
  -22.6943  -31.3032   21.4078 H   0  0  0  0  0  0
  -23.3728  -35.9681   23.3294 H   0  0  0  0  0  0
  -24.3591  -36.8963   22.2062 H   0  0  0  0  0  0
  -23.7257  -37.6536   23.6672 H   0  0  0  0  0  0
  -26.0497  -31.5790   20.5956 H   0  0  0  0  0  0
  -26.8225  -30.8757   21.9880 H   0  0  0  0  0  0
  -28.0886  -29.0669   21.2049 H   0  0  0  0  0  0
  -26.0472  -25.9817   18.9669 H   0  0  0  0  0  0
  -23.9897  -27.2894   19.0219 H   0  0  0  0  0  0
  -23.7363  -30.5964   19.4072 H   0  0  0  0  0  0
  -22.7409  -29.2467   19.8572 H   0  0  0  0  0  0
  -25.1285  -36.1962   25.0823 H   0  0  0  0  0  0
  -20.9947  -28.3204   24.1447 H   0  0  0  0  0  0
  -20.5646  -26.2240   23.3627 H   0  0  0  0  0  0
  -21.6639  -26.7405   22.1234 H   0  0  0  0  0  0
  -19.6908  -25.6272   21.1243 H   0  0  0  0  0  0
  -19.6710  -27.3176   20.6752 H   0  0  0  0  0  0
  -17.4209  -26.6690   21.3986 H   0  0  0  0  0  0
  -18.0284  -26.0039   22.8971 H   0  0  0  0  0  0
  -19.7931  -30.7227   24.2303 H   0  0  0  0  0  0
  -17.5010  -31.6255   24.5150 H   0  0  0  0  0  0
  -15.5348  -30.2973   23.7635 H   0  0  0  0  0  0
  -15.8663  -28.0809   22.7051 H   0  0  0  0  0  0
  -24.5878  -30.7096   25.7838 H   0  0  0  0  0  0
  -24.8979  -32.2899   26.4945 H   0  0  0  0  0  0
  -25.8102  -30.8881   27.0222 H   0  0  0  0  0  0
  -26.2822  -29.6802   24.1138 H   0  0  0  0  0  0
  -27.4017  -29.7238   25.4569 H   0  0  0  0  0  0
  -27.8681  -30.4322   23.9271 H   0  0  0  0  0  0
  -27.2567  -33.3544   26.2194 H   0  0  0  0  0  0
  -28.3793  -32.6999   25.0349 H   0  0  0  0  0  0
  -28.0723  -31.8388   26.5366 H   0  0  0  0  0  0
  -28.2585  -38.0121   24.7485 H   0  0  0  0  0  0
  -28.1080  -36.2650   24.6272 H   0  0  0  0  0  0
  -27.2310  -37.1464   25.8858 H   0  0  0  0  0  0
  -20.9291  -29.8754   21.6979 H   0  0  0  0  0  0
  -26.0168  -38.2865   24.1407 H   0  0  0  0  0  0
  -27.5143  -17.1019   20.1090 H   0  0  0  0  0  0
  -30.7657  -19.8989   19.8562 H   0  0  0  0  0  0
  -24.5987  -20.5346   20.4931 H   0  0  0  0  0  0
  -25.0927  -19.3396   21.6909 H   0  0  0  0  0  0
  -23.6412  -19.0853   20.7248 H   0  0  0  0  0  0
  -25.1388  -22.0170   17.1211 H   0  0  0  0  0  0
  -24.5427  -20.7168   18.0940 H   0  0  0  0  0  0
  -25.8501  -20.4250   16.9292 H   0  0  0  0  0  0
  -31.2087  -17.5490   20.5555 H   0  0  0  0  0  0
  -30.5355  -16.8878   19.0983 H   0  0  0  0  0  0
  -25.4211  -17.6632   19.8972 H   0  0  0  0  0  0
  -25.0632  -18.7590   18.6521 H   0  0  0  0  0  0
  -27.1601  -22.1374   18.1318 H   0  0  0  0  0  0
  -26.0749  -22.1198   19.5096 H   0  0  0  0  0  0
  -28.8241  -15.6587   20.7681 H   0  0  0  0  0  0
  -29.9944  -16.0290   21.9893 H   0  0  0  0  0  0
  -28.0690  -23.9407   18.2517 H   0  0  0  0  0  0
  -27.1437  -24.2722   19.6839 H   0  0  0  0  0  0
  -28.4176  -26.1044   18.1795 H   0  0  0  0  0  0
  -29.8166  -25.6312   19.0708 H   0  0  0  0  0  0
  -28.4391  -22.8287   20.9339 H   0  0  0  0  0  0
  -29.9059  -23.5781   20.4024 H   0  0  0  0  0  0
  1 25  1  0  0  0
  1 30  2  0  0  0
  1 82  1  0  0  0
  2  3  1  0  0  0
  2 25  1  0  0  0
  2 87  1  0  0  0
  2 88  1  0  0  0
  3  4  1  0  0  0
  3 89  1  0  0  0
  3 90  1  0  0  0
  4  5  1  0  0  0
  4 91  1  0  0  0
  4 92  1  0  0  0
  5  6  1  0  0  0
  5 26  1  0  0  0
  5 93  1  0  0  0
  6 25  1  0  0  0
  6 94  1  0  0  0
  6 95  1  0  0  0
  7  8  2  0  0  0
  7 26  1  0  0  0
  7 29  1  0  0  0
  8  9  1  0  0  0
  8 22  1  0  0  0
  9 10  1  0  0  0
  9 27  2  0  0  0
 10 11  2  0  0  0
 10 15  1  0  0  0
 11 12  1  0  0  0
 11 96  1  0  0  0
 12 13  2  0  0  0
 12 97  1  0  0  0
 13 14  1  0  0  0
 13 31  1  0  0  0
 14 15  2  0  0  0
 14 98  1  0  0  0
 15 99  1  0  0  0
 16 17  2  0  0  0
 16 21  1  0  0  0
 16 31  1  0  0  0
 17 18  1  0  0  0
 17100  1  0  0  0
 18 19  2  0  0  0
 18101  1  0  0  0
 19 20  1  0  0  0
 19 24  1  0  0  0
 20 21  2  0  0  0
 20102  1  0  0  0
 21 23  1  0  0  0
 22 28  1  0  0  0
 22 32  2  0  0  0
 26 27  1  0  0  0
 28103  1  0  0  0
 28104  1  0  0  0
 29105  1  0  0  0
 29106  1  0  0  0
 33 34  1  0  0  0
 33 66  1  0  0  0
 33 70  2  0  0  0
 34 36  1  0  0  0
 34 59  1  0  0  0
 34107  1  0  0  0
 35 44  2  0  0  0
 35 45  1  0  0  0
 35 68  1  0  0  0
 36 56  1  0  0  0
 36108  1  0  0  0
 37 39  1  0  0  0
 37 47  1  0  0  0
 37 66  1  0  0  0
 37109  1  0  0  0
 38 43  2  0  0  0
 38 46  1  0  0  0
 38 47  1  0  0  0
 39 64  1  0  0  0
 39 67  2  0  0  0
 40 52  1  0  0  0
 40 53  2  0  0  0
 40 58  1  0  0  0
 41110  1  0  0  0
 41111  1  0  0  0
 41112  1  0  0  0
 41 48  1  0  0  0
 42 43  1  0  0  0
 42 66  1  0  0  0
 42113  1  0  0  0
 42114  1  0  0  0
 43 44  1  0  0  0
 44115  1  0  0  0
 45 46  2  0  0  0
 45116  1  0  0  0
 46117  1  0  0  0
 47118  1  0  0  0
 47119  1  0  0  0
 48 56  1  0  0  0
 48 65  1  0  0  0
 48120  1  0  0  0
 49 50  1  0  0  0
 49 53  1  0  0  0
 49 64  1  0  0  0
 49121  1  0  0  0
 50 51  1  0  0  0
 50122  1  0  0  0
 50123  1  0  0  0
 51 52  1  0  0  0
 51124  1  0  0  0
 51125  1  0  0  0
 52126  1  0  0  0
 52127  1  0  0  0
 53 54  1  0  0  0
 54 55  2  0  0  0
 54128  1  0  0  0
 55 57  1  0  0  0
 55129  1  0  0  0
 56 69  2  0  0  0
 57 58  2  0  0  0
 57130  1  0  0  0
 58131  1  0  0  0
 59 60  1  0  0  0
 59 61  1  0  0  0
 59 62  1  0  0  0
 60132  1  0  0  0
 60133  1  0  0  0
 60134  1  0  0  0
 61135  1  0  0  0
 61136  1  0  0  0
 61137  1  0  0  0
 62138  1  0  0  0
 62139  1  0  0  0
 62140  1  0  0  0
 63 65  1  0  0  0
 63141  1  0  0  0
 63142  1  0  0  0
 63143  1  0  0  0
 64144  1  0  0  0
 65145  1  0  0  0
 68 84  1  0  0  0
 71 73  2  0  0  0
 71 74  1  0  0  0
 71146  1  0  0  0
 72 73  1  0  0  0
 72 76  2  0  0  0
 72147  1  0  0  0
 73 79  1  0  0  0
 74 75  2  0  0  0
 74 80  1  0  0  0
 75 76  1  0  0  0
 75 81  1  0  0  0
 76 86  1  0  0  0
 77 80  1  0  0  0
 77148  1  0  0  0
 77149  1  0  0  0
 77150  1  0  0  0
 78 81  1  0  0  0
 78151  1  0  0  0
 78152  1  0  0  0
 78153  1  0  0  0
 79 82  1  0  0  0
 79154  1  0  0  0
 79155  1  0  0  0
 80156  1  0  0  0
 80157  1  0  0  0
 81158  1  0  0  0
 81159  1  0  0  0
 82160  1  0  0  0
 82161  1  0  0  0
 83 84  1  0  0  0
 83 85  1  0  0  0
 83162  1  0  0  0
 83163  1  0  0  0
 84164  1  0  0  0
 84165  1  0  0  0
 85 86  1  0  0  0
 85166  1  0  0  0
 85167  1  0  0  0
M  ISO  4   1 100  68 101  82 100  84 101
M  END
> <chiral flag>
0

> <version>
0

> <s_m_source_file>
/data/baiqing/PycharmProjects/Reinvent-master-3.2/result/LINK_invent/BTK/process_docking_weight1_custom_product_contain_oxygen_bond_distance_aromatic_linkinvent_7_9_3/rearranged_h_0132.sdf

> <i_m_source_file_index>
17

> <r_mmod_Potential_Energy-OPLS-2005>
71.1269760131836

> <r_mmod_Stretch_Energy-OPLS-2005>
54.9481010437012

> <r_mmod_Bend_Energy-OPLS-2005>
145.468215942383

> <r_mmod_Torsional_Energy-OPLS-2005>
231.907638549805

> <r_mmod_Improper_Torsional_Energy-OPLS-2005>
5.02114105224609

> <r_mmod_Van_der_Waal_Energy-OPLS-2005>
160.149505615234

> <r_mmod_Electrostatic_Energy-OPLS-2005>
-359.868560791016

> <r_mmod_Solvation_Energy-OPLS-2005>
-190.303573608398

> <b_mmod_Minimization_Converged-OPLS-2005>
0

> <r_mmod_RMS_Derivative-OPLS-2005>
3.16082620620728

$$$$
17
                    3D
 Structure written by MMmdl.
164172  0  0  1  0            999 V2000
  -30.6890  -14.5753   20.3946 C   0  0  0  0  0  0
  -30.4160  -12.3210   19.4685 C   0  0  0  0  0  0
  -29.5117  -12.4571   18.2246 C   0  0  0  0  0  0
  -28.0269  -12.3274   18.6282 C   0  0  0  0  0  0
  -27.6436  -13.2214   19.8411 C   0  0  2  0  0  0
  -28.6888  -13.1279   20.9763 C   0  0  0  0  0  0
  -25.2518  -13.8214   20.5691 C   0  0  0  0  0  0
  -24.1789  -13.0464   20.9182 C   0  0  0  0  0  0
  -24.6358  -11.6936   20.8713 C   0  0  0  0  0  0
  -23.9044  -10.4329   21.0420 C   0  0  0  0  0  0
  -24.3616   -9.4230   21.9197 C   0  0  0  0  0  0
  -23.6262   -8.2280   22.0782 C   0  0  0  0  0  0
  -22.4236   -8.0326   21.3553 C   0  0  0  0  0  0
  -21.9876   -9.0314   20.4655 C   0  0  0  0  0  0
  -22.7223  -10.2185   20.3050 C   0  0  0  0  0  0
  -21.6828   -6.0742   22.5279 C   0  0  0  0  0  0
  -21.4040   -6.5638   23.8223 C   0  0  0  0  0  0
  -21.3644   -5.6766   24.9175 C   0  0  0  0  0  0
  -21.6046   -4.3041   24.7210 C   0  0  0  0  0  0
  -21.8808   -3.8146   23.4321 C   0  0  0  0  0  0
  -21.9193   -4.6972   22.3394 C   0  0  0  0  0  0
  -22.7808  -13.5315   21.1770 C   0  0  0  0  0  0
  -22.1633   -4.2171   21.0952 F   0  0  0  0  0  0
  -21.5610   -3.4505   25.7713 F   0  0  0  0  0  0
  -30.0191  -13.3879   20.4072 N   0  0  0  0  0  0
  -26.2923  -12.9388   20.3244 N   0  0  0  0  0  0
  -25.9280  -11.6549   20.5712 N   0  0  0  0  0  0
  -22.0386  -12.8441   22.0344 N   0  0  0  0  0  0
  -25.4195  -15.1939   20.4112 N   0  0  0  0  0  0
  -31.9058  -14.6068   20.1924 O   0  0  0  0  0  0
  -21.6601   -6.8897   21.4239 O   0  0  0  0  0  0
  -22.3550  -14.5577   20.6483 O   0  0  0  0  0  0
  -24.6127  -31.8691   23.2079 C   0  0  0  0  0  0
  -25.8999  -32.4822   23.8383 C   0  0  1  0  0  0
  -27.2233  -27.4257   20.1053 C   0  0  0  0  0  0
  -25.5837  -33.8615   24.2290 N   0  0  0  0  0  0
  -23.4032  -30.4933   21.5482 C   0  0  2  0  0  0
  -24.8521  -28.9653   20.1054 C   0  0  0  0  0  0
  -22.7421  -29.4645   22.4965 C   0  0  0  0  0  0
  -18.0276  -28.1421   22.8487 C   0  0  0  0  0  0
  -24.1462  -36.7360   23.2648 C   0  0  0  0  0  0
  -25.9344  -30.8324   21.3651 C   0  0  0  0  0  0
  -26.0119  -29.4699   20.7075 C   0  0  0  0  0  0
  -27.2052  -28.7076   20.7041 C   0  0  0  0  0  0
  -26.0516  -26.9386   19.4889 C   0  0  0  0  0  0
  -24.8661  -27.7008   19.4938 C   0  0  0  0  0  0
  -23.6110  -29.8314   20.1606 C   0  0  0  0  0  0
  -25.4089  -36.3126   24.0324 C   0  0  1  0  0  0
  -20.5860  -28.3707   23.1317 C   0  0  2  0  0  0
  -20.6743  -26.9445   22.5413 C   0  0  0  0  0  0
  -19.5700  -26.6419   21.5219 C   0  0  0  0  0  0
  -18.1896  -26.7957   22.1632 C   0  0  0  0  0  0
  -19.1525  -28.8869   23.2902 C   0  0  0  0  0  0
  -18.9459  -30.1474   23.8910 C   0  0  0  0  0  0
  -17.6461  -30.6602   24.0604 C   0  0  0  0  0  0
  -25.9020  -34.9482   23.5126 C   0  0  0  0  0  0
  -16.5350  -29.9116   23.6348 C   0  0  0  0  0  0
  -16.7269  -28.6542   23.0352 C   0  0  0  0  0  0
  -26.4440  -31.6615   25.0712 C   0  0  0  0  0  0
  -25.3687  -31.3724   26.1452 C   0  0  0  0  0  0
  -27.0282  -30.3030   24.6170 C   0  0  0  0  0  0
  -27.6041  -32.4345   25.7436 C   0  0  0  0  0  0
  -27.5578  -37.1834   24.8451 C   0  0  0  0  0  0
  -21.4133  -29.3059   22.3710 N   0  0  0  0  0  0
  -26.4279  -37.3798   23.9402 N   0  0  0  0  0  0
  -24.6676  -31.0802   22.0986 N   0  0  0  0  0  0
  -23.4225  -28.8198   23.2995 O   0  0  0  0  0  0
  -28.3362  -26.6155   20.1601 O   0  0  0  0  0  0
  -26.5663  -34.8956   22.4743 O   0  0  0  0  0  0
  -23.5296  -32.1459   23.7418 O   0  0  0  0  0  0
  -29.0327  -18.3661   18.4330 C   0  0  0  0  0  0
  -30.2147  -19.5355   20.2158 C   0  0  0  0  0  0
  -28.9871  -20.8083   18.5409 C   0  0  0  0  0  0
  -29.8569  -18.3104   19.5831 C   0  0  0  0  0  0
  -28.6221  -19.6090   17.8955 C   0  0  0  0  0  0
  -29.7712  -20.7962   19.7141 C   0  0  0  0  0  0
  -30.4690  -17.0044   19.9756 C   0  0  0  0  0  0
  -29.8788  -15.8101   20.2710 C   0  0  0  0  0  0
  -27.8412  -19.6676   16.5937 C   0  0  0  0  0  0
  -30.6718  -25.2247   21.0007 C   0  0  0  0  0  0
  -29.3265  -24.0631   22.7628 C   0  0  0  0  0  0
  -30.1942  -22.1284   20.3759 C   0  0  0  0  0  0
  -29.1177  -23.2685   20.3527 C   0  0  0  0  0  0
  -28.1552  -25.5442   21.1093 C   0  0  0  0  0  0
  -29.3304  -24.5191   21.2825 C   0  0  0  0  0  0
  -31.4700  -12.3756   19.1839 H   0  0  0  0  0  0
  -30.2887  -11.3420   19.9318 H   0  0  0  0  0  0
  -29.7713  -11.6940   17.4881 H   0  0  0  0  0  0
  -29.6811  -13.4195   17.7364 H   0  0  0  0  0  0
  -27.8506  -11.2785   18.8794 H   0  0  0  0  0  0
  -27.3847  -12.5448   17.7729 H   0  0  0  0  0  0
  -27.6365  -14.2398   19.4562 H   0  0  0  0  0  0
  -28.6724  -12.1382   21.4357 H   0  0  0  0  0  0
  -28.4646  -13.8396   21.7750 H   0  0  0  0  0  0
  -25.2772   -9.5698   22.4766 H   0  0  0  0  0  0
  -23.9938   -7.4688   22.7544 H   0  0  0  0  0  0
  -21.0792   -8.8851   19.9001 H   0  0  0  0  0  0
  -22.3690  -10.9716   19.6160 H   0  0  0  0  0  0
  -21.2041   -7.6143   23.9736 H   0  0  0  0  0  0
  -21.1460   -6.0483   25.9068 H   0  0  0  0  0  0
  -22.0592   -2.7614   23.2788 H   0  0  0  0  0  0
  -22.3828  -12.0146   22.4949 H   0  0  0  0  0  0
  -21.1018  -13.1593   22.2382 H   0  0  0  0  0  0
  -24.6551  -15.8474   20.5395 H   0  0  0  0  0  0
  -26.2644  -15.6421   20.0834 H   0  0  0  0  0  0
  -26.7076  -32.5541   23.1158 H   0  0  0  0  0  0
  -24.9766  -33.9731   25.0276 H   0  0  0  0  0  0
  -22.6920  -31.3120   21.4098 H   0  0  0  0  0  0
  -23.3678  -35.9731   23.3293 H   0  0  0  0  0  0
  -24.3562  -36.9001   22.2073 H   0  0  0  0  0  0
  -23.7248  -37.6567   23.6697 H   0  0  0  0  0  0
  -26.0610  -31.5990   20.6004 H   0  0  0  0  0  0
  -26.8176  -30.8743   21.9910 H   0  0  0  0  0  0
  -28.0999  -29.0870   21.1761 H   0  0  0  0  0  0
  -26.0436  -25.9600   19.0333 H   0  0  0  0  0  0
  -23.9724  -27.3083   19.0298 H   0  0  0  0  0  0
  -23.7144  -30.6091   19.4021 H   0  0  0  0  0  0
  -22.7377  -29.2478   19.8686 H   0  0  0  0  0  0
  -25.1246  -36.2002   25.0804 H   0  0  0  0  0  0
  -20.9968  -28.3275   24.1430 H   0  0  0  0  0  0
  -20.5663  -26.2301   23.3598 H   0  0  0  0  0  0
  -21.6623  -26.7479   22.1219 H   0  0  0  0  0  0
  -19.6862  -25.6334   21.1253 H   0  0  0  0  0  0
  -19.6652  -27.3225   20.6763 H   0  0  0  0  0  0
  -17.4174  -26.6725   21.4039 H   0  0  0  0  0  0
  -18.0301  -26.0089   22.9032 H   0  0  0  0  0  0
  -19.7939  -30.7319   24.2253 H   0  0  0  0  0  0
  -17.5023  -31.6280   24.5243 H   0  0  0  0  0  0
  -15.5348  -30.3066   23.7639 H   0  0  0  0  0  0
  -15.8669  -28.0915   22.7042 H   0  0  0  0  0  0
  -24.5816  -30.7131   25.7788 H   0  0  0  0  0  0
  -24.8901  -32.2847   26.5002 H   0  0  0  0  0  0
  -25.7986  -30.8808   27.0170 H   0  0  0  0  0  0
  -26.2833  -29.6756   24.1247 H   0  0  0  0  0  0
  -27.4014  -29.7333   25.4695 H   0  0  0  0  0  0
  -27.8697  -30.4303   23.9349 H   0  0  0  0  0  0
  -27.2690  -33.3640   26.2049 H   0  0  0  0  0  0
  -28.3813  -32.6921   25.0231 H   0  0  0  0  0  0
  -28.0765  -31.8438   26.5286 H   0  0  0  0  0  0
  -28.2602  -38.0137   24.7524 H   0  0  0  0  0  0
  -28.1056  -36.2671   24.6204 H   0  0  0  0  0  0
  -27.2311  -37.1431   25.8859 H   0  0  0  0  0  0
  -20.9293  -29.8844   21.6996 H   0  0  0  0  0  0
  -26.0149  -38.2855   24.1419 H   0  0  0  0  0  0
  -28.7784  -17.4579   17.9062 H   0  0  0  0  0  0
  -30.8716  -19.5138   21.0755 H   0  0  0  0  0  0
  -28.6784  -21.7502   18.1065 H   0  0  0  0  0  0
  -31.5486  -17.0235   19.9239 H   0  0  0  0  0  0
  -28.8061  -15.7753   20.3630 H   0  0  0  0  0  0
  -27.4109  -18.7030   16.3276 H   0  0  0  0  0  0
  -28.4960  -19.9795   15.7787 H   0  0  0  0  0  0
  -27.0214  -20.3826   16.6571 H   0  0  0  0  0  0
  -31.5269  -24.6096   21.2813 H   0  0  0  0  0  0
  -30.7476  -26.1585   21.5633 H   0  0  0  0  0  0
  -30.7712  -25.4791   19.9470 H   0  0  0  0  0  0
  -30.1660  -23.4124   23.0067 H   0  0  0  0  0  0
  -28.4096  -23.5297   23.0151 H   0  0  0  0  0  0
  -29.3969  -24.9177   23.4397 H   0  0  0  0  0  0
  -31.0953  -22.4820   19.8699 H   0  0  0  0  0  0
  -30.5086  -21.9256   21.3972 H   0  0  0  0  0  0
  -28.1564  -22.8241   20.6175 H   0  0  0  0  0  0
  -28.9901  -23.6204   19.3296 H   0  0  0  0  0  0
  -27.9770  -26.0385   22.0672 H   0  0  0  0  0  0
  -27.2369  -24.9901   20.8973 H   0  0  0  0  0  0
  1 25  1  0  0  0
  1 30  2  0  0  0
  1 78  1  0  0  0
  2  3  1  0  0  0
  2 25  1  0  0  0
  2 86  1  0  0  0
  2 87  1  0  0  0
  3  4  1  0  0  0
  3 88  1  0  0  0
  3 89  1  0  0  0
  4  5  1  0  0  0
  4 90  1  0  0  0
  4 91  1  0  0  0
  5  6  1  0  0  0
  5 26  1  0  0  0
  5 92  1  0  0  0
  6 25  1  0  0  0
  6 93  1  0  0  0
  6 94  1  0  0  0
  7  8  2  0  0  0
  7 26  1  0  0  0
  7 29  1  0  0  0
  8  9  1  0  0  0
  8 22  1  0  0  0
  9 10  1  0  0  0
  9 27  2  0  0  0
 10 11  2  0  0  0
 10 15  1  0  0  0
 11 12  1  0  0  0
 11 95  1  0  0  0
 12 13  2  0  0  0
 12 96  1  0  0  0
 13 14  1  0  0  0
 13 31  1  0  0  0
 14 15  2  0  0  0
 14 97  1  0  0  0
 15 98  1  0  0  0
 16 17  2  0  0  0
 16 21  1  0  0  0
 16 31  1  0  0  0
 17 18  1  0  0  0
 17 99  1  0  0  0
 18 19  2  0  0  0
 18100  1  0  0  0
 19 20  1  0  0  0
 19 24  1  0  0  0
 20 21  2  0  0  0
 20101  1  0  0  0
 21 23  1  0  0  0
 22 28  1  0  0  0
 22 32  2  0  0  0
 26 27  1  0  0  0
 28102  1  0  0  0
 28103  1  0  0  0
 29104  1  0  0  0
 29105  1  0  0  0
 33 34  1  0  0  0
 33 66  1  0  0  0
 33 70  2  0  0  0
 34 36  1  0  0  0
 34 59  1  0  0  0
 34106  1  0  0  0
 35 44  2  0  0  0
 35 45  1  0  0  0
 35 68  1  0  0  0
 36 56  1  0  0  0
 36107  1  0  0  0
 37 39  1  0  0  0
 37 47  1  0  0  0
 37 66  1  0  0  0
 37108  1  0  0  0
 38 43  2  0  0  0
 38 46  1  0  0  0
 38 47  1  0  0  0
 39 64  1  0  0  0
 39 67  2  0  0  0
 40 52  1  0  0  0
 40 53  2  0  0  0
 40 58  1  0  0  0
 41109  1  0  0  0
 41110  1  0  0  0
 41111  1  0  0  0
 41 48  1  0  0  0
 42 43  1  0  0  0
 42 66  1  0  0  0
 42112  1  0  0  0
 42113  1  0  0  0
 43 44  1  0  0  0
 44114  1  0  0  0
 45 46  2  0  0  0
 45115  1  0  0  0
 46116  1  0  0  0
 47117  1  0  0  0
 47118  1  0  0  0
 48 56  1  0  0  0
 48 65  1  0  0  0
 48119  1  0  0  0
 49 50  1  0  0  0
 49 53  1  0  0  0
 49 64  1  0  0  0
 49120  1  0  0  0
 50 51  1  0  0  0
 50121  1  0  0  0
 50122  1  0  0  0
 51 52  1  0  0  0
 51123  1  0  0  0
 51124  1  0  0  0
 52125  1  0  0  0
 52126  1  0  0  0
 53 54  1  0  0  0
 54 55  2  0  0  0
 54127  1  0  0  0
 55 57  1  0  0  0
 55128  1  0  0  0
 56 69  2  0  0  0
 57 58  2  0  0  0
 57129  1  0  0  0
 58130  1  0  0  0
 59 60  1  0  0  0
 59 61  1  0  0  0
 59 62  1  0  0  0
 60131  1  0  0  0
 60132  1  0  0  0
 60133  1  0  0  0
 61134  1  0  0  0
 61135  1  0  0  0
 61136  1  0  0  0
 62137  1  0  0  0
 62138  1  0  0  0
 62139  1  0  0  0
 63 65  1  0  0  0
 63140  1  0  0  0
 63141  1  0  0  0
 63142  1  0  0  0
 64143  1  0  0  0
 65144  1  0  0  0
 68 84  1  0  0  0
 71 74  2  0  0  0
 71 75  1  0  0  0
 71145  1  0  0  0
 72 74  1  0  0  0
 72 76  2  0  0  0
 72146  1  0  0  0
 73 75  2  0  0  0
 73 76  1  0  0  0
 73147  1  0  0  0
 74 77  1  0  0  0
 75 79  1  0  0  0
 76 82  1  0  0  0
 77 78  2  0  0  0
 77148  1  0  0  0
 78149  1  0  0  0
 79150  1  0  0  0
 79151  1  0  0  0
 79152  1  0  0  0
 80153  1  0  0  0
 80154  1  0  0  0
 80155  1  0  0  0
 80 85  1  0  0  0
 81 85  1  0  0  0
 81156  1  0  0  0
 81157  1  0  0  0
 81158  1  0  0  0
 82 83  1  0  0  0
 82159  1  0  0  0
 82160  1  0  0  0
 83 85  1  0  0  0
 83161  1  0  0  0
 83162  1  0  0  0
 84 85  1  0  0  0
 84163  1  0  0  0
 84164  1  0  0  0
M  ISO  4   1 100  68 101  78 100  84 101
M  END
> <chiral flag>
0

> <version>
0

> <s_m_source_file>
/data/baiqing/PycharmProjects/Reinvent-master-3.2/result/LINK_invent/BTK/process_docking_weight1_custom_product_contain_oxygen_bond_distance_aromatic_linkinvent_7_9_3/rearranged_h_0132.sdf

> <i_m_source_file_index>
18

> <r_mmod_Potential_Energy-OPLS-2005>
92.94677734375

> <r_mmod_Stretch_Energy-OPLS-2005>
49.9057502746582

> <r_mmod_Bend_Energy-OPLS-2005>
108.976600646973

> <r_mmod_Torsional_Energy-OPLS-2005>
261.141967773438

> <r_mmod_Improper_Torsional_Energy-OPLS-2005>
11.0535802841187

> <r_mmod_Van_der_Waal_Energy-OPLS-2005>
149.698165893555

> <r_mmod_Electrostatic_Energy-OPLS-2005>
-345.298034667969

> <r_mmod_Solvation_Energy-OPLS-2005>
-180.215087890625

> <b_mmod_Minimization_Converged-OPLS-2005>
0

> <r_mmod_RMS_Derivative-OPLS-2005>
6.51006937026978

$$$$
18
                    3D
 Structure written by MMmdl.
158166  0  0  1  0            999 V2000
  -30.6977  -14.5254   20.5309 C   0  0  0  0  0  0
  -30.4223  -12.3242   19.4518 C   0  0  0  0  0  0
  -29.5019  -12.4953   18.2231 C   0  0  0  0  0  0
  -28.0213  -12.3603   18.6272 C   0  0  0  0  0  0
  -27.6583  -13.2120   19.8715 C   0  0  2  0  0  0
  -28.6984  -13.0334   21.0009 C   0  0  0  0  0  0
  -25.2606  -13.8161   20.5692 C   0  0  0  0  0  0
  -24.1838  -13.0440   20.9157 C   0  0  0  0  0  0
  -24.6383  -11.6913   20.8719 C   0  0  0  0  0  0
  -23.9033  -10.4304   21.0372 C   0  0  0  0  0  0
  -24.3600   -9.4237   21.9165 C   0  0  0  0  0  0
  -23.6291   -8.2266   22.0748 C   0  0  0  0  0  0
  -22.4279   -8.0277   21.3537 C   0  0  0  0  0  0
  -21.9892   -9.0233   20.4640 C   0  0  0  0  0  0
  -22.7200  -10.2130   20.3041 C   0  0  0  0  0  0
  -21.6865   -6.0731   22.5264 C   0  0  0  0  0  0
  -21.4000   -6.5621   23.8195 C   0  0  0  0  0  0
  -21.3675   -5.6777   24.9162 C   0  0  0  0  0  0
  -21.6066   -4.3044   24.7223 C   0  0  0  0  0  0
  -21.8824   -3.8135   23.4337 C   0  0  0  0  0  0
  -21.9187   -4.6952   22.3386 C   0  0  0  0  0  0
  -22.7865  -13.5248   21.1813 C   0  0  0  0  0  0
  -22.1665   -4.2126   21.0974 F   0  0  0  0  0  0
  -21.5658   -3.4535   25.7744 F   0  0  0  0  0  0
  -30.0274  -13.3368   20.4507 N   0  0  0  0  0  0
  -26.3016  -12.9327   20.3336 N   0  0  0  0  0  0
  -25.9309  -11.6483   20.5758 N   0  0  0  0  0  0
  -22.0481  -12.8245   22.0360 N   0  0  0  0  0  0
  -25.4333  -15.1881   20.4155 N   0  0  0  0  0  0
  -31.8238  -14.6497   20.0418 O   0  0  0  0  0  0
  -21.6670   -6.8869   21.4227 O   0  0  0  0  0  0
  -22.3572  -14.5541   20.6636 O   0  0  0  0  0  0
  -24.6187  -31.8671   23.2075 C   0  0  0  0  0  0
  -25.9064  -32.4823   23.8386 C   0  0  1  0  0  0
  -27.2395  -27.4109   20.0807 C   0  0  0  0  0  0
  -25.5909  -33.8620   24.2306 N   0  0  0  0  0  0
  -23.4079  -30.4903   21.5488 C   0  0  2  0  0  0
  -24.8532  -28.9531   20.1148 C   0  0  0  0  0  0
  -22.7427  -29.4664   22.4968 C   0  0  0  0  0  0
  -18.0278  -28.1391   22.8502 C   0  0  0  0  0  0
  -24.1500  -36.7333   23.2633 C   0  0  0  0  0  0
  -25.9393  -30.8224   21.3654 C   0  0  0  0  0  0
  -26.0141  -29.4524   20.7150 C   0  0  0  0  0  0
  -27.2031  -28.6834   20.7079 C   0  0  0  0  0  0
  -26.0559  -26.9393   19.4681 C   0  0  0  0  0  0
  -24.8683  -27.6934   19.4955 C   0  0  0  0  0  0
  -23.6185  -29.8248   20.1631 C   0  0  0  0  0  0
  -25.4117  -36.3112   24.0327 C   0  0  1  0  0  0
  -20.5874  -28.3691   23.1304 C   0  0  2  0  0  0
  -20.6784  -26.9422   22.5421 C   0  0  0  0  0  0
  -19.5758  -26.6391   21.5228 C   0  0  0  0  0  0
  -18.1930  -26.7938   22.1627 C   0  0  0  0  0  0
  -19.1533  -28.8848   23.2904 C   0  0  0  0  0  0
  -18.9456  -30.1451   23.8922 C   0  0  0  0  0  0
  -17.6455  -30.6590   24.0568 C   0  0  0  0  0  0
  -25.9042  -34.9476   23.5110 C   0  0  0  0  0  0
  -16.5345  -29.9091   23.6331 C   0  0  0  0  0  0
  -16.7272  -28.6509   23.0356 C   0  0  0  0  0  0
  -26.4462  -31.6614   25.0727 C   0  0  0  0  0  0
  -25.3709  -31.3767   26.1464 C   0  0  0  0  0  0
  -27.0288  -30.3049   24.6135 C   0  0  0  0  0  0
  -27.6034  -32.4338   25.7496 C   0  0  0  0  0  0
  -27.5587  -37.1818   24.8455 C   0  0  0  0  0  0
  -21.4147  -29.3048   22.3706 N   0  0  0  0  0  0
  -26.4301  -37.3795   23.9392 N   0  0  0  0  0  0
  -24.6736  -31.0747   22.0984 N   0  0  0  0  0  0
  -23.4186  -28.8200   23.3020 O   0  0  0  0  0  0
  -28.4055  -26.6599   20.1250 O   0  0  0  0  0  0
  -26.5601  -34.8927   22.4676 O   0  0  0  0  0  0
  -23.5361  -32.1435   23.7440 O   0  0  0  0  0  0
  -29.0658  -19.7011   22.9056 C   0  0  0  0  0  0
  -29.4529  -18.4387   22.4127 C   0  0  0  0  0  0
  -28.7758  -20.7595   22.0229 C   0  0  0  0  0  0
  -29.2849  -19.2960   20.1447 C   0  0  0  0  0  0
  -29.5991  -18.2211   21.0255 C   0  0  0  0  0  0
  -28.8615  -20.5683   20.6282 C   0  0  0  0  0  0
  -30.0770  -16.9020   20.5149 C   0  0  0  0  0  0
  -30.0062  -15.6823   21.1213 C   0  0  0  0  0  0
  -27.5525  -23.8525   17.7797 C   0  0  0  0  0  0
  -28.3802  -21.6744   19.6677 C   0  0  0  0  0  0
  -28.9251  -23.1335   19.8467 C   0  0  0  0  0  0
  -28.6845  -25.6787   19.1033 C   0  0  0  0  0  0
  -28.0309  -24.2521   19.1960 C   0  0  1  0  0  0
  -31.4685  -12.4047   19.1510 H   0  0  0  0  0  0
  -30.3213  -11.3221   19.8687 H   0  0  0  0  0  0
  -29.7461  -11.7548   17.4596 H   0  0  0  0  0  0
  -29.6749  -13.4733   17.7685 H   0  0  0  0  0  0
  -27.8273  -11.3063   18.8295 H   0  0  0  0  0  0
  -27.3776  -12.6262   17.7889 H   0  0  0  0  0  0
  -27.6951  -14.2559   19.5586 H   0  0  0  0  0  0
  -28.6818  -12.0091   21.3733 H   0  0  0  0  0  0
  -28.4483  -13.6596   21.8572 H   0  0  0  0  0  0
  -25.2750   -9.5736   22.4737 H   0  0  0  0  0  0
  -24.0011   -7.4671   22.7456 H   0  0  0  0  0  0
  -21.0830   -8.8729   19.8940 H   0  0  0  0  0  0
  -22.3626  -10.9661   19.6159 H   0  0  0  0  0  0
  -21.1974   -7.6118   23.9679 H   0  0  0  0  0  0
  -21.1508   -6.0516   25.9060 H   0  0  0  0  0  0
  -22.0594   -2.7581   23.2843 H   0  0  0  0  0  0
  -22.4111  -11.9947   22.4799 H   0  0  0  0  0  0
  -21.1095  -13.1263   22.2525 H   0  0  0  0  0  0
  -24.6744  -15.8491   20.5489 H   0  0  0  0  0  0
  -26.3013  -15.6267   20.1340 H   0  0  0  0  0  0
  -26.7142  -32.5521   23.1159 H   0  0  0  0  0  0
  -25.0056  -33.9799   25.0448 H   0  0  0  0  0  0
  -22.6993  -31.3091   21.4080 H   0  0  0  0  0  0
  -23.3744  -35.9683   23.3297 H   0  0  0  0  0  0
  -24.3594  -36.8949   22.2047 H   0  0  0  0  0  0
  -23.7278  -37.6548   23.6652 H   0  0  0  0  0  0
  -26.0517  -31.5865   20.5946 H   0  0  0  0  0  0
  -26.8271  -30.8803   21.9830 H   0  0  0  0  0  0
  -28.0960  -29.0642   21.1836 H   0  0  0  0  0  0
  -26.0184  -25.9823   18.9755 H   0  0  0  0  0  0
  -23.9737  -27.2984   19.0345 H   0  0  0  0  0  0
  -23.7324  -30.6021   19.4063 H   0  0  0  0  0  0
  -22.7412  -29.2497   19.8636 H   0  0  0  0  0  0
  -25.1302  -36.1971   25.0818 H   0  0  0  0  0  0
  -20.9982  -28.3265   24.1417 H   0  0  0  0  0  0
  -20.5717  -26.2296   23.3611 H   0  0  0  0  0  0
  -21.6647  -26.7478   22.1186 H   0  0  0  0  0  0
  -19.6918  -25.6302   21.1256 H   0  0  0  0  0  0
  -19.6694  -27.3208   20.6757 H   0  0  0  0  0  0
  -17.4209  -26.6712   21.4009 H   0  0  0  0  0  0
  -18.0299  -26.0068   22.9004 H   0  0  0  0  0  0
  -19.7928  -30.7267   24.2304 H   0  0  0  0  0  0
  -17.5007  -31.6276   24.5168 H   0  0  0  0  0  0
  -15.5350  -30.3000   23.7638 H   0  0  0  0  0  0
  -15.8672  -28.0833   22.7060 H   0  0  0  0  0  0
  -24.5846  -30.7162   25.7794 H   0  0  0  0  0  0
  -24.8942  -32.2947   26.4907 H   0  0  0  0  0  0
  -25.8017  -30.8915   27.0232 H   0  0  0  0  0  0
  -26.2846  -29.6826   24.1148 H   0  0  0  0  0  0
  -27.3995  -29.7269   25.4613 H   0  0  0  0  0  0
  -27.8706  -30.4347   23.9331 H   0  0  0  0  0  0
  -27.2646  -33.3616   26.2122 H   0  0  0  0  0  0
  -28.3822  -32.6946   25.0318 H   0  0  0  0  0  0
  -28.0736  -31.8443   26.5381 H   0  0  0  0  0  0
  -28.2601  -38.0115   24.7488 H   0  0  0  0  0  0
  -28.1083  -36.2646   24.6291 H   0  0  0  0  0  0
  -27.2299  -37.1481   25.8854 H   0  0  0  0  0  0
  -20.9309  -29.8774   21.6929 H   0  0  0  0  0  0
  -26.0190  -38.2875   24.1373 H   0  0  0  0  0  0
  -28.9842  -19.8537   23.9724 H   0  0  0  0  0  0
  -29.6737  -17.6477   23.1162 H   0  0  0  0  0  0
  -28.4510  -21.7073   22.4287 H   0  0  0  0  0  0
  -29.3467  -19.1375   19.0772 H   0  0  0  0  0  0
  -30.5871  -16.9560   19.5622 H   0  0  0  0  0  0
  -29.4814  -15.5781   22.0572 H   0  0  0  0  0  0
  -26.9581  -22.9413   17.7757 H   0  0  0  0  0  0
  -28.3930  -23.7048   17.0999 H   0  0  0  0  0  0
  -26.9144  -24.6224   17.3448 H   0  0  0  0  0  0
  -27.2943  -21.6964   19.7663 H   0  0  0  0  0  0
  -28.5723  -21.3541   18.6423 H   0  0  0  0  0  0
  -29.9415  -23.1780   19.4513 H   0  0  0  0  0  0
  -29.0102  -23.3733   20.9069 H   0  0  0  0  0  0
  -28.4446  -26.1457   18.1469 H   0  0  0  0  0  0
  -29.7685  -25.5597   19.0695 H   0  0  0  0  0  0
  -27.1400  -24.3247   19.8198 H   0  0  0  0  0  0
  1 25  1  0  0  0
  1 30  2  0  0  0
  1 78  1  0  0  0
  2  3  1  0  0  0
  2 25  1  0  0  0
  2 84  1  0  0  0
  2 85  1  0  0  0
  3  4  1  0  0  0
  3 86  1  0  0  0
  3 87  1  0  0  0
  4  5  1  0  0  0
  4 88  1  0  0  0
  4 89  1  0  0  0
  5  6  1  0  0  0
  5 26  1  0  0  0
  5 90  1  0  0  0
  6 25  1  0  0  0
  6 91  1  0  0  0
  6 92  1  0  0  0
  7  8  2  0  0  0
  7 26  1  0  0  0
  7 29  1  0  0  0
  8  9  1  0  0  0
  8 22  1  0  0  0
  9 10  1  0  0  0
  9 27  2  0  0  0
 10 11  2  0  0  0
 10 15  1  0  0  0
 11 12  1  0  0  0
 11 93  1  0  0  0
 12 13  2  0  0  0
 12 94  1  0  0  0
 13 14  1  0  0  0
 13 31  1  0  0  0
 14 15  2  0  0  0
 14 95  1  0  0  0
 15 96  1  0  0  0
 16 17  2  0  0  0
 16 21  1  0  0  0
 16 31  1  0  0  0
 17 18  1  0  0  0
 17 97  1  0  0  0
 18 19  2  0  0  0
 18 98  1  0  0  0
 19 20  1  0  0  0
 19 24  1  0  0  0
 20 21  2  0  0  0
 20 99  1  0  0  0
 21 23  1  0  0  0
 22 28  1  0  0  0
 22 32  2  0  0  0
 26 27  1  0  0  0
 28100  1  0  0  0
 28101  1  0  0  0
 29102  1  0  0  0
 29103  1  0  0  0
 33 34  1  0  0  0
 33 66  1  0  0  0
 33 70  2  0  0  0
 34 36  1  0  0  0
 34 59  1  0  0  0
 34104  1  0  0  0
 35 44  2  0  0  0
 35 45  1  0  0  0
 35 68  1  0  0  0
 36 56  1  0  0  0
 36105  1  0  0  0
 37 39  1  0  0  0
 37 47  1  0  0  0
 37 66  1  0  0  0
 37106  1  0  0  0
 38 43  2  0  0  0
 38 46  1  0  0  0
 38 47  1  0  0  0
 39 64  1  0  0  0
 39 67  2  0  0  0
 40 52  1  0  0  0
 40 53  2  0  0  0
 40 58  1  0  0  0
 41107  1  0  0  0
 41108  1  0  0  0
 41109  1  0  0  0
 41 48  1  0  0  0
 42 43  1  0  0  0
 42 66  1  0  0  0
 42110  1  0  0  0
 42111  1  0  0  0
 43 44  1  0  0  0
 44112  1  0  0  0
 45 46  2  0  0  0
 45113  1  0  0  0
 46114  1  0  0  0
 47115  1  0  0  0
 47116  1  0  0  0
 48 56  1  0  0  0
 48 65  1  0  0  0
 48117  1  0  0  0
 49 50  1  0  0  0
 49 53  1  0  0  0
 49 64  1  0  0  0
 49118  1  0  0  0
 50 51  1  0  0  0
 50119  1  0  0  0
 50120  1  0  0  0
 51 52  1  0  0  0
 51121  1  0  0  0
 51122  1  0  0  0
 52123  1  0  0  0
 52124  1  0  0  0
 53 54  1  0  0  0
 54 55  2  0  0  0
 54125  1  0  0  0
 55 57  1  0  0  0
 55126  1  0  0  0
 56 69  2  0  0  0
 57 58  2  0  0  0
 57127  1  0  0  0
 58128  1  0  0  0
 59 60  1  0  0  0
 59 61  1  0  0  0
 59 62  1  0  0  0
 60129  1  0  0  0
 60130  1  0  0  0
 60131  1  0  0  0
 61132  1  0  0  0
 61133  1  0  0  0
 61134  1  0  0  0
 62135  1  0  0  0
 62136  1  0  0  0
 62137  1  0  0  0
 63 65  1  0  0  0
 63138  1  0  0  0
 63139  1  0  0  0
 63140  1  0  0  0
 64141  1  0  0  0
 65142  1  0  0  0
 68 82  1  0  0  0
 71 72  2  0  0  0
 71 73  1  0  0  0
 71143  1  0  0  0
 72 75  1  0  0  0
 72144  1  0  0  0
 73 76  2  0  0  0
 73145  1  0  0  0
 74 75  2  0  0  0
 74 76  1  0  0  0
 74146  1  0  0  0
 75 77  1  0  0  0
 76 80  1  0  0  0
 77 78  2  0  0  0
 77147  1  0  0  0
 78148  1  0  0  0
 79149  1  0  0  0
 79150  1  0  0  0
 79151  1  0  0  0
 79 83  1  0  0  0
 80 81  1  0  0  0
 80152  1  0  0  0
 80153  1  0  0  0
 81 83  1  0  0  0
 81154  1  0  0  0
 81155  1  0  0  0
 82 83  1  0  0  0
 82156  1  0  0  0
 82157  1  0  0  0
 83158  1  0  0  0
M  ISO  4   1 100  68 101  78 100  82 101
M  END
> <chiral flag>
0

> <version>
0

> <s_m_source_file>
/data/baiqing/PycharmProjects/Reinvent-master-3.2/result/LINK_invent/BTK/process_docking_weight1_custom_product_contain_oxygen_bond_distance_aromatic_linkinvent_7_9_3/rearranged_h_0132.sdf

> <i_m_source_file_index>
19

> <r_mmod_Potential_Energy-OPLS-2005>
31.2036571502686

> <r_mmod_Stretch_Energy-OPLS-2005>
48.0015411376953

> <r_mmod_Bend_Energy-OPLS-2005>
117.962120056152

> <r_mmod_Torsional_Energy-OPLS-2005>
204.246276855469

> <r_mmod_Improper_Torsional_Energy-OPLS-2005>
3.49095726013184

> <r_mmod_Van_der_Waal_Energy-OPLS-2005>
152.931091308594

> <r_mmod_Electrostatic_Energy-OPLS-2005>
-328.474792480469

> <r_mmod_Solvation_Energy-OPLS-2005>
-186.45246887207

> <b_mmod_Minimization_Converged-OPLS-2005>
0

> <r_mmod_RMS_Derivative-OPLS-2005>
3.23317074775696

$$$$
19
                    3D
 Structure written by MMmdl.
160168  0  0  1  0            999 V2000
  -30.7081  -14.4789   20.6088 C   0  0  0  0  0  0
  -30.4233  -12.3311   19.4159 C   0  0  0  0  0  0
  -29.4922  -12.5196   18.2022 C   0  0  0  0  0  0
  -28.0147  -12.3726   18.6157 C   0  0  0  0  0  0
  -27.6590  -13.2097   19.8737 C   0  0  2  0  0  0
  -28.7009  -12.9935   20.9927 C   0  0  0  0  0  0
  -25.2564  -13.8161   20.5657 C   0  0  0  0  0  0
  -24.1813  -13.0439   20.9142 C   0  0  0  0  0  0
  -24.6371  -11.6906   20.8711 C   0  0  0  0  0  0
  -23.9034  -10.4290   21.0393 C   0  0  0  0  0  0
  -24.3593   -9.4208   21.9168 C   0  0  0  0  0  0
  -23.6266   -8.2247   22.0763 C   0  0  0  0  0  0
  -22.4253   -8.0270   21.3549 C   0  0  0  0  0  0
  -21.9875   -9.0237   20.4652 C   0  0  0  0  0  0
  -22.7203  -10.2116   20.3048 C   0  0  0  0  0  0
  -21.6855   -6.0705   22.5263 C   0  0  0  0  0  0
  -21.4016   -6.5616   23.8189 C   0  0  0  0  0  0
  -21.3663   -5.6780   24.9157 C   0  0  0  0  0  0
  -21.6056   -4.3043   24.7222 C   0  0  0  0  0  0
  -21.8823   -3.8123   23.4346 C   0  0  0  0  0  0
  -21.9189   -4.6932   22.3396 C   0  0  0  0  0  0
  -22.7834  -13.5246   21.1789 C   0  0  0  0  0  0
  -22.1662   -4.2113   21.0979 F   0  0  0  0  0  0
  -21.5635   -3.4539   25.7743 F   0  0  0  0  0  0
  -30.0282  -13.3119   20.4397 N   0  0  0  0  0  0
  -26.3006  -12.9334   20.3355 N   0  0  0  0  0  0
  -25.9301  -11.6491   20.5738 N   0  0  0  0  0  0
  -22.0482  -12.8258   22.0367 N   0  0  0  0  0  0
  -25.4293  -15.1874   20.4094 N   0  0  0  0  0  0
  -31.8177  -14.6780   20.1047 O   0  0  0  0  0  0
  -21.6643   -6.8850   21.4227 O   0  0  0  0  0  0
  -22.3526  -14.5540   20.6616 O   0  0  0  0  0  0
  -24.6191  -31.8660   23.2092 C   0  0  0  0  0  0
  -25.9065  -32.4815   23.8399 C   0  0  1  0  0  0
  -27.2198  -27.3905   20.0979 C   0  0  0  0  0  0
  -25.5913  -33.8618   24.2325 N   0  0  0  0  0  0
  -23.4078  -30.4928   21.5501 C   0  0  2  0  0  0
  -24.8497  -28.9594   20.1097 C   0  0  0  0  0  0
  -22.7437  -29.4652   22.4963 C   0  0  0  0  0  0
  -18.0279  -28.1389   22.8496 C   0  0  0  0  0  0
  -24.1478  -36.7292   23.2642 C   0  0  0  0  0  0
  -25.9421  -30.8187   21.3685 C   0  0  0  0  0  0
  -26.0144  -29.4522   20.7119 C   0  0  0  0  0  0
  -27.2012  -28.6759   20.7010 C   0  0  0  0  0  0
  -26.0329  -26.9315   19.4767 C   0  0  0  0  0  0
  -24.8567  -27.7009   19.4895 C   0  0  0  0  0  0
  -23.6164  -29.8319   20.1625 C   0  0  0  0  0  0
  -25.4108  -36.3108   24.0346 C   0  0  1  0  0  0
  -20.5874  -28.3683   23.1303 C   0  0  2  0  0  0
  -20.6764  -26.9413   22.5420 C   0  0  0  0  0  0
  -19.5734  -26.6392   21.5220 C   0  0  0  0  0  0
  -18.1917  -26.7932   22.1632 C   0  0  0  0  0  0
  -19.1533  -28.8855   23.2895 C   0  0  0  0  0  0
  -18.9457  -30.1453   23.8921 C   0  0  0  0  0  0
  -17.6460  -30.6597   24.0573 C   0  0  0  0  0  0
  -25.9038  -34.9477   23.5132 C   0  0  0  0  0  0
  -16.5351  -29.9105   23.6327 C   0  0  0  0  0  0
  -16.7268  -28.6515   23.0363 C   0  0  0  0  0  0
  -26.4480  -31.6608   25.0741 C   0  0  0  0  0  0
  -25.3733  -31.3737   26.1481 C   0  0  0  0  0  0
  -27.0314  -30.3049   24.6137 C   0  0  0  0  0  0
  -27.6056  -32.4337   25.7505 C   0  0  0  0  0  0
  -27.5575  -37.1806   24.8472 C   0  0  0  0  0  0
  -21.4158  -29.3042   22.3696 N   0  0  0  0  0  0
  -26.4291  -37.3798   23.9420 N   0  0  0  0  0  0
  -24.6748  -31.0745   22.1005 N   0  0  0  0  0  0
  -23.4194  -28.8195   23.3015 O   0  0  0  0  0  0
  -28.3692  -26.6106   20.1425 O   0  0  0  0  0  0
  -26.5598  -34.8937   22.4689 O   0  0  0  0  0  0
  -23.5371  -32.1432   23.7461 O   0  0  0  0  0  0
  -29.1501  -18.2054   20.4996 C   0  0  0  0  0  0
  -28.6602  -19.4910   20.1597 C   0  0  0  0  0  0
  -30.1263  -20.4922   21.8013 C   0  0  0  0  0  0
  -30.1378  -18.0435   21.5004 C   0  0  0  0  0  0
  -30.6215  -19.2100   22.1649 C   0  0  0  0  0  0
  -29.1517  -20.6539   20.7935 C   0  0  0  0  0  0
  -32.3014  -20.3762   23.7879 C   0  0  0  0  0  0
  -31.6543  -19.0728   23.2894 C   0  0  0  0  0  0
  -30.7037  -16.6514   21.8728 C   0  0  0  0  0  0
  -29.4021  -24.3475   20.4871 C   0  0  0  0  0  0
  -28.2377  -25.1844   19.8909 C   0  0  0  0  0  0
  -29.5725  -22.8825   19.9710 C   0  0  0  0  0  0
  -30.0774  -15.4366   21.3175 N   0  0  0  0  0  0
  -28.6393  -21.9048   20.4718 O   0  0  0  0  0  0
  -31.4648  -12.4424   19.1103 H   0  0  0  0  0  0
  -30.3393  -11.3199   19.8168 H   0  0  0  0  0  0
  -29.7401  -11.7964   17.4238 H   0  0  0  0  0  0
  -29.6525  -13.5068   17.7650 H   0  0  0  0  0  0
  -27.8286  -11.3150   18.8083 H   0  0  0  0  0  0
  -27.3643  -12.6480   17.7854 H   0  0  0  0  0  0
  -27.7008  -14.2593   19.5808 H   0  0  0  0  0  0
  -28.6870  -11.9561   21.3291 H   0  0  0  0  0  0
  -28.4529  -13.5855   21.8735 H   0  0  0  0  0  0
  -25.2743   -9.5689   22.4725 H   0  0  0  0  0  0
  -23.9972   -7.4654   22.7501 H   0  0  0  0  0  0
  -21.0794   -8.8743   19.8971 H   0  0  0  0  0  0
  -22.3649  -10.9637   19.6149 H   0  0  0  0  0  0
  -21.2013   -7.6129   23.9674 H   0  0  0  0  0  0
  -21.1487   -6.0521   25.9055 H   0  0  0  0  0  0
  -22.0600   -2.7584   23.2860 H   0  0  0  0  0  0
  -22.4127  -11.9942   22.4776 H   0  0  0  0  0  0
  -21.1102  -13.1286   22.2584 H   0  0  0  0  0  0
  -24.6692  -15.8478   20.5287 H   0  0  0  0  0  0
  -26.2874  -15.6229   20.0958 H   0  0  0  0  0  0
  -26.7128  -32.5506   23.1154 H   0  0  0  0  0  0
  -25.0083  -33.9781   25.0479 H   0  0  0  0  0  0
  -22.6977  -31.3115   21.4148 H   0  0  0  0  0  0
  -23.3752  -35.9609   23.3319 H   0  0  0  0  0  0
  -24.3549  -36.8887   22.2050 H   0  0  0  0  0  0
  -23.7221  -37.6505   23.6630 H   0  0  0  0  0  0
  -26.0647  -31.5826   20.5999 H   0  0  0  0  0  0
  -26.8272  -30.8675   21.9920 H   0  0  0  0  0  0
  -28.0972  -29.0498   21.1770 H   0  0  0  0  0  0
  -25.9857  -25.9743   18.9782 H   0  0  0  0  0  0
  -23.9626  -27.3173   19.0169 H   0  0  0  0  0  0
  -23.7310  -30.6108   19.4076 H   0  0  0  0  0  0
  -22.7373  -29.2588   19.8623 H   0  0  0  0  0  0
  -25.1281  -36.1980   25.0842 H   0  0  0  0  0  0
  -20.9980  -28.3256   24.1418 H   0  0  0  0  0  0
  -20.5669  -26.2298   23.3616 H   0  0  0  0  0  0
  -21.6631  -26.7440   22.1210 H   0  0  0  0  0  0
  -19.6887  -25.6309   21.1239 H   0  0  0  0  0  0
  -19.6671  -27.3212   20.6757 H   0  0  0  0  0  0
  -17.4189  -26.6689   21.4033 H   0  0  0  0  0  0
  -18.0307  -26.0079   22.9034 H   0  0  0  0  0  0
  -19.7939  -30.7257   24.2307 H   0  0  0  0  0  0
  -17.5026  -31.6285   24.5162 H   0  0  0  0  0  0
  -15.5357  -30.3027   23.7640 H   0  0  0  0  0  0
  -15.8659  -28.0843   22.7084 H   0  0  0  0  0  0
  -24.5888  -30.7106   25.7815 H   0  0  0  0  0  0
  -24.8948  -32.2907   26.4930 H   0  0  0  0  0  0
  -25.8072  -30.8898   27.0237 H   0  0  0  0  0  0
  -26.2872  -29.6828   24.1150 H   0  0  0  0  0  0
  -27.4035  -29.7278   25.4609 H   0  0  0  0  0  0
  -27.8728  -30.4375   23.9332 H   0  0  0  0  0  0
  -27.2665  -33.3617   26.2123 H   0  0  0  0  0  0
  -28.3848  -32.6930   25.0325 H   0  0  0  0  0  0
  -28.0743  -31.8440   26.5394 H   0  0  0  0  0  0
  -28.2621  -38.0080   24.7521 H   0  0  0  0  0  0
  -28.1040  -36.2616   24.6295 H   0  0  0  0  0  0
  -27.2284  -37.1475   25.8874 H   0  0  0  0  0  0
  -20.9320  -29.8786   21.6937 H   0  0  0  0  0  0
  -26.0172  -38.2872   24.1429 H   0  0  0  0  0  0
  -28.7585  -17.3405   19.9824 H   0  0  0  0  0  0
  -27.9046  -19.5833   19.3927 H   0  0  0  0  0  0
  -30.4743  -21.3819   22.3034 H   0  0  0  0  0  0
  -31.5726  -21.0420   24.2514 H   0  0  0  0  0  0
  -32.7955  -20.9147   22.9787 H   0  0  0  0  0  0
  -33.0592  -20.1589   24.5410 H   0  0  0  0  0  0
  -32.4547  -18.4099   22.9602 H   0  0  0  0  0  0
  -31.1713  -18.5792   24.1344 H   0  0  0  0  0  0
  -30.6372  -16.5440   22.9555 H   0  0  0  0  0  0
  -31.7707  -16.6575   21.6444 H   0  0  0  0  0  0
  -29.3440  -24.3529   21.5754 H   0  0  0  0  0  0
  -30.3254  -24.8715   20.2390 H   0  0  0  0  0  0
  -28.1803  -25.0251   18.8126 H   0  0  0  0  0  0
  -27.3143  -24.7974   20.3229 H   0  0  0  0  0  0
  -30.5957  -22.5741   20.1905 H   0  0  0  0  0  0
  -29.5004  -22.8799   18.8831 H   0  0  0  0  0  0
  -29.1554  -15.2040   21.6538 H   0  0  0  0  0  0
  1 25  1  0  0  0
  1 30  2  0  0  0
  1 83  1  0  0  0
  2  3  1  0  0  0
  2 25  1  0  0  0
  2 85  1  0  0  0
  2 86  1  0  0  0
  3  4  1  0  0  0
  3 87  1  0  0  0
  3 88  1  0  0  0
  4  5  1  0  0  0
  4 89  1  0  0  0
  4 90  1  0  0  0
  5  6  1  0  0  0
  5 26  1  0  0  0
  5 91  1  0  0  0
  6 25  1  0  0  0
  6 92  1  0  0  0
  6 93  1  0  0  0
  7  8  2  0  0  0
  7 26  1  0  0  0
  7 29  1  0  0  0
  8  9  1  0  0  0
  8 22  1  0  0  0
  9 10  1  0  0  0
  9 27  2  0  0  0
 10 11  2  0  0  0
 10 15  1  0  0  0
 11 12  1  0  0  0
 11 94  1  0  0  0
 12 13  2  0  0  0
 12 95  1  0  0  0
 13 14  1  0  0  0
 13 31  1  0  0  0
 14 15  2  0  0  0
 14 96  1  0  0  0
 15 97  1  0  0  0
 16 17  2  0  0  0
 16 21  1  0  0  0
 16 31  1  0  0  0
 17 18  1  0  0  0
 17 98  1  0  0  0
 18 19  2  0  0  0
 18 99  1  0  0  0
 19 20  1  0  0  0
 19 24  1  0  0  0
 20 21  2  0  0  0
 20100  1  0  0  0
 21 23  1  0  0  0
 22 28  1  0  0  0
 22 32  2  0  0  0
 26 27  1  0  0  0
 28101  1  0  0  0
 28102  1  0  0  0
 29103  1  0  0  0
 29104  1  0  0  0
 33 34  1  0  0  0
 33 66  1  0  0  0
 33 70  2  0  0  0
 34 36  1  0  0  0
 34 59  1  0  0  0
 34105  1  0  0  0
 35 44  2  0  0  0
 35 45  1  0  0  0
 35 68  1  0  0  0
 36 56  1  0  0  0
 36106  1  0  0  0
 37 39  1  0  0  0
 37 47  1  0  0  0
 37 66  1  0  0  0
 37107  1  0  0  0
 38 43  2  0  0  0
 38 46  1  0  0  0
 38 47  1  0  0  0
 39 64  1  0  0  0
 39 67  2  0  0  0
 40 52  1  0  0  0
 40 53  2  0  0  0
 40 58  1  0  0  0
 41108  1  0  0  0
 41109  1  0  0  0
 41110  1  0  0  0
 41 48  1  0  0  0
 42 43  1  0  0  0
 42 66  1  0  0  0
 42111  1  0  0  0
 42112  1  0  0  0
 43 44  1  0  0  0
 44113  1  0  0  0
 45 46  2  0  0  0
 45114  1  0  0  0
 46115  1  0  0  0
 47116  1  0  0  0
 47117  1  0  0  0
 48 56  1  0  0  0
 48 65  1  0  0  0
 48118  1  0  0  0
 49 50  1  0  0  0
 49 53  1  0  0  0
 49 64  1  0  0  0
 49119  1  0  0  0
 50 51  1  0  0  0
 50120  1  0  0  0
 50121  1  0  0  0
 51 52  1  0  0  0
 51122  1  0  0  0
 51123  1  0  0  0
 52124  1  0  0  0
 52125  1  0  0  0
 53 54  1  0  0  0
 54 55  2  0  0  0
 54126  1  0  0  0
 55 57  1  0  0  0
 55127  1  0  0  0
 56 69  2  0  0  0
 57 58  2  0  0  0
 57128  1  0  0  0
 58129  1  0  0  0
 59 60  1  0  0  0
 59 61  1  0  0  0
 59 62  1  0  0  0
 60130  1  0  0  0
 60131  1  0  0  0
 60132  1  0  0  0
 61133  1  0  0  0
 61134  1  0  0  0
 61135  1  0  0  0
 62136  1  0  0  0
 62137  1  0  0  0
 62138  1  0  0  0
 63 65  1  0  0  0
 63139  1  0  0  0
 63140  1  0  0  0
 63141  1  0  0  0
 64142  1  0  0  0
 65143  1  0  0  0
 68 81  1  0  0  0
 71 72  2  0  0  0
 71 74  1  0  0  0
 71144  1  0  0  0
 72 76  1  0  0  0
 72145  1  0  0  0
 73 75  1  0  0  0
 73 76  2  0  0  0
 73146  1  0  0  0
 74 75  2  0  0  0
 74 79  1  0  0  0
 75 78  1  0  0  0
 76 84  1  0  0  0
 77 78  1  0  0  0
 77147  1  0  0  0
 77148  1  0  0  0
 77149  1  0  0  0
 78150  1  0  0  0
 78151  1  0  0  0
 79 83  1  0  0  0
 79152  1  0  0  0
 79153  1  0  0  0
 80 81  1  0  0  0
 80 82  1  0  0  0
 80154  1  0  0  0
 80155  1  0  0  0
 81156  1  0  0  0
 81157  1  0  0  0
 82 84  1  0  0  0
 82158  1  0  0  0
 82159  1  0  0  0
 83160  1  0  0  0
M  ISO  4   1 100  68 101  81 101  83 100
M  END
> <chiral flag>
0

> <version>
0

> <s_m_source_file>
/data/baiqing/PycharmProjects/Reinvent-master-3.2/result/LINK_invent/BTK/process_docking_weight1_custom_product_contain_oxygen_bond_distance_aromatic_linkinvent_7_9_3/rearranged_h_0132.sdf

> <i_m_source_file_index>
20

> <r_mmod_Potential_Energy-OPLS-2005>
-81.6707077026367

> <r_mmod_Stretch_Energy-OPLS-2005>
46.5624732971191

> <r_mmod_Bend_Energy-OPLS-2005>
108.540420532227

> <r_mmod_Torsional_Energy-OPLS-2005>
216.502700805664

> <r_mmod_Improper_Torsional_Energy-OPLS-2005>
2.4065477848053

> <r_mmod_Van_der_Waal_Energy-OPLS-2005>
160.811096191406

> <r_mmod_Electrostatic_Energy-OPLS-2005>
-423.179473876953

> <r_mmod_Solvation_Energy-OPLS-2005>
-210.942535400391

> <b_mmod_Minimization_Converged-OPLS-2005>
0

> <r_mmod_RMS_Derivative-OPLS-2005>
1.7720422744751

$$$$
20
                    3D
 Structure written by MMmdl.
168177  0  0  1  0            999 V2000
  -30.7865  -14.3652   20.5207 C   0  0  0  0  0  0
  -30.3997  -12.2288   19.4144 C   0  0  0  0  0  0
  -29.4927  -12.4736   18.1933 C   0  0  0  0  0  0
  -28.0123  -12.3534   18.6066 C   0  0  0  0  0  0
  -27.6535  -13.2197   19.8433 C   0  0  2  0  0  0
  -28.6971  -13.0380   20.9699 C   0  0  0  0  0  0
  -25.2549  -13.8250   20.5654 C   0  0  0  0  0  0
  -24.1791  -13.0477   20.9159 C   0  0  0  0  0  0
  -24.6363  -11.6945   20.8710 C   0  0  0  0  0  0
  -23.9063  -10.4306   21.0399 C   0  0  0  0  0  0
  -24.3625   -9.4207   21.9166 C   0  0  0  0  0  0
  -23.6286   -8.2250   22.0740 C   0  0  0  0  0  0
  -22.4249   -8.0293   21.3567 C   0  0  0  0  0  0
  -21.9912   -9.0257   20.4649 C   0  0  0  0  0  0
  -22.7241  -10.2128   20.3045 C   0  0  0  0  0  0
  -21.6857   -6.0733   22.5278 C   0  0  0  0  0  0
  -21.3985   -6.5622   23.8217 C   0  0  0  0  0  0
  -21.3646   -5.6778   24.9186 C   0  0  0  0  0  0
  -21.6073   -4.3052   24.7243 C   0  0  0  0  0  0
  -21.8802   -3.8129   23.4366 C   0  0  0  0  0  0
  -21.9172   -4.6952   22.3413 C   0  0  0  0  0  0
  -22.7796  -13.5234   21.1835 C   0  0  0  0  0  0
  -22.1641   -4.2137   21.1001 F   0  0  0  0  0  0
  -21.5640   -3.4513   25.7762 F   0  0  0  0  0  0
  -30.0433  -13.2384   20.4210 N   0  0  0  0  0  0
  -26.2963  -12.9427   20.3185 N   0  0  0  0  0  0
  -25.9284  -11.6578   20.5667 N   0  0  0  0  0  0
  -22.0436  -12.8251   22.0432 N   0  0  0  0  0  0
  -25.4289  -15.1971   20.4084 N   0  0  0  0  0  0
  -31.9796  -14.3823   20.2117 O   0  0  0  0  0  0
  -21.6601   -6.8871   21.4255 O   0  0  0  0  0  0
  -22.3489  -14.5546   20.6704 O   0  0  0  0  0  0
  -24.6258  -31.8577   23.2218 C   0  0  0  0  0  0
  -25.9104  -32.4654   23.8588 C   0  0  1  0  0  0
  -27.1945  -27.4335   20.0684 C   0  0  0  0  0  0
  -25.5872  -33.8470   24.2453 N   0  0  0  0  0  0
  -23.3946  -30.5025   21.5646 C   0  0  2  0  0  0
  -24.8188  -28.9737   20.0955 C   0  0  0  0  0  0
  -22.7384  -29.4627   22.5017 C   0  0  0  0  0  0
  -18.0196  -28.1375   22.8612 C   0  0  0  0  0  0
  -24.1456  -36.7330   23.2675 C   0  0  0  0  0  0
  -25.9253  -30.8415   21.3473 C   0  0  0  0  0  0
  -25.9789  -29.4750   20.6906 C   0  0  0  0  0  0
  -27.1643  -28.7104   20.6645 C   0  0  0  0  0  0
  -26.0100  -26.9324   19.4804 C   0  0  0  0  0  0
  -24.8329  -27.7075   19.4860 C   0  0  0  0  0  0
  -23.5885  -29.8559   20.1671 C   0  0  0  0  0  0
  -25.3994  -36.2929   24.0423 C   0  0  1  0  0  0
  -20.5822  -28.3575   23.1458 C   0  0  2  0  0  0
  -20.6601  -26.9292   22.5532 C   0  0  0  0  0  0
  -19.5552  -26.6396   21.5300 C   0  0  0  0  0  0
  -18.1775  -26.7936   22.1756 C   0  0  0  0  0  0
  -19.1445  -28.8791   23.3053 C   0  0  0  0  0  0
  -18.9358  -30.1427   23.9003 C   0  0  0  0  0  0
  -17.6346  -30.6581   24.0616 C   0  0  0  0  0  0
  -25.8996  -34.9274   23.5211 C   0  0  0  0  0  0
  -16.5245  -29.9113   23.6331 C   0  0  0  0  0  0
  -16.7220  -28.6524   23.0419 C   0  0  0  0  0  0
  -26.4471  -31.6367   25.0881 C   0  0  0  0  0  0
  -25.3879  -31.3551   26.1837 C   0  0  0  0  0  0
  -27.0380  -30.2810   24.6130 C   0  0  0  0  0  0
  -27.5932  -32.4211   25.7621 C   0  0  0  0  0  0
  -27.5447  -37.1756   24.8416 C   0  0  0  0  0  0
  -21.4074  -29.2977   22.3900 N   0  0  0  0  0  0
  -26.4112  -37.3640   23.9456 N   0  0  0  0  0  0
  -24.6706  -31.0834   22.1015 N   0  0  0  0  0  0
  -23.4244  -28.8077   23.2895 O   0  0  0  0  0  0
  -28.3990  -26.7763   20.0486 O   0  0  0  0  0  0
  -26.5599  -34.8652   22.4788 O   0  0  0  0  0  0
  -23.5450  -32.1250   23.7665 O   0  0  0  0  0  0
  -29.6000  -19.6387   18.4836 C   0  0  0  0  0  0
  -29.9673  -20.7023   19.3185 C   0  0  0  0  0  0
  -30.6483  -19.1289   21.0646 C   0  0  0  0  0  0
  -30.3212  -18.0638   20.2148 C   0  0  0  0  0  0
  -29.7734  -18.3134   18.9274 C   0  0  0  0  0  0
  -30.4534  -20.4403   20.6184 C   0  0  0  0  0  0
  -30.0532  -23.7333   21.1694 C   0  0  0  0  0  0
  -29.7467  -22.4907   21.5863 C   0  0  0  0  0  0
  -30.7767  -16.7397   20.5864 C   0  0  0  0  0  0
  -30.0443  -15.6091   20.6035 C   0  0  0  0  0  0
  -31.3968  -24.0506   20.5039 C   0  0  0  0  0  0
  -32.4250  -22.8875   20.5362 C   0  0  0  0  0  0
  -32.1024  -21.8385   21.6180 C   0  0  0  0  0  0
  -29.4326  -17.1808   17.9802 C   0  0  0  0  0  0
  -28.3448  -22.0802   22.0262 C   0  0  0  0  0  0
  -29.0995  -24.8996   21.3223 C   0  0  0  0  0  0
  -28.4488  -25.3507   20.0100 C   0  0  0  0  0  0
  -30.6821  -21.4859   21.5117 N   0  0  0  0  0  0
  -31.4504  -12.2625   19.1148 H   0  0  0  0  0  0
  -30.2393  -11.2280   19.8142 H   0  0  0  0  0  0
  -29.7152  -11.7470   17.4097 H   0  0  0  0  0  0
  -29.6995  -13.4571   17.7675 H   0  0  0  0  0  0
  -27.8231  -11.3057   18.8348 H   0  0  0  0  0  0
  -27.3673  -12.6091   17.7642 H   0  0  0  0  0  0
  -27.6730  -14.2515   19.4995 H   0  0  0  0  0  0
  -28.6237  -12.0318   21.3822 H   0  0  0  0  0  0
  -28.5001  -13.7169   21.8000 H   0  0  0  0  0  0
  -25.2779   -9.5641   22.4723 H   0  0  0  0  0  0
  -23.9967   -7.4628   22.7469 H   0  0  0  0  0  0
  -21.0831   -8.8802   19.8964 H   0  0  0  0  0  0
  -22.3732  -10.9662   19.6135 H   0  0  0  0  0  0
  -21.1954   -7.6115   23.9735 H   0  0  0  0  0  0
  -21.1494   -6.0496   25.9108 H   0  0  0  0  0  0
  -22.0599   -2.7582   23.2880 H   0  0  0  0  0  0
  -22.4011  -11.9916   22.4845 H   0  0  0  0  0  0
  -21.1061  -13.1318   22.2624 H   0  0  0  0  0  0
  -24.6777  -15.8703   20.5196 H   0  0  0  0  0  0
  -26.2962  -15.6245   20.1078 H   0  0  0  0  0  0
  -26.7316  -32.5392   23.1529 H   0  0  0  0  0  0
  -24.9802  -33.9654   25.0421 H   0  0  0  0  0  0
  -22.6808  -31.3274   21.4617 H   0  0  0  0  0  0
  -23.3477  -35.9894   23.3227 H   0  0  0  0  0  0
  -24.3602  -36.9038   22.2096 H   0  0  0  0  0  0
  -23.7431  -37.6621   23.6753 H   0  0  0  0  0  0
  -26.0262  -31.6017   20.5677 H   0  0  0  0  0  0
  -26.8284  -30.9040   21.9438 H   0  0  0  0  0  0
  -28.0674  -29.0909   21.1066 H   0  0  0  0  0  0
  -25.9733  -25.9612   19.0012 H   0  0  0  0  0  0
  -23.9347  -27.3327   19.0124 H   0  0  0  0  0  0
  -23.7016  -30.6500   19.4265 H   0  0  0  0  0  0
  -22.6989  -29.2897   19.8700 H   0  0  0  0  0  0
  -25.1092  -36.1820   25.0923 H   0  0  0  0  0  0
  -20.9990  -28.3093   24.1565 H   0  0  0  0  0  0
  -20.5270  -26.2170   23.3729 H   0  0  0  0  0  0
  -21.6462  -26.7193   22.1348 H   0  0  0  0  0  0
  -19.6567  -25.6332   21.1249 H   0  0  0  0  0  0
  -19.6421  -27.3270   20.6870 H   0  0  0  0  0  0
  -17.4007  -26.6785   21.4210 H   0  0  0  0  0  0
  -18.0052  -26.0113   22.9157 H   0  0  0  0  0  0
  -19.7784  -30.7265   24.2409 H   0  0  0  0  0  0
  -17.4853  -31.6241   24.5183 H   0  0  0  0  0  0
  -15.5237  -30.2999   23.7559 H   0  0  0  0  0  0
  -15.8647  -28.0877   22.7128 H   0  0  0  0  0  0
  -24.5933  -30.6833   25.8568 H   0  0  0  0  0  0
  -24.9122  -32.2721   26.5346 H   0  0  0  0  0  0
  -25.8496  -30.8902   27.0595 H   0  0  0  0  0  0
  -26.2985  -29.6556   24.1131 H   0  0  0  0  0  0
  -27.4189  -29.6863   25.4457 H   0  0  0  0  0  0
  -27.8706  -30.4063   23.9202 H   0  0  0  0  0  0
  -27.2373  -33.3450   26.2202 H   0  0  0  0  0  0
  -28.3732  -32.6945   25.0519 H   0  0  0  0  0  0
  -28.0632  -31.8436   26.5569 H   0  0  0  0  0  0
  -28.2389  -38.0097   24.7289 H   0  0  0  0  0  0
  -28.0967  -36.2566   24.6287 H   0  0  0  0  0  0
  -27.2234  -37.1500   25.8852 H   0  0  0  0  0  0
  -20.9112  -29.9179   21.7708 H   0  0  0  0  0  0
  -25.9886  -38.2700   24.1424 H   0  0  0  0  0  0
  -29.2186  -19.8436   17.4911 H   0  0  0  0  0  0
  -29.8582  -21.7049   18.9345 H   0  0  0  0  0  0
  -31.0444  -18.9492   22.0524 H   0  0  0  0  0  0
  -31.8497  -16.6962   20.7303 H   0  0  0  0  0  0
  -28.9676  -15.6475   20.5585 H   0  0  0  0  0  0
  -31.8102  -24.9563   20.9569 H   0  0  0  0  0  0
  -31.2092  -24.3076   19.4546 H   0  0  0  0  0  0
  -33.4493  -23.2664   20.6195 H   0  0  0  0  0  0
  -32.3829  -22.3645   19.5890 H   0  0  0  0  0  0
  -32.3020  -22.2486   22.6118 H   0  0  0  0  0  0
  -32.7675  -20.9757   21.5111 H   0  0  0  0  0  0
  -29.1774  -17.5542   16.9867 H   0  0  0  0  0  0
  -28.5762  -16.6191   18.3636 H   0  0  0  0  0  0
  -30.2832  -16.5048   17.8700 H   0  0  0  0  0  0
  -27.6194  -22.4870   21.3196 H   0  0  0  0  0  0
  -28.1094  -22.4783   23.0159 H   0  0  0  0  0  0
  -28.2032  -20.9949   22.0660 H   0  0  0  0  0  0
  -29.7237  -25.7092   21.6948 H   0  0  0  0  0  0
  -28.3591  -24.7253   22.1083 H   0  0  0  0  0  0
  -27.5073  -24.8275   19.8642 H   0  0  0  0  0  0
  -29.0769  -25.0948   19.1602 H   0  0  0  0  0  0
  1 25  1  0  0  0
  1 30  2  0  0  0
  1 80  1  0  0  0
  2  3  1  0  0  0
  2 25  1  0  0  0
  2 89  1  0  0  0
  2 90  1  0  0  0
  3  4  1  0  0  0
  3 91  1  0  0  0
  3 92  1  0  0  0
  4  5  1  0  0  0
  4 93  1  0  0  0
  4 94  1  0  0  0
  5  6  1  0  0  0
  5 26  1  0  0  0
  5 95  1  0  0  0
  6 25  1  0  0  0
  6 96  1  0  0  0
  6 97  1  0  0  0
  7  8  2  0  0  0
  7 26  1  0  0  0
  7 29  1  0  0  0
  8  9  1  0  0  0
  8 22  1  0  0  0
  9 10  1  0  0  0
  9 27  2  0  0  0
 10 11  2  0  0  0
 10 15  1  0  0  0
 11 12  1  0  0  0
 11 98  1  0  0  0
 12 13  2  0  0  0
 12 99  1  0  0  0
 13 14  1  0  0  0
 13 31  1  0  0  0
 14 15  2  0  0  0
 14100  1  0  0  0
 15101  1  0  0  0
 16 17  2  0  0  0
 16 21  1  0  0  0
 16 31  1  0  0  0
 17 18  1  0  0  0
 17102  1  0  0  0
 18 19  2  0  0  0
 18103  1  0  0  0
 19 20  1  0  0  0
 19 24  1  0  0  0
 20 21  2  0  0  0
 20104  1  0  0  0
 21 23  1  0  0  0
 22 28  1  0  0  0
 22 32  2  0  0  0
 26 27  1  0  0  0
 28105  1  0  0  0
 28106  1  0  0  0
 29107  1  0  0  0
 29108  1  0  0  0
 33 34  1  0  0  0
 33 66  1  0  0  0
 33 70  2  0  0  0
 34 36  1  0  0  0
 34 59  1  0  0  0
 34109  1  0  0  0
 35 44  2  0  0  0
 35 45  1  0  0  0
 35 68  1  0  0  0
 36 56  1  0  0  0
 36110  1  0  0  0
 37 39  1  0  0  0
 37 47  1  0  0  0
 37 66  1  0  0  0
 37111  1  0  0  0
 38 43  2  0  0  0
 38 46  1  0  0  0
 38 47  1  0  0  0
 39 64  1  0  0  0
 39 67  2  0  0  0
 40 52  1  0  0  0
 40 53  2  0  0  0
 40 58  1  0  0  0
 41112  1  0  0  0
 41113  1  0  0  0
 41114  1  0  0  0
 41 48  1  0  0  0
 42 43  1  0  0  0
 42 66  1  0  0  0
 42115  1  0  0  0
 42116  1  0  0  0
 43 44  1  0  0  0
 44117  1  0  0  0
 45 46  2  0  0  0
 45118  1  0  0  0
 46119  1  0  0  0
 47120  1  0  0  0
 47121  1  0  0  0
 48 56  1  0  0  0
 48 65  1  0  0  0
 48122  1  0  0  0
 49 50  1  0  0  0
 49 53  1  0  0  0
 49 64  1  0  0  0
 49123  1  0  0  0
 50 51  1  0  0  0
 50124  1  0  0  0
 50125  1  0  0  0
 51 52  1  0  0  0
 51126  1  0  0  0
 51127  1  0  0  0
 52128  1  0  0  0
 52129  1  0  0  0
 53 54  1  0  0  0
 54 55  2  0  0  0
 54130  1  0  0  0
 55 57  1  0  0  0
 55131  1  0  0  0
 56 69  2  0  0  0
 57 58  2  0  0  0
 57132  1  0  0  0
 58133  1  0  0  0
 59 60  1  0  0  0
 59 61  1  0  0  0
 59 62  1  0  0  0
 60134  1  0  0  0
 60135  1  0  0  0
 60136  1  0  0  0
 61137  1  0  0  0
 61138  1  0  0  0
 61139  1  0  0  0
 62140  1  0  0  0
 62141  1  0  0  0
 62142  1  0  0  0
 63 65  1  0  0  0
 63143  1  0  0  0
 63144  1  0  0  0
 63145  1  0  0  0
 64146  1  0  0  0
 65147  1  0  0  0
 68 87  1  0  0  0
 71 72  2  0  0  0
 71 75  1  0  0  0
 71148  1  0  0  0
 72 76  1  0  0  0
 72149  1  0  0  0
 73 74  1  0  0  0
 73 76  2  0  0  0
 73150  1  0  0  0
 74 75  2  0  0  0
 74 79  1  0  0  0
 75 84  1  0  0  0
 76 88  1  0  0  0
 77 78  2  0  0  0
 77 81  1  0  0  0
 77 86  1  0  0  0
 78 85  1  0  0  0
 78 88  1  0  0  0
 79 80  2  0  0  0
 79151  1  0  0  0
 80152  1  0  0  0
 81 82  1  0  0  0
 81153  1  0  0  0
 81154  1  0  0  0
 82 83  1  0  0  0
 82155  1  0  0  0
 82156  1  0  0  0
 83 88  1  0  0  0
 83157  1  0  0  0
 83158  1  0  0  0
 84159  1  0  0  0
 84160  1  0  0  0
 84161  1  0  0  0
 85162  1  0  0  0
 85163  1  0  0  0
 85164  1  0  0  0
 86 87  1  0  0  0
 86165  1  0  0  0
 86166  1  0  0  0
 87167  1  0  0  0
 87168  1  0  0  0
M  ISO  4   1 100  68 101  80 100  87 101
M  END
> <chiral flag>
0

> <version>
0

> <s_m_source_file>
/data/baiqing/PycharmProjects/Reinvent-master-3.2/result/LINK_invent/BTK/process_docking_weight1_custom_product_contain_oxygen_bond_distance_aromatic_linkinvent_7_9_3/rearranged_h_0132.sdf

> <i_m_source_file_index>
21

> <r_mmod_Potential_Energy-OPLS-2005>
105.215026855469

> <r_mmod_Stretch_Energy-OPLS-2005>
34.4091987609863

> <r_mmod_Bend_Energy-OPLS-2005>
117.069976806641

> <r_mmod_Torsional_Energy-OPLS-2005>
294.936950683594

> <r_mmod_Improper_Torsional_Energy-OPLS-2005>
19.7116050720215

> <r_mmod_Van_der_Waal_Energy-OPLS-2005>
179.766418457031

> <r_mmod_Electrostatic_Energy-OPLS-2005>
-382.222137451172

> <r_mmod_Solvation_Energy-OPLS-2005>
-187.932540893555

> <b_mmod_Minimization_Converged-OPLS-2005>
0

> <r_mmod_RMS_Derivative-OPLS-2005>
13.0780038833618

$$$$
21
                    3D
 Structure written by MMmdl.
173183  0  0  1  0            999 V2000
  -30.7829  -14.3590   20.7152 C   0  0  0  0  0  0
  -30.4128  -12.2970   19.4025 C   0  0  0  0  0  0
  -29.4843  -12.5256   18.1969 C   0  0  0  0  0  0
  -28.0103  -12.3704   18.6113 C   0  0  0  0  0  0
  -27.6657  -13.1991   19.8757 C   0  0  2  0  0  0
  -28.7028  -12.9554   20.9964 C   0  0  0  0  0  0
  -25.2582  -13.8129   20.5628 C   0  0  0  0  0  0
  -24.1841  -13.0409   20.9153 C   0  0  0  0  0  0
  -24.6403  -11.6887   20.8720 C   0  0  0  0  0  0
  -23.9071  -10.4283   21.0404 C   0  0  0  0  0  0
  -24.3632   -9.4200   21.9180 C   0  0  0  0  0  0
  -23.6310   -8.2231   22.0751 C   0  0  0  0  0  0
  -22.4285   -8.0277   21.3544 C   0  0  0  0  0  0
  -21.9917   -9.0246   20.4640 C   0  0  0  0  0  0
  -22.7245  -10.2126   20.3052 C   0  0  0  0  0  0
  -21.6843   -6.0743   22.5284 C   0  0  0  0  0  0
  -21.4013   -6.5649   23.8219 C   0  0  0  0  0  0
  -21.3658   -5.6800   24.9177 C   0  0  0  0  0  0
  -21.6041   -4.3063   24.7223 C   0  0  0  0  0  0
  -21.8820   -3.8156   23.4343 C   0  0  0  0  0  0
  -21.9197   -4.6974   22.3402 C   0  0  0  0  0  0
  -22.7871  -13.5212   21.1846 C   0  0  0  0  0  0
  -22.1664   -4.2159   21.0979 F   0  0  0  0  0  0
  -21.5632   -3.4546   25.7735 F   0  0  0  0  0  0
  -30.0446  -13.2455   20.4649 N   0  0  0  0  0  0
  -26.3042  -12.9302   20.3347 N   0  0  0  0  0  0
  -25.9328  -11.6465   20.5751 N   0  0  0  0  0  0
  -22.0541  -12.8183   22.0414 N   0  0  0  0  0  0
  -25.4221  -15.1837   20.3984 N   0  0  0  0  0  0
  -31.7698  -14.6540   20.0327 O   0  0  0  0  0  0
  -21.6634   -6.8885   21.4246 O   0  0  0  0  0  0
  -22.3539  -14.5523   20.6723 O   0  0  0  0  0  0
  -24.6103  -31.8689   23.2142 C   0  0  0  0  0  0
  -25.9007  -32.4829   23.8425 C   0  0  1  0  0  0
  -27.2387  -27.4668   20.0612 C   0  0  0  0  0  0
  -25.5867  -33.8626   24.2359 N   0  0  0  0  0  0
  -23.3959  -30.4935   21.5548 C   0  0  2  0  0  0
  -24.8399  -28.9631   20.1175 C   0  0  0  0  0  0
  -22.7361  -29.4679   22.5028 C   0  0  0  0  0  0
  -18.0261  -28.1351   22.8506 C   0  0  0  0  0  0
  -24.1482  -36.7316   23.2640 C   0  0  0  0  0  0
  -25.9225  -30.8400   21.3646 C   0  0  0  0  0  0
  -25.9974  -29.4749   20.7151 C   0  0  0  0  0  0
  -27.1929  -28.7265   20.6980 C   0  0  0  0  0  0
  -26.0564  -26.9611   19.4703 C   0  0  0  0  0  0
  -24.8612  -27.7014   19.4995 C   0  0  0  0  0  0
  -23.6017  -29.8265   20.1688 C   0  0  0  0  0  0
  -25.4100  -36.3115   24.0345 C   0  0  1  0  0  0
  -20.5839  -28.3658   23.1369 C   0  0  2  0  0  0
  -20.6761  -26.9394   22.5481 C   0  0  0  0  0  0
  -19.5764  -26.6347   21.5267 C   0  0  0  0  0  0
  -18.1918  -26.7910   22.1628 C   0  0  0  0  0  0
  -19.1503  -28.8815   23.2923 C   0  0  0  0  0  0
  -18.9425  -30.1419   23.8926 C   0  0  0  0  0  0
  -17.6422  -30.6569   24.0540 C   0  0  0  0  0  0
  -25.9011  -34.9478   23.5147 C   0  0  0  0  0  0
  -16.5317  -29.9061   23.6309 C   0  0  0  0  0  0
  -16.7243  -28.6479   23.0350 C   0  0  0  0  0  0
  -26.4456  -31.6591   25.0729 C   0  0  0  0  0  0
  -25.3741  -31.3672   26.1486 C   0  0  0  0  0  0
  -27.0286  -30.3051   24.6064 C   0  0  0  0  0  0
  -27.6042  -32.4304   25.7474 C   0  0  0  0  0  0
  -27.5578  -37.1817   24.8467 C   0  0  0  0  0  0
  -21.4088  -29.3057   22.3787 N   0  0  0  0  0  0
  -26.4294  -37.3796   23.9403 N   0  0  0  0  0  0
  -24.6610  -31.0814   22.1033 N   0  0  0  0  0  0
  -23.4148  -28.8195   23.3041 O   0  0  0  0  0  0
  -28.4448  -26.7976   20.0417 O   0  0  0  0  0  0
  -26.5590  -34.8922   22.4718 O   0  0  0  0  0  0
  -23.5302  -32.1442   23.7548 O   0  0  0  0  0  0
  -27.7190  -24.2825   21.1918 C   0  0  0  0  0  0
  -27.6109  -23.3032   18.9114 C   0  0  0  0  0  0
  -27.3833  -17.3836   23.4128 C   0  0  0  0  0  0
  -26.3179  -19.5510   23.6981 C   0  0  0  0  0  0
  -27.3629  -19.0065   21.5947 C   0  0  0  0  0  0
  -27.1296  -23.0868   21.6003 C   0  0  0  0  0  0
  -27.9509  -24.3768   19.7939 C   0  0  0  0  0  0
  -26.6885  -18.2975   24.2215 C   0  0  0  0  0  0
  -27.7177  -17.7332   22.0918 C   0  0  0  0  0  0
  -27.0212  -22.0872   19.3648 C   0  0  0  0  0  0
  -26.6575  -19.9485   22.3832 C   0  0  0  0  0  0
  -26.7821  -21.9836   20.7455 C   0  0  0  0  0  0
  -26.6697  -22.3737   22.8206 C   0  0  0  0  0  0
  -26.3453  -17.9384   25.6519 C   0  0  0  0  0  0
  -25.1406  -20.7068   18.3629 C   0  0  0  0  0  0
  -28.4630  -16.7334   21.2245 C   0  0  0  0  0  0
  -26.6484  -20.9811   18.3916 C   0  0  0  0  0  0
  -28.5954  -25.6347   19.2235 C   0  0  0  0  0  0
  -30.4878  -15.2656   21.9235 C   0  0  0  0  0  0
  -29.9685  -16.6719   21.5455 C   0  0  0  0  0  0
  -26.2948  -21.2374   21.9139 N   0  0  0  0  0  0
  -31.4579  -12.3886   19.1013 H   0  0  0  0  0  0
  -30.3092  -11.2771   19.7757 H   0  0  0  0  0  0
  -29.7222  -11.8224   17.3986 H   0  0  0  0  0  0
  -29.6502  -13.5260   17.7925 H   0  0  0  0  0  0
  -27.8263  -11.3115   18.7997 H   0  0  0  0  0  0
  -27.3546  -12.6503   17.7859 H   0  0  0  0  0  0
  -27.7194  -14.2483   19.5855 H   0  0  0  0  0  0
  -28.6676  -11.9169   21.3280 H   0  0  0  0  0  0
  -28.4374  -13.5404   21.8708 H   0  0  0  0  0  0
  -25.2783   -9.5668   22.4752 H   0  0  0  0  0  0
  -24.0015   -7.4615   22.7465 H   0  0  0  0  0  0
  -21.0847   -8.8769   19.8946 H   0  0  0  0  0  0
  -22.3707  -10.9673   19.6164 H   0  0  0  0  0  0
  -21.1998   -7.6157   23.9723 H   0  0  0  0  0  0
  -21.1481   -6.0530   25.9081 H   0  0  0  0  0  0
  -22.0599   -2.7617   23.2838 H   0  0  0  0  0  0
  -22.4186  -11.9830   22.4755 H   0  0  0  0  0  0
  -21.1167  -13.1190   22.2676 H   0  0  0  0  0  0
  -24.6553  -15.8340   20.5289 H   0  0  0  0  0  0
  -26.2731  -15.6329   20.0891 H   0  0  0  0  0  0
  -26.7075  -32.5553   23.1191 H   0  0  0  0  0  0
  -24.9999  -33.9794   25.0492 H   0  0  0  0  0  0
  -22.6840  -31.3098   21.4175 H   0  0  0  0  0  0
  -23.3732  -35.9660   23.3317 H   0  0  0  0  0  0
  -24.3580  -36.8915   22.2051 H   0  0  0  0  0  0
  -23.7247  -37.6533   23.6643 H   0  0  0  0  0  0
  -26.0269  -31.6056   20.5935 H   0  0  0  0  0  0
  -26.8141  -30.8966   21.9784 H   0  0  0  0  0  0
  -28.0888  -29.1204   21.1576 H   0  0  0  0  0  0
  -26.0341  -26.0012   18.9770 H   0  0  0  0  0  0
  -23.9710  -27.3017   19.0335 H   0  0  0  0  0  0
  -23.7052  -30.6014   19.4082 H   0  0  0  0  0  0
  -22.7290  -29.2417   19.8745 H   0  0  0  0  0  0
  -25.1278  -36.1989   25.0843 H   0  0  0  0  0  0
  -20.9937  -28.3242   24.1495 H   0  0  0  0  0  0
  -20.5673  -26.2265   23.3673 H   0  0  0  0  0  0
  -21.6639  -26.7452   22.1296 H   0  0  0  0  0  0
  -19.6933  -25.6243   21.1337 H   0  0  0  0  0  0
  -19.6721  -27.3124   20.6775 H   0  0  0  0  0  0
  -17.4234  -26.6697   21.3974 H   0  0  0  0  0  0
  -18.0235  -26.0040   22.8989 H   0  0  0  0  0  0
  -19.7910  -30.7227   24.2289 H   0  0  0  0  0  0
  -17.4977  -31.6271   24.5091 H   0  0  0  0  0  0
  -15.5312  -30.2956   23.7586 H   0  0  0  0  0  0
  -15.8650  -28.0780   22.7068 H   0  0  0  0  0  0
  -24.5911  -30.7017   25.7835 H   0  0  0  0  0  0
  -24.8921  -32.2812   26.4966 H   0  0  0  0  0  0
  -25.8104  -30.8831   27.0230 H   0  0  0  0  0  0
  -26.2828  -29.6822   24.1110 H   0  0  0  0  0  0
  -27.4078  -29.7267   25.4496 H   0  0  0  0  0  0
  -27.8646  -30.4401   23.9198 H   0  0  0  0  0  0
  -27.2675  -33.3593   26.2092 H   0  0  0  0  0  0
  -28.3819  -32.6882   25.0270 H   0  0  0  0  0  0
  -28.0743  -31.8398   26.5352 H   0  0  0  0  0  0
  -28.2612  -38.0101   24.7504 H   0  0  0  0  0  0
  -28.1058  -36.2630   24.6303 H   0  0  0  0  0  0
  -27.2293  -37.1488   25.8874 H   0  0  0  0  0  0
  -20.9230  -29.8819   21.7056 H   0  0  0  0  0  0
  -26.0179  -38.2873   24.1411 H   0  0  0  0  0  0
  -27.9758  -25.0712   21.8844 H   0  0  0  0  0  0
  -27.8079  -23.4209   17.8545 H   0  0  0  0  0  0
  -27.6649  -16.4168   23.8089 H   0  0  0  0  0  0
  -25.7647  -20.2319   24.3306 H   0  0  0  0  0  0
  -27.6463  -19.2612   20.5862 H   0  0  0  0  0  0
  -25.8183  -22.8475   23.3102 H   0  0  0  0  0  0
  -27.4930  -22.1632   23.5059 H   0  0  0  0  0  0
  -26.4250  -18.8087   26.3036 H   0  0  0  0  0  0
  -27.0237  -17.1736   26.0321 H   0  0  0  0  0  0
  -25.3278  -17.5553   25.7186 H   0  0  0  0  0  0
  -24.7790  -20.3716   19.3359 H   0  0  0  0  0  0
  -24.8981  -19.9293   17.6387 H   0  0  0  0  0  0
  -24.5829  -21.6025   18.0886 H   0  0  0  0  0  0
  -28.3085  -16.9642   20.1686 H   0  0  0  0  0  0
  -28.0013  -15.7621   21.3894 H   0  0  0  0  0  0
  -27.1863  -20.0712   18.6521 H   0  0  0  0  0  0
  -26.9895  -21.2503   17.3905 H   0  0  0  0  0  0
  -28.2411  -25.8330   18.2105 H   0  0  0  0  0  0
  -29.6641  -25.4398   19.1299 H   0  0  0  0  0  0
  -31.4505  -15.4004   22.4184 H   0  0  0  0  0  0
  -29.8703  -14.7989   22.6874 H   0  0  0  0  0  0
  -30.1984  -17.3531   22.3656 H   0  0  0  0  0  0
  -30.5316  -17.0652   20.6977 H   0  0  0  0  0  0
  1 25  1  0  0  0
  1 30  2  0  0  0
  1 89  1  0  0  0
  2  3  1  0  0  0
  2 25  1  0  0  0
  2 92  1  0  0  0
  2 93  1  0  0  0
  3  4  1  0  0  0
  3 94  1  0  0  0
  3 95  1  0  0  0
  4  5  1  0  0  0
  4 96  1  0  0  0
  4 97  1  0  0  0
  5  6  1  0  0  0
  5 26  1  0  0  0
  5 98  1  0  0  0
  6 25  1  0  0  0
  6 99  1  0  0  0
  6100  1  0  0  0
  7  8  2  0  0  0
  7 26  1  0  0  0
  7 29  1  0  0  0
  8  9  1  0  0  0
  8 22  1  0  0  0
  9 10  1  0  0  0
  9 27  2  0  0  0
 10 11  2  0  0  0
 10 15  1  0  0  0
 11 12  1  0  0  0
 11101  1  0  0  0
 12 13  2  0  0  0
 12102  1  0  0  0
 13 14  1  0  0  0
 13 31  1  0  0  0
 14 15  2  0  0  0
 14103  1  0  0  0
 15104  1  0  0  0
 16 17  2  0  0  0
 16 21  1  0  0  0
 16 31  1  0  0  0
 17 18  1  0  0  0
 17105  1  0  0  0
 18 19  2  0  0  0
 18106  1  0  0  0
 19 20  1  0  0  0
 19 24  1  0  0  0
 20 21  2  0  0  0
 20107  1  0  0  0
 21 23  1  0  0  0
 22 28  1  0  0  0
 22 32  2  0  0  0
 26 27  1  0  0  0
 28108  1  0  0  0
 28109  1  0  0  0
 29110  1  0  0  0
 29111  1  0  0  0
 33 34  1  0  0  0
 33 66  1  0  0  0
 33 70  2  0  0  0
 34 36  1  0  0  0
 34 59  1  0  0  0
 34112  1  0  0  0
 35 44  2  0  0  0
 35 45  1  0  0  0
 35 68  1  0  0  0
 36 56  1  0  0  0
 36113  1  0  0  0
 37 39  1  0  0  0
 37 47  1  0  0  0
 37 66  1  0  0  0
 37114  1  0  0  0
 38 43  2  0  0  0
 38 46  1  0  0  0
 38 47  1  0  0  0
 39 64  1  0  0  0
 39 67  2  0  0  0
 40 52  1  0  0  0
 40 53  2  0  0  0
 40 58  1  0  0  0
 41115  1  0  0  0
 41116  1  0  0  0
 41117  1  0  0  0
 41 48  1  0  0  0
 42 43  1  0  0  0
 42 66  1  0  0  0
 42118  1  0  0  0
 42119  1  0  0  0
 43 44  1  0  0  0
 44120  1  0  0  0
 45 46  2  0  0  0
 45121  1  0  0  0
 46122  1  0  0  0
 47123  1  0  0  0
 47124  1  0  0  0
 48 56  1  0  0  0
 48 65  1  0  0  0
 48125  1  0  0  0
 49 50  1  0  0  0
 49 53  1  0  0  0
 49 64  1  0  0  0
 49126  1  0  0  0
 50 51  1  0  0  0
 50127  1  0  0  0
 50128  1  0  0  0
 51 52  1  0  0  0
 51129  1  0  0  0
 51130  1  0  0  0
 52131  1  0  0  0
 52132  1  0  0  0
 53 54  1  0  0  0
 54 55  2  0  0  0
 54133  1  0  0  0
 55 57  1  0  0  0
 55134  1  0  0  0
 56 69  2  0  0  0
 57 58  2  0  0  0
 57135  1  0  0  0
 58136  1  0  0  0
 59 60  1  0  0  0
 59 61  1  0  0  0
 59 62  1  0  0  0
 60137  1  0  0  0
 60138  1  0  0  0
 60139  1  0  0  0
 61140  1  0  0  0
 61141  1  0  0  0
 61142  1  0  0  0
 62143  1  0  0  0
 62144  1  0  0  0
 62145  1  0  0  0
 63 65  1  0  0  0
 63146  1  0  0  0
 63147  1  0  0  0
 63148  1  0  0  0
 64149  1  0  0  0
 65150  1  0  0  0
 68 88  1  0  0  0
 71 76  2  0  0  0
 71 77  1  0  0  0
 71151  1  0  0  0
 72 77  2  0  0  0
 72 80  1  0  0  0
 72152  1  0  0  0
 73 78  2  0  0  0
 73 79  1  0  0  0
 73153  1  0  0  0
 74 78  1  0  0  0
 74 81  2  0  0  0
 74154  1  0  0  0
 75 79  2  0  0  0
 75 81  1  0  0  0
 75155  1  0  0  0
 76 82  1  0  0  0
 76 83  1  0  0  0
 77 88  1  0  0  0
 78 84  1  0  0  0
 79 86  1  0  0  0
 80 82  2  0  0  0
 80 87  1  0  0  0
 81 91  1  0  0  0
 82 91  1  0  0  0
 83 91  1  0  0  0
 83156  1  0  0  0
 83157  1  0  0  0
 84158  1  0  0  0
 84159  1  0  0  0
 84160  1  0  0  0
 85 87  1  0  0  0
 85161  1  0  0  0
 85162  1  0  0  0
 85163  1  0  0  0
 86 90  1  0  0  0
 86164  1  0  0  0
 86165  1  0  0  0
 87166  1  0  0  0
 87167  1  0  0  0
 88168  1  0  0  0
 88169  1  0  0  0
 89 90  1  0  0  0
 89170  1  0  0  0
 89171  1  0  0  0
 90172  1  0  0  0
 90173  1  0  0  0
M  ISO  4   1 100  68 101  88 101  89 100
M  END
> <chiral flag>
0

> <version>
0

> <s_m_source_file>
/data/baiqing/PycharmProjects/Reinvent-master-3.2/result/LINK_invent/BTK/process_docking_weight1_custom_product_contain_oxygen_bond_distance_aromatic_linkinvent_7_9_3/rearranged_h_0132.sdf

> <i_m_source_file_index>
22

> <r_mmod_Potential_Energy-OPLS-2005>
365.874725341797

> <r_mmod_Stretch_Energy-OPLS-2005>
47.8504219055176

> <r_mmod_Bend_Energy-OPLS-2005>
454.628356933594

> <r_mmod_Torsional_Energy-OPLS-2005>
217.380401611328

> <r_mmod_Improper_Torsional_Energy-OPLS-2005>
8.9823579788208

> <r_mmod_Van_der_Waal_Energy-OPLS-2005>
155.464065551758

> <r_mmod_Electrostatic_Energy-OPLS-2005>
-338.005920410156

> <r_mmod_Solvation_Energy-OPLS-2005>
-188.557983398438

> <b_mmod_Minimization_Converged-OPLS-2005>
0

> <r_mmod_RMS_Derivative-OPLS-2005>
2.41934108734131

$$$$
22
                    3D
 Structure written by MMmdl.
170178  0  0  1  0            999 V2000
  -30.7646  -14.3832   20.6879 C   0  0  0  0  0  0
  -30.4146  -12.2991   19.4041 C   0  0  0  0  0  0
  -29.4826  -12.5188   18.1993 C   0  0  0  0  0  0
  -28.0118  -12.3606   18.6223 C   0  0  0  0  0  0
  -27.6643  -13.2020   19.8777 C   0  0  2  0  0  0
  -28.7032  -12.9775   21.0001 C   0  0  0  0  0  0
  -25.2606  -13.8157   20.5689 C   0  0  0  0  0  0
  -24.1847  -13.0439   20.9168 C   0  0  0  0  0  0
  -24.6389  -11.6902   20.8725 C   0  0  0  0  0  0
  -23.9051  -10.4286   21.0397 C   0  0  0  0  0  0
  -24.3611   -9.4205   21.9175 C   0  0  0  0  0  0
  -23.6290   -8.2241   22.0749 C   0  0  0  0  0  0
  -22.4273   -8.0276   21.3542 C   0  0  0  0  0  0
  -21.9898   -9.0251   20.4650 C   0  0  0  0  0  0
  -22.7221  -10.2130   20.3054 C   0  0  0  0  0  0
  -21.6850   -6.0732   22.5278 C   0  0  0  0  0  0
  -21.4015   -6.5638   23.8210 C   0  0  0  0  0  0
  -21.3661   -5.6793   24.9173 C   0  0  0  0  0  0
  -21.6043   -4.3054   24.7227 C   0  0  0  0  0  0
  -21.8821   -3.8145   23.4347 C   0  0  0  0  0  0
  -21.9194   -4.6961   22.3403 C   0  0  0  0  0  0
  -22.7873  -13.5244   21.1841 C   0  0  0  0  0  0
  -22.1662   -4.2148   21.0980 F   0  0  0  0  0  0
  -21.5630   -3.4538   25.7737 F   0  0  0  0  0  0
  -30.0410  -13.2571   20.4561 N   0  0  0  0  0  0
  -26.3041  -12.9317   20.3385 N   0  0  0  0  0  0
  -25.9315  -11.6478   20.5773 N   0  0  0  0  0  0
  -22.0521  -12.8239   22.0405 N   0  0  0  0  0  0
  -25.4350  -15.1874   20.4111 N   0  0  0  0  0  0
  -31.7987  -14.6287   20.0566 O   0  0  0  0  0  0
  -21.6637   -6.8877   21.4239 O   0  0  0  0  0  0
  -22.3555  -14.5550   20.6688 O   0  0  0  0  0  0
  -24.6109  -31.8702   23.2119 C   0  0  0  0  0  0
  -25.9013  -32.4847   23.8416 C   0  0  1  0  0  0
  -27.2494  -27.4660   20.1052 C   0  0  0  0  0  0
  -25.5885  -33.8633   24.2363 N   0  0  0  0  0  0
  -23.4013  -30.4895   21.5483 C   0  0  2  0  0  0
  -24.8550  -28.9611   20.1140 C   0  0  0  0  0  0
  -22.7423  -29.4627   22.4960 C   0  0  0  0  0  0
  -18.0271  -28.1372   22.8514 C   0  0  0  0  0  0
  -24.1469  -36.7319   23.2641 C   0  0  0  0  0  0
  -25.9238  -30.8472   21.3604 C   0  0  0  0  0  0
  -26.0062  -29.4804   20.7180 C   0  0  0  0  0  0
  -27.2059  -28.7358   20.7226 C   0  0  0  0  0  0
  -26.0894  -26.9579   19.4907 C   0  0  0  0  0  0
  -24.8882  -27.6948   19.4994 C   0  0  0  0  0  0
  -23.6121  -29.8230   20.1605 C   0  0  0  0  0  0
  -25.4086  -36.3127   24.0363 C   0  0  1  0  0  0
  -20.5870  -28.3636   23.1342 C   0  0  2  0  0  0
  -20.6758  -26.9368   22.5426 C   0  0  0  0  0  0
  -19.5730  -26.6384   21.5226 C   0  0  0  0  0  0
  -18.1910  -26.7922   22.1638 C   0  0  0  0  0  0
  -19.1524  -28.8827   23.2929 C   0  0  0  0  0  0
  -18.9439  -30.1445   23.8911 C   0  0  0  0  0  0
  -17.6438  -30.6577   24.0575 C   0  0  0  0  0  0
  -25.9012  -34.9496   23.5165 C   0  0  0  0  0  0
  -16.5334  -29.9087   23.6318 C   0  0  0  0  0  0
  -16.7261  -28.6510   23.0342 C   0  0  0  0  0  0
  -26.4466  -31.6613   25.0731 C   0  0  0  0  0  0
  -25.3770  -31.3726   26.1523 C   0  0  0  0  0  0
  -27.0275  -30.3056   24.6073 C   0  0  0  0  0  0
  -27.6072  -32.4315   25.7467 C   0  0  0  0  0  0
  -27.5575  -37.1809   24.8477 C   0  0  0  0  0  0
  -21.4141  -29.3012   22.3752 N   0  0  0  0  0  0
  -26.4277  -37.3816   23.9442 N   0  0  0  0  0  0
  -24.6622  -31.0847   22.0984 N   0  0  0  0  0  0
  -23.4214  -28.8166   23.2979 O   0  0  0  0  0  0
  -28.3864  -26.6918   20.0914 O   0  0  0  0  0  0
  -26.5556  -34.8955   22.4707 O   0  0  0  0  0  0
  -23.5309  -32.1400   23.7561 O   0  0  0  0  0  0
  -30.4248  -17.2811   24.2542 C   0  0  0  0  0  0
  -30.6318  -19.6112   24.9617 C   0  0  0  0  0  0
  -31.4043  -18.9349   22.7541 C   0  0  0  0  0  0
  -30.2305  -18.2860   25.2280 C   0  0  0  0  0  0
  -31.0197  -17.5990   23.0123 C   0  0  0  0  0  0
  -31.2248  -19.9403   23.7258 C   0  0  0  0  0  0
  -29.7345  -25.1477   21.4286 C   0  0  0  0  0  0
  -29.3107  -23.9083   21.7573 C   0  0  0  0  0  0
  -29.6149  -17.9476   26.5735 C   0  0  0  0  0  0
  -27.1564  -22.9317   20.8601 C   0  0  0  0  0  0
  -31.3527  -16.5214   21.9825 C   0  0  0  0  0  0
  -31.7447  -21.3523   23.4888 C   0  0  0  0  0  0
  -28.9100  -26.4271   21.3913 C   0  0  0  0  0  0
  -27.8588  -23.5630   22.0687 C   0  0  0  0  0  0
  -30.2846  -22.7367   21.8471 C   0  0  0  0  0  0
  -30.3106  -15.3949   21.7628 C   0  0  0  0  0  0
  -30.6433  -22.4140   23.3107 C   0  0  0  0  0  0
  -31.4579  -12.3943   19.0969 H   0  0  0  0  0  0
  -30.3149  -11.2823   19.7853 H   0  0  0  0  0  0
  -29.7222  -11.8115   17.4041 H   0  0  0  0  0  0
  -29.6428  -13.5149   17.7847 H   0  0  0  0  0  0
  -27.8386  -11.3032   18.8277 H   0  0  0  0  0  0
  -27.3499  -12.6211   17.7965 H   0  0  0  0  0  0
  -27.7148  -14.2503   19.5825 H   0  0  0  0  0  0
  -28.6686  -11.9460   21.3519 H   0  0  0  0  0  0
  -28.4536  -13.5915   21.8652 H   0  0  0  0  0  0
  -25.2761   -9.5680   22.4739 H   0  0  0  0  0  0
  -24.0004   -7.4632   22.7459 H   0  0  0  0  0  0
  -21.0830   -8.8768   19.8960 H   0  0  0  0  0  0
  -22.3679  -10.9669   19.6165 H   0  0  0  0  0  0
  -21.2004   -7.6146   23.9715 H   0  0  0  0  0  0
  -21.1484   -6.0522   25.9079 H   0  0  0  0  0  0
  -22.0599   -2.7607   23.2846 H   0  0  0  0  0  0
  -22.4146  -11.9908   22.4798 H   0  0  0  0  0  0
  -21.1149  -13.1273   22.2634 H   0  0  0  0  0  0
  -24.6735  -15.8480   20.5237 H   0  0  0  0  0  0
  -26.3001  -15.6254   20.1188 H   0  0  0  0  0  0
  -26.7116  -32.5595   23.1218 H   0  0  0  0  0  0
  -25.0119  -33.9811   25.0568 H   0  0  0  0  0  0
  -22.6852  -31.3018   21.4102 H   0  0  0  0  0  0
  -23.3746  -35.9634   23.3315 H   0  0  0  0  0  0
  -24.3556  -36.8901   22.2048 H   0  0  0  0  0  0
  -23.7221  -37.6538   23.6621 H   0  0  0  0  0  0
  -26.0252  -31.6080   20.5848 H   0  0  0  0  0  0
  -26.8144  -30.9106   21.9722 H   0  0  0  0  0  0
  -28.0922  -29.1399   21.1886 H   0  0  0  0  0  0
  -26.1162  -25.9833   19.0239 H   0  0  0  0  0  0
  -24.0041  -27.2854   19.0307 H   0  0  0  0  0  0
  -23.7252  -30.5989   19.4024 H   0  0  0  0  0  0
  -22.7378  -29.2413   19.8617 H   0  0  0  0  0  0
  -25.1264  -36.1981   25.0859 H   0  0  0  0  0  0
  -20.9978  -28.3177   24.1460 H   0  0  0  0  0  0
  -20.5643  -26.2223   23.3599 H   0  0  0  0  0  0
  -21.6628  -26.7381   22.1218 H   0  0  0  0  0  0
  -19.6859  -25.6309   21.1224 H   0  0  0  0  0  0
  -19.6686  -27.3226   20.6786 H   0  0  0  0  0  0
  -17.4181  -26.6702   21.4041 H   0  0  0  0  0  0
  -18.0283  -26.0045   22.9009 H   0  0  0  0  0  0
  -19.7907  -30.7291   24.2258 H   0  0  0  0  0  0
  -17.4978  -31.6250   24.5192 H   0  0  0  0  0  0
  -15.5335  -30.2992   23.7629 H   0  0  0  0  0  0
  -15.8661  -28.0855   22.7015 H   0  0  0  0  0  0
  -24.5947  -30.7040   25.7927 H   0  0  0  0  0  0
  -24.8951  -32.2887   26.4959 H   0  0  0  0  0  0
  -25.8169  -30.8956   27.0293 H   0  0  0  0  0  0
  -26.2789  -29.6823   24.1164 H   0  0  0  0  0  0
  -27.4110  -29.7292   25.4506 H   0  0  0  0  0  0
  -27.8610  -30.4407   23.9167 H   0  0  0  0  0  0
  -27.2722  -33.3615   26.2075 H   0  0  0  0  0  0
  -28.3855  -32.6857   25.0259 H   0  0  0  0  0  0
  -28.0765  -31.8405   26.5351 H   0  0  0  0  0  0
  -28.2636  -38.0069   24.7511 H   0  0  0  0  0  0
  -28.1032  -36.2612   24.6300 H   0  0  0  0  0  0
  -27.2299  -37.1462   25.8884 H   0  0  0  0  0  0
  -20.9256  -29.8774   21.7037 H   0  0  0  0  0  0
  -26.0173  -38.2899   24.1447 H   0  0  0  0  0  0
  -30.1434  -16.2608   24.4740 H   0  0  0  0  0  0
  -30.5114  -20.3766   25.7182 H   0  0  0  0  0  0
  -31.8820  -19.1851   21.8170 H   0  0  0  0  0  0
  -30.7765  -25.2840   21.1724 H   0  0  0  0  0  0
  -29.7822  -16.9042   26.8422 H   0  0  0  0  0  0
  -28.5393  -18.1277   26.5598 H   0  0  0  0  0  0
  -30.0495  -18.5645   27.3612 H   0  0  0  0  0  0
  -26.1060  -22.7397   21.0769 H   0  0  0  0  0  0
  -27.6163  -21.9838   20.5841 H   0  0  0  0  0  0
  -27.2010  -23.5889   19.9908 H   0  0  0  0  0  0
  -32.3003  -16.0722   22.2823 H   0  0  0  0  0  0
  -31.5461  -17.0143   21.0282 H   0  0  0  0  0  0
  -32.4450  -21.3772   22.6531 H   0  0  0  0  0  0
  -32.3353  -21.6181   24.3665 H   0  0  0  0  0  0
  -28.1119  -26.3805   22.1319 H   0  0  0  0  0  0
  -29.5528  -27.2485   21.7063 H   0  0  0  0  0  0
  -27.2973  -24.4383   22.3869 H   0  0  0  0  0  0
  -27.8182  -22.8779   22.9154 H   0  0  0  0  0  0
  -31.1957  -22.9894   21.3027 H   0  0  0  0  0  0
  -29.8648  -21.8595   21.3531 H   0  0  0  0  0  0
  -29.3541  -15.8235   21.4636 H   0  0  0  0  0  0
  -30.1505  -14.8519   22.6932 H   0  0  0  0  0  0
  -31.0080  -23.3404   23.7572 H   0  0  0  0  0  0
  -29.7622  -22.1388   23.8911 H   0  0  0  0  0  0
  1 25  1  0  0  0
  1 30  2  0  0  0
  1 86  1  0  0  0
  2  3  1  0  0  0
  2 25  1  0  0  0
  2 88  1  0  0  0
  2 89  1  0  0  0
  3  4  1  0  0  0
  3 90  1  0  0  0
  3 91  1  0  0  0
  4  5  1  0  0  0
  4 92  1  0  0  0
  4 93  1  0  0  0
  5  6  1  0  0  0
  5 26  1  0  0  0
  5 94  1  0  0  0
  6 25  1  0  0  0
  6 95  1  0  0  0
  6 96  1  0  0  0
  7  8  2  0  0  0
  7 26  1  0  0  0
  7 29  1  0  0  0
  8  9  1  0  0  0
  8 22  1  0  0  0
  9 10  1  0  0  0
  9 27  2  0  0  0
 10 11  2  0  0  0
 10 15  1  0  0  0
 11 12  1  0  0  0
 11 97  1  0  0  0
 12 13  2  0  0  0
 12 98  1  0  0  0
 13 14  1  0  0  0
 13 31  1  0  0  0
 14 15  2  0  0  0
 14 99  1  0  0  0
 15100  1  0  0  0
 16 17  2  0  0  0
 16 21  1  0  0  0
 16 31  1  0  0  0
 17 18  1  0  0  0
 17101  1  0  0  0
 18 19  2  0  0  0
 18102  1  0  0  0
 19 20  1  0  0  0
 19 24  1  0  0  0
 20 21  2  0  0  0
 20103  1  0  0  0
 21 23  1  0  0  0
 22 28  1  0  0  0
 22 32  2  0  0  0
 26 27  1  0  0  0
 28104  1  0  0  0
 28105  1  0  0  0
 29106  1  0  0  0
 29107  1  0  0  0
 33 34  1  0  0  0
 33 66  1  0  0  0
 33 70  2  0  0  0
 34 36  1  0  0  0
 34 59  1  0  0  0
 34108  1  0  0  0
 35 44  2  0  0  0
 35 45  1  0  0  0
 35 68  1  0  0  0
 36 56  1  0  0  0
 36109  1  0  0  0
 37 39  1  0  0  0
 37 47  1  0  0  0
 37 66  1  0  0  0
 37110  1  0  0  0
 38 43  2  0  0  0
 38 46  1  0  0  0
 38 47  1  0  0  0
 39 64  1  0  0  0
 39 67  2  0  0  0
 40 52  1  0  0  0
 40 53  2  0  0  0
 40 58  1  0  0  0
 41111  1  0  0  0
 41112  1  0  0  0
 41113  1  0  0  0
 41 48  1  0  0  0
 42 43  1  0  0  0
 42 66  1  0  0  0
 42114  1  0  0  0
 42115  1  0  0  0
 43 44  1  0  0  0
 44116  1  0  0  0
 45 46  2  0  0  0
 45117  1  0  0  0
 46118  1  0  0  0
 47119  1  0  0  0
 47120  1  0  0  0
 48 56  1  0  0  0
 48 65  1  0  0  0
 48121  1  0  0  0
 49 50  1  0  0  0
 49 53  1  0  0  0
 49 64  1  0  0  0
 49122  1  0  0  0
 50 51  1  0  0  0
 50123  1  0  0  0
 50124  1  0  0  0
 51 52  1  0  0  0
 51125  1  0  0  0
 51126  1  0  0  0
 52127  1  0  0  0
 52128  1  0  0  0
 53 54  1  0  0  0
 54 55  2  0  0  0
 54129  1  0  0  0
 55 57  1  0  0  0
 55130  1  0  0  0
 56 69  2  0  0  0
 57 58  2  0  0  0
 57131  1  0  0  0
 58132  1  0  0  0
 59 60  1  0  0  0
 59 61  1  0  0  0
 59 62  1  0  0  0
 60133  1  0  0  0
 60134  1  0  0  0
 60135  1  0  0  0
 61136  1  0  0  0
 61137  1  0  0  0
 61138  1  0  0  0
 62139  1  0  0  0
 62140  1  0  0  0
 62141  1  0  0  0
 63 65  1  0  0  0
 63142  1  0  0  0
 63143  1  0  0  0
 63144  1  0  0  0
 64145  1  0  0  0
 65146  1  0  0  0
 68 83  1  0  0  0
 71 74  2  0  0  0
 71 75  1  0  0  0
 71147  1  0  0  0
 72 74  1  0  0  0
 72 76  2  0  0  0
 72148  1  0  0  0
 73 75  2  0  0  0
 73 76  1  0  0  0
 73149  1  0  0  0
 74 79  1  0  0  0
 75 81  1  0  0  0
 76 82  1  0  0  0
 77 78  2  0  0  0
 77 83  1  0  0  0
 77150  1  0  0  0
 78 84  1  0  0  0
 78 85  1  0  0  0
 79151  1  0  0  0
 79152  1  0  0  0
 79153  1  0  0  0
 80 84  1  0  0  0
 80154  1  0  0  0
 80155  1  0  0  0
 80156  1  0  0  0
 81 86  1  0  0  0
 81157  1  0  0  0
 81158  1  0  0  0
 82 87  1  0  0  0
 82159  1  0  0  0
 82160  1  0  0  0
 83161  1  0  0  0
 83162  1  0  0  0
 84163  1  0  0  0
 84164  1  0  0  0
 85 87  1  0  0  0
 85165  1  0  0  0
 85166  1  0  0  0
 86167  1  0  0  0
 86168  1  0  0  0
 87169  1  0  0  0
 87170  1  0  0  0
M  ISO  4   1 100  68 101  83 101  86 100
M  END
> <chiral flag>
0

> <version>
0

> <s_m_source_file>
/data/baiqing/PycharmProjects/Reinvent-master-3.2/result/LINK_invent/BTK/process_docking_weight1_custom_product_contain_oxygen_bond_distance_aromatic_linkinvent_7_9_3/rearranged_h_0132.sdf

> <i_m_source_file_index>
23

> <r_mmod_Potential_Energy-OPLS-2005>
-54.0919227600098

> <r_mmod_Stretch_Energy-OPLS-2005>
34.0300483703613

> <r_mmod_Bend_Energy-OPLS-2005>
89.5060806274414

> <r_mmod_Torsional_Energy-OPLS-2005>
197.637435913086

> <r_mmod_Improper_Torsional_Energy-OPLS-2005>
1.90953290462494

> <r_mmod_Van_der_Waal_Energy-OPLS-2005>
148.458618164062

> <r_mmod_Electrostatic_Energy-OPLS-2005>
-351.939270019531

> <r_mmod_Solvation_Energy-OPLS-2005>
-181.289154052734

> <b_mmod_Minimization_Converged-OPLS-2005>
0

> <r_mmod_RMS_Derivative-OPLS-2005>
2.70174694061279

$$$$
23
                    3D
 Structure written by MMmdl.
160168  0  0  1  0            999 V2000
  -30.7222  -14.4176   20.6192 C   0  0  0  0  0  0
  -30.4212  -12.2852   19.4142 C   0  0  0  0  0  0
  -29.4940  -12.5110   18.2033 C   0  0  0  0  0  0
  -28.0137  -12.3778   18.6118 C   0  0  0  0  0  0
  -27.6656  -13.2054   19.8772 C   0  0  2  0  0  0
  -28.7050  -12.9632   20.9934 C   0  0  0  0  0  0
  -25.2607  -13.8162   20.5691 C   0  0  0  0  0  0
  -24.1853  -13.0433   20.9160 C   0  0  0  0  0  0
  -24.6406  -11.6901   20.8720 C   0  0  0  0  0  0
  -23.9070  -10.4287   21.0394 C   0  0  0  0  0  0
  -24.3622   -9.4206   21.9176 C   0  0  0  0  0  0
  -23.6294   -8.2243   22.0751 C   0  0  0  0  0  0
  -22.4277   -8.0279   21.3537 C   0  0  0  0  0  0
  -21.9914   -9.0255   20.4638 C   0  0  0  0  0  0
  -22.7247  -10.2129   20.3043 C   0  0  0  0  0  0
  -21.6852   -6.0737   22.5280 C   0  0  0  0  0  0
  -21.4014   -6.5643   23.8216 C   0  0  0  0  0  0
  -21.3659   -5.6794   24.9178 C   0  0  0  0  0  0
  -21.6046   -4.3053   24.7226 C   0  0  0  0  0  0
  -21.8822   -3.8144   23.4344 C   0  0  0  0  0  0
  -21.9196   -4.6962   22.3401 C   0  0  0  0  0  0
  -22.7874  -13.5218   21.1830 C   0  0  0  0  0  0
  -22.1665   -4.2152   21.0973 F   0  0  0  0  0  0
  -21.5627   -3.4536   25.7737 F   0  0  0  0  0  0
  -30.0414  -13.2538   20.4518 N   0  0  0  0  0  0
  -26.3050  -12.9335   20.3373 N   0  0  0  0  0  0
  -25.9329  -11.6488   20.5740 N   0  0  0  0  0  0
  -22.0528  -12.8205   22.0390 N   0  0  0  0  0  0
  -25.4328  -15.1885   20.4139 N   0  0  0  0  0  0
  -31.8266  -14.6027   20.0977 O   0  0  0  0  0  0
  -21.6634   -6.8878   21.4239 O   0  0  0  0  0  0
  -22.3554  -14.5526   20.6686 O   0  0  0  0  0  0
  -24.6125  -31.8687   23.2122 C   0  0  0  0  0  0
  -25.9027  -32.4829   23.8408 C   0  0  1  0  0  0
  -27.2362  -27.4568   20.1002 C   0  0  0  0  0  0
  -25.5879  -33.8622   24.2336 N   0  0  0  0  0  0
  -23.3991  -30.4925   21.5518 C   0  0  2  0  0  0
  -24.8457  -28.9540   20.1235 C   0  0  0  0  0  0
  -22.7383  -29.4677   22.5008 C   0  0  0  0  0  0
  -18.0262  -28.1392   22.8494 C   0  0  0  0  0  0
  -24.1483  -36.7330   23.2645 C   0  0  0  0  0  0
  -25.9233  -30.8421   21.3594 C   0  0  0  0  0  0
  -26.0026  -29.4742   20.7170 C   0  0  0  0  0  0
  -27.2029  -28.7309   20.7050 C   0  0  0  0  0  0
  -26.0662  -26.9426   19.5048 C   0  0  0  0  0  0
  -24.8695  -27.6840   19.5189 C   0  0  0  0  0  0
  -23.6066  -29.8199   20.1685 C   0  0  0  0  0  0
  -25.4102  -36.3114   24.0334 C   0  0  1  0  0  0
  -20.5848  -28.3681   23.1332 C   0  0  2  0  0  0
  -20.6768  -26.9422   22.5426 C   0  0  0  0  0  0
  -19.5751  -26.6400   21.5222 C   0  0  0  0  0  0
  -18.1919  -26.7941   22.1623 C   0  0  0  0  0  0
  -19.1508  -28.8849   23.2915 C   0  0  0  0  0  0
  -18.9439  -30.1454   23.8937 C   0  0  0  0  0  0
  -17.6444  -30.6601   24.0576 C   0  0  0  0  0  0
  -25.9018  -34.9474   23.5132 C   0  0  0  0  0  0
  -16.5333  -29.9104   23.6330 C   0  0  0  0  0  0
  -16.7251  -28.6518   23.0351 C   0  0  0  0  0  0
  -26.4474  -31.6598   25.0723 C   0  0  0  0  0  0
  -25.3744  -31.3651   26.1463 C   0  0  0  0  0  0
  -27.0331  -30.3055   24.6077 C   0  0  0  0  0  0
  -27.6041  -32.4325   25.7495 C   0  0  0  0  0  0
  -27.5574  -37.1822   24.8465 C   0  0  0  0  0  0
  -21.4115  -29.3043   22.3733 N   0  0  0  0  0  0
  -26.4297  -37.3791   23.9398 N   0  0  0  0  0  0
  -24.6635  -31.0813   22.1007 N   0  0  0  0  0  0
  -23.4159  -28.8220   23.3046 O   0  0  0  0  0  0
  -28.4195  -26.7674   20.0175 O   0  0  0  0  0  0
  -26.5595  -34.8931   22.4704 O   0  0  0  0  0  0
  -23.5327  -32.1425   23.7535 O   0  0  0  0  0  0
  -30.3956  -18.9022   20.1000 C   0  0  0  0  0  0
  -29.6769  -20.0827   19.8419 C   0  0  0  0  0  0
  -29.1438  -18.5931   22.1651 C   0  0  0  0  0  0
  -30.1308  -18.1490   21.2609 C   0  0  0  0  0  0
  -28.6791  -20.5269   20.7340 C   0  0  0  0  0  0
  -28.4161  -19.7782   21.9105 C   0  0  0  0  0  0
  -27.3561  -20.2194   22.9055 C   0  0  0  0  0  0
  -30.9094  -16.8674   21.5181 C   0  0  0  0  0  0
  -27.9061  -21.7939   20.3822 C   0  0  0  0  0  0
  -30.0448  -15.5894   21.3604 C   0  0  0  0  0  0
  -28.5798  -23.0770   20.9007 C   0  0  0  0  0  0
  -27.9320  -24.3569   20.3382 C   0  0  0  0  0  0
  -28.5733  -25.6469   20.8876 C   0  0  0  0  0  0
  -31.4667  -12.3750   19.1137 H   0  0  0  0  0  0
  -30.3113  -11.2700   19.7991 H   0  0  0  0  0  0
  -29.7286  -11.7989   17.4115 H   0  0  0  0  0  0
  -29.6714  -13.5031   17.7866 H   0  0  0  0  0  0
  -27.8130  -11.3218   18.7942 H   0  0  0  0  0  0
  -27.3680  -12.6727   17.7838 H   0  0  0  0  0  0
  -27.7157  -14.2567   19.5938 H   0  0  0  0  0  0
  -28.6699  -11.9234   21.3218 H   0  0  0  0  0  0
  -28.4604  -13.5493   21.8780 H   0  0  0  0  0  0
  -25.2773   -9.5682   22.4744 H   0  0  0  0  0  0
  -24.0011   -7.4637   22.7473 H   0  0  0  0  0  0
  -21.0847   -8.8780   19.8936 H   0  0  0  0  0  0
  -22.3720  -10.9670   19.6150 H   0  0  0  0  0  0
  -21.2007   -7.6154   23.9717 H   0  0  0  0  0  0
  -21.1476   -6.0521   25.9081 H   0  0  0  0  0  0
  -22.0599   -2.7605   23.2847 H   0  0  0  0  0  0
  -22.4168  -11.9866   22.4767 H   0  0  0  0  0  0
  -21.1135  -13.1205   22.2598 H   0  0  0  0  0  0
  -24.6719  -15.8485   20.5326 H   0  0  0  0  0  0
  -26.2977  -15.6293   20.1265 H   0  0  0  0  0  0
  -26.7100  -32.5563   23.1182 H   0  0  0  0  0  0
  -25.0005  -33.9779   25.0464 H   0  0  0  0  0  0
  -22.6879  -31.3087   21.4114 H   0  0  0  0  0  0
  -23.3730  -35.9680   23.3324 H   0  0  0  0  0  0
  -24.3572  -36.8941   22.2058 H   0  0  0  0  0  0
  -23.7263  -37.6544   23.6664 H   0  0  0  0  0  0
  -26.0220  -31.6029   20.5841 H   0  0  0  0  0  0
  -26.8163  -30.9065   21.9689 H   0  0  0  0  0  0
  -28.1031  -29.1319   21.1498 H   0  0  0  0  0  0
  -26.0842  -25.9821   19.0117 H   0  0  0  0  0  0
  -23.9799  -27.2792   19.0555 H   0  0  0  0  0  0
  -23.7123  -30.5909   19.4038 H   0  0  0  0  0  0
  -22.7319  -29.2353   19.8776 H   0  0  0  0  0  0
  -25.1286  -36.1983   25.0827 H   0  0  0  0  0  0
  -20.9944  -28.3269   24.1453 H   0  0  0  0  0  0
  -20.5699  -26.2283   23.3607 H   0  0  0  0  0  0
  -21.6639  -26.7496   22.1212 H   0  0  0  0  0  0
  -19.6921  -25.6318   21.1240 H   0  0  0  0  0  0
  -19.6698  -27.3218   20.6761 H   0  0  0  0  0  0
  -17.4197  -26.6695   21.4013 H   0  0  0  0  0  0
  -18.0310  -26.0073   22.9010 H   0  0  0  0  0  0
  -19.7917  -30.7248   24.2330 H   0  0  0  0  0  0
  -17.5005  -31.6281   24.5186 H   0  0  0  0  0  0
  -15.5336  -30.3025   23.7639 H   0  0  0  0  0  0
  -15.8646  -28.0853   22.7057 H   0  0  0  0  0  0
  -24.5966  -30.6947   25.7794 H   0  0  0  0  0  0
  -24.8872  -32.2770   26.4917 H   0  0  0  0  0  0
  -25.8115  -30.8836   27.0219 H   0  0  0  0  0  0
  -26.2871  -29.6770   24.1198 H   0  0  0  0  0  0
  -27.4197  -29.7331   25.4526 H   0  0  0  0  0  0
  -27.8656  -30.4404   23.9163 H   0  0  0  0  0  0
  -27.2656  -33.3622   26.2082 H   0  0  0  0  0  0
  -28.3846  -32.6884   25.0316 H   0  0  0  0  0  0
  -28.0710  -31.8441   26.5404 H   0  0  0  0  0  0
  -28.2602  -38.0112   24.7503 H   0  0  0  0  0  0
  -28.1059  -36.2640   24.6308 H   0  0  0  0  0  0
  -27.2281  -37.1498   25.8867 H   0  0  0  0  0  0
  -20.9271  -29.8736   21.6934 H   0  0  0  0  0  0
  -26.0184  -38.2872   24.1391 H   0  0  0  0  0  0
  -31.1496  -18.5765   19.3968 H   0  0  0  0  0  0
  -29.8920  -20.6452   18.9433 H   0  0  0  0  0  0
  -28.9406  -18.0134   23.0559 H   0  0  0  0  0  0
  -27.3696  -19.6016   23.8036 H   0  0  0  0  0  0
  -26.3625  -20.1428   22.4640 H   0  0  0  0  0  0
  -27.5186  -21.2519   23.2142 H   0  0  0  0  0  0
  -31.3166  -16.9034   22.5297 H   0  0  0  0  0  0
  -31.7795  -16.8732   20.8612 H   0  0  0  0  0  0
  -26.8814  -21.7335   20.7486 H   0  0  0  0  0  0
  -27.8204  -21.8434   19.2951 H   0  0  0  0  0  0
  -29.1553  -15.8357   20.7800 H   0  0  0  0  0  0
  -29.6983  -15.2790   22.3449 H   0  0  0  0  0  0
  -29.6318  -23.0668   20.6114 H   0  0  0  0  0  0
  -28.5601  -23.0898   21.9909 H   0  0  0  0  0  0
  -26.8641  -24.3573   20.5605 H   0  0  0  0  0  0
  -28.0244  -24.3450   19.2521 H   0  0  0  0  0  0
  -29.6484  -25.4939   20.9901 H   0  0  0  0  0  0
  -28.2025  -25.8717   21.8893 H   0  0  0  0  0  0
  1 25  1  0  0  0
  1 30  2  0  0  0
  1 80  1  0  0  0
  2  3  1  0  0  0
  2 25  1  0  0  0
  2 84  1  0  0  0
  2 85  1  0  0  0
  3  4  1  0  0  0
  3 86  1  0  0  0
  3 87  1  0  0  0
  4  5  1  0  0  0
  4 88  1  0  0  0
  4 89  1  0  0  0
  5  6  1  0  0  0
  5 26  1  0  0  0
  5 90  1  0  0  0
  6 25  1  0  0  0
  6 91  1  0  0  0
  6 92  1  0  0  0
  7  8  2  0  0  0
  7 26  1  0  0  0
  7 29  1  0  0  0
  8  9  1  0  0  0
  8 22  1  0  0  0
  9 10  1  0  0  0
  9 27  2  0  0  0
 10 11  2  0  0  0
 10 15  1  0  0  0
 11 12  1  0  0  0
 11 93  1  0  0  0
 12 13  2  0  0  0
 12 94  1  0  0  0
 13 14  1  0  0  0
 13 31  1  0  0  0
 14 15  2  0  0  0
 14 95  1  0  0  0
 15 96  1  0  0  0
 16 17  2  0  0  0
 16 21  1  0  0  0
 16 31  1  0  0  0
 17 18  1  0  0  0
 17 97  1  0  0  0
 18 19  2  0  0  0
 18 98  1  0  0  0
 19 20  1  0  0  0
 19 24  1  0  0  0
 20 21  2  0  0  0
 20 99  1  0  0  0
 21 23  1  0  0  0
 22 28  1  0  0  0
 22 32  2  0  0  0
 26 27  1  0  0  0
 28100  1  0  0  0
 28101  1  0  0  0
 29102  1  0  0  0
 29103  1  0  0  0
 33 34  1  0  0  0
 33 66  1  0  0  0
 33 70  2  0  0  0
 34 36  1  0  0  0
 34 59  1  0  0  0
 34104  1  0  0  0
 35 44  2  0  0  0
 35 45  1  0  0  0
 35 68  1  0  0  0
 36 56  1  0  0  0
 36105  1  0  0  0
 37 39  1  0  0  0
 37 47  1  0  0  0
 37 66  1  0  0  0
 37106  1  0  0  0
 38 43  2  0  0  0
 38 46  1  0  0  0
 38 47  1  0  0  0
 39 64  1  0  0  0
 39 67  2  0  0  0
 40 52  1  0  0  0
 40 53  2  0  0  0
 40 58  1  0  0  0
 41107  1  0  0  0
 41108  1  0  0  0
 41109  1  0  0  0
 41 48  1  0  0  0
 42 43  1  0  0  0
 42 66  1  0  0  0
 42110  1  0  0  0
 42111  1  0  0  0
 43 44  1  0  0  0
 44112  1  0  0  0
 45 46  2  0  0  0
 45113  1  0  0  0
 46114  1  0  0  0
 47115  1  0  0  0
 47116  1  0  0  0
 48 56  1  0  0  0
 48 65  1  0  0  0
 48117  1  0  0  0
 49 50  1  0  0  0
 49 53  1  0  0  0
 49 64  1  0  0  0
 49118  1  0  0  0
 50 51  1  0  0  0
 50119  1  0  0  0
 50120  1  0  0  0
 51 52  1  0  0  0
 51121  1  0  0  0
 51122  1  0  0  0
 52123  1  0  0  0
 52124  1  0  0  0
 53 54  1  0  0  0
 54 55  2  0  0  0
 54125  1  0  0  0
 55 57  1  0  0  0
 55126  1  0  0  0
 56 69  2  0  0  0
 57 58  2  0  0  0
 57127  1  0  0  0
 58128  1  0  0  0
 59 60  1  0  0  0
 59 61  1  0  0  0
 59 62  1  0  0  0
 60129  1  0  0  0
 60130  1  0  0  0
 60131  1  0  0  0
 61132  1  0  0  0
 61133  1  0  0  0
 61134  1  0  0  0
 62135  1  0  0  0
 62136  1  0  0  0
 62137  1  0  0  0
 63 65  1  0  0  0
 63138  1  0  0  0
 63139  1  0  0  0
 63140  1  0  0  0
 64141  1  0  0  0
 65142  1  0  0  0
 68 83  1  0  0  0
 71 72  2  0  0  0
 71 74  1  0  0  0
 71143  1  0  0  0
 72 75  1  0  0  0
 72144  1  0  0  0
 73 74  2  0  0  0
 73 76  1  0  0  0
 73145  1  0  0  0
 74 78  1  0  0  0
 75 76  2  0  0  0
 75 79  1  0  0  0
 76 77  1  0  0  0
 77146  1  0  0  0
 77147  1  0  0  0
 77148  1  0  0  0
 78 80  1  0  0  0
 78149  1  0  0  0
 78150  1  0  0  0
 79 81  1  0  0  0
 79151  1  0  0  0
 79152  1  0  0  0
 80153  1  0  0  0
 80154  1  0  0  0
 81 82  1  0  0  0
 81155  1  0  0  0
 81156  1  0  0  0
 82 83  1  0  0  0
 82157  1  0  0  0
 82158  1  0  0  0
 83159  1  0  0  0
 83160  1  0  0  0
M  ISO  4   1 100  68 101  80 100  83 101
M  END
> <chiral flag>
0

> <version>
0

> <s_m_source_file>
/data/baiqing/PycharmProjects/Reinvent-master-3.2/result/LINK_invent/BTK/process_docking_weight1_custom_product_contain_oxygen_bond_distance_aromatic_linkinvent_7_9_3/rearranged_h_0132.sdf

> <i_m_source_file_index>
24

> <r_mmod_Potential_Energy-OPLS-2005>
-54.9335289001465

> <r_mmod_Stretch_Energy-OPLS-2005>
32.5789031982422

> <r_mmod_Bend_Energy-OPLS-2005>
86.8593215942383

> <r_mmod_Torsional_Energy-OPLS-2005>
200.565933227539

> <r_mmod_Improper_Torsional_Energy-OPLS-2005>
2.93133902549744

> <r_mmod_Van_der_Waal_Energy-OPLS-2005>
149.560745239258

> <r_mmod_Electrostatic_Energy-OPLS-2005>
-351.026397705078

> <r_mmod_Solvation_Energy-OPLS-2005>
-184.507186889648

> <b_mmod_Minimization_Converged-OPLS-2005>
0

> <r_mmod_RMS_Derivative-OPLS-2005>
1.46131455898285

$$$$
24
                    3D
 Structure written by MMmdl.
173181  0  0  1  0            999 V2000
  -30.7273  -14.4488   20.5962 C   0  0  0  0  0  0
  -30.4154  -12.3005   19.4071 C   0  0  0  0  0  0
  -29.4832  -12.5243   18.1982 C   0  0  0  0  0  0
  -28.0055  -12.3921   18.6143 C   0  0  0  0  0  0
  -27.6667  -13.2117   19.8853 C   0  0  2  0  0  0
  -28.7142  -12.9876   20.9967 C   0  0  0  0  0  0
  -25.2618  -13.8156   20.5733 C   0  0  0  0  0  0
  -24.1859  -13.0438   20.9172 C   0  0  0  0  0  0
  -24.6418  -11.6901   20.8754 C   0  0  0  0  0  0
  -23.9070  -10.4283   21.0425 C   0  0  0  0  0  0
  -24.3630   -9.4202   21.9209 C   0  0  0  0  0  0
  -23.6308   -8.2239   22.0774 C   0  0  0  0  0  0
  -22.4291   -8.0268   21.3557 C   0  0  0  0  0  0
  -21.9921   -9.0248   20.4658 C   0  0  0  0  0  0
  -22.7240  -10.2127   20.3080 C   0  0  0  0  0  0
  -21.6852   -6.0722   22.5283 C   0  0  0  0  0  0
  -21.4017   -6.5643   23.8198 C   0  0  0  0  0  0
  -21.3658   -5.6812   24.9177 C   0  0  0  0  0  0
  -21.6041   -4.3077   24.7235 C   0  0  0  0  0  0
  -21.8821   -3.8139   23.4363 C   0  0  0  0  0  0
  -21.9196   -4.6948   22.3405 C   0  0  0  0  0  0
  -22.7877  -13.5215   21.1835 C   0  0  0  0  0  0
  -22.1678   -4.2118   21.0988 F   0  0  0  0  0  0
  -21.5632   -3.4567   25.7751 F   0  0  0  0  0  0
  -30.0440  -13.2807   20.4410 N   0  0  0  0  0  0
  -26.3083  -12.9357   20.3477 N   0  0  0  0  0  0
  -25.9360  -11.6505   20.5826 N   0  0  0  0  0  0
  -22.0569  -12.8185   22.0393 N   0  0  0  0  0  0
  -25.4315  -15.1880   20.4135 N   0  0  0  0  0  0
  -31.8500  -14.6015   20.1135 O   0  0  0  0  0  0
  -21.6658   -6.8877   21.4240 O   0  0  0  0  0  0
  -22.3548  -14.5545   20.6725 O   0  0  0  0  0  0
  -24.6148  -31.8665   23.2116 C   0  0  0  0  0  0
  -25.9034  -32.4809   23.8407 C   0  0  1  0  0  0
  -27.2521  -27.4259   20.1030 C   0  0  0  0  0  0
  -25.5895  -33.8613   24.2333 N   0  0  0  0  0  0
  -23.4050  -30.4934   21.5467 C   0  0  2  0  0  0
  -24.8534  -28.9487   20.1174 C   0  0  0  0  0  0
  -22.7384  -29.4680   22.4945 C   0  0  0  0  0  0
  -18.0257  -28.1388   22.8496 C   0  0  0  0  0  0
  -24.1479  -36.7322   23.2644 C   0  0  0  0  0  0
  -25.9374  -30.8257   21.3698 C   0  0  0  0  0  0
  -26.0113  -29.4592   20.7167 C   0  0  0  0  0  0
  -27.2053  -28.7009   20.7134 C   0  0  0  0  0  0
  -26.0711  -26.9273   19.5087 C   0  0  0  0  0  0
  -24.8768  -27.6765   19.5183 C   0  0  0  0  0  0
  -23.6149  -29.8181   20.1639 C   0  0  0  0  0  0
  -25.4100  -36.3112   24.0335 C   0  0  1  0  0  0
  -20.5852  -28.3650   23.1302 C   0  0  2  0  0  0
  -20.6753  -26.9388   22.5402 C   0  0  0  0  0  0
  -19.5746  -26.6376   21.5191 C   0  0  0  0  0  0
  -18.1917  -26.7945   22.1608 C   0  0  0  0  0  0
  -19.1517  -28.8833   23.2904 C   0  0  0  0  0  0
  -18.9450  -30.1449   23.8911 C   0  0  0  0  0  0
  -17.6461  -30.6596   24.0563 C   0  0  0  0  0  0
  -25.9023  -34.9463   23.5121 C   0  0  0  0  0  0
  -16.5344  -29.9098   23.6358 C   0  0  0  0  0  0
  -16.7251  -28.6520   23.0365 C   0  0  0  0  0  0
  -26.4468  -31.6637   25.0767 C   0  0  0  0  0  0
  -25.3745  -31.3718   26.1527 C   0  0  0  0  0  0
  -27.0346  -30.3092   24.6197 C   0  0  0  0  0  0
  -27.6039  -32.4386   25.7514 C   0  0  0  0  0  0
  -27.5587  -37.1805   24.8459 C   0  0  0  0  0  0
  -21.4107  -29.3025   22.3676 N   0  0  0  0  0  0
  -26.4289  -37.3797   23.9413 N   0  0  0  0  0  0
  -24.6705  -31.0768   22.1001 N   0  0  0  0  0  0
  -23.4148  -28.8214   23.2978 O   0  0  0  0  0  0
  -28.4508  -26.7283   20.1372 O   0  0  0  0  0  0
  -26.5590  -34.8913   22.4695 O   0  0  0  0  0  0
  -23.5345  -32.1410   23.7515 O   0  0  0  0  0  0
  -32.1917  -17.6427   19.4955 C   0  0  0  0  0  0
  -30.3024  -19.0033   20.2103 C   0  0  0  0  0  0
  -31.1377  -17.8732   20.3999 C   0  0  0  0  0  0
  -32.3761  -18.4673   18.3728 C   0  0  0  0  0  0
  -31.5295  -19.5858   18.1698 C   0  0  0  0  0  0
  -30.4970  -19.8702   19.1028 C   0  0  0  0  0  0
  -33.4691  -18.0936   17.3822 C   0  0  0  0  0  0
  -32.7475  -21.6114   17.2449 C   0  0  0  0  0  0
  -26.9684  -22.0424   19.5271 C   0  0  0  0  0  0
  -28.3674  -23.1081   17.7621 C   0  0  0  0  0  0
  -30.9348  -16.9081   21.5706 C   0  0  0  0  0  0
  -31.7315  -20.4971   16.9595 C   0  0  0  0  0  0
  -30.0509  -15.6576   21.2878 C   0  0  0  0  0  0
  -28.1403  -24.2202   20.0783 C   0  0  0  0  0  0
  -28.6334  -25.5245   19.3746 C   0  0  0  0  0  0
  -29.4500  -21.9640   19.7701 C   0  0  0  0  0  0
  -28.2577  -22.8582   19.2876 C   0  0  0  0  0  0
  -29.6299  -20.9044   18.8235 O   0  0  0  0  0  0
  -31.4612  -12.3752   19.1004 H   0  0  0  0  0  0
  -30.2917  -11.2885   19.7967 H   0  0  0  0  0  0
  -29.7090  -11.8128   17.4037 H   0  0  0  0  0  0
  -29.6487  -13.5167   17.7778 H   0  0  0  0  0  0
  -27.7949  -11.3370   18.7892 H   0  0  0  0  0  0
  -27.3536  -12.7021   17.7948 H   0  0  0  0  0  0
  -27.7132  -14.2639   19.6055 H   0  0  0  0  0  0
  -28.6905  -11.9556   21.3490 H   0  0  0  0  0  0
  -28.4773  -13.5843   21.8760 H   0  0  0  0  0  0
  -25.2798   -9.5668   22.4763 H   0  0  0  0  0  0
  -24.0012   -7.4631   22.7503 H   0  0  0  0  0  0
  -21.0854   -8.8786   19.8961 H   0  0  0  0  0  0
  -22.3734  -10.9680   19.6186 H   0  0  0  0  0  0
  -21.2034   -7.6153   23.9686 H   0  0  0  0  0  0
  -21.1480   -6.0561   25.9071 H   0  0  0  0  0  0
  -22.0602   -2.7594   23.2881 H   0  0  0  0  0  0
  -22.4250  -11.9819   22.4679 H   0  0  0  0  0  0
  -21.1199  -13.1177   22.2706 H   0  0  0  0  0  0
  -24.6689  -15.8467   20.5272 H   0  0  0  0  0  0
  -26.2888  -15.6213   20.0969 H   0  0  0  0  0  0
  -26.7107  -32.5507   23.1172 H   0  0  0  0  0  0
  -25.0053  -33.9750   25.0486 H   0  0  0  0  0  0
  -22.6966  -31.3121   21.4010 H   0  0  0  0  0  0
  -23.3733  -35.9666   23.3321 H   0  0  0  0  0  0
  -24.3575  -36.8946   22.2063 H   0  0  0  0  0  0
  -23.7235  -37.6523   23.6667 H   0  0  0  0  0  0
  -26.0545  -31.5853   20.5959 H   0  0  0  0  0  0
  -26.8266  -30.8796   21.9865 H   0  0  0  0  0  0
  -28.0964  -29.0905   21.1854 H   0  0  0  0  0  0
  -26.0414  -25.9502   19.0541 H   0  0  0  0  0  0
  -23.9842  -27.2599   19.0733 H   0  0  0  0  0  0
  -23.7289  -30.5932   19.4052 H   0  0  0  0  0  0
  -22.7395  -29.2342   19.8664 H   0  0  0  0  0  0
  -25.1280  -36.2005   25.0829 H   0  0  0  0  0  0
  -20.9958  -28.3230   24.1413 H   0  0  0  0  0  0
  -20.5653  -26.2238   23.3565 H   0  0  0  0  0  0
  -21.6632  -26.7442   22.1205 H   0  0  0  0  0  0
  -19.6915  -25.6272   21.1236 H   0  0  0  0  0  0
  -19.6751  -27.3160   20.6710 H   0  0  0  0  0  0
  -17.4194  -26.6666   21.4012 H   0  0  0  0  0  0
  -18.0373  -26.0072   22.9001 H   0  0  0  0  0  0
  -19.7920  -30.7254   24.2297 H   0  0  0  0  0  0
  -17.5022  -31.6297   24.5117 H   0  0  0  0  0  0
  -15.5360  -30.3006   23.7697 H   0  0  0  0  0  0
  -15.8633  -28.0850   22.7099 H   0  0  0  0  0  0
  -24.5896  -30.7094   25.7871 H   0  0  0  0  0  0
  -24.8946  -32.2849   26.5053 H   0  0  0  0  0  0
  -25.8113  -30.8841   27.0249 H   0  0  0  0  0  0
  -26.2937  -29.6792   24.1269 H   0  0  0  0  0  0
  -27.4120  -29.7396   25.4696 H   0  0  0  0  0  0
  -27.8747  -30.4415   23.9377 H   0  0  0  0  0  0
  -27.2673  -33.3674   26.2120 H   0  0  0  0  0  0
  -28.3826  -32.6982   25.0336 H   0  0  0  0  0  0
  -28.0738  -31.8515   26.5399 H   0  0  0  0  0  0
  -28.2589  -38.0117   24.7521 H   0  0  0  0  0  0
  -28.1088  -36.2633   24.6278 H   0  0  0  0  0  0
  -27.2281  -37.1478   25.8853 H   0  0  0  0  0  0
  -20.9236  -29.8737   21.6911 H   0  0  0  0  0  0
  -26.0183  -38.2877   24.1433 H   0  0  0  0  0  0
  -32.8580  -16.8037   19.6481 H   0  0  0  0  0  0
  -29.4873  -19.1842   20.8971 H   0  0  0  0  0  0
  -34.1244  -17.3246   17.7924 H   0  0  0  0  0  0
  -34.0907  -18.9481   17.1228 H   0  0  0  0  0  0
  -33.0243  -17.6954   16.4705 H   0  0  0  0  0  0
  -32.9136  -22.2302   16.3635 H   0  0  0  0  0  0
  -33.7124  -21.2025   17.5415 H   0  0  0  0  0  0
  -32.4034  -22.2620   18.0495 H   0  0  0  0  0  0
  -26.0955  -22.5322   19.0935 H   0  0  0  0  0  0
  -26.7810  -21.9066   20.5926 H   0  0  0  0  0  0
  -27.0385  -21.0491   19.0808 H   0  0  0  0  0  0
  -27.5649  -23.7527   17.4014 H   0  0  0  0  0  0
  -28.2942  -22.1852   17.1859 H   0  0  0  0  0  0
  -29.3198  -23.5704   17.4972 H   0  0  0  0  0  0
  -30.4924  -17.4684   22.3946 H   0  0  0  0  0  0
  -31.9102  -16.5892   21.9434 H   0  0  0  0  0  0
  -30.7804  -20.9440   16.6668 H   0  0  0  0  0  0
  -32.0507  -19.9163   16.0920 H   0  0  0  0  0  0
  -29.1614  -15.9442   20.7255 H   0  0  0  0  0  0
  -29.7101  -15.3112   22.2590 H   0  0  0  0  0  0
  -27.0960  -24.3791   20.3448 H   0  0  0  0  0  0
  -28.6477  -24.1221   21.0390 H   0  0  0  0  0  0
  -28.1834  -25.6665   18.3939 H   0  0  0  0  0  0
  -29.7033  -25.4317   19.1875 H   0  0  0  0  0  0
  -29.2507  -21.5694   20.7682 H   0  0  0  0  0  0
  -30.3714  -22.5441   19.8360 H   0  0  0  0  0  0
  1 25  1  0  0  0
  1 30  2  0  0  0
  1 83  1  0  0  0
  2  3  1  0  0  0
  2 25  1  0  0  0
  2 89  1  0  0  0
  2 90  1  0  0  0
  3  4  1  0  0  0
  3 91  1  0  0  0
  3 92  1  0  0  0
  4  5  1  0  0  0
  4 93  1  0  0  0
  4 94  1  0  0  0
  5  6  1  0  0  0
  5 26  1  0  0  0
  5 95  1  0  0  0
  6 25  1  0  0  0
  6 96  1  0  0  0
  6 97  1  0  0  0
  7  8  2  0  0  0
  7 26  1  0  0  0
  7 29  1  0  0  0
  8  9  1  0  0  0
  8 22  1  0  0  0
  9 10  1  0  0  0
  9 27  2  0  0  0
 10 11  2  0  0  0
 10 15  1  0  0  0
 11 12  1  0  0  0
 11 98  1  0  0  0
 12 13  2  0  0  0
 12 99  1  0  0  0
 13 14  1  0  0  0
 13 31  1  0  0  0
 14 15  2  0  0  0
 14100  1  0  0  0
 15101  1  0  0  0
 16 17  2  0  0  0
 16 21  1  0  0  0
 16 31  1  0  0  0
 17 18  1  0  0  0
 17102  1  0  0  0
 18 19  2  0  0  0
 18103  1  0  0  0
 19 20  1  0  0  0
 19 24  1  0  0  0
 20 21  2  0  0  0
 20104  1  0  0  0
 21 23  1  0  0  0
 22 28  1  0  0  0
 22 32  2  0  0  0
 26 27  1  0  0  0
 28105  1  0  0  0
 28106  1  0  0  0
 29107  1  0  0  0
 29108  1  0  0  0
 33 34  1  0  0  0
 33 66  1  0  0  0
 33 70  2  0  0  0
 34 36  1  0  0  0
 34 59  1  0  0  0
 34109  1  0  0  0
 35 44  2  0  0  0
 35 45  1  0  0  0
 35 68  1  0  0  0
 36 56  1  0  0  0
 36110  1  0  0  0
 37 39  1  0  0  0
 37 47  1  0  0  0
 37 66  1  0  0  0
 37111  1  0  0  0
 38 43  2  0  0  0
 38 46  1  0  0  0
 38 47  1  0  0  0
 39 64  1  0  0  0
 39 67  2  0  0  0
 40 52  1  0  0  0
 40 53  2  0  0  0
 40 58  1  0  0  0
 41112  1  0  0  0
 41113  1  0  0  0
 41114  1  0  0  0
 41 48  1  0  0  0
 42 43  1  0  0  0
 42 66  1  0  0  0
 42115  1  0  0  0
 42116  1  0  0  0
 43 44  1  0  0  0
 44117  1  0  0  0
 45 46  2  0  0  0
 45118  1  0  0  0
 46119  1  0  0  0
 47120  1  0  0  0
 47121  1  0  0  0
 48 56  1  0  0  0
 48 65  1  0  0  0
 48122  1  0  0  0
 49 50  1  0  0  0
 49 53  1  0  0  0
 49 64  1  0  0  0
 49123  1  0  0  0
 50 51  1  0  0  0
 50124  1  0  0  0
 50125  1  0  0  0
 51 52  1  0  0  0
 51126  1  0  0  0
 51127  1  0  0  0
 52128  1  0  0  0
 52129  1  0  0  0
 53 54  1  0  0  0
 54 55  2  0  0  0
 54130  1  0  0  0
 55 57  1  0  0  0
 55131  1  0  0  0
 56 69  2  0  0  0
 57 58  2  0  0  0
 57132  1  0  0  0
 58133  1  0  0  0
 59 60  1  0  0  0
 59 61  1  0  0  0
 59 62  1  0  0  0
 60134  1  0  0  0
 60135  1  0  0  0
 60136  1  0  0  0
 61137  1  0  0  0
 61138  1  0  0  0
 61139  1  0  0  0
 62140  1  0  0  0
 62141  1  0  0  0
 62142  1  0  0  0
 63 65  1  0  0  0
 63143  1  0  0  0
 63144  1  0  0  0
 63145  1  0  0  0
 64146  1  0  0  0
 65147  1  0  0  0
 68 85  1  0  0  0
 71 73  2  0  0  0
 71 74  1  0  0  0
 71148  1  0  0  0
 72 73  1  0  0  0
 72 76  2  0  0  0
 72149  1  0  0  0
 73 81  1  0  0  0
 74 75  2  0  0  0
 74 77  1  0  0  0
 75 76  1  0  0  0
 75 82  1  0  0  0
 76 88  1  0  0  0
 77150  1  0  0  0
 77151  1  0  0  0
 77152  1  0  0  0
 78 82  1  0  0  0
 78153  1  0  0  0
 78154  1  0  0  0
 78155  1  0  0  0
 79156  1  0  0  0
 79157  1  0  0  0
 79158  1  0  0  0
 79 87  1  0  0  0
 80 87  1  0  0  0
 80159  1  0  0  0
 80160  1  0  0  0
 80161  1  0  0  0
 81 83  1  0  0  0
 81162  1  0  0  0
 81163  1  0  0  0
 82164  1  0  0  0
 82165  1  0  0  0
 83166  1  0  0  0
 83167  1  0  0  0
 84 85  1  0  0  0
 84 87  1  0  0  0
 84168  1  0  0  0
 84169  1  0  0  0
 85170  1  0  0  0
 85171  1  0  0  0
 86 87  1  0  0  0
 86 88  1  0  0  0
 86172  1  0  0  0
 86173  1  0  0  0
M  ISO  4   1 100  68 101  83 100  85 101
M  END
> <chiral flag>
0

> <version>
0

> <s_m_source_file>
/data/baiqing/PycharmProjects/Reinvent-master-3.2/result/LINK_invent/BTK/process_docking_weight1_custom_product_contain_oxygen_bond_distance_aromatic_linkinvent_7_9_3/rearranged_h_0132.sdf

> <i_m_source_file_index>
25

> <r_mmod_Potential_Energy-OPLS-2005>
5.16281175613403

> <r_mmod_Stretch_Energy-OPLS-2005>
45.322811126709

> <r_mmod_Bend_Energy-OPLS-2005>
120.846832275391

> <r_mmod_Torsional_Energy-OPLS-2005>
211.100173950195

> <r_mmod_Improper_Torsional_Energy-OPLS-2005>
3.03070640563965

> <r_mmod_Van_der_Waal_Energy-OPLS-2005>
153.479949951172

> <r_mmod_Electrostatic_Energy-OPLS-2005>
-354.771453857422

> <r_mmod_Solvation_Energy-OPLS-2005>
-186.738037109375

> <b_mmod_Minimization_Converged-OPLS-2005>
0

> <r_mmod_RMS_Derivative-OPLS-2005>
4.24960231781006

$$$$
25
                    3D
 Structure written by MMmdl.
163171  0  0  1  0            999 V2000
  -30.7759  -14.4036   20.5827 C   0  0  0  0  0  0
  -30.4083  -12.2732   19.4052 C   0  0  0  0  0  0
  -29.4800  -12.4881   18.1950 C   0  0  0  0  0  0
  -28.0073  -12.3548   18.6208 C   0  0  0  0  0  0
  -27.6647  -13.2100   19.8697 C   0  0  2  0  0  0
  -28.7136  -13.0195   20.9907 C   0  0  0  0  0  0
  -25.2615  -13.8178   20.5699 C   0  0  0  0  0  0
  -24.1867  -13.0451   20.9173 C   0  0  0  0  0  0
  -24.6422  -11.6917   20.8743 C   0  0  0  0  0  0
  -23.9090  -10.4295   21.0397 C   0  0  0  0  0  0
  -24.3631   -9.4209   21.9183 C   0  0  0  0  0  0
  -23.6297   -8.2251   22.0755 C   0  0  0  0  0  0
  -22.4287   -8.0289   21.3540 C   0  0  0  0  0  0
  -21.9930   -9.0261   20.4642 C   0  0  0  0  0  0
  -22.7260  -10.2137   20.3045 C   0  0  0  0  0  0
  -21.6851   -6.0748   22.5278 C   0  0  0  0  0  0
  -21.4020   -6.5650   23.8220 C   0  0  0  0  0  0
  -21.3653   -5.6790   24.9175 C   0  0  0  0  0  0
  -21.6036   -4.3050   24.7224 C   0  0  0  0  0  0
  -21.8827   -3.8152   23.4342 C   0  0  0  0  0  0
  -21.9203   -4.6971   22.3398 C   0  0  0  0  0  0
  -22.7878  -13.5232   21.1822 C   0  0  0  0  0  0
  -22.1666   -4.2155   21.0975 F   0  0  0  0  0  0
  -21.5622   -3.4534   25.7735 F   0  0  0  0  0  0
  -30.0491  -13.2673   20.4289 N   0  0  0  0  0  0
  -26.3072  -12.9363   20.3392 N   0  0  0  0  0  0
  -25.9358  -11.6516   20.5795 N   0  0  0  0  0  0
  -22.0522  -12.8218   22.0365 N   0  0  0  0  0  0
  -25.4328  -15.1904   20.4103 N   0  0  0  0  0  0
  -31.8853  -14.5300   20.0588 O   0  0  0  0  0  0
  -21.6647   -6.8893   21.4237 O   0  0  0  0  0  0
  -22.3562  -14.5539   20.6664 O   0  0  0  0  0  0
  -24.6120  -31.8687   23.2110 C   0  0  0  0  0  0
  -25.9043  -32.4814   23.8368 C   0  0  1  0  0  0
  -27.2410  -27.4557   20.0801 C   0  0  0  0  0  0
  -25.5879  -33.8613   24.2278 N   0  0  0  0  0  0
  -23.3970  -30.4920   21.5515 C   0  0  2  0  0  0
  -24.8441  -28.9603   20.1138 C   0  0  0  0  0  0
  -22.7416  -29.4649   22.5001 C   0  0  0  0  0  0
  -18.0250  -28.1381   22.8473 C   0  0  0  0  0  0
  -24.1509  -36.7297   23.2633 C   0  0  0  0  0  0
  -25.9248  -30.8356   21.3686 C   0  0  0  0  0  0
  -26.0021  -29.4773   20.7029 C   0  0  0  0  0  0
  -27.2007  -28.7352   20.6756 C   0  0  0  0  0  0
  -26.0571  -26.9408   19.4975 C   0  0  0  0  0  0
  -24.8651  -27.6910   19.5108 C   0  0  0  0  0  0
  -23.6026  -29.8219   20.1669 C   0  0  0  0  0  0
  -25.4138  -36.3090   24.0298 C   0  0  1  0  0  0
  -20.5838  -28.3664   23.1313 C   0  0  2  0  0  0
  -20.6760  -26.9408   22.5398 C   0  0  0  0  0  0
  -19.5737  -26.6386   21.5206 C   0  0  0  0  0  0
  -18.1907  -26.7930   22.1608 C   0  0  0  0  0  0
  -19.1501  -28.8842   23.2889 C   0  0  0  0  0  0
  -18.9432  -30.1456   23.8890 C   0  0  0  0  0  0
  -17.6438  -30.6583   24.0567 C   0  0  0  0  0  0
  -25.9048  -34.9461   23.5105 C   0  0  0  0  0  0
  -16.5330  -29.9077   23.6330 C   0  0  0  0  0  0
  -16.7244  -28.6514   23.0303 C   0  0  0  0  0  0
  -26.4465  -31.6643   25.0733 C   0  0  0  0  0  0
  -25.3718  -31.3760   26.1465 C   0  0  0  0  0  0
  -27.0377  -30.3094   24.6195 C   0  0  0  0  0  0
  -27.5988  -32.4433   25.7499 C   0  0  0  0  0  0
  -27.5593  -37.1799   24.8448 C   0  0  0  0  0  0
  -21.4140  -29.3032   22.3755 N   0  0  0  0  0  0
  -26.4335  -37.3760   23.9364 N   0  0  0  0  0  0
  -24.6607  -31.0797   22.1003 N   0  0  0  0  0  0
  -23.4203  -28.8180   23.3020 O   0  0  0  0  0  0
  -28.4502  -26.7936   20.0933 O   0  0  0  0  0  0
  -26.5633  -34.8915   22.4684 O   0  0  0  0  0  0
  -23.5347  -32.1445   23.7542 O   0  0  0  0  0  0
  -29.1993  -20.1614   20.7570 C   0  0  0  0  0  0
  -29.7101  -18.8756   20.5090 C   0  0  0  0  0  0
  -30.2067  -20.1304   22.9702 C   0  0  0  0  0  0
  -29.4617  -20.8128   21.9818 C   0  0  0  0  0  0
  -30.4792  -18.2087   21.4829 C   0  0  0  0  0  0
  -30.7113  -18.8309   22.7328 C   0  0  0  0  0  0
  -31.5119  -18.1303   23.8185 C   0  0  0  0  0  0
  -27.0019  -24.7235   21.8573 C   0  0  0  0  0  0
  -28.9487  -22.2281   22.2538 C   0  0  0  0  0  0
  -31.1028  -16.8740   21.1076 C   0  0  0  0  0  0
  -30.1978  -15.6308   21.3095 C   0  0  0  0  0  0
  -28.7534  -23.0925   20.9826 C   0  0  0  0  0  0
  -28.5241  -25.3801   19.8964 C   0  0  0  0  0  0
  -28.3991  -24.5795   21.2230 C   0  0  1  0  0  0
  -31.4506  -12.3392   19.0871 H   0  0  0  0  0  0
  -30.2887  -11.2662   19.8071 H   0  0  0  0  0  0
  -29.7059  -11.7611   17.4143 H   0  0  0  0  0  0
  -29.6538  -13.4722   17.7571 H   0  0  0  0  0  0
  -27.8201  -11.3008   18.8299 H   0  0  0  0  0  0
  -27.3492  -12.6184   17.7918 H   0  0  0  0  0  0
  -27.7044  -14.2529   19.5542 H   0  0  0  0  0  0
  -28.6725  -12.0048   21.3883 H   0  0  0  0  0  0
  -28.4955  -13.6783   21.8311 H   0  0  0  0  0  0
  -25.2786   -9.5684   22.4754 H   0  0  0  0  0  0
  -24.0009   -7.4649   22.7479 H   0  0  0  0  0  0
  -21.0872   -8.8779   19.8940 H   0  0  0  0  0  0
  -22.3732  -10.9674   19.6143 H   0  0  0  0  0  0
  -21.2016   -7.6154   23.9719 H   0  0  0  0  0  0
  -21.1457   -6.0523   25.9079 H   0  0  0  0  0  0
  -22.0613   -2.7610   23.2839 H   0  0  0  0  0  0
  -22.4131  -11.9871   22.4743 H   0  0  0  0  0  0
  -21.1131  -13.1221   22.2539 H   0  0  0  0  0  0
  -24.6677  -15.8476   20.5214 H   0  0  0  0  0  0
  -26.2962  -15.6326   20.1165 H   0  0  0  0  0  0
  -26.7124  -32.5481   23.1123 H   0  0  0  0  0  0
  -24.9967  -33.9782   25.0382 H   0  0  0  0  0  0
  -22.6841  -31.3079   21.4171 H   0  0  0  0  0  0
  -23.3774  -35.9627   23.3309 H   0  0  0  0  0  0
  -24.3608  -36.8929   22.2050 H   0  0  0  0  0  0
  -23.7274  -37.6491   23.6702 H   0  0  0  0  0  0
  -26.0557  -31.6174   20.6195 H   0  0  0  0  0  0
  -26.8007  -30.8618   22.0053 H   0  0  0  0  0  0
  -28.0987  -29.1393   21.1226 H   0  0  0  0  0  0
  -26.0192  -25.9725   19.0259 H   0  0  0  0  0  0
  -23.9692  -27.2911   19.0555 H   0  0  0  0  0  0
  -23.7067  -30.5918   19.4030 H   0  0  0  0  0  0
  -22.7285  -29.2394   19.8738 H   0  0  0  0  0  0
  -25.1345  -36.1938   25.0794 H   0  0  0  0  0  0
  -20.9898  -28.3220   24.1443 H   0  0  0  0  0  0
  -20.5696  -26.2259   23.3583 H   0  0  0  0  0  0
  -21.6624  -26.7487   22.1175 H   0  0  0  0  0  0
  -19.6907  -25.6302   21.1229 H   0  0  0  0  0  0
  -19.6667  -27.3209   20.6757 H   0  0  0  0  0  0
  -17.4182  -26.6657   21.4014 H   0  0  0  0  0  0
  -18.0293  -26.0073   22.9006 H   0  0  0  0  0  0
  -19.7914  -30.7261   24.2249 H   0  0  0  0  0  0
  -17.5000  -31.6249   24.5203 H   0  0  0  0  0  0
  -15.5335  -30.2962   23.7711 H   0  0  0  0  0  0
  -15.8636  -28.0889   22.6940 H   0  0  0  0  0  0
  -24.5807  -30.7223   25.7762 H   0  0  0  0  0  0
  -24.9014  -32.2951   26.4986 H   0  0  0  0  0  0
  -25.8013  -30.8825   27.0189 H   0  0  0  0  0  0
  -26.2979  -29.6755   24.1295 H   0  0  0  0  0  0
  -27.4170  -29.7425   25.4706 H   0  0  0  0  0  0
  -27.8783  -30.4401   23.9370 H   0  0  0  0  0  0
  -27.2527  -33.3710   26.2071 H   0  0  0  0  0  0
  -28.3772  -32.7062   25.0326 H   0  0  0  0  0  0
  -28.0698  -31.8601   26.5428 H   0  0  0  0  0  0
  -28.2581  -38.0128   24.7546 H   0  0  0  0  0  0
  -28.1130  -36.2653   24.6259 H   0  0  0  0  0  0
  -27.2295  -37.1388   25.8845 H   0  0  0  0  0  0
  -20.9325  -29.8791   21.6988 H   0  0  0  0  0  0
  -26.0215  -38.2833   24.1366 H   0  0  0  0  0  0
  -28.6209  -20.6392   19.9818 H   0  0  0  0  0  0
  -29.5280  -18.4090   19.5501 H   0  0  0  0  0  0
  -30.4050  -20.6148   23.9168 H   0  0  0  0  0  0
  -31.4457  -18.6531   24.7724 H   0  0  0  0  0  0
  -32.5655  -18.0757   23.5454 H   0  0  0  0  0  0
  -31.1444  -17.1146   23.9716 H   0  0  0  0  0  0
  -26.9089  -24.1451   22.7755 H   0  0  0  0  0  0
  -26.2188  -24.3926   21.1756 H   0  0  0  0  0  0
  -26.7933  -25.7589   22.1269 H   0  0  0  0  0  0
  -29.6515  -22.7286   22.9236 H   0  0  0  0  0  0
  -28.0100  -22.1441   22.8010 H   0  0  0  0  0  0
  -32.0472  -16.7319   21.6346 H   0  0  0  0  0  0
  -31.3850  -16.9625   20.0561 H   0  0  0  0  0  0
  -29.2098  -15.8322   20.8973 H   0  0  0  0  0  0
  -30.0726  -15.4116   22.3696 H   0  0  0  0  0  0
  -27.9768  -22.6593   20.3519 H   0  0  0  0  0  0
  -29.6786  -23.0417   20.4089 H   0  0  0  0  0  0
  -27.8538  -25.0047   19.1247 H   0  0  0  0  0  0
  -29.5189  -25.2098   19.4845 H   0  0  0  0  0  0
  -29.1321  -24.9867   21.9219 H   0  0  0  0  0  0
  1 25  1  0  0  0
  1 30  2  0  0  0
  1 81  1  0  0  0
  2  3  1  0  0  0
  2 25  1  0  0  0
  2 85  1  0  0  0
  2 86  1  0  0  0
  3  4  1  0  0  0
  3 87  1  0  0  0
  3 88  1  0  0  0
  4  5  1  0  0  0
  4 89  1  0  0  0
  4 90  1  0  0  0
  5  6  1  0  0  0
  5 26  1  0  0  0
  5 91  1  0  0  0
  6 25  1  0  0  0
  6 92  1  0  0  0
  6 93  1  0  0  0
  7  8  2  0  0  0
  7 26  1  0  0  0
  7 29  1  0  0  0
  8  9  1  0  0  0
  8 22  1  0  0  0
  9 10  1  0  0  0
  9 27  2  0  0  0
 10 11  2  0  0  0
 10 15  1  0  0  0
 11 12  1  0  0  0
 11 94  1  0  0  0
 12 13  2  0  0  0
 12 95  1  0  0  0
 13 14  1  0  0  0
 13 31  1  0  0  0
 14 15  2  0  0  0
 14 96  1  0  0  0
 15 97  1  0  0  0
 16 17  2  0  0  0
 16 21  1  0  0  0
 16 31  1  0  0  0
 17 18  1  0  0  0
 17 98  1  0  0  0
 18 19  2  0  0  0
 18 99  1  0  0  0
 19 20  1  0  0  0
 19 24  1  0  0  0
 20 21  2  0  0  0
 20100  1  0  0  0
 21 23  1  0  0  0
 22 28  1  0  0  0
 22 32  2  0  0  0
 26 27  1  0  0  0
 28101  1  0  0  0
 28102  1  0  0  0
 29103  1  0  0  0
 29104  1  0  0  0
 33 34  1  0  0  0
 33 66  1  0  0  0
 33 70  2  0  0  0
 34 36  1  0  0  0
 34 59  1  0  0  0
 34105  1  0  0  0
 35 44  2  0  0  0
 35 45  1  0  0  0
 35 68  1  0  0  0
 36 56  1  0  0  0
 36106  1  0  0  0
 37 39  1  0  0  0
 37 47  1  0  0  0
 37 66  1  0  0  0
 37107  1  0  0  0
 38 43  2  0  0  0
 38 46  1  0  0  0
 38 47  1  0  0  0
 39 64  1  0  0  0
 39 67  2  0  0  0
 40 52  1  0  0  0
 40 53  2  0  0  0
 40 58  1  0  0  0
 41108  1  0  0  0
 41109  1  0  0  0
 41110  1  0  0  0
 41 48  1  0  0  0
 42 43  1  0  0  0
 42 66  1  0  0  0
 42111  1  0  0  0
 42112  1  0  0  0
 43 44  1  0  0  0
 44113  1  0  0  0
 45 46  2  0  0  0
 45114  1  0  0  0
 46115  1  0  0  0
 47116  1  0  0  0
 47117  1  0  0  0
 48 56  1  0  0  0
 48 65  1  0  0  0
 48118  1  0  0  0
 49 50  1  0  0  0
 49 53  1  0  0  0
 49 64  1  0  0  0
 49119  1  0  0  0
 50 51  1  0  0  0
 50120  1  0  0  0
 50121  1  0  0  0
 51 52  1  0  0  0
 51122  1  0  0  0
 51123  1  0  0  0
 52124  1  0  0  0
 52125  1  0  0  0
 53 54  1  0  0  0
 54 55  2  0  0  0
 54126  1  0  0  0
 55 57  1  0  0  0
 55127  1  0  0  0
 56 69  2  0  0  0
 57 58  2  0  0  0
 57128  1  0  0  0
 58129  1  0  0  0
 59 60  1  0  0  0
 59 61  1  0  0  0
 59 62  1  0  0  0
 60130  1  0  0  0
 60131  1  0  0  0
 60132  1  0  0  0
 61133  1  0  0  0
 61134  1  0  0  0
 61135  1  0  0  0
 62136  1  0  0  0
 62137  1  0  0  0
 62138  1  0  0  0
 63 65  1  0  0  0
 63139  1  0  0  0
 63140  1  0  0  0
 63141  1  0  0  0
 64142  1  0  0  0
 65143  1  0  0  0
 68 83  1  0  0  0
 71 72  2  0  0  0
 71 74  1  0  0  0
 71144  1  0  0  0
 72 75  1  0  0  0
 72145  1  0  0  0
 73 74  2  0  0  0
 73 76  1  0  0  0
 73146  1  0  0  0
 74 79  1  0  0  0
 75 76  2  0  0  0
 75 80  1  0  0  0
 76 77  1  0  0  0
 77147  1  0  0  0
 77148  1  0  0  0
 77149  1  0  0  0
 78150  1  0  0  0
 78151  1  0  0  0
 78152  1  0  0  0
 78 84  1  0  0  0
 79 82  1  0  0  0
 79153  1  0  0  0
 79154  1  0  0  0
 80 81  1  0  0  0
 80155  1  0  0  0
 80156  1  0  0  0
 81157  1  0  0  0
 81158  1  0  0  0
 82 84  1  0  0  0
 82159  1  0  0  0
 82160  1  0  0  0
 83 84  1  0  0  0
 83161  1  0  0  0
 83162  1  0  0  0
 84163  1  0  0  0
M  ISO  4   1 100  68 101  81 100  83 101
M  END
> <chiral flag>
0

> <version>
0

> <s_m_source_file>
/data/baiqing/PycharmProjects/Reinvent-master-3.2/result/LINK_invent/BTK/process_docking_weight1_custom_product_contain_oxygen_bond_distance_aromatic_linkinvent_7_9_3/rearranged_h_0132.sdf

> <i_m_source_file_index>
26

> <r_mmod_Potential_Energy-OPLS-2005>
-53.3779716491699

> <r_mmod_Stretch_Energy-OPLS-2005>
34.0900115966797

> <r_mmod_Bend_Energy-OPLS-2005>
102.994033813477

> <r_mmod_Torsional_Energy-OPLS-2005>
167.952209472656

> <r_mmod_Improper_Torsional_Energy-OPLS-2005>
2.59327816963196

> <r_mmod_Van_der_Waal_Energy-OPLS-2005>
159.784362792969

> <r_mmod_Electrostatic_Energy-OPLS-2005>
-351.486541748047

> <r_mmod_Solvation_Energy-OPLS-2005>
-182.554962158203

> <b_mmod_Minimization_Converged-OPLS-2005>
0

> <r_mmod_RMS_Derivative-OPLS-2005>
3.20780444145203

$$$$
26
                    3D
 Structure written by MMmdl.
165173  0  0  1  0            999 V2000
  -30.7155  -14.4721   20.5632 C   0  0  0  0  0  0
  -30.4094  -12.3000   19.4412 C   0  0  0  0  0  0
  -29.4979  -12.4944   18.2129 C   0  0  0  0  0  0
  -28.0156  -12.3628   18.6181 C   0  0  0  0  0  0
  -27.6559  -13.2118   19.8684 C   0  0  2  0  0  0
  -28.6930  -13.0256   20.9990 C   0  0  0  0  0  0
  -25.2553  -13.8162   20.5682 C   0  0  0  0  0  0
  -24.1809  -13.0425   20.9172 C   0  0  0  0  0  0
  -24.6375  -11.6895   20.8727 C   0  0  0  0  0  0
  -23.9043  -10.4281   21.0404 C   0  0  0  0  0  0
  -24.3592   -9.4204   21.9198 C   0  0  0  0  0  0
  -23.6275   -8.2239   22.0765 C   0  0  0  0  0  0
  -22.4267   -8.0273   21.3562 C   0  0  0  0  0  0
  -21.9893   -9.0235   20.4663 C   0  0  0  0  0  0
  -22.7214  -10.2113   20.3053 C   0  0  0  0  0  0
  -21.6845   -6.0733   22.5304 C   0  0  0  0  0  0
  -21.4001   -6.5636   23.8234 C   0  0  0  0  0  0
  -21.3650   -5.6792   24.9189 C   0  0  0  0  0  0
  -21.6038   -4.3056   24.7246 C   0  0  0  0  0  0
  -21.8808   -3.8149   23.4369 C   0  0  0  0  0  0
  -21.9181   -4.6960   22.3420 C   0  0  0  0  0  0
  -22.7839  -13.5204   21.1827 C   0  0  0  0  0  0
  -22.1661   -4.2144   21.0996 F   0  0  0  0  0  0
  -21.5620   -3.4542   25.7758 F   0  0  0  0  0  0
  -30.0228  -13.3084   20.4415 N   0  0  0  0  0  0
  -26.2987  -12.9345   20.3327 N   0  0  0  0  0  0
  -25.9296  -11.6499   20.5728 N   0  0  0  0  0  0
  -22.0460  -12.8141   22.0326 N   0  0  0  0  0  0
  -25.4261  -15.1885   20.4133 N   0  0  0  0  0  0
  -31.8531  -14.6090   20.1062 O   0  0  0  0  0  0
  -21.6631   -6.8869   21.4274 O   0  0  0  0  0  0
  -22.3525  -14.5521   20.6694 O   0  0  0  0  0  0
  -24.6178  -31.8660   23.2066 C   0  0  0  0  0  0
  -25.9068  -32.4805   23.8364 C   0  0  1  0  0  0
  -27.2292  -27.4267   20.1012 C   0  0  0  0  0  0
  -25.5930  -33.8603   24.2309 N   0  0  0  0  0  0
  -23.4026  -30.4902   21.5472 C   0  0  2  0  0  0
  -24.8478  -28.9502   20.1149 C   0  0  0  0  0  0
  -22.7407  -29.4657   22.4977 C   0  0  0  0  0  0
  -18.0278  -28.1382   22.8508 C   0  0  0  0  0  0
  -24.1480  -36.7300   23.2637 C   0  0  0  0  0  0
  -25.9304  -30.8317   21.3556 C   0  0  0  0  0  0
  -26.0080  -29.4636   20.7080 C   0  0  0  0  0  0
  -27.2056  -28.7108   20.6930 C   0  0  0  0  0  0
  -26.0545  -26.9260   19.5031 C   0  0  0  0  0  0
  -24.8659  -27.6822   19.5078 C   0  0  0  0  0  0
  -23.6098  -29.8183   20.1624 C   0  0  0  0  0  0
  -25.4103  -36.3097   24.0341 C   0  0  1  0  0  0
  -20.5866  -28.3662   23.1321 C   0  0  2  0  0  0
  -20.6770  -26.9405   22.5410 C   0  0  0  0  0  0
  -19.5736  -26.6393   21.5215 C   0  0  0  0  0  0
  -18.1915  -26.7935   22.1633 C   0  0  0  0  0  0
  -19.1531  -28.8840   23.2917 C   0  0  0  0  0  0
  -18.9457  -30.1453   23.8912 C   0  0  0  0  0  0
  -17.6453  -30.6590   24.0572 C   0  0  0  0  0  0
  -25.9035  -34.9468   23.5112 C   0  0  0  0  0  0
  -16.5343  -29.9082   23.6335 C   0  0  0  0  0  0
  -16.7264  -28.6506   23.0349 C   0  0  0  0  0  0
  -26.4503  -31.6573   25.0682 C   0  0  0  0  0  0
  -25.3786  -31.3672   26.1430 C   0  0  0  0  0  0
  -27.0329  -30.3023   24.6030 C   0  0  0  0  0  0
  -27.6072  -32.4273   25.7471 C   0  0  0  0  0  0
  -27.5570  -37.1804   24.8472 C   0  0  0  0  0  0
  -21.4135  -29.3030   22.3735 N   0  0  0  0  0  0
  -26.4274  -37.3799   23.9426 N   0  0  0  0  0  0
  -24.6682  -31.0773   22.0952 N   0  0  0  0  0  0
  -23.4192  -28.8222   23.3023 O   0  0  0  0  0  0
  -28.3857  -26.6796   20.0795 O   0  0  0  0  0  0
  -26.5570  -34.8927   22.4656 O   0  0  0  0  0  0
  -23.5370  -32.1396   23.7482 O   0  0  0  0  0  0
  -28.2363  -20.2297   22.5213 C   0  0  0  0  0  0
  -29.2587  -18.0434   22.7949 C   0  0  0  0  0  0
  -28.5221  -19.1149   23.3275 C   0  0  0  0  0  0
  -28.6524  -20.2919   21.1733 C   0  0  0  0  0  0
  -29.7077  -18.0597   21.4583 C   0  0  0  0  0  0
  -29.3756  -19.1804   20.6198 C   0  0  0  0  0  0
  -28.0554  -19.0773   24.7707 C   0  0  0  0  0  0
  -28.5508  -18.7208   18.2618 C   0  0  0  0  0  0
  -28.2395  -21.5468   20.3638 C   0  0  0  0  0  0
  -29.7336  -19.1801   19.1273 C   0  0  0  0  0  0
  -30.6255  -16.8900   21.0436 C   0  0  0  0  0  0
  -28.5058  -22.9184   21.0498 C   0  0  0  0  0  0
  -28.2694  -24.1633   20.1466 C   0  0  0  0  0  0
  -28.3874  -25.5066   20.9136 C   0  0  0  0  0  0
  -30.0520  -15.5336   21.0660 N   0  0  0  0  0  0
  -31.4620  -12.3649   19.1571 H   0  0  0  0  0  0
  -30.2778  -11.3008   19.8571 H   0  0  0  0  0  0
  -29.7412  -11.7610   17.4427 H   0  0  0  0  0  0
  -29.6766  -13.4755   17.7705 H   0  0  0  0  0  0
  -27.8249  -11.3078   18.8169 H   0  0  0  0  0  0
  -27.3691  -12.6352   17.7825 H   0  0  0  0  0  0
  -27.6887  -14.2538   19.5489 H   0  0  0  0  0  0
  -28.6657  -12.0024   21.3768 H   0  0  0  0  0  0
  -28.4579  -13.6661   21.8504 H   0  0  0  0  0  0
  -25.2728   -9.5694   22.4780 H   0  0  0  0  0  0
  -23.9993   -7.4626   22.7469 H   0  0  0  0  0  0
  -21.0823   -8.8733   19.8990 H   0  0  0  0  0  0
  -22.3652  -10.9636   19.6154 H   0  0  0  0  0  0
  -21.2005   -7.6153   23.9739 H   0  0  0  0  0  0
  -21.1488   -6.0522   25.9089 H   0  0  0  0  0  0
  -22.0592   -2.7618   23.2867 H   0  0  0  0  0  0
  -22.4057  -11.9761   22.4641 H   0  0  0  0  0  0
  -21.1037  -13.1092   22.2452 H   0  0  0  0  0  0
  -24.6604  -15.8407   20.5381 H   0  0  0  0  0  0
  -26.2799  -15.6366   20.1050 H   0  0  0  0  0  0
  -26.7153  -32.5516   23.1151 H   0  0  0  0  0  0
  -25.0194  -33.9758   25.0529 H   0  0  0  0  0  0
  -22.6917  -31.3070   21.4092 H   0  0  0  0  0  0
  -23.3741  -35.9632   23.3305 H   0  0  0  0  0  0
  -24.3574  -36.8891   22.2047 H   0  0  0  0  0  0
  -23.7233  -37.6518   23.6630 H   0  0  0  0  0  0
  -26.0331  -31.5921   20.5799 H   0  0  0  0  0  0
  -26.8222  -30.8912   21.9667 H   0  0  0  0  0  0
  -28.1047  -29.1056   21.1442 H   0  0  0  0  0  0
  -26.0564  -25.9561   19.0271 H   0  0  0  0  0  0
  -23.9744  -27.2852   19.0420 H   0  0  0  0  0  0
  -23.7199  -30.5889   19.3977 H   0  0  0  0  0  0
  -22.7317  -29.2388   19.8713 H   0  0  0  0  0  0
  -25.1291  -36.1947   25.0836 H   0  0  0  0  0  0
  -20.9984  -28.3217   24.1431 H   0  0  0  0  0  0
  -20.5683  -26.2270   23.3595 H   0  0  0  0  0  0
  -21.6638  -26.7443   22.1207 H   0  0  0  0  0  0
  -19.6879  -25.6310   21.1221 H   0  0  0  0  0  0
  -19.6666  -27.3214   20.6757 H   0  0  0  0  0  0
  -17.4198  -26.6711   21.4015 H   0  0  0  0  0  0
  -18.0311  -26.0052   22.9009 H   0  0  0  0  0  0
  -19.7925  -30.7291   24.2266 H   0  0  0  0  0  0
  -17.4994  -31.6264   24.5177 H   0  0  0  0  0  0
  -15.5343  -30.2991   23.7639 H   0  0  0  0  0  0
  -15.8674  -28.0839   22.7030 H   0  0  0  0  0  0
  -24.5975  -30.7004   25.7771 H   0  0  0  0  0  0
  -24.8984  -32.2831   26.4872 H   0  0  0  0  0  0
  -25.8160  -30.8855   27.0184 H   0  0  0  0  0  0
  -26.2853  -29.6782   24.1109 H   0  0  0  0  0  0
  -27.4159  -29.7249   25.4455 H   0  0  0  0  0  0
  -27.8668  -30.4364   23.9132 H   0  0  0  0  0  0
  -27.2694  -33.3567   26.2071 H   0  0  0  0  0  0
  -28.3901  -32.6813   25.0313 H   0  0  0  0  0  0
  -28.0719  -31.8373   26.5383 H   0  0  0  0  0  0
  -28.2605  -38.0084   24.7517 H   0  0  0  0  0  0
  -28.1046  -36.2620   24.6307 H   0  0  0  0  0  0
  -27.2289  -37.1470   25.8874 H   0  0  0  0  0  0
  -20.9283  -29.8762   21.6977 H   0  0  0  0  0  0
  -26.0156  -38.2878   24.1423 H   0  0  0  0  0  0
  -27.6716  -21.0462   22.9485 H   0  0  0  0  0  0
  -29.5082  -17.2046   23.4308 H   0  0  0  0  0  0
  -27.2024  -19.7371   24.9316 H   0  0  0  0  0  0
  -28.8559  -19.3897   25.4413 H   0  0  0  0  0  0
  -27.7499  -18.0702   25.0548 H   0  0  0  0  0  0
  -28.8229  -18.7022   17.2054 H   0  0  0  0  0  0
  -27.6899  -19.3813   18.3718 H   0  0  0  0  0  0
  -28.2312  -17.7165   18.5407 H   0  0  0  0  0  0
  -27.1710  -21.4583   20.1644 H   0  0  0  0  0  0
  -28.7061  -21.5774   19.3849 H   0  0  0  0  0  0
  -30.5928  -18.5643   18.8926 H   0  0  0  0  0  0
  -30.0791  -20.1597   18.8072 H   0  0  0  0  0  0
  -31.4588  -16.8897   21.7507 H   0  0  0  0  0  0
  -31.1033  -17.0441   20.0824 H   0  0  0  0  0  0
  -29.5379  -22.9440   21.4028 H   0  0  0  0  0  0
  -27.8783  -23.0135   21.9358 H   0  0  0  0  0  0
  -27.2875  -24.0930   19.6782 H   0  0  0  0  0  0
  -28.9950  -24.1542   19.3330 H   0  0  0  0  0  0
  -29.3339  -25.5123   21.4551 H   0  0  0  0  0  0
  -27.6130  -25.5703   21.6807 H   0  0  0  0  0  0
  -29.1064  -15.4082   21.3937 H   0  0  0  0  0  0
  1 25  1  0  0  0
  1 30  2  0  0  0
  1 85  1  0  0  0
  2  3  1  0  0  0
  2 25  1  0  0  0
  2 86  1  0  0  0
  2 87  1  0  0  0
  3  4  1  0  0  0
  3 88  1  0  0  0
  3 89  1  0  0  0
  4  5  1  0  0  0
  4 90  1  0  0  0
  4 91  1  0  0  0
  5  6  1  0  0  0
  5 26  1  0  0  0
  5 92  1  0  0  0
  6 25  1  0  0  0
  6 93  1  0  0  0
  6 94  1  0  0  0
  7  8  2  0  0  0
  7 26  1  0  0  0
  7 29  1  0  0  0
  8  9  1  0  0  0
  8 22  1  0  0  0
  9 10  1  0  0  0
  9 27  2  0  0  0
 10 11  2  0  0  0
 10 15  1  0  0  0
 11 12  1  0  0  0
 11 95  1  0  0  0
 12 13  2  0  0  0
 12 96  1  0  0  0
 13 14  1  0  0  0
 13 31  1  0  0  0
 14 15  2  0  0  0
 14 97  1  0  0  0
 15 98  1  0  0  0
 16 17  2  0  0  0
 16 21  1  0  0  0
 16 31  1  0  0  0
 17 18  1  0  0  0
 17 99  1  0  0  0
 18 19  2  0  0  0
 18100  1  0  0  0
 19 20  1  0  0  0
 19 24  1  0  0  0
 20 21  2  0  0  0
 20101  1  0  0  0
 21 23  1  0  0  0
 22 28  1  0  0  0
 22 32  2  0  0  0
 26 27  1  0  0  0
 28102  1  0  0  0
 28103  1  0  0  0
 29104  1  0  0  0
 29105  1  0  0  0
 33 34  1  0  0  0
 33 66  1  0  0  0
 33 70  2  0  0  0
 34 36  1  0  0  0
 34 59  1  0  0  0
 34106  1  0  0  0
 35 44  2  0  0  0
 35 45  1  0  0  0
 35 68  1  0  0  0
 36 56  1  0  0  0
 36107  1  0  0  0
 37 39  1  0  0  0
 37 47  1  0  0  0
 37 66  1  0  0  0
 37108  1  0  0  0
 38 43  2  0  0  0
 38 46  1  0  0  0
 38 47  1  0  0  0
 39 64  1  0  0  0
 39 67  2  0  0  0
 40 52  1  0  0  0
 40 53  2  0  0  0
 40 58  1  0  0  0
 41109  1  0  0  0
 41110  1  0  0  0
 41111  1  0  0  0
 41 48  1  0  0  0
 42 43  1  0  0  0
 42 66  1  0  0  0
 42112  1  0  0  0
 42113  1  0  0  0
 43 44  1  0  0  0
 44114  1  0  0  0
 45 46  2  0  0  0
 45115  1  0  0  0
 46116  1  0  0  0
 47117  1  0  0  0
 47118  1  0  0  0
 48 56  1  0  0  0
 48 65  1  0  0  0
 48119  1  0  0  0
 49 50  1  0  0  0
 49 53  1  0  0  0
 49 64  1  0  0  0
 49120  1  0  0  0
 50 51  1  0  0  0
 50121  1  0  0  0
 50122  1  0  0  0
 51 52  1  0  0  0
 51123  1  0  0  0
 51124  1  0  0  0
 52125  1  0  0  0
 52126  1  0  0  0
 53 54  1  0  0  0
 54 55  2  0  0  0
 54127  1  0  0  0
 55 57  1  0  0  0
 55128  1  0  0  0
 56 69  2  0  0  0
 57 58  2  0  0  0
 57129  1  0  0  0
 58130  1  0  0  0
 59 60  1  0  0  0
 59 61  1  0  0  0
 59 62  1  0  0  0
 60131  1  0  0  0
 60132  1  0  0  0
 60133  1  0  0  0
 61134  1  0  0  0
 61135  1  0  0  0
 61136  1  0  0  0
 62137  1  0  0  0
 62138  1  0  0  0
 62139  1  0  0  0
 63 65  1  0  0  0
 63140  1  0  0  0
 63141  1  0  0  0
 63142  1  0  0  0
 64143  1  0  0  0
 65144  1  0  0  0
 68 84  1  0  0  0
 71 73  2  0  0  0
 71 74  1  0  0  0
 71145  1  0  0  0
 72 73  1  0  0  0
 72 75  2  0  0  0
 72146  1  0  0  0
 73 77  1  0  0  0
 74 76  2  0  0  0
 74 79  1  0  0  0
 75 76  1  0  0  0
 75 81  1  0  0  0
 76 80  1  0  0  0
 77147  1  0  0  0
 77148  1  0  0  0
 77149  1  0  0  0
 78 80  1  0  0  0
 78150  1  0  0  0
 78151  1  0  0  0
 78152  1  0  0  0
 79 82  1  0  0  0
 79153  1  0  0  0
 79154  1  0  0  0
 80155  1  0  0  0
 80156  1  0  0  0
 81 85  1  0  0  0
 81157  1  0  0  0
 81158  1  0  0  0
 82 83  1  0  0  0
 82159  1  0  0  0
 82160  1  0  0  0
 83 84  1  0  0  0
 83161  1  0  0  0
 83162  1  0  0  0
 84163  1  0  0  0
 84164  1  0  0  0
 85165  1  0  0  0
M  ISO  4   1 100  68 101  84 101  85 100
M  END
> <chiral flag>
0

> <version>
0

> <s_m_source_file>
/data/baiqing/PycharmProjects/Reinvent-master-3.2/result/LINK_invent/BTK/process_docking_weight1_custom_product_contain_oxygen_bond_distance_aromatic_linkinvent_7_9_3/rearranged_h_0132.sdf

> <i_m_source_file_index>
27

> <r_mmod_Potential_Energy-OPLS-2005>
-84.0951843261719

> <r_mmod_Stretch_Energy-OPLS-2005>
44.652099609375

> <r_mmod_Bend_Energy-OPLS-2005>
103.392539978027

> <r_mmod_Torsional_Energy-OPLS-2005>
224.651351928711

> <r_mmod_Improper_Torsional_Energy-OPLS-2005>
3.65576887130737

> <r_mmod_Van_der_Waal_Energy-OPLS-2005>
152.694778442383

> <r_mmod_Electrostatic_Energy-OPLS-2005>
-434.065887451172

> <r_mmod_Solvation_Energy-OPLS-2005>
-193.254913330078

> <b_mmod_Minimization_Converged-OPLS-2005>
0

> <r_mmod_RMS_Derivative-OPLS-2005>
2.26972031593323

$$$$
27
                    3D
 Structure written by MMmdl.
169177  0  0  1  0            999 V2000
  -30.7610  -14.3689   20.6514 C   0  0  0  0  0  0
  -30.4065  -12.2732   19.3983 C   0  0  0  0  0  0
  -29.4770  -12.5191   18.1944 C   0  0  0  0  0  0
  -28.0003  -12.3864   18.6093 C   0  0  0  0  0  0
  -27.6661  -13.2036   19.8833 C   0  0  2  0  0  0
  -28.7068  -12.9530   20.9984 C   0  0  0  0  0  0
  -25.2608  -13.8168   20.5720 C   0  0  0  0  0  0
  -24.1857  -13.0452   20.9201 C   0  0  0  0  0  0
  -24.6401  -11.6912   20.8772 C   0  0  0  0  0  0
  -23.9059  -10.4310   21.0441 C   0  0  0  0  0  0
  -24.3628   -9.4214   21.9199 C   0  0  0  0  0  0
  -23.6294   -8.2259   22.0769 C   0  0  0  0  0  0
  -22.4277   -8.0306   21.3557 C   0  0  0  0  0  0
  -21.9923   -9.0271   20.4636 C   0  0  0  0  0  0
  -22.7249  -10.2150   20.3057 C   0  0  0  0  0  0
  -21.6842   -6.0740   22.5280 C   0  0  0  0  0  0
  -21.4008   -6.5638   23.8216 C   0  0  0  0  0  0
  -21.3657   -5.6797   24.9185 C   0  0  0  0  0  0
  -21.6042   -4.3062   24.7220 C   0  0  0  0  0  0
  -21.8822   -3.8149   23.4340 C   0  0  0  0  0  0
  -21.9196   -4.6964   22.3395 C   0  0  0  0  0  0
  -22.7875  -13.5234   21.1840 C   0  0  0  0  0  0
  -22.1670   -4.2131   21.0986 F   0  0  0  0  0  0
  -21.5623   -3.4553   25.7736 F   0  0  0  0  0  0
  -30.0447  -13.2312   20.4545 N   0  0  0  0  0  0
  -26.3051  -12.9339   20.3426 N   0  0  0  0  0  0
  -25.9319  -11.6498   20.5788 N   0  0  0  0  0  0
  -22.0503  -12.8226   22.0373 N   0  0  0  0  0  0
  -25.4348  -15.1888   20.4099 N   0  0  0  0  0  0
  -31.8327  -14.5732   20.0749 O   0  0  0  0  0  0
  -21.6619   -6.8915   21.4259 O   0  0  0  0  0  0
  -22.3564  -14.5541   20.6681 O   0  0  0  0  0  0
  -24.6111  -31.8693   23.2116 C   0  0  0  0  0  0
  -25.9014  -32.4833   23.8415 C   0  0  1  0  0  0
  -27.2485  -27.4488   20.1299 C   0  0  0  0  0  0
  -25.5876  -33.8637   24.2340 N   0  0  0  0  0  0
  -23.4022  -30.4894   21.5483 C   0  0  2  0  0  0
  -24.8578  -28.9510   20.1254 C   0  0  0  0  0  0
  -22.7407  -29.4651   22.4976 C   0  0  0  0  0  0
  -18.0270  -28.1394   22.8487 C   0  0  0  0  0  0
  -24.1491  -36.7334   23.2636 C   0  0  0  0  0  0
  -25.9277  -30.8388   21.3664 C   0  0  0  0  0  0
  -26.0109  -29.4682   20.7311 C   0  0  0  0  0  0
  -27.2094  -28.7210   20.7392 C   0  0  0  0  0  0
  -26.0870  -26.9395   19.5160 C   0  0  0  0  0  0
  -24.8894  -27.6829   19.5149 C   0  0  0  0  0  0
  -23.6184  -29.8176   20.1645 C   0  0  0  0  0  0
  -25.4115  -36.3122   24.0332 C   0  0  1  0  0  0
  -20.5862  -28.3681   23.1326 C   0  0  2  0  0  0
  -20.6764  -26.9413   22.5432 C   0  0  0  0  0  0
  -19.5745  -26.6392   21.5224 C   0  0  0  0  0  0
  -18.1914  -26.7946   22.1611 C   0  0  0  0  0  0
  -19.1519  -28.8852   23.2908 C   0  0  0  0  0  0
  -18.9446  -30.1462   23.8914 C   0  0  0  0  0  0
  -17.6449  -30.6597   24.0572 C   0  0  0  0  0  0
  -25.9031  -34.9483   23.5133 C   0  0  0  0  0  0
  -16.5345  -29.9108   23.6320 C   0  0  0  0  0  0
  -16.7261  -28.6530   23.0336 C   0  0  0  0  0  0
  -26.4467  -31.6594   25.0723 C   0  0  0  0  0  0
  -25.3742  -31.3658   26.1461 C   0  0  0  0  0  0
  -27.0315  -30.3050   24.6059 C   0  0  0  0  0  0
  -27.6020  -32.4321   25.7511 C   0  0  0  0  0  0
  -27.5588  -37.1829   24.8456 C   0  0  0  0  0  0
  -21.4133  -29.3052   22.3731 N   0  0  0  0  0  0
  -26.4302  -37.3802   23.9393 N   0  0  0  0  0  0
  -24.6643  -31.0804   22.1014 N   0  0  0  0  0  0
  -23.4179  -28.8184   23.3009 O   0  0  0  0  0  0
  -28.4175  -26.7349   20.0395 O   0  0  0  0  0  0
  -26.5595  -34.8928   22.4695 O   0  0  0  0  0  0
  -23.5302  -32.1433   23.7512 O   0  0  0  0  0  0
  -28.5008  -20.1166   21.5294 C   0  0  0  0  0  0
  -28.4397  -18.7092   21.4757 C   0  0  0  0  0  0
  -30.7769  -20.0345   20.6805 C   0  0  0  0  0  0
  -29.6609  -20.7875   21.0962 C   0  0  0  0  0  0
  -29.5242  -17.9524   20.9757 C   0  0  0  0  0  0
  -30.7163  -18.6280   20.5998 C   0  0  0  0  0  0
  -31.9320  -17.9016   20.0453 C   0  0  0  0  0  0
  -32.3005  -26.2775   22.9450 C   0  0  0  0  0  0
  -29.6864  -22.3023   20.9442 C   0  0  0  0  0  0
  -29.3286  -16.4562   20.7314 C   0  0  0  0  0  0
  -30.2340  -15.5027   21.5424 C   0  0  0  0  0  0
  -31.2734  -25.1569   23.1766 C   0  0  0  0  0  0
  -30.1009  -23.0942   22.1999 C   0  0  0  0  0  0
  -30.1616  -25.3381   20.8404 C   0  0  0  0  0  0
  -28.8004  -25.9777   21.1893 C   0  0  0  0  0  0
  -30.8513  -24.4169   21.8874 C   0  0  1  0  0  0
  -31.4498  -12.3508   19.0877 H   0  0  0  0  0  0
  -30.2896  -11.2546   19.7682 H   0  0  0  0  0  0
  -29.7008  -11.8133   17.3934 H   0  0  0  0  0  0
  -29.6589  -13.5154   17.7863 H   0  0  0  0  0  0
  -27.7945  -11.3303   18.7809 H   0  0  0  0  0  0
  -27.3501  -12.6897   17.7871 H   0  0  0  0  0  0
  -27.7227  -14.2556   19.6065 H   0  0  0  0  0  0
  -28.6636  -11.9107   21.3191 H   0  0  0  0  0  0
  -28.4633  -13.5357   21.8833 H   0  0  0  0  0  0
  -25.2794   -9.5662   22.4758 H   0  0  0  0  0  0
  -23.9972   -7.4651   22.7502 H   0  0  0  0  0  0
  -21.0856   -8.8797   19.8938 H   0  0  0  0  0  0
  -22.3737  -10.9688   19.6149 H   0  0  0  0  0  0
  -21.1998   -7.6144   23.9699 H   0  0  0  0  0  0
  -21.1472   -6.0541   25.9082 H   0  0  0  0  0  0
  -22.0594   -2.7599   23.2844 H   0  0  0  0  0  0
  -22.4139  -11.9845   22.4690 H   0  0  0  0  0  0
  -21.1124  -13.1248   22.2589 H   0  0  0  0  0  0
  -24.6704  -15.8474   20.5120 H   0  0  0  0  0  0
  -26.2831  -15.6193   20.0656 H   0  0  0  0  0  0
  -26.7089  -32.5580   23.1193 H   0  0  0  0  0  0
  -25.0021  -33.9806   25.0477 H   0  0  0  0  0  0
  -22.6893  -31.3038   21.4048 H   0  0  0  0  0  0
  -23.3738  -35.9681   23.3313 H   0  0  0  0  0  0
  -24.3575  -36.8941   22.2049 H   0  0  0  0  0  0
  -23.7262  -37.6547   23.6658 H   0  0  0  0  0  0
  -26.0313  -31.5963   20.5878 H   0  0  0  0  0  0
  -26.8190  -30.9047   21.9784 H   0  0  0  0  0  0
  -28.1031  -29.1234   21.1957 H   0  0  0  0  0  0
  -26.1160  -25.9714   19.0340 H   0  0  0  0  0  0
  -24.0067  -27.2800   19.0368 H   0  0  0  0  0  0
  -23.7348  -30.5915   19.4042 H   0  0  0  0  0  0
  -22.7449  -29.2366   19.8632 H   0  0  0  0  0  0
  -25.1295  -36.1990   25.0824 H   0  0  0  0  0  0
  -20.9948  -28.3250   24.1450 H   0  0  0  0  0  0
  -20.5681  -26.2282   23.3613 H   0  0  0  0  0  0
  -21.6637  -26.7454   22.1231 H   0  0  0  0  0  0
  -19.6903  -25.6299   21.1266 H   0  0  0  0  0  0
  -19.6702  -27.3195   20.6753 H   0  0  0  0  0  0
  -17.4196  -26.6718   21.3993 H   0  0  0  0  0  0
  -18.0277  -26.0087   22.8995 H   0  0  0  0  0  0
  -19.7922  -30.7280   24.2282 H   0  0  0  0  0  0
  -17.5007  -31.6279   24.5181 H   0  0  0  0  0  0
  -15.5347  -30.3023   23.7632 H   0  0  0  0  0  0
  -15.8661  -28.0874   22.7013 H   0  0  0  0  0  0
  -24.5917  -30.7011   25.7780 H   0  0  0  0  0  0
  -24.8931  -32.2799   26.4950 H   0  0  0  0  0  0
  -25.8115  -30.8794   27.0188 H   0  0  0  0  0  0
  -26.2861  -29.6811   24.1105 H   0  0  0  0  0  0
  -27.4099  -29.7272   25.4501 H   0  0  0  0  0  0
  -27.8688  -30.4397   23.9203 H   0  0  0  0  0  0
  -27.2597  -33.3574   26.2161 H   0  0  0  0  0  0
  -28.3805  -32.6959   25.0341 H   0  0  0  0  0  0
  -28.0720  -31.8403   26.5373 H   0  0  0  0  0  0
  -28.2598  -38.0138   24.7505 H   0  0  0  0  0  0
  -28.1095  -36.2656   24.6291 H   0  0  0  0  0  0
  -27.2301  -37.1494   25.8860 H   0  0  0  0  0  0
  -20.9269  -29.8818   21.7004 H   0  0  0  0  0  0
  -26.0187  -38.2879   24.1391 H   0  0  0  0  0  0
  -27.6351  -20.6786   21.8538 H   0  0  0  0  0  0
  -27.5173  -18.2183   21.7614 H   0  0  0  0  0  0
  -31.6734  -20.5472   20.3566 H   0  0  0  0  0  0
  -32.5370  -18.5624   19.4256 H   0  0  0  0  0  0
  -31.6483  -17.0638   19.4119 H   0  0  0  0  0  0
  -32.5666  -17.5387   20.8547 H   0  0  0  0  0  0
  -32.6870  -26.6543   23.8930 H   0  0  0  0  0  0
  -31.8631  -27.1225   22.4149 H   0  0  0  0  0  0
  -33.1551  -25.9261   22.3659 H   0  0  0  0  0  0
  -28.7090  -22.6421   20.5983 H   0  0  0  0  0  0
  -30.3739  -22.5189   20.1265 H   0  0  0  0  0  0
  -29.4447  -16.2957   19.6575 H   0  0  0  0  0  0
  -28.2910  -16.1911   20.9375 H   0  0  0  0  0  0
  -29.7528  -15.1483   22.4518 H   0  0  0  0  0  0
  -31.1116  -16.0398   21.8990 H   0  0  0  0  0  0
  -30.3981  -25.5587   23.6884 H   0  0  0  0  0  0
  -31.7213  -24.4411   23.8680 H   0  0  0  0  0  0
  -30.7758  -22.4701   22.7886 H   0  0  0  0  0  0
  -29.2322  -23.2695   22.8350 H   0  0  0  0  0  0
  -30.8498  -26.1440   20.5881 H   0  0  0  0  0  0
  -30.0441  -24.7883   19.9062 H   0  0  0  0  0  0
  -28.8844  -26.6165   22.0693 H   0  0  0  0  0  0
  -28.0557  -25.2091   21.4037 H   0  0  0  0  0  0
  -31.7848  -24.0985   21.4169 H   0  0  0  0  0  0
  1 25  1  0  0  0
  1 30  2  0  0  0
  1 81  1  0  0  0
  2  3  1  0  0  0
  2 25  1  0  0  0
  2 87  1  0  0  0
  2 88  1  0  0  0
  3  4  1  0  0  0
  3 89  1  0  0  0
  3 90  1  0  0  0
  4  5  1  0  0  0
  4 91  1  0  0  0
  4 92  1  0  0  0
  5  6  1  0  0  0
  5 26  1  0  0  0
  5 93  1  0  0  0
  6 25  1  0  0  0
  6 94  1  0  0  0
  6 95  1  0  0  0
  7  8  2  0  0  0
  7 26  1  0  0  0
  7 29  1  0  0  0
  8  9  1  0  0  0
  8 22  1  0  0  0
  9 10  1  0  0  0
  9 27  2  0  0  0
 10 11  2  0  0  0
 10 15  1  0  0  0
 11 12  1  0  0  0
 11 96  1  0  0  0
 12 13  2  0  0  0
 12 97  1  0  0  0
 13 14  1  0  0  0
 13 31  1  0  0  0
 14 15  2  0  0  0
 14 98  1  0  0  0
 15 99  1  0  0  0
 16 17  2  0  0  0
 16 21  1  0  0  0
 16 31  1  0  0  0
 17 18  1  0  0  0
 17100  1  0  0  0
 18 19  2  0  0  0
 18101  1  0  0  0
 19 20  1  0  0  0
 19 24  1  0  0  0
 20 21  2  0  0  0
 20102  1  0  0  0
 21 23  1  0  0  0
 22 28  1  0  0  0
 22 32  2  0  0  0
 26 27  1  0  0  0
 28103  1  0  0  0
 28104  1  0  0  0
 29105  1  0  0  0
 29106  1  0  0  0
 33 34  1  0  0  0
 33 66  1  0  0  0
 33 70  2  0  0  0
 34 36  1  0  0  0
 34 59  1  0  0  0
 34107  1  0  0  0
 35 44  2  0  0  0
 35 45  1  0  0  0
 35 68  1  0  0  0
 36 56  1  0  0  0
 36108  1  0  0  0
 37 39  1  0  0  0
 37 47  1  0  0  0
 37 66  1  0  0  0
 37109  1  0  0  0
 38 43  2  0  0  0
 38 46  1  0  0  0
 38 47  1  0  0  0
 39 64  1  0  0  0
 39 67  2  0  0  0
 40 52  1  0  0  0
 40 53  2  0  0  0
 40 58  1  0  0  0
 41110  1  0  0  0
 41111  1  0  0  0
 41112  1  0  0  0
 41 48  1  0  0  0
 42 43  1  0  0  0
 42 66  1  0  0  0
 42113  1  0  0  0
 42114  1  0  0  0
 43 44  1  0  0  0
 44115  1  0  0  0
 45 46  2  0  0  0
 45116  1  0  0  0
 46117  1  0  0  0
 47118  1  0  0  0
 47119  1  0  0  0
 48 56  1  0  0  0
 48 65  1  0  0  0
 48120  1  0  0  0
 49 50  1  0  0  0
 49 53  1  0  0  0
 49 64  1  0  0  0
 49121  1  0  0  0
 50 51  1  0  0  0
 50122  1  0  0  0
 50123  1  0  0  0
 51 52  1  0  0  0
 51124  1  0  0  0
 51125  1  0  0  0
 52126  1  0  0  0
 52127  1  0  0  0
 53 54  1  0  0  0
 54 55  2  0  0  0
 54128  1  0  0  0
 55 57  1  0  0  0
 55129  1  0  0  0
 56 69  2  0  0  0
 57 58  2  0  0  0
 57130  1  0  0  0
 58131  1  0  0  0
 59 60  1  0  0  0
 59 61  1  0  0  0
 59 62  1  0  0  0
 60132  1  0  0  0
 60133  1  0  0  0
 60134  1  0  0  0
 61135  1  0  0  0
 61136  1  0  0  0
 61137  1  0  0  0
 62138  1  0  0  0
 62139  1  0  0  0
 62140  1  0  0  0
 63 65  1  0  0  0
 63141  1  0  0  0
 63142  1  0  0  0
 63143  1  0  0  0
 64144  1  0  0  0
 65145  1  0  0  0
 68 85  1  0  0  0
 71 72  2  0  0  0
 71 74  1  0  0  0
 71146  1  0  0  0
 72 75  1  0  0  0
 72147  1  0  0  0
 73 74  2  0  0  0
 73 76  1  0  0  0
 73148  1  0  0  0
 74 79  1  0  0  0
 75 76  2  0  0  0
 75 80  1  0  0  0
 76 77  1  0  0  0
 77149  1  0  0  0
 77150  1  0  0  0
 77151  1  0  0  0
 78 82  1  0  0  0
 78152  1  0  0  0
 78153  1  0  0  0
 78154  1  0  0  0
 79 83  1  0  0  0
 79155  1  0  0  0
 79156  1  0  0  0
 80 81  1  0  0  0
 80157  1  0  0  0
 80158  1  0  0  0
 81159  1  0  0  0
 81160  1  0  0  0
 82161  1  0  0  0
 82162  1  0  0  0
 82 86  1  0  0  0
 83 86  1  0  0  0
 83163  1  0  0  0
 83164  1  0  0  0
 84 85  1  0  0  0
 84 86  1  0  0  0
 84165  1  0  0  0
 84166  1  0  0  0
 85167  1  0  0  0
 85168  1  0  0  0
 86169  1  0  0  0
M  ISO  4   1 100  68 101  81 100  85 101
M  END
> <chiral flag>
0

> <version>
0

> <s_m_source_file>
/data/baiqing/PycharmProjects/Reinvent-master-3.2/result/LINK_invent/BTK/process_docking_weight1_custom_product_contain_oxygen_bond_distance_aromatic_linkinvent_7_9_3/rearranged_h_0132.sdf

> <i_m_source_file_index>
28

> <r_mmod_Potential_Energy-OPLS-2005>
-5.06083059310913

> <r_mmod_Stretch_Energy-OPLS-2005>
34.6291885375977

> <r_mmod_Bend_Energy-OPLS-2005>
103.743911743164

> <r_mmod_Torsional_Energy-OPLS-2005>
231.164291381836

> <r_mmod_Improper_Torsional_Energy-OPLS-2005>
3.27507734298706

> <r_mmod_Van_der_Waal_Energy-OPLS-2005>
140.185623168945

> <r_mmod_Electrostatic_Energy-OPLS-2005>
-347.628204345703

> <r_mmod_Solvation_Energy-OPLS-2005>
-177.825088500977

> <b_mmod_Minimization_Converged-OPLS-2005>
0

> <r_mmod_RMS_Derivative-OPLS-2005>
2.96084761619568

$$$$
28
                    3D
 Structure written by MMmdl.
164172  0  0  1  0            999 V2000
  -30.7050  -14.4508   20.5067 C   0  0  0  0  0  0
  -30.4188  -12.2725   19.4276 C   0  0  0  0  0  0
  -29.4972  -12.4875   18.2075 C   0  0  0  0  0  0
  -28.0127  -12.3647   18.6113 C   0  0  0  0  0  0
  -27.6608  -13.1994   19.8727 C   0  0  2  0  0  0
  -28.7055  -12.9745   20.9900 C   0  0  0  0  0  0
  -25.2588  -13.8124   20.5720 C   0  0  0  0  0  0
  -24.1836  -13.0405   20.9178 C   0  0  0  0  0  0
  -24.6389  -11.6875   20.8735 C   0  0  0  0  0  0
  -23.9059  -10.4269   21.0397 C   0  0  0  0  0  0
  -24.3612   -9.4195   21.9180 C   0  0  0  0  0  0
  -23.6287   -8.2236   22.0752 C   0  0  0  0  0  0
  -22.4266   -8.0273   21.3544 C   0  0  0  0  0  0
  -21.9903   -9.0246   20.4646 C   0  0  0  0  0  0
  -22.7232  -10.2121   20.3052 C   0  0  0  0  0  0
  -21.6851   -6.0735   22.5283 C   0  0  0  0  0  0
  -21.4010   -6.5639   23.8218 C   0  0  0  0  0  0
  -21.3656   -5.6792   24.9179 C   0  0  0  0  0  0
  -21.6044   -4.3056   24.7227 C   0  0  0  0  0  0
  -21.8820   -3.8149   23.4351 C   0  0  0  0  0  0
  -21.9191   -4.6964   22.3407 C   0  0  0  0  0  0
  -22.7856  -13.5218   21.1837 C   0  0  0  0  0  0
  -22.1656   -4.2152   21.0984 F   0  0  0  0  0  0
  -21.5633   -3.4539   25.7742 F   0  0  0  0  0  0
  -30.0380  -13.2673   20.4400 N   0  0  0  0  0  0
  -26.3022  -12.9287   20.3375 N   0  0  0  0  0  0
  -25.9313  -11.6450   20.5762 N   0  0  0  0  0  0
  -22.0492  -12.8228   22.0398 N   0  0  0  0  0  0
  -25.4277  -15.1842   20.4200 N   0  0  0  0  0  0
  -31.8810  -14.5561   20.1446 O   0  0  0  0  0  0
  -21.6630   -6.8873   21.4243 O   0  0  0  0  0  0
  -22.3550  -14.5531   20.6681 O   0  0  0  0  0  0
  -24.6118  -31.8686   23.2106 C   0  0  0  0  0  0
  -25.9030  -32.4818   23.8385 C   0  0  1  0  0  0
  -27.2333  -27.4611   20.0953 C   0  0  0  0  0  0
  -25.5907  -33.8617   24.2325 N   0  0  0  0  0  0
  -23.3973  -30.4915   21.5512 C   0  0  2  0  0  0
  -24.8417  -28.9622   20.1131 C   0  0  0  0  0  0
  -22.7383  -29.4655   22.5005 C   0  0  0  0  0  0
  -18.0258  -28.1372   22.8491 C   0  0  0  0  0  0
  -24.1488  -36.7314   23.2640 C   0  0  0  0  0  0
  -25.9219  -30.8476   21.3541 C   0  0  0  0  0  0
  -25.9994  -29.4844   20.7016 C   0  0  0  0  0  0
  -27.1991  -28.7425   20.6844 C   0  0  0  0  0  0
  -26.0603  -26.9507   19.4940 C   0  0  0  0  0  0
  -24.8659  -27.6946   19.5068 C   0  0  0  0  0  0
  -23.6005  -29.8222   20.1659 C   0  0  0  0  0  0
  -25.4107  -36.3108   24.0343 C   0  0  1  0  0  0
  -20.5847  -28.3642   23.1332 C   0  0  2  0  0  0
  -20.6748  -26.9381   22.5420 C   0  0  0  0  0  0
  -19.5731  -26.6380   21.5211 C   0  0  0  0  0  0
  -18.1906  -26.7921   22.1619 C   0  0  0  0  0  0
  -19.1508  -28.8824   23.2909 C   0  0  0  0  0  0
  -18.9445  -30.1435   23.8905 C   0  0  0  0  0  0
  -17.6450  -30.6578   24.0568 C   0  0  0  0  0  0
  -25.9038  -34.9472   23.5129 C   0  0  0  0  0  0
  -16.5337  -29.9084   23.6331 C   0  0  0  0  0  0
  -16.7251  -28.6506   23.0341 C   0  0  0  0  0  0
  -26.4473  -31.6584   25.0697 C   0  0  0  0  0  0
  -25.3767  -31.3690   26.1470 C   0  0  0  0  0  0
  -27.0293  -30.3030   24.6035 C   0  0  0  0  0  0
  -27.6040  -32.4308   25.7470 C   0  0  0  0  0  0
  -27.5582  -37.1804   24.8465 C   0  0  0  0  0  0
  -21.4112  -29.3022   22.3751 N   0  0  0  0  0  0
  -26.4290  -37.3791   23.9417 N   0  0  0  0  0  0
  -24.6622  -31.0822   22.0980 N   0  0  0  0  0  0
  -23.4167  -28.8196   23.3034 O   0  0  0  0  0  0
  -28.4155  -26.7580   20.1156 O   0  0  0  0  0  0
  -26.5591  -34.8924   22.4681 O   0  0  0  0  0  0
  -23.5321  -32.1411   23.7525 O   0  0  0  0  0  0
  -28.2966  -20.6101   20.5411 C   0  0  0  0  0  0
  -27.8455  -19.5968   19.6761 C   0  0  0  0  0  0
  -30.0403  -19.1247   21.3579 C   0  0  0  0  0  0
  -29.5917  -18.1010   20.4997 C   0  0  0  0  0  0
  -29.4041  -20.3838   21.3879 C   0  0  0  0  0  0
  -28.4944  -18.3465   19.6383 C   0  0  0  0  0  0
  -30.3518  -16.8484   20.4400 C   0  0  0  0  0  0
  -29.8791  -15.6272   20.7657 C   0  0  0  0  0  0
  -28.0255  -17.3065   18.6348 C   0  0  0  0  0  0
  -27.2555  -25.7323   22.7578 C   0  0  0  0  0  0
  -29.9371  -21.4514   22.3382 C   0  0  0  0  0  0
  -29.8152  -22.9109   21.8531 C   0  0  0  0  0  0
  -28.5337  -23.6199   22.3384 C   0  0  0  0  0  0
  -28.3611  -25.3693   20.4613 C   0  0  0  0  0  0
  -28.4457  -25.1238   21.9917 C   0  0  1  0  0  0
  -31.4655  -12.3495   19.1290 H   0  0  0  0  0  0
  -30.3007  -11.2641   19.8269 H   0  0  0  0  0  0
  -29.7332  -11.7629   17.4270 H   0  0  0  0  0  0
  -29.6819  -13.4722   17.7748 H   0  0  0  0  0  0
  -27.8082  -11.3092   18.7955 H   0  0  0  0  0  0
  -27.3716  -12.6547   17.7783 H   0  0  0  0  0  0
  -27.7015  -14.2441   19.5724 H   0  0  0  0  0  0
  -28.6762  -11.9377   21.3274 H   0  0  0  0  0  0
  -28.4856  -13.5669   21.8781 H   0  0  0  0  0  0
  -25.2754   -9.5677   22.4752 H   0  0  0  0  0  0
  -23.9996   -7.4632   22.7470 H   0  0  0  0  0  0
  -21.0838   -8.8762   19.8954 H   0  0  0  0  0  0
  -22.3690  -10.9657   19.6164 H   0  0  0  0  0  0
  -21.1998   -7.6144   23.9725 H   0  0  0  0  0  0
  -21.1474   -6.0518   25.9083 H   0  0  0  0  0  0
  -22.0602   -2.7609   23.2852 H   0  0  0  0  0  0
  -22.4081  -11.9891   22.4804 H   0  0  0  0  0  0
  -21.1113  -13.1270   22.2580 H   0  0  0  0  0  0
  -24.6638  -15.8382   20.5507 H   0  0  0  0  0  0
  -26.2950  -15.6343   20.1617 H   0  0  0  0  0  0
  -26.7105  -32.5533   23.1157 H   0  0  0  0  0  0
  -25.0090  -33.9779   25.0496 H   0  0  0  0  0  0
  -22.6849  -31.3072   21.4127 H   0  0  0  0  0  0
  -23.3743  -35.9655   23.3307 H   0  0  0  0  0  0
  -24.3585  -36.8924   22.2054 H   0  0  0  0  0  0
  -23.7248  -37.6527   23.6639 H   0  0  0  0  0  0
  -26.0273  -31.6148   20.5851 H   0  0  0  0  0  0
  -26.8129  -30.9014   21.9678 H   0  0  0  0  0  0
  -28.0937  -29.1408   21.1417 H   0  0  0  0  0  0
  -26.0552  -25.9894   19.0021 H   0  0  0  0  0  0
  -23.9761  -27.2869   19.0464 H   0  0  0  0  0  0
  -23.6986  -30.5943   19.4019 H   0  0  0  0  0  0
  -22.7263  -29.2352   19.8783 H   0  0  0  0  0  0
  -25.1280  -36.1974   25.0835 H   0  0  0  0  0  0
  -20.9931  -28.3207   24.1456 H   0  0  0  0  0  0
  -20.5646  -26.2244   23.3599 H   0  0  0  0  0  0
  -21.6619  -26.7431   22.1215 H   0  0  0  0  0  0
  -19.6890  -25.6300   21.1222 H   0  0  0  0  0  0
  -19.6680  -27.3209   20.6758 H   0  0  0  0  0  0
  -17.4176  -26.6671   21.4019 H   0  0  0  0  0  0
  -18.0301  -26.0059   22.9006 H   0  0  0  0  0  0
  -19.7926  -30.7248   24.2260 H   0  0  0  0  0  0
  -17.5011  -31.6255   24.5174 H   0  0  0  0  0  0
  -15.5339  -30.2990   23.7654 H   0  0  0  0  0  0
  -15.8649  -28.0841   22.7034 H   0  0  0  0  0  0
  -24.5929  -30.7037   25.7838 H   0  0  0  0  0  0
  -24.8971  -32.2844   26.4937 H   0  0  0  0  0  0
  -25.8153  -30.8862   27.0211 H   0  0  0  0  0  0
  -26.2814  -29.6792   24.1119 H   0  0  0  0  0  0
  -27.4123  -29.7254   25.4459 H   0  0  0  0  0  0
  -27.8617  -30.4366   23.9122 H   0  0  0  0  0  0
  -27.2643  -33.3592   26.2072 H   0  0  0  0  0  0
  -28.3841  -32.6898   25.0303 H   0  0  0  0  0  0
  -28.0709  -31.8421   26.5378 H   0  0  0  0  0  0
  -28.2594  -38.0104   24.7514 H   0  0  0  0  0  0
  -28.1076  -36.2635   24.6274 H   0  0  0  0  0  0
  -27.2297  -37.1450   25.8865 H   0  0  0  0  0  0
  -20.9246  -29.8773   21.7019 H   0  0  0  0  0  0
  -26.0181  -38.2869   24.1412 H   0  0  0  0  0  0
  -27.7884  -21.5610   20.5222 H   0  0  0  0  0  0
  -27.0048  -19.7942   19.0246 H   0  0  0  0  0  0
  -30.8958  -18.9433   21.9944 H   0  0  0  0  0  0
  -31.3531  -16.9514   20.0450 H   0  0  0  0  0  0
  -28.8849  -15.5560   21.1767 H   0  0  0  0  0  0
  -27.3103  -17.7245   17.9264 H   0  0  0  0  0  0
  -27.5404  -16.4813   19.1494 H   0  0  0  0  0  0
  -28.8634  -16.9094   18.0608 H   0  0  0  0  0  0
  -27.2855  -25.4728   23.8165 H   0  0  0  0  0  0
  -26.3044  -25.3797   22.3564 H   0  0  0  0  0  0
  -27.2580  -26.8200   22.7103 H   0  0  0  0  0  0
  -30.9966  -21.2424   22.4955 H   0  0  0  0  0  0
  -29.4691  -21.3255   23.3157 H   0  0  0  0  0  0
  -29.9379  -22.9574   20.7712 H   0  0  0  0  0  0
  -30.6605  -23.4630   22.2661 H   0  0  0  0  0  0
  -28.4889  -23.5089   23.4234 H   0  0  0  0  0  0
  -27.6444  -23.1147   21.9660 H   0  0  0  0  0  0
  -27.5028  -24.8472   20.0422 H   0  0  0  0  0  0
  -29.2269  -24.9196   19.9768 H   0  0  0  0  0  0
  -29.3525  -25.6054   22.3611 H   0  0  0  0  0  0
  1 25  1  0  0  0
  1 30  2  0  0  0
  1 78  1  0  0  0
  2  3  1  0  0  0
  2 25  1  0  0  0
  2 86  1  0  0  0
  2 87  1  0  0  0
  3  4  1  0  0  0
  3 88  1  0  0  0
  3 89  1  0  0  0
  4  5  1  0  0  0
  4 90  1  0  0  0
  4 91  1  0  0  0
  5  6  1  0  0  0
  5 26  1  0  0  0
  5 92  1  0  0  0
  6 25  1  0  0  0
  6 93  1  0  0  0
  6 94  1  0  0  0
  7  8  2  0  0  0
  7 26  1  0  0  0
  7 29  1  0  0  0
  8  9  1  0  0  0
  8 22  1  0  0  0
  9 10  1  0  0  0
  9 27  2  0  0  0
 10 11  2  0  0  0
 10 15  1  0  0  0
 11 12  1  0  0  0
 11 95  1  0  0  0
 12 13  2  0  0  0
 12 96  1  0  0  0
 13 14  1  0  0  0
 13 31  1  0  0  0
 14 15  2  0  0  0
 14 97  1  0  0  0
 15 98  1  0  0  0
 16 17  2  0  0  0
 16 21  1  0  0  0
 16 31  1  0  0  0
 17 18  1  0  0  0
 17 99  1  0  0  0
 18 19  2  0  0  0
 18100  1  0  0  0
 19 20  1  0  0  0
 19 24  1  0  0  0
 20 21  2  0  0  0
 20101  1  0  0  0
 21 23  1  0  0  0
 22 28  1  0  0  0
 22 32  2  0  0  0
 26 27  1  0  0  0
 28102  1  0  0  0
 28103  1  0  0  0
 29104  1  0  0  0
 29105  1  0  0  0
 33 34  1  0  0  0
 33 66  1  0  0  0
 33 70  2  0  0  0
 34 36  1  0  0  0
 34 59  1  0  0  0
 34106  1  0  0  0
 35 44  2  0  0  0
 35 45  1  0  0  0
 35 68  1  0  0  0
 36 56  1  0  0  0
 36107  1  0  0  0
 37 39  1  0  0  0
 37 47  1  0  0  0
 37 66  1  0  0  0
 37108  1  0  0  0
 38 43  2  0  0  0
 38 46  1  0  0  0
 38 47  1  0  0  0
 39 64  1  0  0  0
 39 67  2  0  0  0
 40 52  1  0  0  0
 40 53  2  0  0  0
 40 58  1  0  0  0
 41109  1  0  0  0
 41110  1  0  0  0
 41111  1  0  0  0
 41 48  1  0  0  0
 42 43  1  0  0  0
 42 66  1  0  0  0
 42112  1  0  0  0
 42113  1  0  0  0
 43 44  1  0  0  0
 44114  1  0  0  0
 45 46  2  0  0  0
 45115  1  0  0  0
 46116  1  0  0  0
 47117  1  0  0  0
 47118  1  0  0  0
 48 56  1  0  0  0
 48 65  1  0  0  0
 48119  1  0  0  0
 49 50  1  0  0  0
 49 53  1  0  0  0
 49 64  1  0  0  0
 49120  1  0  0  0
 50 51  1  0  0  0
 50121  1  0  0  0
 50122  1  0  0  0
 51 52  1  0  0  0
 51123  1  0  0  0
 51124  1  0  0  0
 52125  1  0  0  0
 52126  1  0  0  0
 53 54  1  0  0  0
 54 55  2  0  0  0
 54127  1  0  0  0
 55 57  1  0  0  0
 55128  1  0  0  0
 56 69  2  0  0  0
 57 58  2  0  0  0
 57129  1  0  0  0
 58130  1  0  0  0
 59 60  1  0  0  0
 59 61  1  0  0  0
 59 62  1  0  0  0
 60131  1  0  0  0
 60132  1  0  0  0
 60133  1  0  0  0
 61134  1  0  0  0
 61135  1  0  0  0
 61136  1  0  0  0
 62137  1  0  0  0
 62138  1  0  0  0
 62139  1  0  0  0
 63 65  1  0  0  0
 63140  1  0  0  0
 63141  1  0  0  0
 63142  1  0  0  0
 64143  1  0  0  0
 65144  1  0  0  0
 68 84  1  0  0  0
 71 72  2  0  0  0
 71 75  1  0  0  0
 71145  1  0  0  0
 72 76  1  0  0  0
 72146  1  0  0  0
 73 74  1  0  0  0
 73 75  2  0  0  0
 73147  1  0  0  0
 74 76  2  0  0  0
 74 77  1  0  0  0
 75 81  1  0  0  0
 76 79  1  0  0  0
 77 78  2  0  0  0
 77148  1  0  0  0
 78149  1  0  0  0
 79150  1  0  0  0
 79151  1  0  0  0
 79152  1  0  0  0
 80153  1  0  0  0
 80154  1  0  0  0
 80155  1  0  0  0
 80 85  1  0  0  0
 81 82  1  0  0  0
 81156  1  0  0  0
 81157  1  0  0  0
 82 83  1  0  0  0
 82158  1  0  0  0
 82159  1  0  0  0
 83 85  1  0  0  0
 83160  1  0  0  0
 83161  1  0  0  0
 84 85  1  0  0  0
 84162  1  0  0  0
 84163  1  0  0  0
 85164  1  0  0  0
M  ISO  4   1 100  68 101  78 100  84 101
M  END
> <chiral flag>
0

> <version>
0

> <s_m_source_file>
/data/baiqing/PycharmProjects/Reinvent-master-3.2/result/LINK_invent/BTK/process_docking_weight1_custom_product_contain_oxygen_bond_distance_aromatic_linkinvent_7_9_3/rearranged_h_0132.sdf

> <i_m_source_file_index>
29

> <r_mmod_Potential_Energy-OPLS-2005>
17.1590747833252

> <r_mmod_Stretch_Energy-OPLS-2005>
33.5565948486328

> <r_mmod_Bend_Energy-OPLS-2005>
99.072868347168

> <r_mmod_Torsional_Energy-OPLS-2005>
225.859024047852

> <r_mmod_Improper_Torsional_Energy-OPLS-2005>
6.83629369735718

> <r_mmod_Van_der_Waal_Energy-OPLS-2005>
156.984741210938

> <r_mmod_Electrostatic_Energy-OPLS-2005>
-338.281982421875

> <r_mmod_Solvation_Energy-OPLS-2005>
-181.917495727539

> <b_mmod_Minimization_Converged-OPLS-2005>
0

> <r_mmod_RMS_Derivative-OPLS-2005>
1.38495087623596

$$$$
29
                    3D
 Structure written by MMmdl.
157166  0  0  1  0            999 V2000
  -30.5599  -14.6323   20.5398 C   0  0  0  0  0  0
  -30.4592  -12.3992   19.4288 C   0  0  0  0  0  0
  -29.5070  -12.5213   18.2121 C   0  0  0  0  0  0
  -28.0273  -12.3459   18.6233 C   0  0  0  0  0  0
  -27.6604  -13.1836   19.8752 C   0  0  2  0  0  0
  -28.7101  -12.9349   20.9811 C   0  0  0  0  0  0
  -25.2638  -13.8091   20.5690 C   0  0  0  0  0  0
  -24.1846  -13.0422   20.9176 C   0  0  0  0  0  0
  -24.6348  -11.6873   20.8739 C   0  0  0  0  0  0
  -23.8997  -10.4275   21.0418 C   0  0  0  0  0  0
  -24.3568   -9.4206   21.9198 C   0  0  0  0  0  0
  -23.6262   -8.2234   22.0766 C   0  0  0  0  0  0
  -22.4250   -8.0259   21.3546 C   0  0  0  0  0  0
  -21.9863   -9.0231   20.4655 C   0  0  0  0  0  0
  -22.7179  -10.2116   20.3069 C   0  0  0  0  0  0
  -21.6843   -6.0726   22.5280 C   0  0  0  0  0  0
  -21.4016   -6.5639   23.8212 C   0  0  0  0  0  0
  -21.3664   -5.6798   24.9173 C   0  0  0  0  0  0
  -21.6042   -4.3055   24.7228 C   0  0  0  0  0  0
  -21.8819   -3.8143   23.4345 C   0  0  0  0  0  0
  -21.9190   -4.6957   22.3406 C   0  0  0  0  0  0
  -22.7877  -13.5273   21.1827 C   0  0  0  0  0  0
  -22.1664   -4.2148   21.0982 F   0  0  0  0  0  0
  -21.5619   -3.4541   25.7737 F   0  0  0  0  0  0
  -30.0160  -13.3689   20.4488 N   0  0  0  0  0  0
  -26.3020  -12.9191   20.3371 N   0  0  0  0  0  0
  -25.9260  -11.6375   20.5754 N   0  0  0  0  0  0
  -22.0478  -12.8300   22.0381 N   0  0  0  0  0  0
  -25.4405  -15.1800   20.4106 N   0  0  0  0  0  0
  -31.7073  -14.8555   20.1377 O   0  0  0  0  0  0
  -21.6622   -6.8861   21.4235 O   0  0  0  0  0  0
  -22.3595  -14.5586   20.6662 O   0  0  0  0  0  0
  -24.6231  -31.8627   23.2042 C   0  0  0  0  0  0
  -25.9089  -32.4803   23.8375 C   0  0  1  0  0  0
  -27.2301  -27.3550   20.1241 C   0  0  0  0  0  0
  -25.5904  -33.8604   24.2303 N   0  0  0  0  0  0
  -23.4156  -30.4833   21.5452 C   0  0  2  0  0  0
  -24.8649  -28.9409   20.1115 C   0  0  0  0  0  0
  -22.7465  -29.4631   22.4963 C   0  0  0  0  0  0
  -18.0271  -28.1408   22.8486 C   0  0  0  0  0  0
  -24.1475  -36.7282   23.2636 C   0  0  0  0  0  0
  -25.9528  -30.8071   21.3689 C   0  0  0  0  0  0
  -26.0292  -29.4353   20.7146 C   0  0  0  0  0  0
  -27.2175  -28.6543   20.7054 C   0  0  0  0  0  0
  -26.0462  -26.9000   19.5039 C   0  0  0  0  0  0
  -24.8741  -27.6809   19.4935 C   0  0  0  0  0  0
  -23.6283  -29.8116   20.1616 C   0  0  0  0  0  0
  -25.4105  -36.3093   24.0334 C   0  0  1  0  0  0
  -20.5872  -28.3686   23.1309 C   0  0  2  0  0  0
  -20.6764  -26.9417   22.5417 C   0  0  0  0  0  0
  -19.5751  -26.6406   21.5210 C   0  0  0  0  0  0
  -18.1925  -26.7956   22.1614 C   0  0  0  0  0  0
  -19.1525  -28.8877   23.2888 C   0  0  0  0  0  0
  -18.9446  -30.1472   23.8916 C   0  0  0  0  0  0
  -17.6445  -30.6614   24.0566 C   0  0  0  0  0  0
  -25.9046  -34.9455   23.5128 C   0  0  0  0  0  0
  -16.5332  -29.9118   23.6332 C   0  0  0  0  0  0
  -16.7251  -28.6530   23.0360 C   0  0  0  0  0  0
  -26.4497  -31.6608   25.0730 C   0  0  0  0  0  0
  -25.3747  -31.3696   26.1466 C   0  0  0  0  0  0
  -27.0327  -30.3045   24.6144 C   0  0  0  0  0  0
  -27.6086  -32.4315   25.7488 C   0  0  0  0  0  0
  -27.5570  -37.1793   24.8468 C   0  0  0  0  0  0
  -21.4183  -29.3033   22.3710 N   0  0  0  0  0  0
  -26.4284  -37.3785   23.9415 N   0  0  0  0  0  0
  -24.6821  -31.0664   22.0973 N   0  0  0  0  0  0
  -23.4189  -28.8164   23.3034 O   0  0  0  0  0  0
  -28.3643  -26.5415   20.1346 O   0  0  0  0  0  0
  -26.5603  -34.8913   22.4687 O   0  0  0  0  0  0
  -23.5400  -32.1369   23.7412 O   0  0  0  0  0  0
  -31.6852  -18.4926   20.5049 C   0  0  0  0  0  0
  -31.8096  -19.8889   20.2157 C   0  0  0  0  0  0
  -30.3519  -18.2240   20.6141 C   0  0  0  0  0  0
  -30.5494  -20.4197   20.0939 C   0  0  0  0  0  0
  -29.4212  -22.8993   20.4377 C   0  0  0  0  0  0
  -28.7861  -24.0011   19.9222 C   0  0  0  0  0  0
  -29.5645  -17.0505   20.9436 C   0  0  0  0  0  0
  -29.5901  -15.6798   20.9789 C   0  0  0  0  0  0
  -28.5448  -24.0743   18.4259 C   0  0  0  0  0  0
  -28.3270  -22.6701   17.8392 C   0  0  0  0  0  0
  -29.4870  -21.7031   18.1301 C   0  0  0  0  0  0
  -30.0805  -21.7940   19.5561 C   0  0  2  0  0  0
  -28.2300  -25.2063   20.7370 C   0  0  0  0  0  0
  -29.6479  -19.4006   20.3457 O   0  0  0  0  0  0
  -31.4910  -12.5691   19.1188 H   0  0  0  0  0  0
  -30.4364  -11.3854   19.8313 H   0  0  0  0  0  0
  -29.7703  -11.7816   17.4536 H   0  0  0  0  0  0
  -29.6358  -13.4981   17.7430 H   0  0  0  0  0  0
  -27.8653  -11.2866   18.8319 H   0  0  0  0  0  0
  -27.3676  -12.5956   17.7914 H   0  0  0  0  0  0
  -27.7023  -14.2298   19.5747 H   0  0  0  0  0  0
  -28.7401  -11.8710   21.2194 H   0  0  0  0  0  0
  -28.4512  -13.3987   21.9312 H   0  0  0  0  0  0
  -25.2701   -9.5706   22.4784 H   0  0  0  0  0  0
  -23.9976   -7.4632   22.7486 H   0  0  0  0  0  0
  -21.0795   -8.8746   19.8960 H   0  0  0  0  0  0
  -22.3626  -10.9663   19.6192 H   0  0  0  0  0  0
  -21.2015   -7.6147   23.9726 H   0  0  0  0  0  0
  -21.1489   -6.0518   25.9085 H   0  0  0  0  0  0
  -22.0589   -2.7602   23.2843 H   0  0  0  0  0  0
  -22.4038  -11.9963   22.4808 H   0  0  0  0  0  0
  -21.1118  -13.1392   22.2576 H   0  0  0  0  0  0
  -24.6750  -15.8376   20.5134 H   0  0  0  0  0  0
  -26.2951  -15.6139   20.0866 H   0  0  0  0  0  0
  -26.7159  -32.5493   23.1133 H   0  0  0  0  0  0
  -25.0078  -33.9775   25.0466 H   0  0  0  0  0  0
  -22.7055  -31.3017   21.4005 H   0  0  0  0  0  0
  -23.3749  -35.9607   23.3324 H   0  0  0  0  0  0
  -24.3551  -36.8875   22.2040 H   0  0  0  0  0  0
  -23.7215  -37.6485   23.6644 H   0  0  0  0  0  0
  -26.0766  -31.5717   20.5990 H   0  0  0  0  0  0
  -26.8383  -30.8615   21.9924 H   0  0  0  0  0  0
  -28.1160  -29.0294   21.1741 H   0  0  0  0  0  0
  -26.0147  -25.9288   19.0318 H   0  0  0  0  0  0
  -23.9839  -27.3047   19.0083 H   0  0  0  0  0  0
  -23.7342  -30.5815   19.3971 H   0  0  0  0  0  0
  -22.7549  -29.2269   19.8680 H   0  0  0  0  0  0
  -25.1285  -36.1947   25.0826 H   0  0  0  0  0  0
  -20.9940  -28.3254   24.1438 H   0  0  0  0  0  0
  -20.5682  -26.2282   23.3593 H   0  0  0  0  0  0
  -21.6636  -26.7486   22.1194 H   0  0  0  0  0  0
  -19.6911  -25.6319   21.1242 H   0  0  0  0  0  0
  -19.6713  -27.3215   20.6738 H   0  0  0  0  0  0
  -17.4186  -26.6683   21.4018 H   0  0  0  0  0  0
  -18.0341  -26.0117   22.9032 H   0  0  0  0  0  0
  -19.7921  -30.7287   24.2302 H   0  0  0  0  0  0
  -17.5002  -31.6295   24.5164 H   0  0  0  0  0  0
  -15.5340  -30.3025   23.7689 H   0  0  0  0  0  0
  -15.8630  -28.0862   22.7092 H   0  0  0  0  0  0
  -24.5952  -30.7018   25.7766 H   0  0  0  0  0  0
  -24.8909  -32.2835   26.4920 H   0  0  0  0  0  0
  -25.8114  -30.8845   27.0209 H   0  0  0  0  0  0
  -26.2872  -29.6806   24.1204 H   0  0  0  0  0  0
  -27.4060  -29.7299   25.4629 H   0  0  0  0  0  0
  -27.8731  -30.4343   23.9329 H   0  0  0  0  0  0
  -27.2742  -33.3614   26.2102 H   0  0  0  0  0  0
  -28.3891  -32.6878   25.0306 H   0  0  0  0  0  0
  -28.0771  -31.8405   26.5364 H   0  0  0  0  0  0
  -28.2608  -38.0070   24.7516 H   0  0  0  0  0  0
  -28.1047  -36.2608   24.6311 H   0  0  0  0  0  0
  -27.2289  -37.1459   25.8870 H   0  0  0  0  0  0
  -20.9372  -29.8687   21.6861 H   0  0  0  0  0  0
  -26.0168  -38.2862   24.1430 H   0  0  0  0  0  0
  -32.4807  -17.7742   20.6457 H   0  0  0  0  0  0
  -32.7317  -20.4294   20.0514 H   0  0  0  0  0  0
  -29.5859  -22.8277   21.5038 H   0  0  0  0  0  0
  -28.6223  -17.4022   21.3416 H   0  0  0  0  0  0
  -28.6642  -15.3370   21.3999 H   0  0  0  0  0  0
  -29.3894  -24.5786   17.9561 H   0  0  0  0  0  0
  -27.6631  -24.6807   18.2176 H   0  0  0  0  0  0
  -28.1561  -22.7335   16.7641 H   0  0  0  0  0  0
  -27.4134  -22.2518   18.2636 H   0  0  0  0  0  0
  -30.2851  -21.8606   17.4029 H   0  0  0  0  0  0
  -29.1314  -20.6880   17.9485 H   0  0  0  0  0  0
  -31.0275  -22.3103   19.3899 H   0  0  0  0  0  0
  -28.7189  -25.2262   21.7121 H   0  0  0  0  0  0
  -27.1837  -24.9820   20.9477 H   0  0  0  0  0  0
  1 25  1  0  0  0
  1 30  2  0  0  0
  1 78  1  0  0  0
  2  3  1  0  0  0
  2 25  1  0  0  0
  2 85  1  0  0  0
  2 86  1  0  0  0
  3  4  1  0  0  0
  3 87  1  0  0  0
  3 88  1  0  0  0
  4  5  1  0  0  0
  4 89  1  0  0  0
  4 90  1  0  0  0
  5  6  1  0  0  0
  5 26  1  0  0  0
  5 91  1  0  0  0
  6 25  1  0  0  0
  6 92  1  0  0  0
  6 93  1  0  0  0
  7  8  2  0  0  0
  7 26  1  0  0  0
  7 29  1  0  0  0
  8  9  1  0  0  0
  8 22  1  0  0  0
  9 10  1  0  0  0
  9 27  2  0  0  0
 10 11  2  0  0  0
 10 15  1  0  0  0
 11 12  1  0  0  0
 11 94  1  0  0  0
 12 13  2  0  0  0
 12 95  1  0  0  0
 13 14  1  0  0  0
 13 31  1  0  0  0
 14 15  2  0  0  0
 14 96  1  0  0  0
 15 97  1  0  0  0
 16 17  2  0  0  0
 16 21  1  0  0  0
 16 31  1  0  0  0
 17 18  1  0  0  0
 17 98  1  0  0  0
 18 19  2  0  0  0
 18 99  1  0  0  0
 19 20  1  0  0  0
 19 24  1  0  0  0
 20 21  2  0  0  0
 20100  1  0  0  0
 21 23  1  0  0  0
 22 28  1  0  0  0
 22 32  2  0  0  0
 26 27  1  0  0  0
 28101  1  0  0  0
 28102  1  0  0  0
 29103  1  0  0  0
 29104  1  0  0  0
 33 34  1  0  0  0
 33 66  1  0  0  0
 33 70  2  0  0  0
 34 36  1  0  0  0
 34 59  1  0  0  0
 34105  1  0  0  0
 35 44  2  0  0  0
 35 45  1  0  0  0
 35 68  1  0  0  0
 36 56  1  0  0  0
 36106  1  0  0  0
 37 39  1  0  0  0
 37 47  1  0  0  0
 37 66  1  0  0  0
 37107  1  0  0  0
 38 43  2  0  0  0
 38 46  1  0  0  0
 38 47  1  0  0  0
 39 64  1  0  0  0
 39 67  2  0  0  0
 40 52  1  0  0  0
 40 53  2  0  0  0
 40 58  1  0  0  0
 41108  1  0  0  0
 41109  1  0  0  0
 41110  1  0  0  0
 41 48  1  0  0  0
 42 43  1  0  0  0
 42 66  1  0  0  0
 42111  1  0  0  0
 42112  1  0  0  0
 43 44  1  0  0  0
 44113  1  0  0  0
 45 46  2  0  0  0
 45114  1  0  0  0
 46115  1  0  0  0
 47116  1  0  0  0
 47117  1  0  0  0
 48 56  1  0  0  0
 48 65  1  0  0  0
 48118  1  0  0  0
 49 50  1  0  0  0
 49 53  1  0  0  0
 49 64  1  0  0  0
 49119  1  0  0  0
 50 51  1  0  0  0
 50120  1  0  0  0
 50121  1  0  0  0
 51 52  1  0  0  0
 51122  1  0  0  0
 51123  1  0  0  0
 52124  1  0  0  0
 52125  1  0  0  0
 53 54  1  0  0  0
 54 55  2  0  0  0
 54126  1  0  0  0
 55 57  1  0  0  0
 55127  1  0  0  0
 56 69  2  0  0  0
 57 58  2  0  0  0
 57128  1  0  0  0
 58129  1  0  0  0
 59 60  1  0  0  0
 59 61  1  0  0  0
 59 62  1  0  0  0
 60130  1  0  0  0
 60131  1  0  0  0
 60132  1  0  0  0
 61133  1  0  0  0
 61134  1  0  0  0
 61135  1  0  0  0
 62136  1  0  0  0
 62137  1  0  0  0
 62138  1  0  0  0
 63 65  1  0  0  0
 63139  1  0  0  0
 63140  1  0  0  0
 63141  1  0  0  0
 64142  1  0  0  0
 65143  1  0  0  0
 68 83  1  0  0  0
 71 72  1  0  0  0
 71 73  2  0  0  0
 71144  1  0  0  0
 72 74  2  0  0  0
 72145  1  0  0  0
 73 77  1  0  0  0
 73 84  1  0  0  0
 74 84  1  0  0  0
 74 82  1  0  0  0
 75 76  2  0  0  0
 75 82  1  0  0  0
 75146  1  0  0  0
 76 79  1  0  0  0
 76 83  1  0  0  0
 77 78  2  0  0  0
 77147  1  0  0  0
 78148  1  0  0  0
 79 80  1  0  0  0
 79149  1  0  0  0
 79150  1  0  0  0
 80 81  1  0  0  0
 80151  1  0  0  0
 80152  1  0  0  0
 81 82  1  0  0  0
 81153  1  0  0  0
 81154  1  0  0  0
 82155  1  0  0  0
 83156  1  0  0  0
 83157  1  0  0  0
M  ISO  4   1 100  68 101  78 100  83 101
M  END
> <chiral flag>
0

> <version>
0

> <s_m_source_file>
/data/baiqing/PycharmProjects/Reinvent-master-3.2/result/LINK_invent/BTK/process_docking_weight1_custom_product_contain_oxygen_bond_distance_aromatic_linkinvent_7_9_3/rearranged_h_0132.sdf

> <i_m_source_file_index>
30

> <r_mmod_Potential_Energy-OPLS-2005>
132.436264038086

> <r_mmod_Stretch_Energy-OPLS-2005>
66.0971069335938

> <r_mmod_Bend_Energy-OPLS-2005>
185.267486572266

> <r_mmod_Torsional_Energy-OPLS-2005>
229.028244018555

> <r_mmod_Improper_Torsional_Energy-OPLS-2005>
5.69478321075439

> <r_mmod_Van_der_Waal_Energy-OPLS-2005>
134.333679199219

> <r_mmod_Electrostatic_Energy-OPLS-2005>
-336.675140380859

> <r_mmod_Solvation_Energy-OPLS-2005>
-192.382034301758

> <b_mmod_Minimization_Converged-OPLS-2005>
0

> <r_mmod_RMS_Derivative-OPLS-2005>
2.78702998161316

$$$$
30
                    3D
 Structure written by MMmdl.
160168  0  0  1  0            999 V2000
  -30.7215  -14.4222   20.6462 C   0  0  0  0  0  0
  -30.4233  -12.3012   19.4040 C   0  0  0  0  0  0
  -29.4900  -12.5196   18.1973 C   0  0  0  0  0  0
  -28.0127  -12.3765   18.6135 C   0  0  0  0  0  0
  -27.6669  -13.2033   19.8809 C   0  0  2  0  0  0
  -28.7091  -12.9579   20.9955 C   0  0  0  0  0  0
  -25.2611  -13.8155   20.5687 C   0  0  0  0  0  0
  -24.1853  -13.0437   20.9169 C   0  0  0  0  0  0
  -24.6400  -11.6901   20.8729 C   0  0  0  0  0  0
  -23.9061  -10.4292   21.0402 C   0  0  0  0  0  0
  -24.3612   -9.4209   21.9182 C   0  0  0  0  0  0
  -23.6288   -8.2245   22.0755 C   0  0  0  0  0  0
  -22.4271   -8.0282   21.3544 C   0  0  0  0  0  0
  -21.9906   -9.0254   20.4645 C   0  0  0  0  0  0
  -22.7233  -10.2134   20.3052 C   0  0  0  0  0  0
  -21.6851   -6.0735   22.5280 C   0  0  0  0  0  0
  -21.4014   -6.5637   23.8214 C   0  0  0  0  0  0
  -21.3659   -5.6790   24.9175 C   0  0  0  0  0  0
  -21.6045   -4.3054   24.7226 C   0  0  0  0  0  0
  -21.8819   -3.8146   23.4346 C   0  0  0  0  0  0
  -21.9192   -4.6964   22.3403 C   0  0  0  0  0  0
  -22.7874  -13.5239   21.1833 C   0  0  0  0  0  0
  -22.1661   -4.2151   21.0980 F   0  0  0  0  0  0
  -21.5628   -3.4538   25.7739 F   0  0  0  0  0  0
  -30.0406  -13.2618   20.4488 N   0  0  0  0  0  0
  -26.3056  -12.9321   20.3399 N   0  0  0  0  0  0
  -25.9329  -11.6480   20.5768 N   0  0  0  0  0  0
  -22.0507  -12.8235   22.0386 N   0  0  0  0  0  0
  -25.4341  -15.1873   20.4101 N   0  0  0  0  0  0
  -31.7909  -14.6563   20.0730 O   0  0  0  0  0  0
  -21.6635   -6.8879   21.4241 O   0  0  0  0  0  0
  -22.3564  -14.5551   20.6690 O   0  0  0  0  0  0
  -24.6123  -31.8686   23.2108 C   0  0  0  0  0  0
  -25.9024  -32.4827   23.8400 C   0  0  1  0  0  0
  -27.2397  -27.4554   20.0952 C   0  0  0  0  0  0
  -25.5887  -33.8625   24.2332 N   0  0  0  0  0  0
  -23.4006  -30.4902   21.5502 C   0  0  2  0  0  0
  -24.8503  -28.9547   20.1181 C   0  0  0  0  0  0
  -22.7397  -29.4658   22.4999 C   0  0  0  0  0  0
  -18.0267  -28.1376   22.8489 C   0  0  0  0  0  0
  -24.1486  -36.7319   23.2641 C   0  0  0  0  0  0
  -25.9266  -30.8387   21.3626 C   0  0  0  0  0  0
  -26.0071  -29.4718   20.7166 C   0  0  0  0  0  0
  -27.2067  -28.7265   20.7085 C   0  0  0  0  0  0
  -26.0730  -26.9444   19.4943 C   0  0  0  0  0  0
  -24.8762  -27.6875   19.5067 C   0  0  0  0  0  0
  -23.6099  -29.8187   20.1661 C   0  0  0  0  0  0
  -25.4106  -36.3116   24.0340 C   0  0  1  0  0  0
  -20.5855  -28.3660   23.1325 C   0  0  2  0  0  0
  -20.6758  -26.9396   22.5426 C   0  0  0  0  0  0
  -19.5746  -26.6385   21.5213 C   0  0  0  0  0  0
  -18.1916  -26.7925   22.1612 C   0  0  0  0  0  0
  -19.1515  -28.8833   23.2906 C   0  0  0  0  0  0
  -18.9447  -30.1440   23.8915 C   0  0  0  0  0  0
  -17.6452  -30.6582   24.0567 C   0  0  0  0  0  0
  -25.9030  -34.9479   23.5133 C   0  0  0  0  0  0
  -16.5343  -29.9087   23.6325 C   0  0  0  0  0  0
  -16.7257  -28.6505   23.0343 C   0  0  0  0  0  0
  -26.4461  -31.6601   25.0721 C   0  0  0  0  0  0
  -25.3742  -31.3720   26.1487 C   0  0  0  0  0  0
  -27.0275  -30.3039   24.6087 C   0  0  0  0  0  0
  -27.6056  -32.4309   25.7464 C   0  0  0  0  0  0
  -27.5580  -37.1813   24.8466 C   0  0  0  0  0  0
  -21.4128  -29.3029   22.3734 N   0  0  0  0  0  0
  -26.4297  -37.3795   23.9406 N   0  0  0  0  0  0
  -24.6644  -31.0800   22.1001 N   0  0  0  0  0  0
  -23.4172  -28.8203   23.3041 O   0  0  0  0  0  0
  -28.3946  -26.7144   20.0491 O   0  0  0  0  0  0
  -26.5592  -34.8928   22.4695 O   0  0  0  0  0  0
  -23.5320  -32.1429   23.7513 O   0  0  0  0  0  0
  -30.4984  -17.5074   23.9384 C   0  0  0  0  0  0
  -29.5660  -19.6527   24.6007 C   0  0  0  0  0  0
  -29.8799  -19.1502   22.2356 C   0  0  0  0  0  0
  -30.0846  -18.3928   24.9499 C   0  0  0  0  0  0
  -30.3854  -17.8686   22.5793 C   0  0  0  0  0  0
  -29.4722  -20.0532   23.2534 C   0  0  0  0  0  0
  -29.0359  -23.5030   22.0418 C   0  0  0  0  0  0
  -30.1976  -18.0002   26.4096 C   0  0  0  0  0  0
  -30.8512  -16.8758   21.5151 C   0  0  0  0  0  0
  -28.7549  -24.4137   20.8351 C   0  0  0  0  0  0
  -29.1780  -21.9869   21.8032 C   0  0  0  0  0  0
  -30.1310  -15.5013   21.5796 C   0  0  0  0  0  0
  -28.6338  -25.9113   21.2074 C   0  0  0  0  0  0
  -29.1518  -23.9756   23.1793 O   0  0  0  0  0  0
  -28.9637  -21.3168   23.0464 O   0  0  0  0  0  0
  -31.4666  -12.4039   19.1004 H   0  0  0  0  0  0
  -30.3259  -11.2824   19.7827 H   0  0  0  0  0  0
  -29.7260  -11.8077   17.4052 H   0  0  0  0  0  0
  -29.6597  -13.5124   17.7777 H   0  0  0  0  0  0
  -27.8207  -11.3189   18.7985 H   0  0  0  0  0  0
  -27.3602  -12.6632   17.7880 H   0  0  0  0  0  0
  -27.7205  -14.2557   19.6012 H   0  0  0  0  0  0
  -28.6795  -11.9152   21.3154 H   0  0  0  0  0  0
  -28.4687  -13.5369   21.8869 H   0  0  0  0  0  0
  -25.2758   -9.5684   22.4756 H   0  0  0  0  0  0
  -23.9998   -7.4637   22.7476 H   0  0  0  0  0  0
  -21.0837   -8.8770   19.8950 H   0  0  0  0  0  0
  -22.3693  -10.9670   19.6158 H   0  0  0  0  0  0
  -21.2007   -7.6145   23.9719 H   0  0  0  0  0  0
  -21.1480   -6.0519   25.9078 H   0  0  0  0  0  0
  -22.0599   -2.7610   23.2847 H   0  0  0  0  0  0
  -22.4107  -11.9887   22.4769 H   0  0  0  0  0  0
  -21.1130  -13.1276   22.2593 H   0  0  0  0  0  0
  -24.6717  -15.8466   20.5233 H   0  0  0  0  0  0
  -26.2963  -15.6266   20.1120 H   0  0  0  0  0  0
  -26.7100  -32.5553   23.1174 H   0  0  0  0  0  0
  -25.0049  -33.9792   25.0485 H   0  0  0  0  0  0
  -22.6886  -31.3062   21.4095 H   0  0  0  0  0  0
  -23.3750  -35.9649   23.3297 H   0  0  0  0  0  0
  -24.3585  -36.8941   22.2058 H   0  0  0  0  0  0
  -23.7235  -37.6520   23.6661 H   0  0  0  0  0  0
  -26.0340  -31.6021   20.5907 H   0  0  0  0  0  0
  -26.8163  -30.8973   21.9777 H   0  0  0  0  0  0
  -28.1029  -29.1237   21.1643 H   0  0  0  0  0  0
  -26.0936  -25.9739   19.0185 H   0  0  0  0  0  0
  -23.9878  -27.2827   19.0422 H   0  0  0  0  0  0
  -23.7155  -30.5912   19.4033 H   0  0  0  0  0  0
  -22.7353  -29.2352   19.8728 H   0  0  0  0  0  0
  -25.1285  -36.1985   25.0834 H   0  0  0  0  0  0
  -20.9947  -28.3226   24.1447 H   0  0  0  0  0  0
  -20.5657  -26.2265   23.3611 H   0  0  0  0  0  0
  -21.6633  -26.7436   22.1229 H   0  0  0  0  0  0
  -19.6911  -25.6301   21.1233 H   0  0  0  0  0  0
  -19.6696  -27.3205   20.6750 H   0  0  0  0  0  0
  -17.4196  -26.6684   21.4001 H   0  0  0  0  0  0
  -18.0302  -26.0056   22.8993 H   0  0  0  0  0  0
  -19.7925  -30.7248   24.2295 H   0  0  0  0  0  0
  -17.5009  -31.6264   24.5165 H   0  0  0  0  0  0
  -15.5346  -30.2998   23.7641 H   0  0  0  0  0  0
  -15.8653  -28.0838   22.7045 H   0  0  0  0  0  0
  -24.5895  -30.7082   25.7841 H   0  0  0  0  0  0
  -24.8958  -32.2885   26.4953 H   0  0  0  0  0  0
  -25.8105  -30.8879   27.0233 H   0  0  0  0  0  0
  -26.2800  -29.6803   24.1170 H   0  0  0  0  0  0
  -27.4072  -29.7276   25.4535 H   0  0  0  0  0  0
  -27.8627  -30.4350   23.9204 H   0  0  0  0  0  0
  -27.2708  -33.3629   26.2030 H   0  0  0  0  0  0
  -28.3862  -32.6830   25.0273 H   0  0  0  0  0  0
  -28.0720  -31.8432   26.5380 H   0  0  0  0  0  0
  -28.2622  -38.0085   24.7484 H   0  0  0  0  0  0
  -28.1049  -36.2617   24.6325 H   0  0  0  0  0  0
  -27.2298  -37.1514   25.8871 H   0  0  0  0  0  0
  -20.9287  -29.8752   21.6958 H   0  0  0  0  0  0
  -26.0189  -38.2878   24.1396 H   0  0  0  0  0  0
  -30.9070  -16.5434   24.2090 H   0  0  0  0  0  0
  -29.2488  -20.3340   25.3784 H   0  0  0  0  0  0
  -29.8036  -19.4279   21.1938 H   0  0  0  0  0  0
  -30.7567  -17.0720   26.5334 H   0  0  0  0  0  0
  -29.2069  -17.8598   26.8428 H   0  0  0  0  0  0
  -30.7108  -18.7781   26.9760 H   0  0  0  0  0  0
  -31.9261  -16.7410   21.6458 H   0  0  0  0  0  0
  -30.7197  -17.3112   20.5234 H   0  0  0  0  0  0
  -27.8339  -24.0763   20.3602 H   0  0  0  0  0  0
  -29.5548  -24.2756   20.1083 H   0  0  0  0  0  0
  -30.1782  -21.7836   21.4193 H   0  0  0  0  0  0
  -28.4515  -21.6516   21.0629 H   0  0  0  0  0  0
  -29.0786  -15.6562   21.3422 H   0  0  0  0  0  0
  -30.1729  -15.0978   22.5905 H   0  0  0  0  0  0
  -29.5629  -26.2577   21.6622 H   0  0  0  0  0  0
  -27.8537  -26.0465   21.9607 H   0  0  0  0  0  0
  1 25  1  0  0  0
  1 30  2  0  0  0
  1 82  1  0  0  0
  2  3  1  0  0  0
  2 25  1  0  0  0
  2 86  1  0  0  0
  2 87  1  0  0  0
  3  4  1  0  0  0
  3 88  1  0  0  0
  3 89  1  0  0  0
  4  5  1  0  0  0
  4 90  1  0  0  0
  4 91  1  0  0  0
  5  6  1  0  0  0
  5 26  1  0  0  0
  5 92  1  0  0  0
  6 25  1  0  0  0
  6 93  1  0  0  0
  6 94  1  0  0  0
  7  8  2  0  0  0
  7 26  1  0  0  0
  7 29  1  0  0  0
  8  9  1  0  0  0
  8 22  1  0  0  0
  9 10  1  0  0  0
  9 27  2  0  0  0
 10 11  2  0  0  0
 10 15  1  0  0  0
 11 12  1  0  0  0
 11 95  1  0  0  0
 12 13  2  0  0  0
 12 96  1  0  0  0
 13 14  1  0  0  0
 13 31  1  0  0  0
 14 15  2  0  0  0
 14 97  1  0  0  0
 15 98  1  0  0  0
 16 17  2  0  0  0
 16 21  1  0  0  0
 16 31  1  0  0  0
 17 18  1  0  0  0
 17 99  1  0  0  0
 18 19  2  0  0  0
 18100  1  0  0  0
 19 20  1  0  0  0
 19 24  1  0  0  0
 20 21  2  0  0  0
 20101  1  0  0  0
 21 23  1  0  0  0
 22 28  1  0  0  0
 22 32  2  0  0  0
 26 27  1  0  0  0
 28102  1  0  0  0
 28103  1  0  0  0
 29104  1  0  0  0
 29105  1  0  0  0
 33 34  1  0  0  0
 33 66  1  0  0  0
 33 70  2  0  0  0
 34 36  1  0  0  0
 34 59  1  0  0  0
 34106  1  0  0  0
 35 44  2  0  0  0
 35 45  1  0  0  0
 35 68  1  0  0  0
 36 56  1  0  0  0
 36107  1  0  0  0
 37 39  1  0  0  0
 37 47  1  0  0  0
 37 66  1  0  0  0
 37108  1  0  0  0
 38 43  2  0  0  0
 38 46  1  0  0  0
 38 47  1  0  0  0
 39 64  1  0  0  0
 39 67  2  0  0  0
 40 52  1  0  0  0
 40 53  2  0  0  0
 40 58  1  0  0  0
 41109  1  0  0  0
 41110  1  0  0  0
 41111  1  0  0  0
 41 48  1  0  0  0
 42 43  1  0  0  0
 42 66  1  0  0  0
 42112  1  0  0  0
 42113  1  0  0  0
 43 44  1  0  0  0
 44114  1  0  0  0
 45 46  2  0  0  0
 45115  1  0  0  0
 46116  1  0  0  0
 47117  1  0  0  0
 47118  1  0  0  0
 48 56  1  0  0  0
 48 65  1  0  0  0
 48119  1  0  0  0
 49 50  1  0  0  0
 49 53  1  0  0  0
 49 64  1  0  0  0
 49120  1  0  0  0
 50 51  1  0  0  0
 50121  1  0  0  0
 50122  1  0  0  0
 51 52  1  0  0  0
 51123  1  0  0  0
 51124  1  0  0  0
 52125  1  0  0  0
 52126  1  0  0  0
 53 54  1  0  0  0
 54 55  2  0  0  0
 54127  1  0  0  0
 55 57  1  0  0  0
 55128  1  0  0  0
 56 69  2  0  0  0
 57 58  2  0  0  0
 57129  1  0  0  0
 58130  1  0  0  0
 59 60  1  0  0  0
 59 61  1  0  0  0
 59 62  1  0  0  0
 60131  1  0  0  0
 60132  1  0  0  0
 60133  1  0  0  0
 61134  1  0  0  0
 61135  1  0  0  0
 61136  1  0  0  0
 62137  1  0  0  0
 62138  1  0  0  0
 62139  1  0  0  0
 63 65  1  0  0  0
 63140  1  0  0  0
 63141  1  0  0  0
 63142  1  0  0  0
 64143  1  0  0  0
 65144  1  0  0  0
 68 83  1  0  0  0
 71 74  2  0  0  0
 71 75  1  0  0  0
 71145  1  0  0  0
 72 74  1  0  0  0
 72 76  2  0  0  0
 72146  1  0  0  0
 73 75  2  0  0  0
 73 76  1  0  0  0
 73147  1  0  0  0
 74 78  1  0  0  0
 75 79  1  0  0  0
 76 85  1  0  0  0
 77 80  1  0  0  0
 77 81  1  0  0  0
 77 84  2  0  0  0
 78148  1  0  0  0
 78149  1  0  0  0
 78150  1  0  0  0
 79 82  1  0  0  0
 79151  1  0  0  0
 79152  1  0  0  0
 80 83  1  0  0  0
 80153  1  0  0  0
 80154  1  0  0  0
 81 85  1  0  0  0
 81155  1  0  0  0
 81156  1  0  0  0
 82157  1  0  0  0
 82158  1  0  0  0
 83159  1  0  0  0
 83160  1  0  0  0
M  ISO  4   1 100  68 101  82 100  83 101
M  END
> <chiral flag>
0

> <version>
0

> <s_m_source_file>
/data/baiqing/PycharmProjects/Reinvent-master-3.2/result/LINK_invent/BTK/process_docking_weight1_custom_product_contain_oxygen_bond_distance_aromatic_linkinvent_7_9_3/rearranged_h_0132.sdf

> <i_m_source_file_index>
31

> <r_mmod_Potential_Energy-OPLS-2005>
-71.1470947265625

> <r_mmod_Stretch_Energy-OPLS-2005>
35.287540435791

> <r_mmod_Bend_Energy-OPLS-2005>
94.9399261474609

> <r_mmod_Torsional_Energy-OPLS-2005>
195.782836914062

> <r_mmod_Improper_Torsional_Energy-OPLS-2005>
1.80463457107544

> <r_mmod_Van_der_Waal_Energy-OPLS-2005>
149.804077148438

> <r_mmod_Electrostatic_Energy-OPLS-2005>
-338.715881347656

> <r_mmod_Solvation_Energy-OPLS-2005>
-217.721984863281

> <b_mmod_Minimization_Converged-OPLS-2005>
0

> <r_mmod_RMS_Derivative-OPLS-2005>
0.419282853603363

$$$$
31
                    3D
 Structure written by MMmdl.
165173  0  0  1  0            999 V2000
  -30.7337  -14.4508   20.6136 C   0  0  0  0  0  0
  -30.4289  -12.3066   19.4320 C   0  0  0  0  0  0
  -29.5006  -12.5042   18.2159 C   0  0  0  0  0  0
  -28.0216  -12.3631   18.6270 C   0  0  0  0  0  0
  -27.6647  -13.2078   19.8779 C   0  0  2  0  0  0
  -28.7028  -12.9800   21.0007 C   0  0  0  0  0  0
  -25.2573  -13.8167   20.5653 C   0  0  0  0  0  0
  -24.1836  -13.0455   20.9197 C   0  0  0  0  0  0
  -24.6396  -11.6919   20.8766 C   0  0  0  0  0  0
  -23.9059  -10.4297   21.0438 C   0  0  0  0  0  0
  -24.3616   -9.4215   21.9215 C   0  0  0  0  0  0
  -23.6280   -8.2243   22.0786 C   0  0  0  0  0  0
  -22.4269   -8.0286   21.3552 C   0  0  0  0  0  0
  -21.9893   -9.0282   20.4674 C   0  0  0  0  0  0
  -22.7234  -10.2169   20.3087 C   0  0  0  0  0  0
  -21.6839   -6.0741   22.5286 C   0  0  0  0  0  0
  -21.4024   -6.5651   23.8229 C   0  0  0  0  0  0
  -21.3671   -5.6792   24.9182 C   0  0  0  0  0  0
  -21.6034   -4.3060   24.7225 C   0  0  0  0  0  0
  -21.8807   -3.8142   23.4343 C   0  0  0  0  0  0
  -21.9197   -4.6977   22.3404 C   0  0  0  0  0  0
  -22.7856  -13.5276   21.1835 C   0  0  0  0  0  0
  -22.1645   -4.2155   21.0977 F   0  0  0  0  0  0
  -21.5620   -3.4536   25.7742 F   0  0  0  0  0  0
  -30.0423  -13.2850   20.4631 N   0  0  0  0  0  0
  -26.3029  -12.9356   20.3377 N   0  0  0  0  0  0
  -25.9316  -11.6513   20.5766 N   0  0  0  0  0  0
  -22.0463  -12.8340   22.0422 N   0  0  0  0  0  0
  -25.4191  -15.1867   20.3934 N   0  0  0  0  0  0
  -31.8212  -14.6410   20.0626 O   0  0  0  0  0  0
  -21.6612   -6.8884   21.4247 O   0  0  0  0  0  0
  -22.3570  -14.5569   20.6641 O   0  0  0  0  0  0
  -24.6104  -31.8706   23.2135 C   0  0  0  0  0  0
  -25.9008  -32.4830   23.8405 C   0  0  1  0  0  0
  -27.2309  -27.4653   20.0877 C   0  0  0  0  0  0
  -25.5870  -33.8625   24.2342 N   0  0  0  0  0  0
  -23.3960  -30.4938   21.5552 C   0  0  2  0  0  0
  -24.8403  -28.9581   20.1226 C   0  0  0  0  0  0
  -22.7386  -29.4665   22.5029 C   0  0  0  0  0  0
  -18.0267  -28.1371   22.8502 C   0  0  0  0  0  0
  -24.1481  -36.7328   23.2640 C   0  0  0  0  0  0
  -25.9204  -30.8438   21.3601 C   0  0  0  0  0  0
  -25.9978  -29.4757   20.7192 C   0  0  0  0  0  0
  -27.1957  -28.7317   20.7095 C   0  0  0  0  0  0
  -26.0634  -26.9539   19.4877 C   0  0  0  0  0  0
  -24.8639  -27.6918   19.5106 C   0  0  0  0  0  0
  -23.6017  -29.8242   20.1702 C   0  0  0  0  0  0
  -25.4097  -36.3118   24.0347 C   0  0  1  0  0  0
  -20.5852  -28.3645   23.1342 C   0  0  2  0  0  0
  -20.6750  -26.9388   22.5431 C   0  0  0  0  0  0
  -19.5736  -26.6386   21.5213 C   0  0  0  0  0  0
  -18.1910  -26.7920   22.1622 C   0  0  0  0  0  0
  -19.1514  -28.8826   23.2918 C   0  0  0  0  0  0
  -18.9445  -30.1434   23.8931 C   0  0  0  0  0  0
  -17.6447  -30.6580   24.0572 C   0  0  0  0  0  0
  -25.9026  -34.9481   23.5135 C   0  0  0  0  0  0
  -16.5339  -29.9096   23.6316 C   0  0  0  0  0  0
  -16.7255  -28.6511   23.0341 C   0  0  0  0  0  0
  -26.4451  -31.6589   25.0708 C   0  0  0  0  0  0
  -25.3750  -31.3687   26.1484 C   0  0  0  0  0  0
  -27.0255  -30.3039   24.6028 C   0  0  0  0  0  0
  -27.6058  -32.4280   25.7436 C   0  0  0  0  0  0
  -27.5580  -37.1809   24.8465 C   0  0  0  0  0  0
  -21.4121  -29.3021   22.3762 N   0  0  0  0  0  0
  -26.4291  -37.3799   23.9411 N   0  0  0  0  0  0
  -24.6614  -31.0826   22.1018 N   0  0  0  0  0  0
  -23.4166  -28.8196   23.3047 O   0  0  0  0  0  0
  -28.3910  -26.7409   20.0055 O   0  0  0  0  0  0
  -26.5589  -34.8926   22.4710 O   0  0  0  0  0  0
  -23.5314  -32.1447   23.7542 O   0  0  0  0  0  0
  -28.3212  -20.4940   22.2471 C   0  0  0  0  0  0
  -27.7847  -19.2925   22.7429 C   0  0  0  0  0  0
  -29.9103  -19.2165   20.9353 C   0  0  0  0  0  0
  -29.3684  -17.9896   21.4033 C   0  0  0  0  0  0
  -29.3929  -20.4697   21.3350 C   0  0  0  0  0  0
  -28.2794  -18.0330   22.3240 C   0  0  0  0  0  0
  -30.0112  -16.7565   20.8727 C   0  0  0  0  0  0
  -30.0721  -15.5019   21.3809 C   0  0  0  0  0  0
  -30.1656  -25.5191   21.0686 C   0  0  0  0  0  0
  -30.6203  -24.2559   21.2297 C   0  0  0  0  0  0
  -32.1118  -23.9898   21.0825 C   0  0  0  0  0  0
  -26.1766  -16.9254   23.3831 C   0  0  0  0  0  0
  -29.9958  -21.7573   20.7606 C   0  0  0  0  0  0
  -27.6018  -16.7586   22.8313 C   0  0  0  0  0  0
  -28.7573  -26.0739   21.2037 C   0  0  0  0  0  0
  -29.7555  -23.0436   21.5975 C   0  0  0  0  0  0
  -31.4721  -12.3963   19.1279 H   0  0  0  0  0  0
  -30.3309  -11.2974   19.8310 H   0  0  0  0  0  0
  -29.7446  -11.7810   17.4368 H   0  0  0  0  0  0
  -29.6761  -13.4874   17.7788 H   0  0  0  0  0  0
  -27.8340  -11.3083   18.8371 H   0  0  0  0  0  0
  -27.3728  -12.6219   17.7884 H   0  0  0  0  0  0
  -27.7155  -14.2573   19.5900 H   0  0  0  0  0  0
  -28.6770  -11.9411   21.3323 H   0  0  0  0  0  0
  -28.4405  -13.5621   21.8831 H   0  0  0  0  0  0
  -25.2759   -9.5680   22.4801 H   0  0  0  0  0  0
  -23.9980   -7.4626   22.7512 H   0  0  0  0  0  0
  -21.0811   -8.8836   19.8978 H   0  0  0  0  0  0
  -22.3719  -10.9716   19.6181 H   0  0  0  0  0  0
  -21.2021   -7.6159   23.9748 H   0  0  0  0  0  0
  -21.1493   -6.0511   25.9095 H   0  0  0  0  0  0
  -22.0573   -2.7608   23.2837 H   0  0  0  0  0  0
  -22.3981  -11.9997   22.4886 H   0  0  0  0  0  0
  -21.1102  -13.1439   22.2553 H   0  0  0  0  0  0
  -24.6483  -15.8341   20.5115 H   0  0  0  0  0  0
  -26.2682  -15.6346   20.0745 H   0  0  0  0  0  0
  -26.7070  -32.5554   23.1171 H   0  0  0  0  0  0
  -25.0000  -33.9795   25.0462 H   0  0  0  0  0  0
  -22.6826  -31.3096   21.4190 H   0  0  0  0  0  0
  -23.3729  -35.9677   23.3316 H   0  0  0  0  0  0
  -24.3584  -36.8926   22.2055 H   0  0  0  0  0  0
  -23.7248  -37.6544   23.6643 H   0  0  0  0  0  0
  -26.0149  -31.6017   20.5809 H   0  0  0  0  0  0
  -26.8158  -30.9105   21.9663 H   0  0  0  0  0  0
  -28.0923  -29.1318   21.1601 H   0  0  0  0  0  0
  -26.0850  -25.9889   19.0021 H   0  0  0  0  0  0
  -23.9732  -27.2886   19.0473 H   0  0  0  0  0  0
  -23.7071  -30.5980   19.4094 H   0  0  0  0  0  0
  -22.7259  -29.2432   19.8776 H   0  0  0  0  0  0
  -25.1269  -36.1991   25.0841 H   0  0  0  0  0  0
  -20.9942  -28.3196   24.1461 H   0  0  0  0  0  0
  -20.5635  -26.2243   23.3608 H   0  0  0  0  0  0
  -21.6620  -26.7443   22.1223 H   0  0  0  0  0  0
  -19.6890  -25.6306   21.1219 H   0  0  0  0  0  0
  -19.6668  -27.3212   20.6759 H   0  0  0  0  0  0
  -17.4177  -26.6679   21.4023 H   0  0  0  0  0  0
  -18.0316  -26.0067   22.9024 H   0  0  0  0  0  0
  -19.7919  -30.7240   24.2313 H   0  0  0  0  0  0
  -17.5008  -31.6266   24.5160 H   0  0  0  0  0  0
  -15.5341  -30.3002   23.7638 H   0  0  0  0  0  0
  -15.8653  -28.0845   22.7035 H   0  0  0  0  0  0
  -24.5895  -30.7057   25.7829 H   0  0  0  0  0  0
  -24.8974  -32.2849   26.4968 H   0  0  0  0  0  0
  -25.8129  -30.8826   27.0211 H   0  0  0  0  0  0
  -26.2766  -29.6802   24.1139 H   0  0  0  0  0  0
  -27.4106  -29.7256   25.4427 H   0  0  0  0  0  0
  -27.8556  -30.4355   23.9092 H   0  0  0  0  0  0
  -27.2711  -33.3558   26.2079 H   0  0  0  0  0  0
  -28.3824  -32.6871   25.0231 H   0  0  0  0  0  0
  -28.0782  -31.8368   26.5291 H   0  0  0  0  0  0
  -28.2611  -38.0091   24.7501 H   0  0  0  0  0  0
  -28.1057  -36.2623   24.6289 H   0  0  0  0  0  0
  -27.2308  -37.1475   25.8873 H   0  0  0  0  0  0
  -20.9261  -29.8749   21.7008 H   0  0  0  0  0  0
  -26.0180  -38.2877   24.1412 H   0  0  0  0  0  0
  -27.8864  -21.4265   22.5792 H   0  0  0  0  0  0
  -26.9629  -19.3721   23.4384 H   0  0  0  0  0  0
  -30.7404  -19.1933   20.2426 H   0  0  0  0  0  0
  -30.4771  -16.9058   19.9061 H   0  0  0  0  0  0
  -29.6662  -15.2615   22.3478 H   0  0  0  0  0  0
  -30.8865  -26.2844   20.8178 H   0  0  0  0  0  0
  -32.3209  -23.3271   20.2431 H   0  0  0  0  0  0
  -32.5090  -23.5419   21.9938 H   0  0  0  0  0  0
  -32.6699  -24.9094   20.8966 H   0  0  0  0  0  0
  -25.7560  -15.9573   23.6545 H   0  0  0  0  0  0
  -25.5156  -17.3725   22.6397 H   0  0  0  0  0  0
  -26.1552  -17.5408   24.2841 H   0  0  0  0  0  0
  -29.6184  -21.8982   19.7459 H   0  0  0  0  0  0
  -31.0640  -21.5676   20.6734 H   0  0  0  0  0  0
  -28.2229  -16.3115   23.6056 H   0  0  0  0  0  0
  -27.5468  -16.0476   22.0073 H   0  0  0  0  0  0
  -28.7589  -26.7761   22.0405 H   0  0  0  0  0  0
  -28.0229  -25.3062   21.4333 H   0  0  0  0  0  0
  -28.6961  -23.2946   21.5512 H   0  0  0  0  0  0
  -29.9735  -22.8283   22.6425 H   0  0  0  0  0  0
  1 25  1  0  0  0
  1 30  2  0  0  0
  1 78  1  0  0  0
  2  3  1  0  0  0
  2 25  1  0  0  0
  2 87  1  0  0  0
  2 88  1  0  0  0
  3  4  1  0  0  0
  3 89  1  0  0  0
  3 90  1  0  0  0
  4  5  1  0  0  0
  4 91  1  0  0  0
  4 92  1  0  0  0
  5  6  1  0  0  0
  5 26  1  0  0  0
  5 93  1  0  0  0
  6 25  1  0  0  0
  6 94  1  0  0  0
  6 95  1  0  0  0
  7  8  2  0  0  0
  7 26  1  0  0  0
  7 29  1  0  0  0
  8  9  1  0  0  0
  8 22  1  0  0  0
  9 10  1  0  0  0
  9 27  2  0  0  0
 10 11  2  0  0  0
 10 15  1  0  0  0
 11 12  1  0  0  0
 11 96  1  0  0  0
 12 13  2  0  0  0
 12 97  1  0  0  0
 13 14  1  0  0  0
 13 31  1  0  0  0
 14 15  2  0  0  0
 14 98  1  0  0  0
 15 99  1  0  0  0
 16 17  2  0  0  0
 16 21  1  0  0  0
 16 31  1  0  0  0
 17 18  1  0  0  0
 17100  1  0  0  0
 18 19  2  0  0  0
 18101  1  0  0  0
 19 20  1  0  0  0
 19 24  1  0  0  0
 20 21  2  0  0  0
 20102  1  0  0  0
 21 23  1  0  0  0
 22 28  1  0  0  0
 22 32  2  0  0  0
 26 27  1  0  0  0
 28103  1  0  0  0
 28104  1  0  0  0
 29105  1  0  0  0
 29106  1  0  0  0
 33 34  1  0  0  0
 33 66  1  0  0  0
 33 70  2  0  0  0
 34 36  1  0  0  0
 34 59  1  0  0  0
 34107  1  0  0  0
 35 44  2  0  0  0
 35 45  1  0  0  0
 35 68  1  0  0  0
 36 56  1  0  0  0
 36108  1  0  0  0
 37 39  1  0  0  0
 37 47  1  0  0  0
 37 66  1  0  0  0
 37109  1  0  0  0
 38 43  2  0  0  0
 38 46  1  0  0  0
 38 47  1  0  0  0
 39 64  1  0  0  0
 39 67  2  0  0  0
 40 52  1  0  0  0
 40 53  2  0  0  0
 40 58  1  0  0  0
 41110  1  0  0  0
 41111  1  0  0  0
 41112  1  0  0  0
 41 48  1  0  0  0
 42 43  1  0  0  0
 42 66  1  0  0  0
 42113  1  0  0  0
 42114  1  0  0  0
 43 44  1  0  0  0
 44115  1  0  0  0
 45 46  2  0  0  0
 45116  1  0  0  0
 46117  1  0  0  0
 47118  1  0  0  0
 47119  1  0  0  0
 48 56  1  0  0  0
 48 65  1  0  0  0
 48120  1  0  0  0
 49 50  1  0  0  0
 49 53  1  0  0  0
 49 64  1  0  0  0
 49121  1  0  0  0
 50 51  1  0  0  0
 50122  1  0  0  0
 50123  1  0  0  0
 51 52  1  0  0  0
 51124  1  0  0  0
 51125  1  0  0  0
 52126  1  0  0  0
 52127  1  0  0  0
 53 54  1  0  0  0
 54 55  2  0  0  0
 54128  1  0  0  0
 55 57  1  0  0  0
 55129  1  0  0  0
 56 69  2  0  0  0
 57 58  2  0  0  0
 57130  1  0  0  0
 58131  1  0  0  0
 59 60  1  0  0  0
 59 61  1  0  0  0
 59 62  1  0  0  0
 60132  1  0  0  0
 60133  1  0  0  0
 60134  1  0  0  0
 61135  1  0  0  0
 61136  1  0  0  0
 61137  1  0  0  0
 62138  1  0  0  0
 62139  1  0  0  0
 62140  1  0  0  0
 63 65  1  0  0  0
 63141  1  0  0  0
 63142  1  0  0  0
 63143  1  0  0  0
 64144  1  0  0  0
 65145  1  0  0  0
 68 85  1  0  0  0
 71 72  2  0  0  0
 71 75  1  0  0  0
 71146  1  0  0  0
 72 76  1  0  0  0
 72147  1  0  0  0
 73 74  1  0  0  0
 73 75  2  0  0  0
 73148  1  0  0  0
 74 76  2  0  0  0
 74 77  1  0  0  0
 75 83  1  0  0  0
 76 84  1  0  0  0
 77 78  2  0  0  0
 77149  1  0  0  0
 78150  1  0  0  0
 79 80  2  0  0  0
 79 85  1  0  0  0
 79151  1  0  0  0
 80 81  1  0  0  0
 80 86  1  0  0  0
 81152  1  0  0  0
 81153  1  0  0  0
 81154  1  0  0  0
 82 84  1  0  0  0
 82155  1  0  0  0
 82156  1  0  0  0
 82157  1  0  0  0
 83 86  1  0  0  0
 83158  1  0  0  0
 83159  1  0  0  0
 84160  1  0  0  0
 84161  1  0  0  0
 85162  1  0  0  0
 85163  1  0  0  0
 86164  1  0  0  0
 86165  1  0  0  0
M  ISO  4   1 100  68 101  78 100  85 101
M  END
> <chiral flag>
0

> <version>
0

> <s_m_source_file>
/data/baiqing/PycharmProjects/Reinvent-master-3.2/result/LINK_invent/BTK/process_docking_weight1_custom_product_contain_oxygen_bond_distance_aromatic_linkinvent_7_9_3/rearranged_h_0132.sdf

> <i_m_source_file_index>
32

> <r_mmod_Potential_Energy-OPLS-2005>
4.80562114715576

> <r_mmod_Stretch_Energy-OPLS-2005>
38.080493927002

> <r_mmod_Bend_Energy-OPLS-2005>
108.82447052002

> <r_mmod_Torsional_Energy-OPLS-2005>
207.691802978516

> <r_mmod_Improper_Torsional_Energy-OPLS-2005>
2.8856348991394

> <r_mmod_Van_der_Waal_Energy-OPLS-2005>
159.687088012695

> <r_mmod_Electrostatic_Energy-OPLS-2005>
-343.685607910156

> <r_mmod_Solvation_Energy-OPLS-2005>
-177.697692871094

> <b_mmod_Minimization_Converged-OPLS-2005>
0

> <r_mmod_RMS_Derivative-OPLS-2005>
4.12639570236206

$$$$
32
                    3D
 Structure written by MMmdl.
155163  0  0  1  0            999 V2000
  -30.7110  -14.4499   20.5891 C   0  0  0  0  0  0
  -30.4181  -12.2998   19.4174 C   0  0  0  0  0  0
  -29.4910  -12.5201   18.2032 C   0  0  0  0  0  0
  -28.0092  -12.3854   18.6093 C   0  0  0  0  0  0
  -27.6618  -13.2063   19.8803 C   0  0  2  0  0  0
  -28.7015  -12.9488   20.9924 C   0  0  0  0  0  0
  -25.2570  -13.8164   20.5694 C   0  0  0  0  0  0
  -24.1818  -13.0438   20.9183 C   0  0  0  0  0  0
  -24.6374  -11.6906   20.8745 C   0  0  0  0  0  0
  -23.9045  -10.4291   21.0406 C   0  0  0  0  0  0
  -24.3610   -9.4210   21.9181 C   0  0  0  0  0  0
  -23.6301   -8.2237   22.0753 C   0  0  0  0  0  0
  -22.4276   -8.0273   21.3550 C   0  0  0  0  0  0
  -21.9900   -9.0241   20.4649 C   0  0  0  0  0  0
  -22.7217  -10.2129   20.3053 C   0  0  0  0  0  0
  -21.6853   -6.0735   22.5290 C   0  0  0  0  0  0
  -21.4007   -6.5645   23.8222 C   0  0  0  0  0  0
  -21.3658   -5.6799   24.9186 C   0  0  0  0  0  0
  -21.6046   -4.3060   24.7238 C   0  0  0  0  0  0
  -21.8816   -3.8150   23.4360 C   0  0  0  0  0  0
  -21.9188   -4.6963   22.3413 C   0  0  0  0  0  0
  -22.7837  -13.5238   21.1853 C   0  0  0  0  0  0
  -22.1658   -4.2146   21.0994 F   0  0  0  0  0  0
  -21.5631   -3.4544   25.7749 F   0  0  0  0  0  0
  -30.0348  -13.2727   20.4560 N   0  0  0  0  0  0
  -26.3014  -12.9336   20.3388 N   0  0  0  0  0  0
  -25.9298  -11.6494   20.5774 N   0  0  0  0  0  0
  -22.0479  -12.8241   22.0419 N   0  0  0  0  0  0
  -25.4292  -15.1882   20.4122 N   0  0  0  0  0  0
  -31.8177  -14.6216   20.0664 O   0  0  0  0  0  0
  -21.6645   -6.8869   21.4248 O   0  0  0  0  0  0
  -22.3526  -14.5547   20.6713 O   0  0  0  0  0  0
  -24.6139  -31.8680   23.2103 C   0  0  0  0  0  0
  -25.9033  -32.4823   23.8400 C   0  0  1  0  0  0
  -27.2370  -27.4508   20.1043 C   0  0  0  0  0  0
  -25.5898  -33.8622   24.2329 N   0  0  0  0  0  0
  -23.4015  -30.4908   21.5500 C   0  0  2  0  0  0
  -24.8510  -28.9590   20.1130 C   0  0  0  0  0  0
  -22.7407  -29.4656   22.4992 C   0  0  0  0  0  0
  -18.0269  -28.1378   22.8494 C   0  0  0  0  0  0
  -24.1484  -36.7318   23.2632 C   0  0  0  0  0  0
  -25.9283  -30.8410   21.3596 C   0  0  0  0  0  0
  -26.0090  -29.4764   20.7083 C   0  0  0  0  0  0
  -27.2086  -28.7304   20.6983 C   0  0  0  0  0  0
  -26.0673  -26.9431   19.5005 C   0  0  0  0  0  0
  -24.8745  -27.6915   19.5036 C   0  0  0  0  0  0
  -23.6094  -29.8207   20.1644 C   0  0  0  0  0  0
  -25.4100  -36.3112   24.0334 C   0  0  1  0  0  0
  -20.5858  -28.3662   23.1324 C   0  0  2  0  0  0
  -20.6759  -26.9399   22.5421 C   0  0  0  0  0  0
  -19.5738  -26.6384   21.5217 C   0  0  0  0  0  0
  -18.1917  -26.7925   22.1625 C   0  0  0  0  0  0
  -19.1519  -28.8837   23.2906 C   0  0  0  0  0  0
  -18.9446  -30.1447   23.8914 C   0  0  0  0  0  0
  -17.6445  -30.6582   24.0565 C   0  0  0  0  0  0
  -25.9034  -34.9477   23.5130 C   0  0  0  0  0  0
  -16.5338  -29.9086   23.6327 C   0  0  0  0  0  0
  -16.7256  -28.6505   23.0346 C   0  0  0  0  0  0
  -26.4470  -31.6598   25.0718 C   0  0  0  0  0  0
  -25.3750  -31.3691   26.1476 C   0  0  0  0  0  0
  -27.0291  -30.3043   24.6077 C   0  0  0  0  0  0
  -27.6052  -32.4311   25.7477 C   0  0  0  0  0  0
  -27.5590  -37.1792   24.8445 C   0  0  0  0  0  0
  -21.4136  -29.3029   22.3735 N   0  0  0  0  0  0
  -26.4279  -37.3804   23.9428 N   0  0  0  0  0  0
  -24.6659  -31.0803   22.0989 N   0  0  0  0  0  0
  -23.4188  -28.8205   23.3029 O   0  0  0  0  0  0
  -28.3856  -26.6951   20.1141 O   0  0  0  0  0  0
  -26.5593  -34.8925   22.4691 O   0  0  0  0  0  0
  -23.5336  -32.1421   23.7516 O   0  0  0  0  0  0
  -28.4035  -19.1951   23.2718 C   0  0  0  0  0  0
  -28.9224  -18.0072   22.7227 C   0  0  0  0  0  0
  -28.6166  -20.4311   22.6326 C   0  0  0  0  0  0
  -29.8706  -19.2910   20.8876 C   0  0  0  0  0  0
  -29.6715  -18.0418   21.5254 C   0  0  0  0  0  0
  -29.3519  -20.4925   21.4272 C   0  0  0  0  0  0
  -30.2433  -16.8190   20.9198 C   0  0  0  0  0  0
  -30.0190  -15.5350   21.2875 C   0  0  0  0  0  0
  -29.6082  -21.8141   20.6913 C   0  0  0  0  0  0
  -28.8842  -23.0615   21.2518 C   0  0  0  0  0  0
  -29.0654  -24.3378   20.3966 C   0  0  0  0  0  0
  -28.3120  -25.5514   20.9766 C   0  0  0  0  0  0
  -31.4621  -12.3914   19.1137 H   0  0  0  0  0  0
  -30.3156  -11.2824   19.7975 H   0  0  0  0  0  0
  -29.7288  -11.8065   17.4133 H   0  0  0  0  0  0
  -29.6661  -13.5114   17.7817 H   0  0  0  0  0  0
  -27.8069  -11.3286   18.7843 H   0  0  0  0  0  0
  -27.3630  -12.6847   17.7830 H   0  0  0  0  0  0
  -27.7164  -14.2606   19.6097 H   0  0  0  0  0  0
  -28.6799  -11.8966   21.2801 H   0  0  0  0  0  0
  -28.4463  -13.4854   21.9034 H   0  0  0  0  0  0
  -25.2752   -9.5700   22.4762 H   0  0  0  0  0  0
  -24.0019   -7.4625   22.7461 H   0  0  0  0  0  0
  -21.0830   -8.8748   19.8957 H   0  0  0  0  0  0
  -22.3660  -10.9669   19.6170 H   0  0  0  0  0  0
  -21.2003   -7.6150   23.9730 H   0  0  0  0  0  0
  -21.1482   -6.0528   25.9089 H   0  0  0  0  0  0
  -22.0598   -2.7612   23.2867 H   0  0  0  0  0  0
  -22.4097  -11.9924   22.4848 H   0  0  0  0  0  0
  -21.1087  -13.1254   22.2613 H   0  0  0  0  0  0
  -24.6689  -15.8482   20.5326 H   0  0  0  0  0  0
  -26.2991  -15.6290   20.1385 H   0  0  0  0  0  0
  -26.7111  -32.5544   23.1174 H   0  0  0  0  0  0
  -25.0057  -33.9788   25.0481 H   0  0  0  0  0  0
  -22.6899  -31.3071   21.4102 H   0  0  0  0  0  0
  -23.3751  -35.9642   23.3264 H   0  0  0  0  0  0
  -24.3598  -36.8966   22.2054 H   0  0  0  0  0  0
  -23.7218  -37.6505   23.6671 H   0  0  0  0  0  0
  -26.0352  -31.6075   20.5907 H   0  0  0  0  0  0
  -26.8180  -30.8974   21.9749 H   0  0  0  0  0  0
  -28.1040  -29.1253   21.1583 H   0  0  0  0  0  0
  -26.0796  -25.9673   19.0358 H   0  0  0  0  0  0
  -23.9860  -27.2882   19.0375 H   0  0  0  0  0  0
  -23.7113  -30.5934   19.4015 H   0  0  0  0  0  0
  -22.7355  -29.2352   19.8727 H   0  0  0  0  0  0
  -25.1268  -36.1966   25.0823 H   0  0  0  0  0  0
  -20.9952  -28.3222   24.1441 H   0  0  0  0  0  0
  -20.5664  -26.2268   23.3607 H   0  0  0  0  0  0
  -21.6630  -26.7446   22.1209 H   0  0  0  0  0  0
  -19.6898  -25.6299   21.1241 H   0  0  0  0  0  0
  -19.6681  -27.3203   20.6756 H   0  0  0  0  0  0
  -17.4189  -26.6680   21.4025 H   0  0  0  0  0  0
  -18.0311  -26.0063   22.9016 H   0  0  0  0  0  0
  -19.7919  -30.7262   24.2291 H   0  0  0  0  0  0
  -17.4997  -31.6268   24.5157 H   0  0  0  0  0  0
  -15.5340  -30.2995   23.7639 H   0  0  0  0  0  0
  -15.8655  -28.0835   22.7051 H   0  0  0  0  0  0
  -24.5913  -30.7051   25.7813 H   0  0  0  0  0  0
  -24.8955  -32.2842   26.4959 H   0  0  0  0  0  0
  -25.8114  -30.8833   27.0211 H   0  0  0  0  0  0
  -26.2823  -29.6809   24.1144 H   0  0  0  0  0  0
  -27.4078  -29.7268   25.4520 H   0  0  0  0  0  0
  -27.8651  -30.4359   23.9203 H   0  0  0  0  0  0
  -27.2675  -33.3593   26.2096 H   0  0  0  0  0  0
  -28.3840  -32.6901   25.0292 H   0  0  0  0  0  0
  -28.0747  -31.8411   26.5358 H   0  0  0  0  0  0
  -28.2545  -38.0151   24.7590 H   0  0  0  0  0  0
  -28.1151  -36.2692   24.6143 H   0  0  0  0  0  0
  -27.2333  -37.1268   25.8848 H   0  0  0  0  0  0
  -20.9302  -29.8756   21.6959 H   0  0  0  0  0  0
  -26.0163  -38.2866   24.1495 H   0  0  0  0  0  0
  -27.8416  -19.1575   24.1949 H   0  0  0  0  0  0
  -28.7486  -17.0778   23.2450 H   0  0  0  0  0  0
  -28.2062  -21.3210   23.0879 H   0  0  0  0  0  0
  -30.4382  -19.3328   19.9678 H   0  0  0  0  0  0
  -30.9234  -17.0015   20.0975 H   0  0  0  0  0  0
  -29.3466  -15.3265   22.1014 H   0  0  0  0  0  0
  -29.3176  -21.6742   19.6494 H   0  0  0  0  0  0
  -30.6838  -21.9935   20.6836 H   0  0  0  0  0  0
  -29.2316  -23.2572   22.2677 H   0  0  0  0  0  0
  -27.8174  -22.8478   21.3236 H   0  0  0  0  0  0
  -28.7046  -24.1458   19.3854 H   0  0  0  0  0  0
  -30.1252  -24.5779   20.3066 H   0  0  0  0  0  0
  -28.7433  -25.8244   21.9408 H   0  0  0  0  0  0
  -27.2803  -25.2594   21.1820 H   0  0  0  0  0  0
  1 25  1  0  0  0
  1 30  2  0  0  0
  1 78  1  0  0  0
  2  3  1  0  0  0
  2 25  1  0  0  0
  2 83  1  0  0  0
  2 84  1  0  0  0
  3  4  1  0  0  0
  3 85  1  0  0  0
  3 86  1  0  0  0
  4  5  1  0  0  0
  4 87  1  0  0  0
  4 88  1  0  0  0
  5  6  1  0  0  0
  5 26  1  0  0  0
  5 89  1  0  0  0
  6 25  1  0  0  0
  6 90  1  0  0  0
  6 91  1  0  0  0
  7  8  2  0  0  0
  7 26  1  0  0  0
  7 29  1  0  0  0
  8  9  1  0  0  0
  8 22  1  0  0  0
  9 10  1  0  0  0
  9 27  2  0  0  0
 10 11  2  0  0  0
 10 15  1  0  0  0
 11 12  1  0  0  0
 11 92  1  0  0  0
 12 13  2  0  0  0
 12 93  1  0  0  0
 13 14  1  0  0  0
 13 31  1  0  0  0
 14 15  2  0  0  0
 14 94  1  0  0  0
 15 95  1  0  0  0
 16 17  2  0  0  0
 16 21  1  0  0  0
 16 31  1  0  0  0
 17 18  1  0  0  0
 17 96  1  0  0  0
 18 19  2  0  0  0
 18 97  1  0  0  0
 19 20  1  0  0  0
 19 24  1  0  0  0
 20 21  2  0  0  0
 20 98  1  0  0  0
 21 23  1  0  0  0
 22 28  1  0  0  0
 22 32  2  0  0  0
 26 27  1  0  0  0
 28 99  1  0  0  0
 28100  1  0  0  0
 29101  1  0  0  0
 29102  1  0  0  0
 33 34  1  0  0  0
 33 66  1  0  0  0
 33 70  2  0  0  0
 34 36  1  0  0  0
 34 59  1  0  0  0
 34103  1  0  0  0
 35 44  2  0  0  0
 35 45  1  0  0  0
 35 68  1  0  0  0
 36 56  1  0  0  0
 36104  1  0  0  0
 37 39  1  0  0  0
 37 47  1  0  0  0
 37 66  1  0  0  0
 37105  1  0  0  0
 38 43  2  0  0  0
 38 46  1  0  0  0
 38 47  1  0  0  0
 39 64  1  0  0  0
 39 67  2  0  0  0
 40 52  1  0  0  0
 40 53  2  0  0  0
 40 58  1  0  0  0
 41106  1  0  0  0
 41107  1  0  0  0
 41108  1  0  0  0
 41 48  1  0  0  0
 42 43  1  0  0  0
 42 66  1  0  0  0
 42109  1  0  0  0
 42110  1  0  0  0
 43 44  1  0  0  0
 44111  1  0  0  0
 45 46  2  0  0  0
 45112  1  0  0  0
 46113  1  0  0  0
 47114  1  0  0  0
 47115  1  0  0  0
 48 56  1  0  0  0
 48 65  1  0  0  0
 48116  1  0  0  0
 49 50  1  0  0  0
 49 53  1  0  0  0
 49 64  1  0  0  0
 49117  1  0  0  0
 50 51  1  0  0  0
 50118  1  0  0  0
 50119  1  0  0  0
 51 52  1  0  0  0
 51120  1  0  0  0
 51121  1  0  0  0
 52122  1  0  0  0
 52123  1  0  0  0
 53 54  1  0  0  0
 54 55  2  0  0  0
 54124  1  0  0  0
 55 57  1  0  0  0
 55125  1  0  0  0
 56 69  2  0  0  0
 57 58  2  0  0  0
 57126  1  0  0  0
 58127  1  0  0  0
 59 60  1  0  0  0
 59 61  1  0  0  0
 59 62  1  0  0  0
 60128  1  0  0  0
 60129  1  0  0  0
 60130  1  0  0  0
 61131  1  0  0  0
 61132  1  0  0  0
 61133  1  0  0  0
 62134  1  0  0  0
 62135  1  0  0  0
 62136  1  0  0  0
 63 65  1  0  0  0
 63137  1  0  0  0
 63138  1  0  0  0
 63139  1  0  0  0
 64140  1  0  0  0
 65141  1  0  0  0
 68 82  1  0  0  0
 71 72  2  0  0  0
 71 73  1  0  0  0
 71142  1  0  0  0
 72 75  1  0  0  0
 72143  1  0  0  0
 73 76  2  0  0  0
 73144  1  0  0  0
 74 75  2  0  0  0
 74 76  1  0  0  0
 74145  1  0  0  0
 75 77  1  0  0  0
 76 79  1  0  0  0
 77 78  2  0  0  0
 77146  1  0  0  0
 78147  1  0  0  0
 79 80  1  0  0  0
 79148  1  0  0  0
 79149  1  0  0  0
 80 81  1  0  0  0
 80150  1  0  0  0
 80151  1  0  0  0
 81 82  1  0  0  0
 81152  1  0  0  0
 81153  1  0  0  0
 82154  1  0  0  0
 82155  1  0  0  0
M  ISO  4   1 100  68 101  78 100  82 101
M  END
> <chiral flag>
0

> <version>
0

> <s_m_source_file>
/data/baiqing/PycharmProjects/Reinvent-master-3.2/result/LINK_invent/BTK/process_docking_weight1_custom_product_contain_oxygen_bond_distance_aromatic_linkinvent_7_9_3/rearranged_h_0132.sdf

> <i_m_source_file_index>
33

> <r_mmod_Potential_Energy-OPLS-2005>
-22.9764881134033

> <r_mmod_Stretch_Energy-OPLS-2005>
35.8908233642578

> <r_mmod_Bend_Energy-OPLS-2005>
90.4891967773438

> <r_mmod_Torsional_Energy-OPLS-2005>
198.577774047852

> <r_mmod_Improper_Torsional_Energy-OPLS-2005>
2.54170250892639

> <r_mmod_Van_der_Waal_Energy-OPLS-2005>
157.349548339844

> <r_mmod_Electrostatic_Energy-OPLS-2005>
-331.810028076172

> <r_mmod_Solvation_Energy-OPLS-2005>
-186.447830200195

> <b_mmod_Minimization_Converged-OPLS-2005>
0

> <r_mmod_RMS_Derivative-OPLS-2005>
1.23697566986084

$$$$
33
                    3D
 Structure written by MMmdl.
159167  0  0  1  0            999 V2000
  -30.7158  -14.4522   20.5538 C   0  0  0  0  0  0
  -30.4169  -12.2817   19.4211 C   0  0  0  0  0  0
  -29.4863  -12.4857   18.2066 C   0  0  0  0  0  0
  -28.0085  -12.3581   18.6171 C   0  0  0  0  0  0
  -27.6619  -13.2031   19.8716 C   0  0  2  0  0  0
  -28.7100  -13.0067   20.9939 C   0  0  0  0  0  0
  -25.2618  -13.8159   20.5693 C   0  0  0  0  0  0
  -24.1870  -13.0458   20.9183 C   0  0  0  0  0  0
  -24.6407  -11.6916   20.8758 C   0  0  0  0  0  0
  -23.9083  -10.4305   21.0445 C   0  0  0  0  0  0
  -24.3640   -9.4217   21.9212 C   0  0  0  0  0  0
  -23.6338   -8.2234   22.0759 C   0  0  0  0  0  0
  -22.4311   -8.0295   21.3558 C   0  0  0  0  0  0
  -21.9966   -9.0266   20.4639 C   0  0  0  0  0  0
  -22.7277  -10.2152   20.3071 C   0  0  0  0  0  0
  -21.6854   -6.0766   22.5300 C   0  0  0  0  0  0
  -21.4009   -6.5684   23.8233 C   0  0  0  0  0  0
  -21.3633   -5.6835   24.9197 C   0  0  0  0  0  0
  -21.6035   -4.3101   24.7246 C   0  0  0  0  0  0
  -21.8824   -3.8187   23.4378 C   0  0  0  0  0  0
  -21.9198   -4.6992   22.3426 C   0  0  0  0  0  0
  -22.7885  -13.5233   21.1894 C   0  0  0  0  0  0
  -22.1689   -4.2172   21.1004 F   0  0  0  0  0  0
  -21.5604   -3.4583   25.7761 F   0  0  0  0  0  0
  -30.0417  -13.2761   20.4352 N   0  0  0  0  0  0
  -26.3052  -12.9331   20.3387 N   0  0  0  0  0  0
  -25.9324  -11.6502   20.5775 N   0  0  0  0  0  0
  -22.0563  -12.8159   22.0412 N   0  0  0  0  0  0
  -25.4429  -15.1874   20.4099 N   0  0  0  0  0  0
  -31.8592  -14.5940   20.1109 O   0  0  0  0  0  0
  -21.6671   -6.8910   21.4263 O   0  0  0  0  0  0
  -22.3556  -14.5554   20.6796 O   0  0  0  0  0  0
  -24.6138  -31.8690   23.2119 C   0  0  0  0  0  0
  -25.9028  -32.4824   23.8413 C   0  0  1  0  0  0
  -27.2414  -27.4497   20.1020 C   0  0  0  0  0  0
  -25.5900  -33.8627   24.2346 N   0  0  0  0  0  0
  -23.4033  -30.4902   21.5515 C   0  0  2  0  0  0
  -24.8546  -28.9572   20.1190 C   0  0  0  0  0  0
  -22.7419  -29.4642   22.4994 C   0  0  0  0  0  0
  -18.0267  -28.1366   22.8493 C   0  0  0  0  0  0
  -24.1493  -36.7330   23.2634 C   0  0  0  0  0  0
  -25.9306  -30.8357   21.3686 C   0  0  0  0  0  0
  -26.0100  -29.4687   20.7237 C   0  0  0  0  0  0
  -27.2079  -28.7193   20.7239 C   0  0  0  0  0  0
  -26.0756  -26.9546   19.4880 C   0  0  0  0  0  0
  -24.8790  -27.6947   19.5021 C   0  0  0  0  0  0
  -23.6159  -29.8224   20.1664 C   0  0  0  0  0  0
  -25.4111  -36.3115   24.0340 C   0  0  1  0  0  0
  -20.5861  -28.3647   23.1324 C   0  0  2  0  0  0
  -20.6753  -26.9385   22.5427 C   0  0  0  0  0  0
  -19.5735  -26.6366   21.5214 C   0  0  0  0  0  0
  -18.1905  -26.7915   22.1616 C   0  0  0  0  0  0
  -19.1518  -28.8823   23.2902 C   0  0  0  0  0  0
  -18.9444  -30.1435   23.8903 C   0  0  0  0  0  0
  -17.6444  -30.6574   24.0558 C   0  0  0  0  0  0
  -25.9026  -34.9479   23.5131 C   0  0  0  0  0  0
  -16.5337  -29.9074   23.6320 C   0  0  0  0  0  0
  -16.7254  -28.6486   23.0350 C   0  0  0  0  0  0
  -26.4456  -31.6590   25.0734 C   0  0  0  0  0  0
  -25.3724  -31.3681   26.1478 C   0  0  0  0  0  0
  -27.0312  -30.3044   24.6106 C   0  0  0  0  0  0
  -27.6035  -32.4305   25.7506 C   0  0  0  0  0  0
  -27.5589  -37.1821   24.8461 C   0  0  0  0  0  0
  -21.4146  -29.3012   22.3731 N   0  0  0  0  0  0
  -26.4305  -37.3797   23.9406 N   0  0  0  0  0  0
  -24.6663  -31.0807   22.1018 N   0  0  0  0  0  0
  -23.4186  -28.8177   23.3032 O   0  0  0  0  0  0
  -28.3669  -26.6630   20.0316 O   0  0  0  0  0  0
  -26.5591  -34.8920   22.4695 O   0  0  0  0  0  0
  -23.5335  -32.1430   23.7509 O   0  0  0  0  0  0
  -27.7206  -18.9782   18.8652 C   0  0  0  0  0  0
  -27.6012  -20.1036   19.7022 C   0  0  0  0  0  0
  -28.6744  -17.9867   19.1551 C   0  0  0  0  0  0
  -29.4002  -19.2483   21.1129 C   0  0  0  0  0  0
  -28.4493  -20.2539   20.8184 C   0  0  0  0  0  0
  -29.5151  -18.1120   20.2806 C   0  0  0  0  0  0
  -28.8511  -24.0586   21.7037 C   0  0  0  0  0  0
  -28.3575  -21.5156   21.6625 C   0  0  0  0  0  0
  -30.5689  -17.0423   20.5363 C   0  0  0  0  0  0
  -28.8977  -22.7494   20.9068 C   0  0  0  0  0  0
  -29.8162  -25.1690   21.2674 C   0  0  0  0  0  0
  -29.9967  -15.7089   21.0947 C   0  0  0  0  0  0
  -29.1883  -26.5779   21.1928 C   0  0  0  0  0  0
  -28.0917  -24.2036   22.6671 O   0  0  0  0  0  0
  -31.4610  -12.3657   19.1139 H   0  0  0  0  0  0
  -30.3057  -11.2748   19.8265 H   0  0  0  0  0  0
  -29.7168  -11.7536   17.4295 H   0  0  0  0  0  0
  -29.6570  -13.4676   17.7632 H   0  0  0  0  0  0
  -27.8018  -11.3040   18.8079 H   0  0  0  0  0  0
  -27.3661  -12.6473   17.7843 H   0  0  0  0  0  0
  -27.7010  -14.2422   19.5517 H   0  0  0  0  0  0
  -28.6725  -11.9856   21.3772 H   0  0  0  0  0  0
  -28.4842  -13.6470   21.8478 H   0  0  0  0  0  0
  -25.2787   -9.5700   22.4783 H   0  0  0  0  0  0
  -24.0073   -7.4611   22.7461 H   0  0  0  0  0  0
  -21.0916   -8.8796   19.8914 H   0  0  0  0  0  0
  -22.3771  -10.9717   19.6189 H   0  0  0  0  0  0
  -21.2029   -7.6196   23.9742 H   0  0  0  0  0  0
  -21.1436   -6.0577   25.9087 H   0  0  0  0  0  0
  -22.0617   -2.7647   23.2886 H   0  0  0  0  0  0
  -22.4266  -11.9787   22.4678 H   0  0  0  0  0  0
  -21.1153  -13.1099   22.2664 H   0  0  0  0  0  0
  -24.6911  -15.8589   20.5168 H   0  0  0  0  0  0
  -26.3130  -15.6107   20.1110 H   0  0  0  0  0  0
  -26.7115  -32.5550   23.1195 H   0  0  0  0  0  0
  -25.0072  -33.9784   25.0502 H   0  0  0  0  0  0
  -22.6913  -31.3057   21.4104 H   0  0  0  0  0  0
  -23.3746  -35.9671   23.3297 H   0  0  0  0  0  0
  -24.3591  -36.8944   22.2052 H   0  0  0  0  0  0
  -23.7255  -37.6539   23.6649 H   0  0  0  0  0  0
  -26.0417  -31.5976   20.5956 H   0  0  0  0  0  0
  -26.8195  -30.8930   21.9865 H   0  0  0  0  0  0
  -28.0989  -29.1199   21.1865 H   0  0  0  0  0  0
  -26.0957  -25.9861   19.0103 H   0  0  0  0  0  0
  -23.9934  -27.2923   19.0300 H   0  0  0  0  0  0
  -23.7281  -30.5964   19.4071 H   0  0  0  0  0  0
  -22.7420  -29.2413   19.8677 H   0  0  0  0  0  0
  -25.1281  -36.1989   25.0839 H   0  0  0  0  0  0
  -20.9941  -28.3199   24.1451 H   0  0  0  0  0  0
  -20.5646  -26.2254   23.3600 H   0  0  0  0  0  0
  -21.6627  -26.7414   22.1220 H   0  0  0  0  0  0
  -19.6891  -25.6276   21.1240 H   0  0  0  0  0  0
  -19.6683  -27.3180   20.6749 H   0  0  0  0  0  0
  -17.4191  -26.6682   21.4007 H   0  0  0  0  0  0
  -18.0288  -26.0044   22.8999 H   0  0  0  0  0  0
  -19.7921  -30.7250   24.2279 H   0  0  0  0  0  0
  -17.4996  -31.6264   24.5149 H   0  0  0  0  0  0
  -15.5331  -30.2975   23.7639 H   0  0  0  0  0  0
  -15.8652  -28.0802   22.7059 H   0  0  0  0  0  0
  -24.5910  -30.7010   25.7808 H   0  0  0  0  0  0
  -24.8895  -32.2842   26.4918 H   0  0  0  0  0  0
  -25.8082  -30.8862   27.0245 H   0  0  0  0  0  0
  -26.2888  -29.6800   24.1132 H   0  0  0  0  0  0
  -27.4069  -29.7262   25.4560 H   0  0  0  0  0  0
  -27.8714  -30.4370   23.9279 H   0  0  0  0  0  0
  -27.2646  -33.3589   26.2116 H   0  0  0  0  0  0
  -28.3836  -32.6890   25.0332 H   0  0  0  0  0  0
  -28.0714  -31.8411   26.5400 H   0  0  0  0  0  0
  -28.2590  -38.0122   24.7514 H   0  0  0  0  0  0
  -28.1089  -36.2669   24.6277 H   0  0  0  0  0  0
  -27.2311  -37.1461   25.8853 H   0  0  0  0  0  0
  -20.9298  -29.8774   21.6991 H   0  0  0  0  0  0
  -26.0192  -38.2878   24.1392 H   0  0  0  0  0  0
  -27.0890  -18.8816   17.9935 H   0  0  0  0  0  0
  -26.8678  -20.8625   19.4697 H   0  0  0  0  0  0
  -28.7663  -17.1311   18.4993 H   0  0  0  0  0  0
  -30.0540  -19.3612   21.9652 H   0  0  0  0  0  0
  -28.9056  -21.3752   22.5964 H   0  0  0  0  0  0
  -27.3132  -21.6697   21.9426 H   0  0  0  0  0  0
  -31.3327  -17.4276   21.2135 H   0  0  0  0  0  0
  -31.0733  -16.8939   19.5804 H   0  0  0  0  0  0
  -29.9305  -22.5653   20.6108 H   0  0  0  0  0  0
  -28.3259  -22.8977   19.9893 H   0  0  0  0  0  0
  -30.2630  -24.9058   20.3069 H   0  0  0  0  0  0
  -30.6278  -25.1801   21.9936 H   0  0  0  0  0  0
  -28.9480  -15.6511   20.8122 H   0  0  0  0  0  0
  -30.0183  -15.7141   22.1840 H   0  0  0  0  0  0
  -29.9813  -27.3189   21.1017 H   0  0  0  0  0  0
  -28.6369  -26.8004   22.1085 H   0  0  0  0  0  0
  1 25  1  0  0  0
  1 30  2  0  0  0
  1 82  1  0  0  0
  2  3  1  0  0  0
  2 25  1  0  0  0
  2 85  1  0  0  0
  2 86  1  0  0  0
  3  4  1  0  0  0
  3 87  1  0  0  0
  3 88  1  0  0  0
  4  5  1  0  0  0
  4 89  1  0  0  0
  4 90  1  0  0  0
  5  6  1  0  0  0
  5 26  1  0  0  0
  5 91  1  0  0  0
  6 25  1  0  0  0
  6 92  1  0  0  0
  6 93  1  0  0  0
  7  8  2  0  0  0
  7 26  1  0  0  0
  7 29  1  0  0  0
  8  9  1  0  0  0
  8 22  1  0  0  0
  9 10  1  0  0  0
  9 27  2  0  0  0
 10 11  2  0  0  0
 10 15  1  0  0  0
 11 12  1  0  0  0
 11 94  1  0  0  0
 12 13  2  0  0  0
 12 95  1  0  0  0
 13 14  1  0  0  0
 13 31  1  0  0  0
 14 15  2  0  0  0
 14 96  1  0  0  0
 15 97  1  0  0  0
 16 17  2  0  0  0
 16 21  1  0  0  0
 16 31  1  0  0  0
 17 18  1  0  0  0
 17 98  1  0  0  0
 18 19  2  0  0  0
 18 99  1  0  0  0
 19 20  1  0  0  0
 19 24  1  0  0  0
 20 21  2  0  0  0
 20100  1  0  0  0
 21 23  1  0  0  0
 22 28  1  0  0  0
 22 32  2  0  0  0
 26 27  1  0  0  0
 28101  1  0  0  0
 28102  1  0  0  0
 29103  1  0  0  0
 29104  1  0  0  0
 33 34  1  0  0  0
 33 66  1  0  0  0
 33 70  2  0  0  0
 34 36  1  0  0  0
 34 59  1  0  0  0
 34105  1  0  0  0
 35 44  2  0  0  0
 35 45  1  0  0  0
 35 68  1  0  0  0
 36 56  1  0  0  0
 36106  1  0  0  0
 37 39  1  0  0  0
 37 47  1  0  0  0
 37 66  1  0  0  0
 37107  1  0  0  0
 38 43  2  0  0  0
 38 46  1  0  0  0
 38 47  1  0  0  0
 39 64  1  0  0  0
 39 67  2  0  0  0
 40 52  1  0  0  0
 40 53  2  0  0  0
 40 58  1  0  0  0
 41108  1  0  0  0
 41109  1  0  0  0
 41110  1  0  0  0
 41 48  1  0  0  0
 42 43  1  0  0  0
 42 66  1  0  0  0
 42111  1  0  0  0
 42112  1  0  0  0
 43 44  1  0  0  0
 44113  1  0  0  0
 45 46  2  0  0  0
 45114  1  0  0  0
 46115  1  0  0  0
 47116  1  0  0  0
 47117  1  0  0  0
 48 56  1  0  0  0
 48 65  1  0  0  0
 48118  1  0  0  0
 49 50  1  0  0  0
 49 53  1  0  0  0
 49 64  1  0  0  0
 49119  1  0  0  0
 50 51  1  0  0  0
 50120  1  0  0  0
 50121  1  0  0  0
 51 52  1  0  0  0
 51122  1  0  0  0
 51123  1  0  0  0
 52124  1  0  0  0
 52125  1  0  0  0
 53 54  1  0  0  0
 54 55  2  0  0  0
 54126  1  0  0  0
 55 57  1  0  0  0
 55127  1  0  0  0
 56 69  2  0  0  0
 57 58  2  0  0  0
 57128  1  0  0  0
 58129  1  0  0  0
 59 60  1  0  0  0
 59 61  1  0  0  0
 59 62  1  0  0  0
 60130  1  0  0  0
 60131  1  0  0  0
 60132  1  0  0  0
 61133  1  0  0  0
 61134  1  0  0  0
 61135  1  0  0  0
 62136  1  0  0  0
 62137  1  0  0  0
 62138  1  0  0  0
 63 65  1  0  0  0
 63139  1  0  0  0
 63140  1  0  0  0
 63141  1  0  0  0
 64142  1  0  0  0
 65143  1  0  0  0
 68 83  1  0  0  0
 71 72  2  0  0  0
 71 73  1  0  0  0
 71144  1  0  0  0
 72 75  1  0  0  0
 72145  1  0  0  0
 73 76  2  0  0  0
 73146  1  0  0  0
 74 75  2  0  0  0
 74 76  1  0  0  0
 74147  1  0  0  0
 75 78  1  0  0  0
 76 79  1  0  0  0
 77 80  1  0  0  0
 77 81  1  0  0  0
 77 84  2  0  0  0
 78 80  1  0  0  0
 78148  1  0  0  0
 78149  1  0  0  0
 79 82  1  0  0  0
 79150  1  0  0  0
 79151  1  0  0  0
 80152  1  0  0  0
 80153  1  0  0  0
 81 83  1  0  0  0
 81154  1  0  0  0
 81155  1  0  0  0
 82156  1  0  0  0
 82157  1  0  0  0
 83158  1  0  0  0
 83159  1  0  0  0
M  ISO  4   1 100  68 101  82 100  83 101
M  END
> <chiral flag>
0

> <version>
0

> <s_m_source_file>
/data/baiqing/PycharmProjects/Reinvent-master-3.2/result/LINK_invent/BTK/process_docking_weight1_custom_product_contain_oxygen_bond_distance_aromatic_linkinvent_7_9_3/rearranged_h_0132.sdf

> <i_m_source_file_index>
34

> <r_mmod_Potential_Energy-OPLS-2005>
-104.412109375

> <r_mmod_Stretch_Energy-OPLS-2005>
33.0209541320801

> <r_mmod_Bend_Energy-OPLS-2005>
88.8198471069336

> <r_mmod_Torsional_Energy-OPLS-2005>
184.135955810547

> <r_mmod_Improper_Torsional_Energy-OPLS-2005>
3.47648286819458

> <r_mmod_Van_der_Waal_Energy-OPLS-2005>
145.127319335938

> <r_mmod_Electrostatic_Energy-OPLS-2005>
-369.523315429688

> <r_mmod_Solvation_Energy-OPLS-2005>
-201.605575561523

> <b_mmod_Minimization_Converged-OPLS-2005>
0

> <r_mmod_RMS_Derivative-OPLS-2005>
3.49185657501221

$$$$
34
                    3D
 Structure written by MMmdl.
167175  0  0  1  0            999 V2000
  -30.6652  -14.5519   20.5391 C   0  0  0  0  0  0
  -30.4276  -12.3394   19.4461 C   0  0  0  0  0  0
  -29.5039  -12.4976   18.2186 C   0  0  0  0  0  0
  -28.0247  -12.3486   18.6258 C   0  0  0  0  0  0
  -27.6546  -13.2124   19.8599 C   0  0  2  0  0  0
  -28.6960  -13.0496   20.9887 C   0  0  0  0  0  0
  -25.2581  -13.8164   20.5688 C   0  0  0  0  0  0
  -24.1840  -13.0429   20.9182 C   0  0  0  0  0  0
  -24.6405  -11.6899   20.8726 C   0  0  0  0  0  0
  -23.9071  -10.4282   21.0401 C   0  0  0  0  0  0
  -24.3618   -9.4197   21.9184 C   0  0  0  0  0  0
  -23.6286   -8.2239   22.0763 C   0  0  0  0  0  0
  -22.4274   -8.0281   21.3545 C   0  0  0  0  0  0
  -21.9908   -9.0253   20.4645 C   0  0  0  0  0  0
  -22.7241  -10.2129   20.3052 C   0  0  0  0  0  0
  -21.6851   -6.0730   22.5274 C   0  0  0  0  0  0
  -21.4016   -6.5638   23.8207 C   0  0  0  0  0  0
  -21.3662   -5.6796   24.9178 C   0  0  0  0  0  0
  -21.6041   -4.3055   24.7225 C   0  0  0  0  0  0
  -21.8822   -3.8143   23.4349 C   0  0  0  0  0  0
  -21.9193   -4.6958   22.3406 C   0  0  0  0  0  0
  -22.7862  -13.5228   21.1853 C   0  0  0  0  0  0
  -22.1664   -4.2138   21.0985 F   0  0  0  0  0  0
  -21.5623   -3.4541   25.7740 F   0  0  0  0  0  0
  -30.0236  -13.3510   20.4384 N   0  0  0  0  0  0
  -26.3000  -12.9339   20.3298 N   0  0  0  0  0  0
  -25.9325  -11.6495   20.5739 N   0  0  0  0  0  0
  -22.0508  -12.8209   22.0402 N   0  0  0  0  0  0
  -25.4299  -15.1883   20.4132 N   0  0  0  0  0  0
  -31.8225  -14.6837   20.1325 O   0  0  0  0  0  0
  -21.6636   -6.8878   21.4238 O   0  0  0  0  0  0
  -22.3539  -14.5528   20.6700 O   0  0  0  0  0  0
  -24.6200  -31.8642   23.2078 C   0  0  0  0  0  0
  -25.9074  -32.4804   23.8388 C   0  0  1  0  0  0
  -27.2266  -27.3769   20.1130 C   0  0  0  0  0  0
  -25.5910  -33.8602   24.2317 N   0  0  0  0  0  0
  -23.4107  -30.4882   21.5494 C   0  0  2  0  0  0
  -24.8569  -28.9490   20.1153 C   0  0  0  0  0  0
  -22.7440  -29.4638   22.4971 C   0  0  0  0  0  0
  -18.0280  -28.1379   22.8492 C   0  0  0  0  0  0
  -24.1485  -36.7302   23.2641 C   0  0  0  0  0  0
  -25.9459  -30.8132   21.3703 C   0  0  0  0  0  0
  -26.0218  -29.4441   20.7151 C   0  0  0  0  0  0
  -27.2113  -28.6688   20.7048 C   0  0  0  0  0  0
  -26.0445  -26.9196   19.4889 C   0  0  0  0  0  0
  -24.8665  -27.6894   19.4947 C   0  0  0  0  0  0
  -23.6222  -29.8226   20.1639 C   0  0  0  0  0  0
  -25.4108  -36.3100   24.0339 C   0  0  1  0  0  0
  -20.5875  -28.3673   23.1305 C   0  0  2  0  0  0
  -20.6765  -26.9401   22.5419 C   0  0  0  0  0  0
  -19.5746  -26.6382   21.5212 C   0  0  0  0  0  0
  -18.1922  -26.7924   22.1620 C   0  0  0  0  0  0
  -19.1529  -28.8843   23.2895 C   0  0  0  0  0  0
  -18.9454  -30.1448   23.8904 C   0  0  0  0  0  0
  -17.6453  -30.6582   24.0564 C   0  0  0  0  0  0
  -25.9043  -34.9465   23.5128 C   0  0  0  0  0  0
  -16.5347  -29.9080   23.6327 C   0  0  0  0  0  0
  -16.7269  -28.6498   23.0353 C   0  0  0  0  0  0
  -26.4485  -31.6590   25.0732 C   0  0  0  0  0  0
  -25.3741  -31.3693   26.1470 C   0  0  0  0  0  0
  -27.0325  -30.3029   24.6140 C   0  0  0  0  0  0
  -27.6051  -32.4314   25.7500 C   0  0  0  0  0  0
  -27.5583  -37.1805   24.8464 C   0  0  0  0  0  0
  -21.4164  -29.3032   22.3705 N   0  0  0  0  0  0
  -26.4291  -37.3788   23.9414 N   0  0  0  0  0  0
  -24.6773  -31.0702   22.1004 N   0  0  0  0  0  0
  -23.4189  -28.8177   23.3028 O   0  0  0  0  0  0
  -28.3695  -26.5850   20.1199 O   0  0  0  0  0  0
  -26.5604  -34.8921   22.4689 O   0  0  0  0  0  0
  -23.5378  -32.1414   23.7440 O   0  0  0  0  0  0
  -29.2584  -19.2296   17.8121 C   0  0  0  0  0  0
  -29.5627  -19.6041   20.5637 C   0  0  0  0  0  0
  -29.8310  -18.1969   18.5817 C   0  0  0  0  0  0
  -28.8395  -20.4410   18.3918 C   0  0  0  0  0  0
  -29.9605  -18.3501   19.9903 C   0  0  0  0  0  0
  -29.0146  -20.6637   19.7745 C   0  0  0  0  0  0
  -31.8173  -17.0160   17.5165 C   0  0  0  0  0  0
  -26.6578  -21.3861   17.5265 C   0  0  0  0  0  0
  -30.3152  -16.9651   17.8258 C   0  0  0  0  0  0
  -28.1868  -21.4890   17.5047 C   0  0  0  0  0  0
  -30.6067  -17.2345   20.8650 C   0  0  0  0  0  0
  -29.8800  -15.8349   20.9888 C   0  0  0  0  0  0
  -29.4125  -24.2700   20.1455 C   0  0  0  0  0  0
  -28.2106  -25.1903   20.5275 C   0  0  0  0  0  0
  -29.4919  -22.8340   20.7868 C   0  0  0  0  0  0
  -28.5447  -21.8669   20.2953 O   0  0  0  0  0  0
  -31.4731  -12.4360   19.1497 H   0  0  0  0  0  0
  -30.3306  -11.3397   19.8733 H   0  0  0  0  0  0
  -29.7555  -11.7555   17.4598 H   0  0  0  0  0  0
  -29.6641  -13.4743   17.7591 H   0  0  0  0  0  0
  -27.8484  -11.2955   18.8467 H   0  0  0  0  0  0
  -27.3752  -12.5953   17.7852 H   0  0  0  0  0  0
  -27.6765  -14.2480   19.5244 H   0  0  0  0  0  0
  -28.6816  -12.0293   21.3748 H   0  0  0  0  0  0
  -28.4514  -13.6905   21.8364 H   0  0  0  0  0  0
  -25.2769   -9.5663   22.4755 H   0  0  0  0  0  0
  -23.9981   -7.4635   22.7496 H   0  0  0  0  0  0
  -21.0836   -8.8785   19.8946 H   0  0  0  0  0  0
  -22.3714  -10.9674   19.6161 H   0  0  0  0  0  0
  -21.2015   -7.6143   23.9707 H   0  0  0  0  0  0
  -21.1482   -6.0529   25.9080 H   0  0  0  0  0  0
  -22.0598   -2.7595   23.2862 H   0  0  0  0  0  0
  -22.4132  -11.9865   22.4774 H   0  0  0  0  0  0
  -21.1127  -13.1234   22.2622 H   0  0  0  0  0  0
  -24.6668  -15.8464   20.5285 H   0  0  0  0  0  0
  -26.2892  -15.6288   20.1088 H   0  0  0  0  0  0
  -26.7141  -32.5500   23.1144 H   0  0  0  0  0  0
  -25.0063  -33.9758   25.0466 H   0  0  0  0  0  0
  -22.7018  -31.3069   21.4093 H   0  0  0  0  0  0
  -23.3751  -35.9633   23.3304 H   0  0  0  0  0  0
  -24.3578  -36.8920   22.2055 H   0  0  0  0  0  0
  -23.7232  -37.6504   23.6659 H   0  0  0  0  0  0
  -26.0688  -31.5782   20.6026 H   0  0  0  0  0  0
  -26.8298  -30.8626   21.9945 H   0  0  0  0  0  0
  -28.1097  -29.0467   21.1731 H   0  0  0  0  0  0
  -26.0195  -25.9669   18.9814 H   0  0  0  0  0  0
  -23.9752  -27.3085   19.0149 H   0  0  0  0  0  0
  -23.7369  -30.5993   19.4066 H   0  0  0  0  0  0
  -22.7440  -29.2476   19.8638 H   0  0  0  0  0  0
  -25.1281  -36.1962   25.0832 H   0  0  0  0  0  0
  -20.9969  -28.3241   24.1424 H   0  0  0  0  0  0
  -20.5666  -26.2276   23.3609 H   0  0  0  0  0  0
  -21.6636  -26.7432   22.1216 H   0  0  0  0  0  0
  -19.6905  -25.6297   21.1233 H   0  0  0  0  0  0
  -19.6685  -27.3199   20.6749 H   0  0  0  0  0  0
  -17.4198  -26.6691   21.4013 H   0  0  0  0  0  0
  -18.0307  -26.0057   22.9004 H   0  0  0  0  0  0
  -19.7930  -30.7260   24.2275 H   0  0  0  0  0  0
  -17.5010  -31.6260   24.5165 H   0  0  0  0  0  0
  -15.5347  -30.2984   23.7646 H   0  0  0  0  0  0
  -15.8670  -28.0815   22.7066 H   0  0  0  0  0  0
  -24.5926  -30.7028   25.7802 H   0  0  0  0  0  0
  -24.8918  -32.2842   26.4920 H   0  0  0  0  0  0
  -25.8094  -30.8862   27.0228 H   0  0  0  0  0  0
  -26.2881  -29.6780   24.1192 H   0  0  0  0  0  0
  -27.4075  -29.7276   25.4615 H   0  0  0  0  0  0
  -27.8726  -30.4334   23.9316 H   0  0  0  0  0  0
  -27.2668  -33.3605   26.2098 H   0  0  0  0  0  0
  -28.3855  -32.6885   25.0326 H   0  0  0  0  0  0
  -28.0729  -31.8426   26.5403 H   0  0  0  0  0  0
  -28.2594  -38.0111   24.7529 H   0  0  0  0  0  0
  -28.1088  -36.2642   24.6267 H   0  0  0  0  0  0
  -27.2304  -37.1431   25.8868 H   0  0  0  0  0  0
  -20.9331  -29.8758   21.6925 H   0  0  0  0  0  0
  -26.0177  -38.2864   24.1429 H   0  0  0  0  0  0
  -29.1397  -19.0921   16.7459 H   0  0  0  0  0  0
  -29.6696  -19.7558   21.6285 H   0  0  0  0  0  0
  -32.1289  -16.1345   16.9555 H   0  0  0  0  0  0
  -32.4188  -17.0539   18.4233 H   0  0  0  0  0  0
  -32.0644  -17.8944   16.9196 H   0  0  0  0  0  0
  -26.2076  -22.1304   16.8691 H   0  0  0  0  0  0
  -26.2677  -21.5488   18.5312 H   0  0  0  0  0  0
  -26.3250  -20.4023   17.1942 H   0  0  0  0  0  0
  -29.7728  -16.8905   16.8827 H   0  0  0  0  0  0
  -30.0576  -16.0539   18.3542 H   0  0  0  0  0  0
  -28.5459  -21.3718   16.4812 H   0  0  0  0  0  0
  -28.4992  -22.4856   17.8142 H   0  0  0  0  0  0
  -30.7111  -17.6334   21.8743 H   0  0  0  0  0  0
  -31.6364  -17.1132   20.5338 H   0  0  0  0  0  0
  -28.9394  -15.8831   20.4437 H   0  0  0  0  0  0
  -29.5998  -15.6924   22.0325 H   0  0  0  0  0  0
  -30.3179  -24.7973   20.4475 H   0  0  0  0  0  0
  -29.4789  -24.1915   19.0616 H   0  0  0  0  0  0
  -28.0891  -25.1828   21.6114 H   0  0  0  0  0  0
  -27.3104  -24.7307   20.1251 H   0  0  0  0  0  0
  -29.3590  -22.9150   21.8661 H   0  0  0  0  0  0
  -30.5042  -22.4506   20.6451 H   0  0  0  0  0  0
  1 25  1  0  0  0
  1 30  2  0  0  0
  1 82  1  0  0  0
  2  3  1  0  0  0
  2 25  1  0  0  0
  2 87  1  0  0  0
  2 88  1  0  0  0
  3  4  1  0  0  0
  3 89  1  0  0  0
  3 90  1  0  0  0
  4  5  1  0  0  0
  4 91  1  0  0  0
  4 92  1  0  0  0
  5  6  1  0  0  0
  5 26  1  0  0  0
  5 93  1  0  0  0
  6 25  1  0  0  0
  6 94  1  0  0  0
  6 95  1  0  0  0
  7  8  2  0  0  0
  7 26  1  0  0  0
  7 29  1  0  0  0
  8  9  1  0  0  0
  8 22  1  0  0  0
  9 10  1  0  0  0
  9 27  2  0  0  0
 10 11  2  0  0  0
 10 15  1  0  0  0
 11 12  1  0  0  0
 11 96  1  0  0  0
 12 13  2  0  0  0
 12 97  1  0  0  0
 13 14  1  0  0  0
 13 31  1  0  0  0
 14 15  2  0  0  0
 14 98  1  0  0  0
 15 99  1  0  0  0
 16 17  2  0  0  0
 16 21  1  0  0  0
 16 31  1  0  0  0
 17 18  1  0  0  0
 17100  1  0  0  0
 18 19  2  0  0  0
 18101  1  0  0  0
 19 20  1  0  0  0
 19 24  1  0  0  0
 20 21  2  0  0  0
 20102  1  0  0  0
 21 23  1  0  0  0
 22 28  1  0  0  0
 22 32  2  0  0  0
 26 27  1  0  0  0
 28103  1  0  0  0
 28104  1  0  0  0
 29105  1  0  0  0
 29106  1  0  0  0
 33 34  1  0  0  0
 33 66  1  0  0  0
 33 70  2  0  0  0
 34 36  1  0  0  0
 34 59  1  0  0  0
 34107  1  0  0  0
 35 44  2  0  0  0
 35 45  1  0  0  0
 35 68  1  0  0  0
 36 56  1  0  0  0
 36108  1  0  0  0
 37 39  1  0  0  0
 37 47  1  0  0  0
 37 66  1  0  0  0
 37109  1  0  0  0
 38 43  2  0  0  0
 38 46  1  0  0  0
 38 47  1  0  0  0
 39 64  1  0  0  0
 39 67  2  0  0  0
 40 52  1  0  0  0
 40 53  2  0  0  0
 40 58  1  0  0  0
 41110  1  0  0  0
 41111  1  0  0  0
 41112  1  0  0  0
 41 48  1  0  0  0
 42 43  1  0  0  0
 42 66  1  0  0  0
 42113  1  0  0  0
 42114  1  0  0  0
 43 44  1  0  0  0
 44115  1  0  0  0
 45 46  2  0  0  0
 45116  1  0  0  0
 46117  1  0  0  0
 47118  1  0  0  0
 47119  1  0  0  0
 48 56  1  0  0  0
 48 65  1  0  0  0
 48120  1  0  0  0
 49 50  1  0  0  0
 49 53  1  0  0  0
 49 64  1  0  0  0
 49121  1  0  0  0
 50 51  1  0  0  0
 50122  1  0  0  0
 50123  1  0  0  0
 51 52  1  0  0  0
 51124  1  0  0  0
 51125  1  0  0  0
 52126  1  0  0  0
 52127  1  0  0  0
 53 54  1  0  0  0
 54 55  2  0  0  0
 54128  1  0  0  0
 55 57  1  0  0  0
 55129  1  0  0  0
 56 69  2  0  0  0
 57 58  2  0  0  0
 57130  1  0  0  0
 58131  1  0  0  0
 59 60  1  0  0  0
 59 61  1  0  0  0
 59 62  1  0  0  0
 60132  1  0  0  0
 60133  1  0  0  0
 60134  1  0  0  0
 61135  1  0  0  0
 61136  1  0  0  0
 61137  1  0  0  0
 62138  1  0  0  0
 62139  1  0  0  0
 62140  1  0  0  0
 63 65  1  0  0  0
 63141  1  0  0  0
 63142  1  0  0  0
 63143  1  0  0  0
 64144  1  0  0  0
 65145  1  0  0  0
 68 84  1  0  0  0
 71 73  2  0  0  0
 71 74  1  0  0  0
 71146  1  0  0  0
 72 75  2  0  0  0
 72 76  1  0  0  0
 72147  1  0  0  0
 73 75  1  0  0  0
 73 79  1  0  0  0
 74 76  2  0  0  0
 74 80  1  0  0  0
 75 81  1  0  0  0
 76 86  1  0  0  0
 77 79  1  0  0  0
 77148  1  0  0  0
 77149  1  0  0  0
 77150  1  0  0  0
 78 80  1  0  0  0
 78151  1  0  0  0
 78152  1  0  0  0
 78153  1  0  0  0
 79154  1  0  0  0
 79155  1  0  0  0
 80156  1  0  0  0
 80157  1  0  0  0
 81 82  1  0  0  0
 81158  1  0  0  0
 81159  1  0  0  0
 82160  1  0  0  0
 82161  1  0  0  0
 83 84  1  0  0  0
 83 85  1  0  0  0
 83162  1  0  0  0
 83163  1  0  0  0
 84164  1  0  0  0
 84165  1  0  0  0
 85 86  1  0  0  0
 85166  1  0  0  0
 85167  1  0  0  0
M  ISO  4   1 100  68 101  82 100  84 101
M  END
> <chiral flag>
0

> <version>
0

> <s_m_source_file>
/data/baiqing/PycharmProjects/Reinvent-master-3.2/result/LINK_invent/BTK/process_docking_weight1_custom_product_contain_oxygen_bond_distance_aromatic_linkinvent_7_9_3/rearranged_h_0132.sdf

> <i_m_source_file_index>
35

> <r_mmod_Potential_Energy-OPLS-2005>
15.0544481277466

> <r_mmod_Stretch_Energy-OPLS-2005>
57.6247863769531

> <r_mmod_Bend_Energy-OPLS-2005>
116.069038391113

> <r_mmod_Torsional_Energy-OPLS-2005>
231.515777587891

> <r_mmod_Improper_Torsional_Energy-OPLS-2005>
4.22610139846802

> <r_mmod_Van_der_Waal_Energy-OPLS-2005>
137.184036254883

> <r_mmod_Electrostatic_Energy-OPLS-2005>
-368.958099365234

> <r_mmod_Solvation_Energy-OPLS-2005>
-188.049407958984

> <b_mmod_Minimization_Converged-OPLS-2005>
0

> <r_mmod_RMS_Derivative-OPLS-2005>
1.07971572875977

$$$$
35
                    3D
 Structure written by MMmdl.
162170  0  0  1  0            999 V2000
  -30.7714  -14.3806   20.6640 C   0  0  0  0  0  0
  -30.4119  -12.2900   19.4026 C   0  0  0  0  0  0
  -29.4832  -12.5223   18.1969 C   0  0  0  0  0  0
  -28.0080  -12.3804   18.6130 C   0  0  0  0  0  0
  -27.6651  -13.2065   19.8809 C   0  0  2  0  0  0
  -28.7038  -12.9612   20.9981 C   0  0  0  0  0  0
  -25.2596  -13.8171   20.5682 C   0  0  0  0  0  0
  -24.1846  -13.0448   20.9168 C   0  0  0  0  0  0
  -24.6398  -11.6911   20.8735 C   0  0  0  0  0  0
  -23.9063  -10.4297   21.0405 C   0  0  0  0  0  0
  -24.3615   -9.4209   21.9180 C   0  0  0  0  0  0
  -23.6291   -8.2250   22.0758 C   0  0  0  0  0  0
  -22.4272   -8.0288   21.3548 C   0  0  0  0  0  0
  -21.9908   -9.0259   20.4644 C   0  0  0  0  0  0
  -22.7239  -10.2138   20.3050 C   0  0  0  0  0  0
  -21.6847   -6.0738   22.5280 C   0  0  0  0  0  0
  -21.4012   -6.5642   23.8214 C   0  0  0  0  0  0
  -21.3660   -5.6794   24.9176 C   0  0  0  0  0  0
  -21.6044   -4.3056   24.7225 C   0  0  0  0  0  0
  -21.8818   -3.8152   23.4345 C   0  0  0  0  0  0
  -21.9194   -4.6967   22.3401 C   0  0  0  0  0  0
  -22.7861  -13.5239   21.1828 C   0  0  0  0  0  0
  -22.1660   -4.2156   21.0973 F   0  0  0  0  0  0
  -21.5632   -3.4538   25.7737 F   0  0  0  0  0  0
  -30.0454  -13.2493   20.4574 N   0  0  0  0  0  0
  -26.3038  -12.9346   20.3391 N   0  0  0  0  0  0
  -25.9321  -11.6501   20.5762 N   0  0  0  0  0  0
  -22.0502  -12.8237   22.0388 N   0  0  0  0  0  0
  -25.4327  -15.1890   20.4077 N   0  0  0  0  0  0
  -31.8070  -14.6259   20.0380 O   0  0  0  0  0  0
  -21.6638   -6.8883   21.4242 O   0  0  0  0  0  0
  -22.3547  -14.5551   20.6681 O   0  0  0  0  0  0
  -24.6147  -31.8701   23.2107 C   0  0  0  0  0  0
  -25.9053  -32.4826   23.8390 C   0  0  1  0  0  0
  -27.2310  -27.4407   20.0965 C   0  0  0  0  0  0
  -25.5913  -33.8615   24.2311 N   0  0  0  0  0  0
  -23.4016  -30.4941   21.5525 C   0  0  2  0  0  0
  -24.8473  -28.9682   20.1102 C   0  0  0  0  0  0
  -22.7421  -29.4646   22.4987 C   0  0  0  0  0  0
  -18.0269  -28.1367   22.8490 C   0  0  0  0  0  0
  -24.1504  -36.7321   23.2634 C   0  0  0  0  0  0
  -25.9309  -30.8378   21.3642 C   0  0  0  0  0  0
  -26.0076  -29.4749   20.7068 C   0  0  0  0  0  0
  -27.2026  -28.7196   20.6957 C   0  0  0  0  0  0
  -26.0528  -26.9583   19.4748 C   0  0  0  0  0  0
  -24.8642  -27.7083   19.4904 C   0  0  0  0  0  0
  -23.6085  -29.8329   20.1648 C   0  0  0  0  0  0
  -25.4120  -36.3110   24.0332 C   0  0  1  0  0  0
  -20.5868  -28.3641   23.1325 C   0  0  2  0  0  0
  -20.6766  -26.9372   22.5425 C   0  0  0  0  0  0
  -19.5740  -26.6381   21.5221 C   0  0  0  0  0  0
  -18.1908  -26.7913   22.1628 C   0  0  0  0  0  0
  -19.1527  -28.8824   23.2903 C   0  0  0  0  0  0
  -18.9451  -30.1434   23.8907 C   0  0  0  0  0  0
  -17.6455  -30.6575   24.0565 C   0  0  0  0  0  0
  -25.9045  -34.9473   23.5114 C   0  0  0  0  0  0
  -16.5344  -29.9079   23.6332 C   0  0  0  0  0  0
  -16.7261  -28.6502   23.0337 C   0  0  0  0  0  0
  -26.4482  -31.6600   25.0709 C   0  0  0  0  0  0
  -25.3739  -31.3703   26.1456 C   0  0  0  0  0  0
  -27.0290  -30.3043   24.6051 C   0  0  0  0  0  0
  -27.6050  -32.4319   25.7478 C   0  0  0  0  0  0
  -27.5581  -37.1804   24.8461 C   0  0  0  0  0  0
  -21.4149  -29.3018   22.3733 N   0  0  0  0  0  0
  -26.4310  -37.3794   23.9395 N   0  0  0  0  0  0
  -24.6676  -31.0805   22.1013 N   0  0  0  0  0  0
  -23.4200  -28.8152   23.2993 O   0  0  0  0  0  0
  -28.3939  -26.6921   20.1460 O   0  0  0  0  0  0
  -26.5618  -34.8934   22.4679 O   0  0  0  0  0  0
  -23.5337  -32.1464   23.7505 O   0  0  0  0  0  0
  -31.9222  -18.9057   22.9590 C   0  0  0  0  0  0
  -32.2412  -16.6343   22.1575 C   0  0  0  0  0  0
  -30.5226  -18.7584   22.8655 C   0  0  0  0  0  0
  -29.9735  -17.5319   22.3880 C   0  0  0  0  0  0
  -30.8412  -16.4666   22.0239 C   0  0  0  0  0  0
  -32.7784  -17.8485   22.6132 C   0  0  0  0  0  0
  -28.4663  -17.3315   22.2441 C   0  0  0  0  0  0
  -29.6585  -19.9257   23.3332 C   0  0  0  0  0  0
  -29.0428  -20.7647   22.1952 C   0  0  0  0  0  0
  -29.3010  -24.4784   20.8608 C   0  0  0  0  0  0
  -28.8627  -23.0042   21.0058 C   0  0  0  0  0  0
  -28.2212  -25.2688   20.0994 C   0  0  0  0  0  0
  -29.7414  -22.1106   21.9024 C   0  0  2  0  0  0
  -30.2804  -15.2271   21.5861 N   0  0  0  0  0  0
  -34.1201  -17.9929   22.7325 F   0  0  0  0  0  0
  -30.9107  -21.8932   21.2995 F   0  0  0  0  0  0
  -31.4561  -12.3798   19.0955 H   0  0  0  0  0  0
  -30.3057  -11.2703   19.7744 H   0  0  0  0  0  0
  -29.7151  -11.8141   17.3997 H   0  0  0  0  0  0
  -29.6546  -13.5173   17.7841 H   0  0  0  0  0  0
  -27.8131  -11.3227   18.7944 H   0  0  0  0  0  0
  -27.3555  -12.6713   17.7890 H   0  0  0  0  0  0
  -27.7202  -14.2591   19.6032 H   0  0  0  0  0  0
  -28.6641  -11.9199   21.3231 H   0  0  0  0  0  0
  -28.4557  -13.5453   21.8842 H   0  0  0  0  0  0
  -25.2761   -9.5688   22.4752 H   0  0  0  0  0  0
  -24.0001   -7.4640   22.7474 H   0  0  0  0  0  0
  -21.0847   -8.8770   19.8945 H   0  0  0  0  0  0
  -22.3696  -10.9673   19.6160 H   0  0  0  0  0  0
  -21.2000   -7.6151   23.9720 H   0  0  0  0  0  0
  -21.1483   -6.0523   25.9079 H   0  0  0  0  0  0
  -22.0599   -2.7615   23.2839 H   0  0  0  0  0  0
  -22.4105  -11.9891   22.4770 H   0  0  0  0  0  0
  -21.1119  -13.1266   22.2586 H   0  0  0  0  0  0
  -24.6677  -15.8463   20.5114 H   0  0  0  0  0  0
  -26.2875  -15.6231   20.0833 H   0  0  0  0  0  0
  -26.7110  -32.5555   23.1138 H   0  0  0  0  0  0
  -25.0048  -33.9776   25.0445 H   0  0  0  0  0  0
  -22.6903  -31.3111   21.4149 H   0  0  0  0  0  0
  -23.3760  -35.9661   23.3332 H   0  0  0  0  0  0
  -24.3587  -36.8909   22.2042 H   0  0  0  0  0  0
  -23.7262  -37.6526   23.6642 H   0  0  0  0  0  0
  -26.0431  -31.6044   20.5964 H   0  0  0  0  0  0
  -26.8200  -30.8877   21.9807 H   0  0  0  0  0  0
  -28.0961  -29.1042   21.1663 H   0  0  0  0  0  0
  -26.0309  -26.0011   18.9740 H   0  0  0  0  0  0
  -23.9745  -27.3149   19.0192 H   0  0  0  0  0  0
  -23.7109  -30.6105   19.4074 H   0  0  0  0  0  0
  -22.7330  -29.2514   19.8708 H   0  0  0  0  0  0
  -25.1285  -36.1981   25.0825 H   0  0  0  0  0  0
  -20.9953  -28.3220   24.1453 H   0  0  0  0  0  0
  -20.5694  -26.2239   23.3610 H   0  0  0  0  0  0
  -21.6627  -26.7433   22.1178 H   0  0  0  0  0  0
  -19.6926  -25.6303   21.1219 H   0  0  0  0  0  0
  -19.6706  -27.3235   20.6778 H   0  0  0  0  0  0
  -17.4184  -26.6679   21.4023 H   0  0  0  0  0  0
  -18.0285  -26.0058   22.9025 H   0  0  0  0  0  0
  -19.7933  -30.7227   24.2300 H   0  0  0  0  0  0
  -17.5015  -31.6262   24.5140 H   0  0  0  0  0  0
  -15.5341  -30.2975   23.7657 H   0  0  0  0  0  0
  -15.8662  -28.0832   22.7034 H   0  0  0  0  0  0
  -24.5914  -30.7050   25.7788 H   0  0  0  0  0  0
  -24.8926  -32.2851   26.4917 H   0  0  0  0  0  0
  -25.8093  -30.8857   27.0205 H   0  0  0  0  0  0
  -26.2800  -29.6822   24.1134 H   0  0  0  0  0  0
  -27.4095  -29.7265   25.4481 H   0  0  0  0  0  0
  -27.8640  -30.4368   23.9167 H   0  0  0  0  0  0
  -27.2656  -33.3618   26.2068 H   0  0  0  0  0  0
  -28.3858  -32.6889   25.0300 H   0  0  0  0  0  0
  -28.0724  -31.8435   26.5383 H   0  0  0  0  0  0
  -28.2593  -38.0108   24.7483 H   0  0  0  0  0  0
  -28.1080  -36.2617   24.6321 H   0  0  0  0  0  0
  -27.2285  -37.1488   25.8865 H   0  0  0  0  0  0
  -20.9303  -29.8760   21.6975 H   0  0  0  0  0  0
  -26.0215  -38.2876   24.1398 H   0  0  0  0  0  0
  -32.3520  -19.8311   23.3164 H   0  0  0  0  0  0
  -32.9252  -15.8348   21.9172 H   0  0  0  0  0  0
  -28.1263  -16.5163   22.8835 H   0  0  0  0  0  0
  -28.2194  -17.0772   21.2128 H   0  0  0  0  0  0
  -27.8755  -18.2087   22.4989 H   0  0  0  0  0  0
  -30.2305  -20.5646   24.0068 H   0  0  0  0  0  0
  -28.8632  -19.5301   23.9655 H   0  0  0  0  0  0
  -28.0243  -20.9961   22.5114 H   0  0  0  0  0  0
  -28.9331  -20.1758   21.2834 H   0  0  0  0  0  0
  -30.2603  -24.5504   20.3478 H   0  0  0  0  0  0
  -29.4377  -24.9136   21.8514 H   0  0  0  0  0  0
  -28.7661  -22.5478   20.0198 H   0  0  0  0  0  0
  -27.8568  -23.0032   21.4264 H   0  0  0  0  0  0
  -27.2692  -24.9997   20.5622 H   0  0  0  0  0  0
  -28.1820  -24.9407   19.0602 H   0  0  0  0  0  0
  -29.9618  -22.6263   22.8386 H   0  0  0  0  0  0
  -29.3716  -14.9892   21.9509 H   0  0  0  0  0  0
  1 25  1  0  0  0
  1 30  2  0  0  0
  1 84  1  0  0  0
  2  3  1  0  0  0
  2 25  1  0  0  0
  2 87  1  0  0  0
  2 88  1  0  0  0
  3  4  1  0  0  0
  3 89  1  0  0  0
  3 90  1  0  0  0
  4  5  1  0  0  0
  4 91  1  0  0  0
  4 92  1  0  0  0
  5  6  1  0  0  0
  5 26  1  0  0  0
  5 93  1  0  0  0
  6 25  1  0  0  0
  6 94  1  0  0  0
  6 95  1  0  0  0
  7  8  2  0  0  0
  7 26  1  0  0  0
  7 29  1  0  0  0
  8  9  1  0  0  0
  8 22  1  0  0  0
  9 10  1  0  0  0
  9 27  2  0  0  0
 10 11  2  0  0  0
 10 15  1  0  0  0
 11 12  1  0  0  0
 11 96  1  0  0  0
 12 13  2  0  0  0
 12 97  1  0  0  0
 13 14  1  0  0  0
 13 31  1  0  0  0
 14 15  2  0  0  0
 14 98  1  0  0  0
 15 99  1  0  0  0
 16 17  2  0  0  0
 16 21  1  0  0  0
 16 31  1  0  0  0
 17 18  1  0  0  0
 17100  1  0  0  0
 18 19  2  0  0  0
 18101  1  0  0  0
 19 20  1  0  0  0
 19 24  1  0  0  0
 20 21  2  0  0  0
 20102  1  0  0  0
 21 23  1  0  0  0
 22 28  1  0  0  0
 22 32  2  0  0  0
 26 27  1  0  0  0
 28103  1  0  0  0
 28104  1  0  0  0
 29105  1  0  0  0
 29106  1  0  0  0
 33 34  1  0  0  0
 33 66  1  0  0  0
 33 70  2  0  0  0
 34 36  1  0  0  0
 34 59  1  0  0  0
 34107  1  0  0  0
 35 44  2  0  0  0
 35 45  1  0  0  0
 35 68  1  0  0  0
 36 56  1  0  0  0
 36108  1  0  0  0
 37 39  1  0  0  0
 37 47  1  0  0  0
 37 66  1  0  0  0
 37109  1  0  0  0
 38 43  2  0  0  0
 38 46  1  0  0  0
 38 47  1  0  0  0
 39 64  1  0  0  0
 39 67  2  0  0  0
 40 52  1  0  0  0
 40 53  2  0  0  0
 40 58  1  0  0  0
 41110  1  0  0  0
 41111  1  0  0  0
 41112  1  0  0  0
 41 48  1  0  0  0
 42 43  1  0  0  0
 42 66  1  0  0  0
 42113  1  0  0  0
 42114  1  0  0  0
 43 44  1  0  0  0
 44115  1  0  0  0
 45 46  2  0  0  0
 45116  1  0  0  0
 46117  1  0  0  0
 47118  1  0  0  0
 47119  1  0  0  0
 48 56  1  0  0  0
 48 65  1  0  0  0
 48120  1  0  0  0
 49 50  1  0  0  0
 49 53  1  0  0  0
 49 64  1  0  0  0
 49121  1  0  0  0
 50 51  1  0  0  0
 50122  1  0  0  0
 50123  1  0  0  0
 51 52  1  0  0  0
 51124  1  0  0  0
 51125  1  0  0  0
 52126  1  0  0  0
 52127  1  0  0  0
 53 54  1  0  0  0
 54 55  2  0  0  0
 54128  1  0  0  0
 55 57  1  0  0  0
 55129  1  0  0  0
 56 69  2  0  0  0
 57 58  2  0  0  0
 57130  1  0  0  0
 58131  1  0  0  0
 59 60  1  0  0  0
 59 61  1  0  0  0
 59 62  1  0  0  0
 60132  1  0  0  0
 60133  1  0  0  0
 60134  1  0  0  0
 61135  1  0  0  0
 61136  1  0  0  0
 61137  1  0  0  0
 62138  1  0  0  0
 62139  1  0  0  0
 62140  1  0  0  0
 63 65  1  0  0  0
 63141  1  0  0  0
 63142  1  0  0  0
 63143  1  0  0  0
 64144  1  0  0  0
 65145  1  0  0  0
 68 82  1  0  0  0
 71 73  2  0  0  0
 71 76  1  0  0  0
 71146  1  0  0  0
 72 75  1  0  0  0
 72 76  2  0  0  0
 72147  1  0  0  0
 73 74  1  0  0  0
 73 78  1  0  0  0
 74 75  2  0  0  0
 74 77  1  0  0  0
 75 84  1  0  0  0
 76 85  1  0  0  0
 77148  1  0  0  0
 77149  1  0  0  0
 77150  1  0  0  0
 78 79  1  0  0  0
 78151  1  0  0  0
 78152  1  0  0  0
 79 83  1  0  0  0
 79153  1  0  0  0
 79154  1  0  0  0
 80 81  1  0  0  0
 80 82  1  0  0  0
 80155  1  0  0  0
 80156  1  0  0  0
 81 83  1  0  0  0
 81157  1  0  0  0
 81158  1  0  0  0
 82159  1  0  0  0
 82160  1  0  0  0
 83 86  1  0  0  0
 83161  1  0  0  0
 84162  1  0  0  0
M  ISO  4   1 100  68 101  82 101  84 100
M  END
> <chiral flag>
0

> <version>
0

> <s_m_source_file>
/data/baiqing/PycharmProjects/Reinvent-master-3.2/result/LINK_invent/BTK/process_docking_weight1_custom_product_contain_oxygen_bond_distance_aromatic_linkinvent_7_9_3/rearranged_h_0132.sdf

> <i_m_source_file_index>
36

> <r_mmod_Potential_Energy-OPLS-2005>
-48.6791877746582

> <r_mmod_Stretch_Energy-OPLS-2005>
36.6600494384766

> <r_mmod_Bend_Energy-OPLS-2005>
96.2217330932617

> <r_mmod_Torsional_Energy-OPLS-2005>
223.481063842773

> <r_mmod_Improper_Torsional_Energy-OPLS-2005>
1.9427729845047

> <r_mmod_Van_der_Waal_Energy-OPLS-2005>
166.157257080078

> <r_mmod_Electrostatic_Energy-OPLS-2005>
-380.772430419922

> <r_mmod_Solvation_Energy-OPLS-2005>
-202.061141967773

> <b_mmod_Minimization_Converged-OPLS-2005>
0

> <r_mmod_RMS_Derivative-OPLS-2005>
2.1995644569397

$$$$
36
                    3D
 Structure written by MMmdl.
162171  0  0  1  0            999 V2000
  -30.6820  -14.5872   20.5445 C   0  0  0  0  0  0
  -30.4215  -12.3725   19.4660 C   0  0  0  0  0  0
  -29.5030  -12.5113   18.2350 C   0  0  0  0  0  0
  -28.0287  -12.3420   18.6520 C   0  0  0  0  0  0
  -27.6529  -13.2212   19.8772 C   0  0  2  0  0  0
  -28.6926  -13.0713   21.0094 C   0  0  0  0  0  0
  -25.2510  -13.8196   20.5752 C   0  0  0  0  0  0
  -24.1763  -13.0454   20.9210 C   0  0  0  0  0  0
  -24.6331  -11.6923   20.8741 C   0  0  0  0  0  0
  -23.8999  -10.4303   21.0405 C   0  0  0  0  0  0
  -24.3577   -9.4207   21.9165 C   0  0  0  0  0  0
  -23.6267   -8.2228   22.0742 C   0  0  0  0  0  0
  -22.4250   -8.0257   21.3530 C   0  0  0  0  0  0
  -21.9861   -9.0230   20.4650 C   0  0  0  0  0  0
  -22.7169  -10.2119   20.3053 C   0  0  0  0  0  0
  -21.6838   -6.0717   22.5278 C   0  0  0  0  0  0
  -21.4003   -6.5624   23.8212 C   0  0  0  0  0  0
  -21.3676   -5.6779   24.9182 C   0  0  0  0  0  0
  -21.6045   -4.3035   24.7223 C   0  0  0  0  0  0
  -21.8818   -3.8127   23.4338 C   0  0  0  0  0  0
  -21.9168   -4.6946   22.3395 C   0  0  0  0  0  0
  -22.7785  -13.5254   21.1851 C   0  0  0  0  0  0
  -22.1641   -4.2136   21.0972 F   0  0  0  0  0  0
  -21.5636   -3.4523   25.7737 F   0  0  0  0  0  0
  -30.0168  -13.3921   20.4574 N   0  0  0  0  0  0
  -26.2962  -12.9389   20.3403 N   0  0  0  0  0  0
  -25.9274  -11.6537   20.5789 N   0  0  0  0  0  0
  -22.0386  -12.8299   22.0428 N   0  0  0  0  0  0
  -25.4243  -15.1923   20.4210 N   0  0  0  0  0  0
  -31.8108  -14.7028   20.0566 O   0  0  0  0  0  0
  -21.6620   -6.8850   21.4235 O   0  0  0  0  0  0
  -22.3484  -14.5543   20.6655 O   0  0  0  0  0  0
  -24.6218  -31.8641   23.2069 C   0  0  0  0  0  0
  -25.9082  -32.4802   23.8379 C   0  0  1  0  0  0
  -27.2164  -27.3580   20.0947 C   0  0  0  0  0  0
  -25.5924  -33.8608   24.2293 N   0  0  0  0  0  0
  -23.4133  -30.4895   21.5510 C   0  0  2  0  0  0
  -24.8551  -28.9529   20.1134 C   0  0  0  0  0  0
  -22.7450  -29.4633   22.4959 C   0  0  0  0  0  0
  -18.0284  -28.1379   22.8464 C   0  0  0  0  0  0
  -24.1493  -36.7306   23.2636 C   0  0  0  0  0  0
  -25.9519  -30.8047   21.3737 C   0  0  0  0  0  0
  -26.0256  -29.4366   20.7137 C   0  0  0  0  0  0
  -27.2108  -28.6461   20.7005 C   0  0  0  0  0  0
  -26.0144  -26.9065   19.5001 C   0  0  0  0  0  0
  -24.8484  -27.6906   19.5047 C   0  0  0  0  0  0
  -23.6252  -29.8333   20.1636 C   0  0  0  0  0  0
  -25.4116  -36.3094   24.0320 C   0  0  1  0  0  0
  -20.5880  -28.3670   23.1282 C   0  0  2  0  0  0
  -20.6783  -26.9399   22.5410 C   0  0  0  0  0  0
  -19.5767  -26.6373   21.5202 C   0  0  0  0  0  0
  -18.1935  -26.7927   22.1589 C   0  0  0  0  0  0
  -19.1534  -28.8837   23.2868 C   0  0  0  0  0  0
  -18.9459  -30.1449   23.8884 C   0  0  0  0  0  0
  -17.6463  -30.6589   24.0546 C   0  0  0  0  0  0
  -25.9049  -34.9469   23.5089 C   0  0  0  0  0  0
  -16.5356  -29.9086   23.6330 C   0  0  0  0  0  0
  -16.7272  -28.6501   23.0345 C   0  0  0  0  0  0
  -26.4468  -31.6609   25.0743 C   0  0  0  0  0  0
  -25.3701  -31.3802   26.1492 C   0  0  0  0  0  0
  -27.0295  -30.3035   24.6163 C   0  0  0  0  0  0
  -27.6014  -32.4351   25.7507 C   0  0  0  0  0  0
  -27.5582  -37.1810   24.8450 C   0  0  0  0  0  0
  -21.4176  -29.3029   22.3700 N   0  0  0  0  0  0
  -26.4291  -37.3782   23.9398 N   0  0  0  0  0  0
  -24.6815  -31.0676   22.1011 N   0  0  0  0  0  0
  -23.4205  -28.8168   23.3010 O   0  0  0  0  0  0
  -28.3290  -26.5121   20.1211 O   0  0  0  0  0  0
  -26.5600  -34.8913   22.4656 O   0  0  0  0  0  0
  -23.5386  -32.1435   23.7413 O   0  0  0  0  0  0
  -29.6828  -20.0095   23.0679 C   0  0  0  0  0  0
  -29.2734  -21.0212   22.1759 C   0  0  0  0  0  0
  -29.4018  -19.4123   20.3709 C   0  0  0  0  0  0
  -29.8310  -18.3697   21.2512 C   0  0  0  0  0  0
  -29.9501  -18.6930   22.6288 C   0  0  0  0  0  0
  -29.1094  -20.7550   20.7992 C   0  0  0  0  0  0
  -28.6892  -24.2707   19.0353 C   0  0  0  0  0  0
  -30.2427  -17.0248   20.7019 C   0  0  0  0  0  0
  -28.4718  -25.6246   19.0650 C   0  0  0  0  0  0
  -29.9999  -15.7551   21.1537 C   0  0  0  0  0  0
  -28.6680  -23.6124   17.6664 C   0  0  0  0  0  0
  -28.9083  -23.2554   20.2040 C   0  0  0  0  0  0
  -27.7057  -22.4300   17.6978 C   0  0  0  0  0  0
  -28.3222  -21.3376   18.5619 C   0  0  0  0  0  0
  -30.4210  -17.6787   23.6610 C   0  0  0  0  0  0
  -28.6617  -21.7953   19.9138 N   0  0  0  0  0  0
  -31.4659  -12.4698   19.1643 H   0  0  0  0  0  0
  -30.3340  -11.3764   19.9012 H   0  0  0  0  0  0
  -29.7751  -11.7676   17.4834 H   0  0  0  0  0  0
  -29.6371  -13.4885   17.7699 H   0  0  0  0  0  0
  -27.8784  -11.2905   18.9005 H   0  0  0  0  0  0
  -27.3662  -12.5542   17.8126 H   0  0  0  0  0  0
  -27.6772  -14.2576   19.5400 H   0  0  0  0  0  0
  -28.6946  -12.0521   21.4001 H   0  0  0  0  0  0
  -28.4302  -13.6990   21.8587 H   0  0  0  0  0  0
  -25.2717   -9.5710   22.4737 H   0  0  0  0  0  0
  -23.9988   -7.4637   22.7471 H   0  0  0  0  0  0
  -21.0773   -8.8734   19.8982 H   0  0  0  0  0  0
  -22.3583  -10.9663   19.6184 H   0  0  0  0  0  0
  -21.1998   -7.6132   23.9718 H   0  0  0  0  0  0
  -21.1514   -6.0502   25.9089 H   0  0  0  0  0  0
  -22.0580   -2.7584   23.2828 H   0  0  0  0  0  0
  -22.3949  -12.0020   22.4962 H   0  0  0  0  0  0
  -21.1025  -13.1394   22.2595 H   0  0  0  0  0  0
  -24.6635  -15.8555   20.5392 H   0  0  0  0  0  0
  -26.2922  -15.6313   20.1380 H   0  0  0  0  0  0
  -26.7144  -32.5473   23.1124 H   0  0  0  0  0  0
  -25.0128  -33.9783   25.0469 H   0  0  0  0  0  0
  -22.7032  -31.3084   21.4150 H   0  0  0  0  0  0
  -23.3749  -35.9643   23.3303 H   0  0  0  0  0  0
  -24.3578  -36.8930   22.2047 H   0  0  0  0  0  0
  -23.7259  -37.6511   23.6667 H   0  0  0  0  0  0
  -26.0800  -31.5728   20.6112 H   0  0  0  0  0  0
  -26.8338  -30.8488   22.0001 H   0  0  0  0  0  0
  -28.1131  -29.0128   21.1709 H   0  0  0  0  0  0
  -25.9545  -25.9311   19.0382 H   0  0  0  0  0  0
  -23.9446  -27.3093   19.0478 H   0  0  0  0  0  0
  -23.7477  -30.6160   19.4139 H   0  0  0  0  0  0
  -22.7425  -29.2694   19.8562 H   0  0  0  0  0  0
  -25.1301  -36.1943   25.0810 H   0  0  0  0  0  0
  -20.9942  -28.3253   24.1411 H   0  0  0  0  0  0
  -20.5668  -26.2284   23.3607 H   0  0  0  0  0  0
  -21.6656  -26.7446   22.1214 H   0  0  0  0  0  0
  -19.6938  -25.6279   21.1248 H   0  0  0  0  0  0
  -19.6725  -27.3159   20.6708 H   0  0  0  0  0  0
  -17.4219  -26.6668   21.3979 H   0  0  0  0  0  0
  -18.0323  -26.0072   22.8974 H   0  0  0  0  0  0
  -19.7957  -30.7250   24.2238 H   0  0  0  0  0  0
  -17.5045  -31.6260   24.5152 H   0  0  0  0  0  0
  -15.5365  -30.2972   23.7681 H   0  0  0  0  0  0
  -15.8672  -28.0822   22.7053 H   0  0  0  0  0  0
  -24.5850  -30.7148   25.7884 H   0  0  0  0  0  0
  -24.8908  -32.2999   26.4862 H   0  0  0  0  0  0
  -25.8026  -30.9053   27.0306 H   0  0  0  0  0  0
  -26.2872  -29.6826   24.1130 H   0  0  0  0  0  0
  -27.3963  -29.7239   25.4643 H   0  0  0  0  0  0
  -27.8750  -30.4341   23.9403 H   0  0  0  0  0  0
  -27.2604  -33.3639   26.2093 H   0  0  0  0  0  0
  -28.3819  -32.6947   25.0343 H   0  0  0  0  0  0
  -28.0693  -31.8491   26.5425 H   0  0  0  0  0  0
  -28.2598  -38.0108   24.7483 H   0  0  0  0  0  0
  -28.1076  -36.2634   24.6281 H   0  0  0  0  0  0
  -27.2302  -37.1476   25.8854 H   0  0  0  0  0  0
  -20.9354  -29.8759   21.6920 H   0  0  0  0  0  0
  -26.0173  -38.2855   24.1402 H   0  0  0  0  0  0
  -29.8122  -20.2626   24.1107 H   0  0  0  0  0  0
  -29.0816  -22.0038   22.5820 H   0  0  0  0  0  0
  -29.3304  -19.1467   19.3273 H   0  0  0  0  0  0
  -30.8936  -17.1148   19.8414 H   0  0  0  0  0  0
  -28.3375  -26.1623   18.1360 H   0  0  0  0  0  0
  -29.3401  -15.6219   21.9950 H   0  0  0  0  0  0
  -29.6749  -23.2820   17.4096 H   0  0  0  0  0  0
  -28.3656  -24.3121   16.8870 H   0  0  0  0  0  0
  -28.3081  -23.5746   21.0582 H   0  0  0  0  0  0
  -29.9518  -23.3419   20.5119 H   0  0  0  0  0  0
  -27.5314  -22.0496   16.6897 H   0  0  0  0  0  0
  -26.7301  -22.7250   18.0891 H   0  0  0  0  0  0
  -29.2258  -20.9753   18.0708 H   0  0  0  0  0  0
  -27.6212  -20.4989   18.6136 H   0  0  0  0  0  0
  -30.7443  -18.1602   24.5840 H   0  0  0  0  0  0
  -31.2694  -17.1014   23.2968 H   0  0  0  0  0  0
  -29.6137  -16.9928   23.9150 H   0  0  0  0  0  0
  1 25  1  0  0  0
  1 30  2  0  0  0
  1 80  1  0  0  0
  2  3  1  0  0  0
  2 25  1  0  0  0
  2 87  1  0  0  0
  2 88  1  0  0  0
  3  4  1  0  0  0
  3 89  1  0  0  0
  3 90  1  0  0  0
  4  5  1  0  0  0
  4 91  1  0  0  0
  4 92  1  0  0  0
  5  6  1  0  0  0
  5 26  1  0  0  0
  5 93  1  0  0  0
  6 25  1  0  0  0
  6 94  1  0  0  0
  6 95  1  0  0  0
  7  8  2  0  0  0
  7 26  1  0  0  0
  7 29  1  0  0  0
  8  9  1  0  0  0
  8 22  1  0  0  0
  9 10  1  0  0  0
  9 27  2  0  0  0
 10 11  2  0  0  0
 10 15  1  0  0  0
 11 12  1  0  0  0
 11 96  1  0  0  0
 12 13  2  0  0  0
 12 97  1  0  0  0
 13 14  1  0  0  0
 13 31  1  0  0  0
 14 15  2  0  0  0
 14 98  1  0  0  0
 15 99  1  0  0  0
 16 17  2  0  0  0
 16 21  1  0  0  0
 16 31  1  0  0  0
 17 18  1  0  0  0
 17100  1  0  0  0
 18 19  2  0  0  0
 18101  1  0  0  0
 19 20  1  0  0  0
 19 24  1  0  0  0
 20 21  2  0  0  0
 20102  1  0  0  0
 21 23  1  0  0  0
 22 28  1  0  0  0
 22 32  2  0  0  0
 26 27  1  0  0  0
 28103  1  0  0  0
 28104  1  0  0  0
 29105  1  0  0  0
 29106  1  0  0  0
 33 34  1  0  0  0
 33 66  1  0  0  0
 33 70  2  0  0  0
 34 36  1  0  0  0
 34 59  1  0  0  0
 34107  1  0  0  0
 35 44  2  0  0  0
 35 45  1  0  0  0
 35 68  1  0  0  0
 36 56  1  0  0  0
 36108  1  0  0  0
 37 39  1  0  0  0
 37 47  1  0  0  0
 37 66  1  0  0  0
 37109  1  0  0  0
 38 43  2  0  0  0
 38 46  1  0  0  0
 38 47  1  0  0  0
 39 64  1  0  0  0
 39 67  2  0  0  0
 40 52  1  0  0  0
 40 53  2  0  0  0
 40 58  1  0  0  0
 41110  1  0  0  0
 41111  1  0  0  0
 41112  1  0  0  0
 41 48  1  0  0  0
 42 43  1  0  0  0
 42 66  1  0  0  0
 42113  1  0  0  0
 42114  1  0  0  0
 43 44  1  0  0  0
 44115  1  0  0  0
 45 46  2  0  0  0
 45116  1  0  0  0
 46117  1  0  0  0
 47118  1  0  0  0
 47119  1  0  0  0
 48 56  1  0  0  0
 48 65  1  0  0  0
 48120  1  0  0  0
 49 50  1  0  0  0
 49 53  1  0  0  0
 49 64  1  0  0  0
 49121  1  0  0  0
 50 51  1  0  0  0
 50122  1  0  0  0
 50123  1  0  0  0
 51 52  1  0  0  0
 51124  1  0  0  0
 51125  1  0  0  0
 52126  1  0  0  0
 52127  1  0  0  0
 53 54  1  0  0  0
 54 55  2  0  0  0
 54128  1  0  0  0
 55 57  1  0  0  0
 55129  1  0  0  0
 56 69  2  0  0  0
 57 58  2  0  0  0
 57130  1  0  0  0
 58131  1  0  0  0
 59 60  1  0  0  0
 59 61  1  0  0  0
 59 62  1  0  0  0
 60132  1  0  0  0
 60133  1  0  0  0
 60134  1  0  0  0
 61135  1  0  0  0
 61136  1  0  0  0
 61137  1  0  0  0
 62138  1  0  0  0
 62139  1  0  0  0
 62140  1  0  0  0
 63 65  1  0  0  0
 63141  1  0  0  0
 63142  1  0  0  0
 63143  1  0  0  0
 64144  1  0  0  0
 65145  1  0  0  0
 68 79  1  0  0  0
 71 72  2  0  0  0
 71 75  1  0  0  0
 71146  1  0  0  0
 72 76  1  0  0  0
 72147  1  0  0  0
 73 74  1  0  0  0
 73 76  2  0  0  0
 73148  1  0  0  0
 74 75  2  0  0  0
 74 78  1  0  0  0
 75 85  1  0  0  0
 76 86  1  0  0  0
 77 79  2  0  0  0
 77 81  1  0  0  0
 77 82  1  0  0  0
 78 80  2  0  0  0
 78149  1  0  0  0
 79150  1  0  0  0
 80151  1  0  0  0
 81 83  1  0  0  0
 81152  1  0  0  0
 81153  1  0  0  0
 82 86  1  0  0  0
 82154  1  0  0  0
 82155  1  0  0  0
 83 84  1  0  0  0
 83156  1  0  0  0
 83157  1  0  0  0
 84 86  1  0  0  0
 84158  1  0  0  0
 84159  1  0  0  0
 85160  1  0  0  0
 85161  1  0  0  0
 85162  1  0  0  0
M  ISO  4   1 100  68 101  79 101  80 100
M  END
> <chiral flag>
0

> <version>
0

> <s_m_source_file>
/data/baiqing/PycharmProjects/Reinvent-master-3.2/result/LINK_invent/BTK/process_docking_weight1_custom_product_contain_oxygen_bond_distance_aromatic_linkinvent_7_9_3/rearranged_h_0132.sdf

> <i_m_source_file_index>
37

> <r_mmod_Potential_Energy-OPLS-2005>
83.7741241455078

> <r_mmod_Stretch_Energy-OPLS-2005>
67.9218521118164

> <r_mmod_Bend_Energy-OPLS-2005>
146.303558349609

> <r_mmod_Torsional_Energy-OPLS-2005>
208.599411010742

> <r_mmod_Improper_Torsional_Energy-OPLS-2005>
4.27402210235596

> <r_mmod_Van_der_Waal_Energy-OPLS-2005>
171.685668945312

> <r_mmod_Electrostatic_Energy-OPLS-2005>
-342.151336669922

> <r_mmod_Solvation_Energy-OPLS-2005>
-207.560150146484

> <b_mmod_Minimization_Converged-OPLS-2005>
0

> <r_mmod_RMS_Derivative-OPLS-2005>
3.99121427536011

$$$$
37
                    3D
 Structure written by MMmdl.
155163  0  0  1  0            999 V2000
  -30.7212  -14.4296   20.6627 C   0  0  0  0  0  0
  -30.4328  -12.3152   19.4061 C   0  0  0  0  0  0
  -29.4921  -12.5099   18.1998 C   0  0  0  0  0  0
  -28.0143  -12.3647   18.6136 C   0  0  0  0  0  0
  -27.6671  -13.1960   19.8757 C   0  0  2  0  0  0
  -28.7032  -12.9412   20.9909 C   0  0  0  0  0  0
  -25.2632  -13.8144   20.5679 C   0  0  0  0  0  0
  -24.1860  -13.0440   20.9147 C   0  0  0  0  0  0
  -24.6383  -11.6897   20.8710 C   0  0  0  0  0  0
  -23.9034  -10.4291   21.0381 C   0  0  0  0  0  0
  -24.3590   -9.4215   21.9163 C   0  0  0  0  0  0
  -23.6272   -8.2250   22.0745 C   0  0  0  0  0  0
  -22.4257   -8.0273   21.3533 C   0  0  0  0  0  0
  -21.9877   -9.0254   20.4640 C   0  0  0  0  0  0
  -22.7200  -10.2137   20.3043 C   0  0  0  0  0  0
  -21.6857   -6.0718   22.5270 C   0  0  0  0  0  0
  -21.4026   -6.5630   23.8201 C   0  0  0  0  0  0
  -21.3653   -5.6786   24.9166 C   0  0  0  0  0  0
  -21.6036   -4.3046   24.7228 C   0  0  0  0  0  0
  -21.8824   -3.8130   23.4352 C   0  0  0  0  0  0
  -21.9200   -4.6943   22.3402 C   0  0  0  0  0  0
  -22.7888  -13.5254   21.1814 C   0  0  0  0  0  0
  -22.1670   -4.2116   21.0986 F   0  0  0  0  0  0
  -21.5619   -3.4539   25.7749 F   0  0  0  0  0  0
  -30.0424  -13.2656   20.4593 N   0  0  0  0  0  0
  -26.3051  -12.9289   20.3357 N   0  0  0  0  0  0
  -25.9309  -11.6456   20.5740 N   0  0  0  0  0  0
  -22.0534  -12.8266   22.0389 N   0  0  0  0  0  0
  -25.4418  -15.1852   20.4116 N   0  0  0  0  0  0
  -31.7586  -14.7083   20.0539 O   0  0  0  0  0  0
  -21.6629   -6.8861   21.4234 O   0  0  0  0  0  0
  -22.3573  -14.5563   20.6656 O   0  0  0  0  0  0
  -24.6149  -31.8673   23.2099 C   0  0  0  0  0  0
  -25.9044  -32.4817   23.8385 C   0  0  1  0  0  0
  -27.2332  -27.4369   20.0899 C   0  0  0  0  0  0
  -25.5891  -33.8611   24.2314 N   0  0  0  0  0  0
  -23.4010  -30.4929   21.5509 C   0  0  2  0  0  0
  -24.8446  -28.9574   20.1165 C   0  0  0  0  0  0
  -22.7403  -29.4673   22.4994 C   0  0  0  0  0  0
  -18.0272  -28.1382   22.8498 C   0  0  0  0  0  0
  -24.1478  -36.7321   23.2636 C   0  0  0  0  0  0
  -25.9289  -30.8362   21.3585 C   0  0  0  0  0  0
  -26.0061  -29.4696   20.7071 C   0  0  0  0  0  0
  -27.2029  -28.7185   20.6861 C   0  0  0  0  0  0
  -26.0484  -26.9345   19.5028 C   0  0  0  0  0  0
  -24.8598  -27.6885   19.5127 C   0  0  0  0  0  0
  -23.6079  -29.8251   20.1651 C   0  0  0  0  0  0
  -25.4095  -36.3105   24.0335 C   0  0  1  0  0  0
  -20.5862  -28.3672   23.1318 C   0  0  2  0  0  0
  -20.6760  -26.9410   22.5417 C   0  0  0  0  0  0
  -19.5739  -26.6397   21.5211 C   0  0  0  0  0  0
  -18.1921  -26.7926   22.1631 C   0  0  0  0  0  0
  -19.1522  -28.8842   23.2909 C   0  0  0  0  0  0
  -18.9453  -30.1447   23.8927 C   0  0  0  0  0  0
  -17.6456  -30.6590   24.0576 C   0  0  0  0  0  0
  -25.9029  -34.9474   23.5124 C   0  0  0  0  0  0
  -16.5348  -29.9102   23.6320 C   0  0  0  0  0  0
  -16.7263  -28.6516   23.0345 C   0  0  0  0  0  0
  -26.4480  -31.6594   25.0708 C   0  0  0  0  0  0
  -25.3764  -31.3710   26.1476 C   0  0  0  0  0  0
  -27.0299  -30.3033   24.6071 C   0  0  0  0  0  0
  -27.6062  -32.4310   25.7461 C   0  0  0  0  0  0
  -27.5580  -37.1797   24.8461 C   0  0  0  0  0  0
  -21.4133  -29.3040   22.3729 N   0  0  0  0  0  0
  -26.4279  -37.3795   23.9425 N   0  0  0  0  0  0
  -24.6673  -31.0783   22.0995 N   0  0  0  0  0  0
  -23.4177  -28.8211   23.3032 O   0  0  0  0  0  0
  -28.4145  -26.7213   20.0903 O   0  0  0  0  0  0
  -26.5600  -34.8930   22.4691 O   0  0  0  0  0  0
  -23.5344  -32.1420   23.7504 O   0  0  0  0  0  0
  -28.6429  -18.8295   21.4458 C   0  0  0  0  0  0
  -30.6926  -18.5710   20.1696 C   0  0  0  0  0  0
  -28.5272  -20.1634   21.0028 C   0  0  0  0  0  0
  -30.5829  -19.9117   19.7328 C   0  0  0  0  0  0
  -29.7193  -18.0123   21.0361 C   0  0  0  0  0  0
  -29.5003  -20.7196   20.1471 C   0  0  0  0  0  0
  -29.7813  -16.6362   21.5878 C   0  0  0  0  0  0
  -30.1294  -15.3184   21.6761 C   0  0  0  0  0  0
  -29.3804  -22.1746   19.6895 C   0  0  0  0  0  0
  -29.6810  -23.1797   20.8212 C   0  0  0  0  0  0
  -29.6943  -24.6759   20.4196 C   0  0  0  0  0  0
  -28.3213  -25.2902   20.0802 C   0  0  0  0  0  0
  -31.4704  -12.4428   19.0921 H   0  0  0  0  0  0
  -30.3665  -11.2956   19.7883 H   0  0  0  0  0  0
  -29.7337  -11.7883   17.4180 H   0  0  0  0  0  0
  -29.6559  -13.4962   17.7635 H   0  0  0  0  0  0
  -27.8226  -11.3084   18.8069 H   0  0  0  0  0  0
  -27.3619  -12.6429   17.7850 H   0  0  0  0  0  0
  -27.7242  -14.2487   19.5958 H   0  0  0  0  0  0
  -28.6795  -11.8935   21.2937 H   0  0  0  0  0  0
  -28.4244  -13.4965   21.8857 H   0  0  0  0  0  0
  -25.2743   -9.5698   22.4726 H   0  0  0  0  0  0
  -23.9975   -7.4651   22.7479 H   0  0  0  0  0  0
  -21.0798   -8.8771   19.8969 H   0  0  0  0  0  0
  -22.3638  -10.9674   19.6152 H   0  0  0  0  0  0
  -21.2028   -7.6138   23.9703 H   0  0  0  0  0  0
  -21.1467   -6.0513   25.9066 H   0  0  0  0  0  0
  -22.0606   -2.7591   23.2869 H   0  0  0  0  0  0
  -22.4154  -11.9928   22.4780 H   0  0  0  0  0  0
  -21.1170  -13.1315   22.2615 H   0  0  0  0  0  0
  -24.6894  -15.8537   20.5337 H   0  0  0  0  0  0
  -26.3131  -15.6180   20.1309 H   0  0  0  0  0  0
  -26.7115  -32.5531   23.1151 H   0  0  0  0  0  0
  -25.0018  -33.9762   25.0443 H   0  0  0  0  0  0
  -22.6902  -31.3104   21.4124 H   0  0  0  0  0  0
  -23.3725  -35.9669   23.3295 H   0  0  0  0  0  0
  -24.3576  -36.8938   22.2053 H   0  0  0  0  0  0
  -23.7241  -37.6531   23.6651 H   0  0  0  0  0  0
  -26.0322  -31.6001   20.5865 H   0  0  0  0  0  0
  -26.8209  -30.8941   21.9709 H   0  0  0  0  0  0
  -28.1020  -29.1143   21.1381 H   0  0  0  0  0  0
  -26.0247  -25.9669   19.0246 H   0  0  0  0  0  0
  -23.9656  -27.2870   19.0559 H   0  0  0  0  0  0
  -23.7197  -30.6001   19.4058 H   0  0  0  0  0  0
  -22.7304  -29.2475   19.8680 H   0  0  0  0  0  0
  -25.1265  -36.1961   25.0824 H   0  0  0  0  0  0
  -20.9956  -28.3235   24.1437 H   0  0  0  0  0  0
  -20.5651  -26.2287   23.3606 H   0  0  0  0  0  0
  -21.6631  -26.7448   22.1214 H   0  0  0  0  0  0
  -19.6899  -25.6311   21.1230 H   0  0  0  0  0  0
  -19.6668  -27.3219   20.6748 H   0  0  0  0  0  0
  -17.4181  -26.6670   21.4043 H   0  0  0  0  0  0
  -18.0339  -26.0067   22.9032 H   0  0  0  0  0  0
  -19.7930  -30.7252   24.2310 H   0  0  0  0  0  0
  -17.5016  -31.6266   24.5184 H   0  0  0  0  0  0
  -15.5353  -30.3022   23.7615 H   0  0  0  0  0  0
  -15.8662  -28.0848   22.7040 H   0  0  0  0  0  0
  -24.5901  -30.7092   25.7827 H   0  0  0  0  0  0
  -24.9003  -32.2879   26.4958 H   0  0  0  0  0  0
  -25.8131  -30.8851   27.0210 H   0  0  0  0  0  0
  -26.2828  -29.6789   24.1155 H   0  0  0  0  0  0
  -27.4108  -29.7270   25.4513 H   0  0  0  0  0  0
  -27.8645  -30.4345   23.9179 H   0  0  0  0  0  0
  -27.2673  -33.3582   26.2092 H   0  0  0  0  0  0
  -28.3837  -32.6917   25.0269 H   0  0  0  0  0  0
  -28.0771  -31.8404   26.5329 H   0  0  0  0  0  0
  -28.2586  -38.0106   24.7521 H   0  0  0  0  0  0
  -28.1082  -36.2637   24.6251 H   0  0  0  0  0  0
  -27.2313  -37.1413   25.8867 H   0  0  0  0  0  0
  -20.9293  -29.8778   21.6965 H   0  0  0  0  0  0
  -26.0162  -38.2866   24.1447 H   0  0  0  0  0  0
  -27.8907  -18.4300   22.1138 H   0  0  0  0  0  0
  -31.5371  -17.9753   19.8502 H   0  0  0  0  0  0
  -27.6899  -20.7622   21.3336 H   0  0  0  0  0  0
  -31.3438  -20.3195   19.0817 H   0  0  0  0  0  0
  -29.8092  -16.4763   20.5216 H   0  0  0  0  0  0
  -29.9671  -14.8683   22.6450 H   0  0  0  0  0  0
  -28.3732  -22.3393   19.3044 H   0  0  0  0  0  0
  -30.0558  -22.3477   18.8499 H   0  0  0  0  0  0
  -30.6644  -22.9382   21.2273 H   0  0  0  0  0  0
  -28.9787  -23.0302   21.6419 H   0  0  0  0  0  0
  -30.3850  -24.8389   19.5915 H   0  0  0  0  0  0
  -30.1075  -25.2321   21.2616 H   0  0  0  0  0  0
  -27.5853  -24.9682   20.8194 H   0  0  0  0  0  0
  -27.9943  -24.9321   19.1033 H   0  0  0  0  0  0
  1 25  1  0  0  0
  1 30  2  0  0  0
  1 78  1  0  0  0
  2  3  1  0  0  0
  2 25  1  0  0  0
  2 83  1  0  0  0
  2 84  1  0  0  0
  3  4  1  0  0  0
  3 85  1  0  0  0
  3 86  1  0  0  0
  4  5  1  0  0  0
  4 87  1  0  0  0
  4 88  1  0  0  0
  5  6  1  0  0  0
  5 26  1  0  0  0
  5 89  1  0  0  0
  6 25  1  0  0  0
  6 90  1  0  0  0
  6 91  1  0  0  0
  7  8  2  0  0  0
  7 26  1  0  0  0
  7 29  1  0  0  0
  8  9  1  0  0  0
  8 22  1  0  0  0
  9 10  1  0  0  0
  9 27  2  0  0  0
 10 11  2  0  0  0
 10 15  1  0  0  0
 11 12  1  0  0  0
 11 92  1  0  0  0
 12 13  2  0  0  0
 12 93  1  0  0  0
 13 14  1  0  0  0
 13 31  1  0  0  0
 14 15  2  0  0  0
 14 94  1  0  0  0
 15 95  1  0  0  0
 16 17  2  0  0  0
 16 21  1  0  0  0
 16 31  1  0  0  0
 17 18  1  0  0  0
 17 96  1  0  0  0
 18 19  2  0  0  0
 18 97  1  0  0  0
 19 20  1  0  0  0
 19 24  1  0  0  0
 20 21  2  0  0  0
 20 98  1  0  0  0
 21 23  1  0  0  0
 22 28  1  0  0  0
 22 32  2  0  0  0
 26 27  1  0  0  0
 28 99  1  0  0  0
 28100  1  0  0  0
 29101  1  0  0  0
 29102  1  0  0  0
 33 34  1  0  0  0
 33 66  1  0  0  0
 33 70  2  0  0  0
 34 36  1  0  0  0
 34 59  1  0  0  0
 34103  1  0  0  0
 35 44  2  0  0  0
 35 45  1  0  0  0
 35 68  1  0  0  0
 36 56  1  0  0  0
 36104  1  0  0  0
 37 39  1  0  0  0
 37 47  1  0  0  0
 37 66  1  0  0  0
 37105  1  0  0  0
 38 43  2  0  0  0
 38 46  1  0  0  0
 38 47  1  0  0  0
 39 64  1  0  0  0
 39 67  2  0  0  0
 40 52  1  0  0  0
 40 53  2  0  0  0
 40 58  1  0  0  0
 41106  1  0  0  0
 41107  1  0  0  0
 41108  1  0  0  0
 41 48  1  0  0  0
 42 43  1  0  0  0
 42 66  1  0  0  0
 42109  1  0  0  0
 42110  1  0  0  0
 43 44  1  0  0  0
 44111  1  0  0  0
 45 46  2  0  0  0
 45112  1  0  0  0
 46113  1  0  0  0
 47114  1  0  0  0
 47115  1  0  0  0
 48 56  1  0  0  0
 48 65  1  0  0  0
 48116  1  0  0  0
 49 50  1  0  0  0
 49 53  1  0  0  0
 49 64  1  0  0  0
 49117  1  0  0  0
 50 51  1  0  0  0
 50118  1  0  0  0
 50119  1  0  0  0
 51 52  1  0  0  0
 51120  1  0  0  0
 51121  1  0  0  0
 52122  1  0  0  0
 52123  1  0  0  0
 53 54  1  0  0  0
 54 55  2  0  0  0
 54124  1  0  0  0
 55 57  1  0  0  0
 55125  1  0  0  0
 56 69  2  0  0  0
 57 58  2  0  0  0
 57126  1  0  0  0
 58127  1  0  0  0
 59 60  1  0  0  0
 59 61  1  0  0  0
 59 62  1  0  0  0
 60128  1  0  0  0
 60129  1  0  0  0
 60130  1  0  0  0
 61131  1  0  0  0
 61132  1  0  0  0
 61133  1  0  0  0
 62134  1  0  0  0
 62135  1  0  0  0
 62136  1  0  0  0
 63 65  1  0  0  0
 63137  1  0  0  0
 63138  1  0  0  0
 63139  1  0  0  0
 64140  1  0  0  0
 65141  1  0  0  0
 68 82  1  0  0  0
 71 73  2  0  0  0
 71 75  1  0  0  0
 71142  1  0  0  0
 72 74  1  0  0  0
 72 75  2  0  0  0
 72143  1  0  0  0
 73 76  1  0  0  0
 73144  1  0  0  0
 74 76  2  0  0  0
 74145  1  0  0  0
 75 77  1  0  0  0
 76 79  1  0  0  0
 77 78  2  0  0  0
 77146  1  0  0  0
 78147  1  0  0  0
 79 80  1  0  0  0
 79148  1  0  0  0
 79149  1  0  0  0
 80 81  1  0  0  0
 80150  1  0  0  0
 80151  1  0  0  0
 81 82  1  0  0  0
 81152  1  0  0  0
 81153  1  0  0  0
 82154  1  0  0  0
 82155  1  0  0  0
M  ISO  4   1 100  68 101  78 100  82 101
M  END
> <chiral flag>
0

> <version>
0

> <s_m_source_file>
/data/baiqing/PycharmProjects/Reinvent-master-3.2/result/LINK_invent/BTK/process_docking_weight1_custom_product_contain_oxygen_bond_distance_aromatic_linkinvent_7_9_3/rearranged_h_0132.sdf

> <i_m_source_file_index>
38

> <r_mmod_Potential_Energy-OPLS-2005>
244.236923217773

> <r_mmod_Stretch_Energy-OPLS-2005>
38.0331764221191

> <r_mmod_Bend_Energy-OPLS-2005>
333.904205322266

> <r_mmod_Torsional_Energy-OPLS-2005>
211.413864135742

> <r_mmod_Improper_Torsional_Energy-OPLS-2005>
7.15636396408081

> <r_mmod_Van_der_Waal_Energy-OPLS-2005>
164.181701660156

> <r_mmod_Electrostatic_Energy-OPLS-2005>
-333.69384765625

> <r_mmod_Solvation_Energy-OPLS-2005>
-186.533203125

> <b_mmod_Minimization_Converged-OPLS-2005>
0

> <r_mmod_RMS_Derivative-OPLS-2005>
1.67627251148224

$$$$
38
                    3D
 Structure written by MMmdl.
160168  0  0  1  0            999 V2000
  -30.7956  -14.4333   20.5373 C   0  0  0  0  0  0
  -30.3880  -12.2684   19.4670 C   0  0  0  0  0  0
  -29.4971  -12.4725   18.2286 C   0  0  0  0  0  0
  -28.0165  -12.3553   18.6302 C   0  0  0  0  0  0
  -27.6537  -13.2228   19.8680 C   0  0  2  0  0  0
  -28.6922  -13.0783   21.0018 C   0  0  0  0  0  0
  -25.2554  -13.8221   20.5711 C   0  0  0  0  0  0
  -24.1836  -13.0446   20.9211 C   0  0  0  0  0  0
  -24.6396  -11.6930   20.8730 C   0  0  0  0  0  0
  -23.9058  -10.4302   21.0383 C   0  0  0  0  0  0
  -24.3627   -9.4226   21.9157 C   0  0  0  0  0  0
  -23.6315   -8.2252   22.0738 C   0  0  0  0  0  0
  -22.4290   -8.0281   21.3542 C   0  0  0  0  0  0
  -21.9921   -9.0237   20.4633 C   0  0  0  0  0  0
  -22.7230  -10.2124   20.3035 C   0  0  0  0  0  0
  -21.6857   -6.0748   22.5290 C   0  0  0  0  0  0
  -21.4013   -6.5649   23.8224 C   0  0  0  0  0  0
  -21.3664   -5.6795   24.9182 C   0  0  0  0  0  0
  -21.6051   -4.3058   24.7222 C   0  0  0  0  0  0
  -21.8817   -3.8153   23.4338 C   0  0  0  0  0  0
  -21.9200   -4.6979   22.3401 C   0  0  0  0  0  0
  -22.7866  -13.5233   21.1842 C   0  0  0  0  0  0
  -22.1663   -4.2165   21.0974 F   0  0  0  0  0  0
  -21.5627   -3.4533   25.7731 F   0  0  0  0  0  0
  -30.0260  -13.3154   20.4393 N   0  0  0  0  0  0
  -26.2992  -12.9400   20.3363 N   0  0  0  0  0  0
  -25.9333  -11.6536   20.5790 N   0  0  0  0  0  0
  -22.0494  -12.8221   22.0406 N   0  0  0  0  0  0
  -25.4200  -15.1943   20.4174 N   0  0  0  0  0  0
  -31.9487  -14.4319   20.1018 O   0  0  0  0  0  0
  -21.6645   -6.8881   21.4249 O   0  0  0  0  0  0
  -22.3542  -14.5509   20.6666 O   0  0  0  0  0  0
  -24.6203  -31.8677   23.2111 C   0  0  0  0  0  0
  -25.9090  -32.4835   23.8396 C   0  0  1  0  0  0
  -27.2078  -27.4092   20.0903 C   0  0  0  0  0  0
  -25.5957  -33.8626   24.2337 N   0  0  0  0  0  0
  -23.4066  -30.5007   21.5512 C   0  0  2  0  0  0
  -24.8448  -28.9721   20.1065 C   0  0  0  0  0  0
  -22.7431  -29.4664   22.4933 C   0  0  0  0  0  0
  -18.0277  -28.1395   22.8487 C   0  0  0  0  0  0
  -24.1482  -36.7311   23.2639 C   0  0  0  0  0  0
  -25.9403  -30.8284   21.3662 C   0  0  0  0  0  0
  -26.0096  -29.4635   20.7083 C   0  0  0  0  0  0
  -27.1948  -28.6898   20.6944 C   0  0  0  0  0  0
  -26.0276  -26.9567   19.4529 C   0  0  0  0  0  0
  -24.8508  -27.7213   19.4733 C   0  0  0  0  0  0
  -23.6150  -29.8470   20.1605 C   0  0  0  0  0  0
  -25.4105  -36.3129   24.0348 C   0  0  1  0  0  0
  -20.5870  -28.3682   23.1300 C   0  0  2  0  0  0
  -20.6761  -26.9408   22.5408 C   0  0  0  0  0  0
  -19.5742  -26.6380   21.5213 C   0  0  0  0  0  0
  -18.1924  -26.7932   22.1621 C   0  0  0  0  0  0
  -19.1532  -28.8842   23.2906 C   0  0  0  0  0  0
  -18.9470  -30.1446   23.8933 C   0  0  0  0  0  0
  -17.6474  -30.6601   24.0572 C   0  0  0  0  0  0
  -25.9044  -34.9489   23.5135 C   0  0  0  0  0  0
  -16.5362  -29.9113   23.6324 C   0  0  0  0  0  0
  -16.7269  -28.6527   23.0349 C   0  0  0  0  0  0
  -26.4485  -31.6627   25.0742 C   0  0  0  0  0  0
  -25.3754  -31.3747   26.1508 C   0  0  0  0  0  0
  -27.0287  -30.3072   24.6091 C   0  0  0  0  0  0
  -27.6055  -32.4336   25.7524 C   0  0  0  0  0  0
  -27.5571  -37.1820   24.8467 C   0  0  0  0  0  0
  -21.4142  -29.3070   22.3702 N   0  0  0  0  0  0
  -26.4286  -37.3823   23.9414 N   0  0  0  0  0  0
  -24.6755  -31.0786   22.1017 N   0  0  0  0  0  0
  -23.4210  -28.8159   23.2947 O   0  0  0  0  0  0
  -28.3463  -26.6241   20.1512 O   0  0  0  0  0  0
  -26.5559  -34.8928   22.4663 O   0  0  0  0  0  0
  -23.5388  -32.1397   23.7511 O   0  0  0  0  0  0
  -32.1057  -18.8447   21.7836 C   0  0  0  0  0  0
  -29.8070  -18.8890   20.9776 C   0  0  0  0  0  0
  -31.0655  -20.9716   21.2493 C   0  0  0  0  0  0
  -30.9397  -18.1480   21.3920 C   0  0  0  0  0  0
  -32.1752  -20.2473   21.7121 C   0  0  0  0  0  0
  -29.8707  -20.3073   20.8957 C   0  0  0  0  0  0
  -31.0687  -16.6833   21.2746 C   0  0  0  0  0  0
  -30.1912  -15.7152   20.9111 C   0  0  0  0  0  0
  -28.8634  -23.3682   21.6710 C   0  0  0  0  0  0
  -33.4537  -20.9739   22.0799 C   0  0  0  0  0  0
  -28.7062  -21.1136   20.3262 C   0  0  0  0  0  0
  -28.0443  -22.1201   21.2978 C   0  0  0  0  0  0
  -29.2976  -24.3545   20.5728 C   0  0  0  0  0  0
  -28.1521  -25.2027   19.9809 C   0  0  0  0  0  0
  -29.1745  -23.5730   22.8469 O   0  0  0  0  0  0
  -31.4405  -12.2783   19.1785 H   0  0  0  0  0  0
  -30.2201  -11.2839   19.9055 H   0  0  0  0  0  0
  -29.7392  -11.7358   17.4620 H   0  0  0  0  0  0
  -29.6922  -13.4517   17.7878 H   0  0  0  0  0  0
  -27.8226  -11.3022   18.8397 H   0  0  0  0  0  0
  -27.3773  -12.6224   17.7888 H   0  0  0  0  0  0
  -27.6766  -14.2606   19.5394 H   0  0  0  0  0  0
  -28.6558  -12.0708   21.4194 H   0  0  0  0  0  0
  -28.4713  -13.7614   21.8244 H   0  0  0  0  0  0
  -25.2757   -9.5727   22.4743 H   0  0  0  0  0  0
  -24.0033   -7.4657   22.7462 H   0  0  0  0  0  0
  -21.0846   -8.8738   19.8950 H   0  0  0  0  0  0
  -22.3650  -10.9664   19.6169 H   0  0  0  0  0  0
  -21.1994   -7.6156   23.9730 H   0  0  0  0  0  0
  -21.1494   -6.0520   25.9087 H   0  0  0  0  0  0
  -22.0590   -2.7613   23.2825 H   0  0  0  0  0  0
  -22.4102  -11.9911   22.4856 H   0  0  0  0  0  0
  -21.1102  -13.1249   22.2557 H   0  0  0  0  0  0
  -24.6485  -15.8425   20.5402 H   0  0  0  0  0  0
  -26.2739  -15.6483   20.1151 H   0  0  0  0  0  0
  -26.7153  -32.5530   23.1151 H   0  0  0  0  0  0
  -25.0200  -33.9746   25.0551 H   0  0  0  0  0  0
  -22.7021  -31.3241   21.4186 H   0  0  0  0  0  0
  -23.3742  -35.9648   23.3332 H   0  0  0  0  0  0
  -24.3564  -36.8880   22.2040 H   0  0  0  0  0  0
  -23.7219  -37.6529   23.6610 H   0  0  0  0  0  0
  -26.0538  -31.5956   20.5972 H   0  0  0  0  0  0
  -26.8304  -30.8815   21.9827 H   0  0  0  0  0  0
  -28.0945  -29.0576   21.1648 H   0  0  0  0  0  0
  -25.9813  -26.0130   18.9270 H   0  0  0  0  0  0
  -23.9604  -27.3439   18.9904 H   0  0  0  0  0  0
  -23.7414  -30.6315   19.4134 H   0  0  0  0  0  0
  -22.7328  -29.2832   19.8527 H   0  0  0  0  0  0
  -25.1274  -36.2001   25.0840 H   0  0  0  0  0  0
  -20.9992  -28.3249   24.1411 H   0  0  0  0  0  0
  -20.5650  -26.2297   23.3599 H   0  0  0  0  0  0
  -21.6633  -26.7426   22.1218 H   0  0  0  0  0  0
  -19.6908  -25.6290   21.1244 H   0  0  0  0  0  0
  -19.6703  -27.3182   20.6732 H   0  0  0  0  0  0
  -17.4187  -26.6689   21.4023 H   0  0  0  0  0  0
  -18.0339  -26.0081   22.9018 H   0  0  0  0  0  0
  -19.7958  -30.7240   24.2345 H   0  0  0  0  0  0
  -17.5043  -31.6285   24.5161 H   0  0  0  0  0  0
  -15.5367  -30.3045   23.7624 H   0  0  0  0  0  0
  -15.8662  -28.0857   22.7063 H   0  0  0  0  0  0
  -24.5958  -30.7044   25.7882 H   0  0  0  0  0  0
  -24.8915  -32.2910   26.4910 H   0  0  0  0  0  0
  -25.8144  -30.8994   27.0292 H   0  0  0  0  0  0
  -26.2812  -29.6894   24.1107 H   0  0  0  0  0  0
  -27.4031  -29.7259   25.4521 H   0  0  0  0  0  0
  -27.8669  -30.4408   23.9247 H   0  0  0  0  0  0
  -27.2671  -33.3633   26.2105 H   0  0  0  0  0  0
  -28.3890  -32.6890   25.0385 H   0  0  0  0  0  0
  -28.0689  -31.8453   26.5453 H   0  0  0  0  0  0
  -28.2620  -38.0086   24.7492 H   0  0  0  0  0  0
  -28.1040  -36.2620   24.6339 H   0  0  0  0  0  0
  -27.2283  -37.1522   25.8870 H   0  0  0  0  0  0
  -20.9291  -29.8905   21.7024 H   0  0  0  0  0  0
  -26.0186  -38.2911   24.1419 H   0  0  0  0  0  0
  -32.9916  -18.2982   22.0761 H   0  0  0  0  0  0
  -28.9196  -18.3682   20.6430 H   0  0  0  0  0  0
  -31.1575  -22.0425   21.1444 H   0  0  0  0  0  0
  -32.0917  -16.3675   21.4403 H   0  0  0  0  0  0
  -29.1336  -15.9041   20.7966 H   0  0  0  0  0  0
  -33.2395  -21.9746   22.4553 H   0  0  0  0  0  0
  -34.1103  -21.0679   21.2129 H   0  0  0  0  0  0
  -33.9949  -20.4363   22.8595 H   0  0  0  0  0  0
  -27.9403  -20.4138   19.9917 H   0  0  0  0  0  0
  -29.0373  -21.6193   19.4203 H   0  0  0  0  0  0
  -27.1211  -22.4754   20.8425 H   0  0  0  0  0  0
  -27.7553  -21.6008   22.2116 H   0  0  0  0  0  0
  -30.0595  -25.0171   20.9822 H   0  0  0  0  0  0
  -29.7850  -23.7850   19.7832 H   0  0  0  0  0  0
  -27.2172  -24.8800   20.4424 H   0  0  0  0  0  0
  -28.0605  -24.9823   18.9169 H   0  0  0  0  0  0
  1 25  1  0  0  0
  1 30  2  0  0  0
  1 78  1  0  0  0
  2  3  1  0  0  0
  2 25  1  0  0  0
  2 86  1  0  0  0
  2 87  1  0  0  0
  3  4  1  0  0  0
  3 88  1  0  0  0
  3 89  1  0  0  0
  4  5  1  0  0  0
  4 90  1  0  0  0
  4 91  1  0  0  0
  5  6  1  0  0  0
  5 26  1  0  0  0
  5 92  1  0  0  0
  6 25  1  0  0  0
  6 93  1  0  0  0
  6 94  1  0  0  0
  7  8  2  0  0  0
  7 26  1  0  0  0
  7 29  1  0  0  0
  8  9  1  0  0  0
  8 22  1  0  0  0
  9 10  1  0  0  0
  9 27  2  0  0  0
 10 11  2  0  0  0
 10 15  1  0  0  0
 11 12  1  0  0  0
 11 95  1  0  0  0
 12 13  2  0  0  0
 12 96  1  0  0  0
 13 14  1  0  0  0
 13 31  1  0  0  0
 14 15  2  0  0  0
 14 97  1  0  0  0
 15 98  1  0  0  0
 16 17  2  0  0  0
 16 21  1  0  0  0
 16 31  1  0  0  0
 17 18  1  0  0  0
 17 99  1  0  0  0
 18 19  2  0  0  0
 18100  1  0  0  0
 19 20  1  0  0  0
 19 24  1  0  0  0
 20 21  2  0  0  0
 20101  1  0  0  0
 21 23  1  0  0  0
 22 28  1  0  0  0
 22 32  2  0  0  0
 26 27  1  0  0  0
 28102  1  0  0  0
 28103  1  0  0  0
 29104  1  0  0  0
 29105  1  0  0  0
 33 34  1  0  0  0
 33 66  1  0  0  0
 33 70  2  0  0  0
 34 36  1  0  0  0
 34 59  1  0  0  0
 34106  1  0  0  0
 35 44  2  0  0  0
 35 45  1  0  0  0
 35 68  1  0  0  0
 36 56  1  0  0  0
 36107  1  0  0  0
 37 39  1  0  0  0
 37 47  1  0  0  0
 37 66  1  0  0  0
 37108  1  0  0  0
 38 43  2  0  0  0
 38 46  1  0  0  0
 38 47  1  0  0  0
 39 64  1  0  0  0
 39 67  2  0  0  0
 40 52  1  0  0  0
 40 53  2  0  0  0
 40 58  1  0  0  0
 41109  1  0  0  0
 41110  1  0  0  0
 41111  1  0  0  0
 41 48  1  0  0  0
 42 43  1  0  0  0
 42 66  1  0  0  0
 42112  1  0  0  0
 42113  1  0  0  0
 43 44  1  0  0  0
 44114  1  0  0  0
 45 46  2  0  0  0
 45115  1  0  0  0
 46116  1  0  0  0
 47117  1  0  0  0
 47118  1  0  0  0
 48 56  1  0  0  0
 48 65  1  0  0  0
 48119  1  0  0  0
 49 50  1  0  0  0
 49 53  1  0  0  0
 49 64  1  0  0  0
 49120  1  0  0  0
 50 51  1  0  0  0
 50121  1  0  0  0
 50122  1  0  0  0
 51 52  1  0  0  0
 51123  1  0  0  0
 51124  1  0  0  0
 52125  1  0  0  0
 52126  1  0  0  0
 53 54  1  0  0  0
 54 55  2  0  0  0
 54127  1  0  0  0
 55 57  1  0  0  0
 55128  1  0  0  0
 56 69  2  0  0  0
 57 58  2  0  0  0
 57129  1  0  0  0
 58130  1  0  0  0
 59 60  1  0  0  0
 59 61  1  0  0  0
 59 62  1  0  0  0
 60131  1  0  0  0
 60132  1  0  0  0
 60133  1  0  0  0
 61134  1  0  0  0
 61135  1  0  0  0
 61136  1  0  0  0
 62137  1  0  0  0
 62138  1  0  0  0
 62139  1  0  0  0
 63 65  1  0  0  0
 63140  1  0  0  0
 63141  1  0  0  0
 63142  1  0  0  0
 64143  1  0  0  0
 65144  1  0  0  0
 68 84  1  0  0  0
 71 74  2  0  0  0
 71 75  1  0  0  0
 71145  1  0  0  0
 72 74  1  0  0  0
 72 76  2  0  0  0
 72146  1  0  0  0
 73 75  2  0  0  0
 73 76  1  0  0  0
 73147  1  0  0  0
 74 77  1  0  0  0
 75 80  1  0  0  0
 76 81  1  0  0  0
 77 78  2  0  0  0
 77148  1  0  0  0
 78149  1  0  0  0
 79 82  1  0  0  0
 79 83  1  0  0  0
 79 85  2  0  0  0
 80150  1  0  0  0
 80151  1  0  0  0
 80152  1  0  0  0
 81 82  1  0  0  0
 81153  1  0  0  0
 81154  1  0  0  0
 82155  1  0  0  0
 82156  1  0  0  0
 83 84  1  0  0  0
 83157  1  0  0  0
 83158  1  0  0  0
 84159  1  0  0  0
 84160  1  0  0  0
M  ISO  4   1 100  68 101  78 100  84 101
M  END
> <chiral flag>
0

> <version>
0

> <s_m_source_file>
/data/baiqing/PycharmProjects/Reinvent-master-3.2/result/LINK_invent/BTK/process_docking_weight1_custom_product_contain_oxygen_bond_distance_aromatic_linkinvent_7_9_3/rearranged_h_0132.sdf

> <i_m_source_file_index>
39

> <r_mmod_Potential_Energy-OPLS-2005>
-0.777379989624023

> <r_mmod_Stretch_Energy-OPLS-2005>
37.4954681396484

> <r_mmod_Bend_Energy-OPLS-2005>
117.585952758789

> <r_mmod_Torsional_Energy-OPLS-2005>
209.798736572266

> <r_mmod_Improper_Torsional_Energy-OPLS-2005>
9.22561073303223

> <r_mmod_Van_der_Waal_Energy-OPLS-2005>
167.554916381836

> <r_mmod_Electrostatic_Energy-OPLS-2005>
-356.318115234375

> <r_mmod_Solvation_Energy-OPLS-2005>
-214.324615478516

> <b_mmod_Minimization_Converged-OPLS-2005>
0

> <r_mmod_RMS_Derivative-OPLS-2005>
3.35450530052185

$$$$
39
                    3D
 Structure written by MMmdl.
153161  0  0  1  0            999 V2000
  -30.5974  -14.7199   20.4788 C   0  0  0  0  0  0
  -30.4429  -12.4301   19.4801 C   0  0  0  0  0  0
  -29.5188  -12.5040   18.2436 C   0  0  0  0  0  0
  -28.0419  -12.3286   18.6481 C   0  0  0  0  0  0
  -27.6463  -13.2187   19.8579 C   0  0  2  0  0  0
  -28.6909  -13.1363   20.9920 C   0  0  0  0  0  0
  -25.2489  -13.8074   20.5743 C   0  0  0  0  0  0
  -24.1776  -13.0336   20.9202 C   0  0  0  0  0  0
  -24.6396  -11.6832   20.8750 C   0  0  0  0  0  0
  -23.9093  -10.4219   21.0414 C   0  0  0  0  0  0
  -24.3658   -9.4128   21.9173 C   0  0  0  0  0  0
  -23.6307   -8.2184   22.0748 C   0  0  0  0  0  0
  -22.4273   -8.0260   21.3559 C   0  0  0  0  0  0
  -21.9920   -9.0236   20.4645 C   0  0  0  0  0  0
  -22.7277  -10.2084   20.3050 C   0  0  0  0  0  0
  -21.6825   -6.0729   22.5284 C   0  0  0  0  0  0
  -21.3983   -6.5640   23.8217 C   0  0  0  0  0  0
  -21.3638   -5.6801   24.9186 C   0  0  0  0  0  0
  -21.6037   -4.3065   24.7238 C   0  0  0  0  0  0
  -21.8822   -3.8151   23.4375 C   0  0  0  0  0  0
  -21.9178   -4.6962   22.3418 C   0  0  0  0  0  0
  -22.7799  -13.5134   21.1907 C   0  0  0  0  0  0
  -22.1649   -4.2135   21.0997 F   0  0  0  0  0  0
  -21.5603   -3.4550   25.7757 F   0  0  0  0  0  0
  -30.0055  -13.4760   20.4291 N   0  0  0  0  0  0
  -26.2945  -12.9307   20.3312 N   0  0  0  0  0  0
  -25.9324  -11.6455   20.5738 N   0  0  0  0  0  0
  -22.0506  -12.8084   22.0465 N   0  0  0  0  0  0
  -25.4060  -15.1798   20.4328 N   0  0  0  0  0  0
  -31.7787  -14.8300   20.1149 O   0  0  0  0  0  0
  -21.6615   -6.8881   21.4253 O   0  0  0  0  0  0
  -22.3451  -14.5463   20.6790 O   0  0  0  0  0  0
  -24.6303  -31.8520   23.1985 C   0  0  0  0  0  0
  -25.9120  -32.4750   23.8341 C   0  0  1  0  0  0
  -27.2357  -27.2661   20.1340 C   0  0  0  0  0  0
  -25.5884  -33.8550   24.2243 N   0  0  0  0  0  0
  -23.4290  -30.4730   21.5398 C   0  0  2  0  0  0
  -24.8826  -28.9194   20.1153 C   0  0  0  0  0  0
  -22.7517  -29.4573   22.4916 C   0  0  0  0  0  0
  -18.0272  -28.1396   22.8494 C   0  0  0  0  0  0
  -24.1480  -36.7305   23.2638 C   0  0  0  0  0  0
  -25.9726  -30.7777   21.3691 C   0  0  0  0  0  0
  -26.0552  -29.3972   20.7126 C   0  0  0  0  0  0
  -27.2371  -28.5860   20.6988 C   0  0  0  0  0  0
  -26.0286  -26.8492   19.5260 C   0  0  0  0  0  0
  -24.8730  -27.6525   19.5136 C   0  0  0  0  0  0
  -23.6540  -29.8054   20.1577 C   0  0  0  0  0  0
  -25.4098  -36.3054   24.0317 C   0  0  1  0  0  0
  -20.5887  -28.3684   23.1303 C   0  0  2  0  0  0
  -20.6751  -26.9403   22.5426 C   0  0  0  0  0  0
  -19.5729  -26.6400   21.5217 C   0  0  0  0  0  0
  -18.1918  -26.7934   22.1646 C   0  0  0  0  0  0
  -19.1529  -28.8854   23.2891 C   0  0  0  0  0  0
  -18.9454  -30.1464   23.8909 C   0  0  0  0  0  0
  -17.6450  -30.6592   24.0573 C   0  0  0  0  0  0
  -25.9051  -34.9431   23.5078 C   0  0  0  0  0  0
  -16.5347  -29.9109   23.6318 C   0  0  0  0  0  0
  -16.7260  -28.6526   23.0327 C   0  0  0  0  0  0
  -26.4516  -31.6563   25.0711 C   0  0  0  0  0  0
  -25.3770  -31.3691   26.1453 C   0  0  0  0  0  0
  -27.0318  -30.2976   24.6136 C   0  0  0  0  0  0
  -27.6077  -32.4286   25.7486 C   0  0  0  0  0  0
  -27.5559  -37.1795   24.8467 C   0  0  0  0  0  0
  -21.4219  -29.3032   22.3703 N   0  0  0  0  0  0
  -26.4260  -37.3764   23.9427 N   0  0  0  0  0  0
  -24.6975  -31.0486   22.0965 N   0  0  0  0  0  0
  -23.4232  -28.8117   23.3002 O   0  0  0  0  0  0
  -28.3461  -26.3880   20.1837 O   0  0  0  0  0  0
  -26.5632  -34.8901   22.4668 O   0  0  0  0  0  0
  -23.5451  -32.1330   23.7280 O   0  0  0  0  0  0
  -28.9048  -21.0922   20.2916 C   0  0  0  0  0  0
  -29.0924  -22.3213   20.3615 C   0  0  0  0  0  0
  -26.0121  -19.2073   18.9557 C   0  0  0  0  0  0
  -26.3808  -17.8653   18.9188 C   0  0  0  0  0  0
  -26.9189  -20.1448   19.4562 C   0  0  0  0  0  0
  -27.6247  -17.4741   19.4336 C   0  0  0  0  0  0
  -28.2064  -19.8035   19.9528 C   0  0  0  0  0  0
  -28.5789  -18.3681   20.0021 C   0  0  0  0  0  0
  -29.8331  -17.6137   20.5264 C   0  0  0  0  0  0
  -29.3048  -23.8403   20.3551 C   0  0  0  0  0  0
  -29.7260  -16.0271   20.8564 C   0  0  0  0  0  0
  -28.1093  -24.9026   20.1650 C   0  0  0  0  0  0
  -30.9145  -18.2396   20.7472 N   0  0  0  0  0  0
  -31.4817  -12.5579   19.1735 H   0  0  0  0  0  0
  -30.3876  -11.4460   19.9482 H   0  0  0  0  0  0
  -29.8029  -11.7353   17.5238 H   0  0  0  0  0  0
  -29.6469  -13.4633   17.7413 H   0  0  0  0  0  0
  -27.8977  -11.2777   18.9021 H   0  0  0  0  0  0
  -27.3902  -12.5253   17.7963 H   0  0  0  0  0  0
  -27.6447  -14.2434   19.4932 H   0  0  0  0  0  0
  -28.7072  -12.1353   21.4276 H   0  0  0  0  0  0
  -28.4301  -13.8119   21.8082 H   0  0  0  0  0  0
  -25.2834   -9.5560   22.4715 H   0  0  0  0  0  0
  -24.0008   -7.4570   22.7476 H   0  0  0  0  0  0
  -21.0833   -8.8798   19.8967 H   0  0  0  0  0  0
  -22.3812  -10.9645   19.6152 H   0  0  0  0  0  0
  -21.1967   -7.6143   23.9702 H   0  0  0  0  0  0
  -21.1463   -6.0545   25.9079 H   0  0  0  0  0  0
  -22.0632   -2.7613   23.2897 H   0  0  0  0  0  0
  -22.4249  -11.9775   22.4813 H   0  0  0  0  0  0
  -21.1113  -13.1044   22.2752 H   0  0  0  0  0  0
  -24.6239  -15.8109   20.5657 H   0  0  0  0  0  0
  -26.2466  -15.6537   20.1341 H   0  0  0  0  0  0
  -26.7172  -32.5444   23.1088 H   0  0  0  0  0  0
  -24.9937  -33.9705   25.0308 H   0  0  0  0  0  0
  -22.7208  -31.2910   21.3905 H   0  0  0  0  0  0
  -23.3716  -35.9668   23.3304 H   0  0  0  0  0  0
  -24.3560  -36.8945   22.2054 H   0  0  0  0  0  0
  -23.7284  -37.6522   23.6678 H   0  0  0  0  0  0
  -26.0756  -31.5365   20.5935 H   0  0  0  0  0  0
  -26.8659  -30.8542   21.9794 H   0  0  0  0  0  0
  -28.1446  -28.9513   21.1596 H   0  0  0  0  0  0
  -25.9426  -25.8722   19.0742 H   0  0  0  0  0  0
  -23.9673  -27.2765   19.0559 H   0  0  0  0  0  0
  -23.7865  -30.5838   19.4049 H   0  0  0  0  0  0
  -22.7788  -29.2350   19.8452 H   0  0  0  0  0  0
  -25.1275  -36.1872   25.0801 H   0  0  0  0  0  0
  -20.9937  -28.3221   24.1440 H   0  0  0  0  0  0
  -20.5620  -26.2280   23.3612 H   0  0  0  0  0  0
  -21.6620  -26.7409   22.1233 H   0  0  0  0  0  0
  -19.6882  -25.6313   21.1238 H   0  0  0  0  0  0
  -19.6674  -27.3220   20.6747 H   0  0  0  0  0  0
  -17.4176  -26.6658   21.4069 H   0  0  0  0  0  0
  -18.0353  -26.0083   22.9051 H   0  0  0  0  0  0
  -19.7919  -30.7277   24.2302 H   0  0  0  0  0  0
  -17.4995  -31.6272   24.5185 H   0  0  0  0  0  0
  -15.5350  -30.3014   23.7616 H   0  0  0  0  0  0
  -15.8661  -28.0863   22.7008 H   0  0  0  0  0  0
  -24.5982  -30.6980   25.7825 H   0  0  0  0  0  0
  -24.8924  -32.2842   26.4856 H   0  0  0  0  0  0
  -25.8146  -30.8929   27.0236 H   0  0  0  0  0  0
  -26.2851  -29.6759   24.1184 H   0  0  0  0  0  0
  -27.4035  -29.7194   25.4609 H   0  0  0  0  0  0
  -27.8722  -30.4254   23.9313 H   0  0  0  0  0  0
  -27.2688  -33.3590   26.2047 H   0  0  0  0  0  0
  -28.3907  -32.6827   25.0333 H   0  0  0  0  0  0
  -28.0707  -31.8410   26.5421 H   0  0  0  0  0  0
  -28.2559  -38.0095   24.7451 H   0  0  0  0  0  0
  -28.1049  -36.2616   24.6325 H   0  0  0  0  0  0
  -27.2277  -37.1488   25.8867 H   0  0  0  0  0  0
  -20.9385  -29.8797   21.6960 H   0  0  0  0  0  0
  -26.0122  -38.2824   24.1453 H   0  0  0  0  0  0
  -25.0491  -19.5224   18.5762 H   0  0  0  0  0  0
  -25.7048  -17.1296   18.5023 H   0  0  0  0  0  0
  -26.5952  -21.1785   19.4351 H   0  0  0  0  0  0
  -27.8168  -16.4203   19.3484 H   0  0  0  0  0  0
  -30.0333  -24.0157   19.5627 H   0  0  0  0  0  0
  -29.8242  -24.0540   21.2882 H   0  0  0  0  0  0
  -30.4503  -16.0830   21.6694 H   0  0  0  0  0  0
  -29.8422  -15.9550   19.7738 H   0  0  0  0  0  0
  -27.3708  -24.6902   20.9392 H   0  0  0  0  0  0
  -27.6434  -24.6484   19.2151 H   0  0  0  0  0  0
  -30.8346  -19.2260   20.5233 H   0  0  0  0  0  0
  1 25  1  0  0  0
  1 30  2  0  0  0
  1 81  1  0  0  0
  2  3  1  0  0  0
  2 25  1  0  0  0
  2 84  1  0  0  0
  2 85  1  0  0  0
  3  4  1  0  0  0
  3 86  1  0  0  0
  3 87  1  0  0  0
  4  5  1  0  0  0
  4 88  1  0  0  0
  4 89  1  0  0  0
  5  6  1  0  0  0
  5 26  1  0  0  0
  5 90  1  0  0  0
  6 25  1  0  0  0
  6 91  1  0  0  0
  6 92  1  0  0  0
  7  8  2  0  0  0
  7 26  1  0  0  0
  7 29  1  0  0  0
  8  9  1  0  0  0
  8 22  1  0  0  0
  9 10  1  0  0  0
  9 27  2  0  0  0
 10 11  2  0  0  0
 10 15  1  0  0  0
 11 12  1  0  0  0
 11 93  1  0  0  0
 12 13  2  0  0  0
 12 94  1  0  0  0
 13 14  1  0  0  0
 13 31  1  0  0  0
 14 15  2  0  0  0
 14 95  1  0  0  0
 15 96  1  0  0  0
 16 17  2  0  0  0
 16 21  1  0  0  0
 16 31  1  0  0  0
 17 18  1  0  0  0
 17 97  1  0  0  0
 18 19  2  0  0  0
 18 98  1  0  0  0
 19 20  1  0  0  0
 19 24  1  0  0  0
 20 21  2  0  0  0
 20 99  1  0  0  0
 21 23  1  0  0  0
 22 28  1  0  0  0
 22 32  2  0  0  0
 26 27  1  0  0  0
 28100  1  0  0  0
 28101  1  0  0  0
 29102  1  0  0  0
 29103  1  0  0  0
 33 34  1  0  0  0
 33 66  1  0  0  0
 33 70  2  0  0  0
 34 36  1  0  0  0
 34 59  1  0  0  0
 34104  1  0  0  0
 35 44  2  0  0  0
 35 45  1  0  0  0
 35 68  1  0  0  0
 36 56  1  0  0  0
 36105  1  0  0  0
 37 39  1  0  0  0
 37 47  1  0  0  0
 37 66  1  0  0  0
 37106  1  0  0  0
 38 43  2  0  0  0
 38 46  1  0  0  0
 38 47  1  0  0  0
 39 64  1  0  0  0
 39 67  2  0  0  0
 40 52  1  0  0  0
 40 53  2  0  0  0
 40 58  1  0  0  0
 41107  1  0  0  0
 41108  1  0  0  0
 41109  1  0  0  0
 41 48  1  0  0  0
 42 43  1  0  0  0
 42 66  1  0  0  0
 42110  1  0  0  0
 42111  1  0  0  0
 43 44  1  0  0  0
 44112  1  0  0  0
 45 46  2  0  0  0
 45113  1  0  0  0
 46114  1  0  0  0
 47115  1  0  0  0
 47116  1  0  0  0
 48 56  1  0  0  0
 48 65  1  0  0  0
 48117  1  0  0  0
 49 50  1  0  0  0
 49 53  1  0  0  0
 49 64  1  0  0  0
 49118  1  0  0  0
 50 51  1  0  0  0
 50119  1  0  0  0
 50120  1  0  0  0
 51 52  1  0  0  0
 51121  1  0  0  0
 51122  1  0  0  0
 52123  1  0  0  0
 52124  1  0  0  0
 53 54  1  0  0  0
 54 55  2  0  0  0
 54125  1  0  0  0
 55 57  1  0  0  0
 55126  1  0  0  0
 56 69  2  0  0  0
 57 58  2  0  0  0
 57127  1  0  0  0
 58128  1  0  0  0
 59 60  1  0  0  0
 59 61  1  0  0  0
 59 62  1  0  0  0
 60129  1  0  0  0
 60130  1  0  0  0
 60131  1  0  0  0
 61132  1  0  0  0
 61133  1  0  0  0
 61134  1  0  0  0
 62135  1  0  0  0
 62136  1  0  0  0
 62137  1  0  0  0
 63 65  1  0  0  0
 63138  1  0  0  0
 63139  1  0  0  0
 63140  1  0  0  0
 64141  1  0  0  0
 65142  1  0  0  0
 68 82  1  0  0  0
 71 72  3  0  0  0
 71 77  1  0  0  0
 72 80  1  0  0  0
 73 74  2  0  0  0
 73 75  1  0  0  0
 73143  1  0  0  0
 74 76  1  0  0  0
 74144  1  0  0  0
 75 77  2  0  0  0
 75145  1  0  0  0
 76 78  2  0  0  0
 76146  1  0  0  0
 77 78  1  0  0  0
 78 79  1  0  0  0
 79 81  1  0  0  0
 79 83  2  0  0  0
 80 82  1  0  0  0
 80147  1  0  0  0
 80148  1  0  0  0
 81149  1  0  0  0
 81150  1  0  0  0
 82151  1  0  0  0
 82152  1  0  0  0
 83153  1  0  0  0
M  ISO  4   1 100  68 101  81 100  82 101
M  END
> <chiral flag>
0

> <version>
0

> <s_m_source_file>
/data/baiqing/PycharmProjects/Reinvent-master-3.2/result/LINK_invent/BTK/process_docking_weight1_custom_product_contain_oxygen_bond_distance_aromatic_linkinvent_7_9_3/rearranged_h_0132.sdf

> <i_m_source_file_index>
40

> <r_mmod_Potential_Energy-OPLS-2005>
506.773529052734

> <r_mmod_Stretch_Energy-OPLS-2005>
130.408813476562

> <r_mmod_Bend_Energy-OPLS-2005>
444.555938720703

> <r_mmod_Torsional_Energy-OPLS-2005>
179.085784912109

> <r_mmod_Improper_Torsional_Energy-OPLS-2005>
3.29575276374817

> <r_mmod_Van_der_Waal_Energy-OPLS-2005>
153.171417236328

> <r_mmod_Electrostatic_Energy-OPLS-2005>
-269.162261962891

> <r_mmod_Solvation_Energy-OPLS-2005>
-209.880310058594

> <b_mmod_Minimization_Converged-OPLS-2005>
0

> <r_mmod_RMS_Derivative-OPLS-2005>
4.6328821182251

$$$$
40
                    3D
 Structure written by MMmdl.
166175  0  0  1  0            999 V2000
  -30.6868  -14.5027   20.5616 C   0  0  0  0  0  0
  -30.4327  -12.3236   19.4217 C   0  0  0  0  0  0
  -29.4998  -12.5107   18.2065 C   0  0  0  0  0  0
  -28.0204  -12.3663   18.6178 C   0  0  0  0  0  0
  -27.6628  -13.2063   19.8725 C   0  0  2  0  0  0
  -28.7072  -12.9923   20.9920 C   0  0  0  0  0  0
  -25.2591  -13.8149   20.5669 C   0  0  0  0  0  0
  -24.1843  -13.0439   20.9177 C   0  0  0  0  0  0
  -24.6392  -11.6901   20.8732 C   0  0  0  0  0  0
  -23.9057  -10.4291   21.0406 C   0  0  0  0  0  0
  -24.3608   -9.4205   21.9188 C   0  0  0  0  0  0
  -23.6281   -8.2243   22.0756 C   0  0  0  0  0  0
  -22.4266   -8.0277   21.3543 C   0  0  0  0  0  0
  -21.9897   -9.0256   20.4655 C   0  0  0  0  0  0
  -22.7225  -10.2135   20.3061 C   0  0  0  0  0  0
  -21.6852   -6.0731   22.5278 C   0  0  0  0  0  0
  -21.4012   -6.5633   23.8211 C   0  0  0  0  0  0
  -21.3660   -5.6787   24.9174 C   0  0  0  0  0  0
  -21.6049   -4.3051   24.7226 C   0  0  0  0  0  0
  -21.8818   -3.8140   23.4345 C   0  0  0  0  0  0
  -21.9189   -4.6958   22.3399 C   0  0  0  0  0  0
  -22.7862  -13.5246   21.1836 C   0  0  0  0  0  0
  -22.1659   -4.2145   21.0980 F   0  0  0  0  0  0
  -21.5634   -3.4532   25.7739 F   0  0  0  0  0  0
  -30.0374  -13.3097   20.4404 N   0  0  0  0  0  0
  -26.3031  -12.9321   20.3342 N   0  0  0  0  0  0
  -25.9320  -11.6487   20.5752 N   0  0  0  0  0  0
  -22.0487  -12.8263   22.0395 N   0  0  0  0  0  0
  -25.4315  -15.1868   20.4052 N   0  0  0  0  0  0
  -31.8253  -14.6888   20.1222 O   0  0  0  0  0  0
  -21.6631   -6.8874   21.4239 O   0  0  0  0  0  0
  -22.3551  -14.5553   20.6675 O   0  0  0  0  0  0
  -24.6196  -31.8681   23.2126 C   0  0  0  0  0  0
  -25.9073  -32.4812   23.8429 C   0  0  1  0  0  0
  -27.2153  -27.3780   20.0937 C   0  0  0  0  0  0
  -25.5911  -33.8616   24.2350 N   0  0  0  0  0  0
  -23.4095  -30.4990   21.5564 C   0  0  2  0  0  0
  -24.8533  -28.9797   20.1097 C   0  0  0  0  0  0
  -22.7445  -29.4671   22.4982 C   0  0  0  0  0  0
  -18.0276  -28.1349   22.8491 C   0  0  0  0  0  0
  -24.1506  -36.7318   23.2638 C   0  0  0  0  0  0
  -25.9522  -30.8142   21.3830 C   0  0  0  0  0  0
  -26.0234  -29.4518   20.7176 C   0  0  0  0  0  0
  -27.2065  -28.6604   20.7100 C   0  0  0  0  0  0
  -26.0197  -26.9715   19.4403 C   0  0  0  0  0  0
  -24.8508  -27.7397   19.4659 C   0  0  0  0  0  0
  -23.6189  -29.8492   20.1672 C   0  0  0  0  0  0
  -25.4120  -36.3109   24.0342 C   0  0  1  0  0  0
  -20.5871  -28.3663   23.1289 C   0  0  2  0  0  0
  -20.6778  -26.9395   22.5402 C   0  0  0  0  0  0
  -19.5756  -26.6369   21.5204 C   0  0  0  0  0  0
  -18.1933  -26.7900   22.1616 C   0  0  0  0  0  0
  -19.1524  -28.8821   23.2884 C   0  0  0  0  0  0
  -18.9446  -30.1420   23.8908 C   0  0  0  0  0  0
  -17.6450  -30.6568   24.0540 C   0  0  0  0  0  0
  -25.9047  -34.9464   23.5146 C   0  0  0  0  0  0
  -16.5342  -29.9062   23.6310 C   0  0  0  0  0  0
  -16.7260  -28.6458   23.0371 C   0  0  0  0  0  0
  -26.4491  -31.6567   25.0749 C   0  0  0  0  0  0
  -25.3752  -31.3649   26.1485 C   0  0  0  0  0  0
  -27.0315  -30.2988   24.6153 C   0  0  0  0  0  0
  -27.6084  -32.4274   25.7490 C   0  0  0  0  0  0
  -27.5594  -37.1813   24.8465 C   0  0  0  0  0  0
  -21.4171  -29.3037   22.3705 N   0  0  0  0  0  0
  -26.4315  -37.3778   23.9395 N   0  0  0  0  0  0
  -24.6792  -31.0747   22.1065 N   0  0  0  0  0  0
  -23.4200  -28.8200   23.3031 O   0  0  0  0  0  0
  -28.3253  -26.5226   20.1611 O   0  0  0  0  0  0
  -26.5614  -34.8905   22.4711 O   0  0  0  0  0  0
  -23.5372  -32.1472   23.7464 O   0  0  0  0  0  0
  -29.1341  -19.1476   20.6421 C   0  0  0  0  0  0
  -29.0163  -17.7412   20.6780 C   0  0  0  0  0  0
  -31.3619  -17.5643   21.2387 C   0  0  0  0  0  0
  -30.3528  -19.8052   20.9397 C   0  0  0  0  0  0
  -31.4821  -18.9824   21.2365 C   0  0  0  0  0  0
  -30.1287  -16.9255   20.9714 C   0  0  0  0  0  0
  -29.3257  -21.9836   21.8863 C   0  0  0  0  0  0
  -30.2657  -21.9281   19.4831 C   0  0  0  0  0  0
  -29.1081  -23.5155   21.7269 C   0  0  0  0  0  0
  -30.0505  -23.4655   19.4080 C   0  0  0  0  0  0
  -30.3884  -21.3622   20.9268 C   0  0  2  0  0  0
  -28.8269  -23.8490   20.2522 C   0  0  2  0  0  0
  -33.6140  -20.0399   20.3316 C   0  0  0  0  0  0
  -32.8467  -19.5692   21.5734 C   0  0  0  0  0  0
  -28.0053  -25.1257   19.8821 C   0  0  0  0  0  0
  -29.9306  -15.5071   21.0564 N   0  0  0  0  0  0
  -31.4751  -12.4344   19.1181 H   0  0  0  0  0  0
  -30.3455  -11.3122   19.8222 H   0  0  0  0  0  0
  -29.7428  -11.7869   17.4277 H   0  0  0  0  0  0
  -29.6623  -13.4969   17.7684 H   0  0  0  0  0  0
  -27.8318  -11.3100   18.8132 H   0  0  0  0  0  0
  -27.3713  -12.6402   17.7852 H   0  0  0  0  0  0
  -27.7041  -14.2529   19.5703 H   0  0  0  0  0  0
  -28.6902  -11.9547   21.3290 H   0  0  0  0  0  0
  -28.4658  -13.5856   21.8749 H   0  0  0  0  0  0
  -25.2757   -9.5679   22.4759 H   0  0  0  0  0  0
  -23.9993   -7.4631   22.7469 H   0  0  0  0  0  0
  -21.0828   -8.8779   19.8960 H   0  0  0  0  0  0
  -22.3687  -10.9677   19.6170 H   0  0  0  0  0  0
  -21.2000   -7.6141   23.9714 H   0  0  0  0  0  0
  -21.1490   -6.0517   25.9080 H   0  0  0  0  0  0
  -22.0597   -2.7603   23.2845 H   0  0  0  0  0  0
  -22.4076  -11.9930   22.4817 H   0  0  0  0  0  0
  -21.1108  -13.1319   22.2592 H   0  0  0  0  0  0
  -24.6622  -15.8410   20.5024 H   0  0  0  0  0  0
  -26.2753  -15.6186   20.0512 H   0  0  0  0  0  0
  -26.7137  -32.5497   23.1183 H   0  0  0  0  0  0
  -25.0024  -33.9782   25.0468 H   0  0  0  0  0  0
  -22.6988  -31.3174   21.4240 H   0  0  0  0  0  0
  -23.3741  -35.9682   23.3340 H   0  0  0  0  0  0
  -24.3604  -36.8885   22.2046 H   0  0  0  0  0  0
  -23.7296  -37.6554   23.6622 H   0  0  0  0  0  0
  -26.0871  -31.5851   20.6227 H   0  0  0  0  0  0
  -26.8325  -30.8492   22.0135 H   0  0  0  0  0  0
  -28.0982  -29.0170   21.2057 H   0  0  0  0  0  0
  -25.9318  -26.0407   18.9026 H   0  0  0  0  0  0
  -23.9588  -27.3741   18.9765 H   0  0  0  0  0  0
  -23.7237  -30.6318   19.4150 H   0  0  0  0  0  0
  -22.7424  -29.2723   19.8677 H   0  0  0  0  0  0
  -25.1286  -36.2005   25.0836 H   0  0  0  0  0  0
  -20.9942  -28.3228   24.1415 H   0  0  0  0  0  0
  -20.5688  -26.2269   23.3592 H   0  0  0  0  0  0
  -21.6650  -26.7450   22.1193 H   0  0  0  0  0  0
  -19.6925  -25.6283   21.1228 H   0  0  0  0  0  0
  -19.6680  -27.3187   20.6740 H   0  0  0  0  0  0
  -17.4203  -26.6631   21.4022 H   0  0  0  0  0  0
  -18.0336  -26.0034   22.9005 H   0  0  0  0  0  0
  -19.7925  -30.7216   24.2307 H   0  0  0  0  0  0
  -17.5007  -31.6257   24.5124 H   0  0  0  0  0  0
  -15.5341  -30.2972   23.7619 H   0  0  0  0  0  0
  -15.8654  -28.0757   22.7128 H   0  0  0  0  0  0
  -24.5972  -30.6943   25.7811 H   0  0  0  0  0  0
  -24.8890  -32.2779   26.4928 H   0  0  0  0  0  0
  -25.8118  -30.8833   27.0245 H   0  0  0  0  0  0
  -26.2864  -29.6743   24.1208 H   0  0  0  0  0  0
  -27.4053  -29.7215   25.4620 H   0  0  0  0  0  0
  -27.8727  -30.4263   23.9335 H   0  0  0  0  0  0
  -27.2735  -33.3577   26.2086 H   0  0  0  0  0  0
  -28.3872  -32.6821   25.0289 H   0  0  0  0  0  0
  -28.0778  -31.8379   26.5377 H   0  0  0  0  0  0
  -28.2611  -38.0107   24.7488 H   0  0  0  0  0  0
  -28.1087  -36.2629   24.6325 H   0  0  0  0  0  0
  -27.2297  -37.1502   25.8864 H   0  0  0  0  0  0
  -20.9334  -29.8757   21.6922 H   0  0  0  0  0  0
  -26.0212  -38.2870   24.1342 H   0  0  0  0  0  0
  -28.2570  -19.7269   20.3906 H   0  0  0  0  0  0
  -28.0540  -17.2955   20.4684 H   0  0  0  0  0  0
  -32.2266  -16.9601   21.4769 H   0  0  0  0  0  0
  -28.3599  -21.5079   21.7241 H   0  0  0  0  0  0
  -29.5896  -21.7508   22.9188 H   0  0  0  0  0  0
  -31.1467  -21.6534   18.9026 H   0  0  0  0  0  0
  -29.4270  -21.4441   18.9818 H   0  0  0  0  0  0
  -29.9812  -24.0648   22.0803 H   0  0  0  0  0  0
  -28.2712  -23.8269   22.3531 H   0  0  0  0  0  0
  -29.9010  -23.7602   18.3691 H   0  0  0  0  0  0
  -30.9356  -23.9960   19.7610 H   0  0  0  0  0  0
  -31.3495  -21.7125   21.2979 H   0  0  0  0  0  0
  -28.0895  -23.0965   19.9630 H   0  0  0  0  0  0
  -34.5957  -20.4261   20.6060 H   0  0  0  0  0  0
  -33.0864  -20.8352   19.8085 H   0  0  0  0  0  0
  -33.7654  -19.2215   19.6272 H   0  0  0  0  0  0
  -33.4448  -18.8144   22.0859 H   0  0  0  0  0  0
  -32.7405  -20.3767   22.2974 H   0  0  0  0  0  0
  -27.0572  -24.9146   20.3819 H   0  0  0  0  0  0
  -27.8290  -25.0561   18.8077 H   0  0  0  0  0  0
  -29.0001  -15.2138   21.3098 H   0  0  0  0  0  0
  1 25  1  0  0  0
  1 30  2  0  0  0
  1 86  1  0  0  0
  2  3  1  0  0  0
  2 25  1  0  0  0
  2 87  1  0  0  0
  2 88  1  0  0  0
  3  4  1  0  0  0
  3 89  1  0  0  0
  3 90  1  0  0  0
  4  5  1  0  0  0
  4 91  1  0  0  0
  4 92  1  0  0  0
  5  6  1  0  0  0
  5 26  1  0  0  0
  5 93  1  0  0  0
  6 25  1  0  0  0
  6 94  1  0  0  0
  6 95  1  0  0  0
  7  8  2  0  0  0
  7 26  1  0  0  0
  7 29  1  0  0  0
  8  9  1  0  0  0
  8 22  1  0  0  0
  9 10  1  0  0  0
  9 27  2  0  0  0
 10 11  2  0  0  0
 10 15  1  0  0  0
 11 12  1  0  0  0
 11 96  1  0  0  0
 12 13  2  0  0  0
 12 97  1  0  0  0
 13 14  1  0  0  0
 13 31  1  0  0  0
 14 15  2  0  0  0
 14 98  1  0  0  0
 15 99  1  0  0  0
 16 17  2  0  0  0
 16 21  1  0  0  0
 16 31  1  0  0  0
 17 18  1  0  0  0
 17100  1  0  0  0
 18 19  2  0  0  0
 18101  1  0  0  0
 19 20  1  0  0  0
 19 24  1  0  0  0
 20 21  2  0  0  0
 20102  1  0  0  0
 21 23  1  0  0  0
 22 28  1  0  0  0
 22 32  2  0  0  0
 26 27  1  0  0  0
 28103  1  0  0  0
 28104  1  0  0  0
 29105  1  0  0  0
 29106  1  0  0  0
 33 34  1  0  0  0
 33 66  1  0  0  0
 33 70  2  0  0  0
 34 36  1  0  0  0
 34 59  1  0  0  0
 34107  1  0  0  0
 35 44  2  0  0  0
 35 45  1  0  0  0
 35 68  1  0  0  0
 36 56  1  0  0  0
 36108  1  0  0  0
 37 39  1  0  0  0
 37 47  1  0  0  0
 37 66  1  0  0  0
 37109  1  0  0  0
 38 43  2  0  0  0
 38 46  1  0  0  0
 38 47  1  0  0  0
 39 64  1  0  0  0
 39 67  2  0  0  0
 40 52  1  0  0  0
 40 53  2  0  0  0
 40 58  1  0  0  0
 41110  1  0  0  0
 41111  1  0  0  0
 41112  1  0  0  0
 41 48  1  0  0  0
 42 43  1  0  0  0
 42 66  1  0  0  0
 42113  1  0  0  0
 42114  1  0  0  0
 43 44  1  0  0  0
 44115  1  0  0  0
 45 46  2  0  0  0
 45116  1  0  0  0
 46117  1  0  0  0
 47118  1  0  0  0
 47119  1  0  0  0
 48 56  1  0  0  0
 48 65  1  0  0  0
 48120  1  0  0  0
 49 50  1  0  0  0
 49 53  1  0  0  0
 49 64  1  0  0  0
 49121  1  0  0  0
 50 51  1  0  0  0
 50122  1  0  0  0
 50123  1  0  0  0
 51 52  1  0  0  0
 51124  1  0  0  0
 51125  1  0  0  0
 52126  1  0  0  0
 52127  1  0  0  0
 53 54  1  0  0  0
 54 55  2  0  0  0
 54128  1  0  0  0
 55 57  1  0  0  0
 55129  1  0  0  0
 56 69  2  0  0  0
 57 58  2  0  0  0
 57130  1  0  0  0
 58131  1  0  0  0
 59 60  1  0  0  0
 59 61  1  0  0  0
 59 62  1  0  0  0
 60132  1  0  0  0
 60133  1  0  0  0
 60134  1  0  0  0
 61135  1  0  0  0
 61136  1  0  0  0
 61137  1  0  0  0
 62138  1  0  0  0
 62139  1  0  0  0
 62140  1  0  0  0
 63 65  1  0  0  0
 63141  1  0  0  0
 63142  1  0  0  0
 63143  1  0  0  0
 64144  1  0  0  0
 65145  1  0  0  0
 68 85  1  0  0  0
 71 72  2  0  0  0
 71 74  1  0  0  0
 71146  1  0  0  0
 72 76  1  0  0  0
 72147  1  0  0  0
 73 75  1  0  0  0
 73 76  2  0  0  0
 73148  1  0  0  0
 74 75  2  0  0  0
 74 81  1  0  0  0
 75 84  1  0  0  0
 76 86  1  0  0  0
 77 79  1  0  0  0
 77 81  1  0  0  0
 77149  1  0  0  0
 77150  1  0  0  0
 78 80  1  0  0  0
 78 81  1  0  0  0
 78151  1  0  0  0
 78152  1  0  0  0
 79 82  1  0  0  0
 79153  1  0  0  0
 79154  1  0  0  0
 80 82  1  0  0  0
 80155  1  0  0  0
 80156  1  0  0  0
 81157  1  0  0  0
 82 85  1  0  0  0
 82158  1  0  0  0
 83 84  1  0  0  0
 83159  1  0  0  0
 83160  1  0  0  0
 83161  1  0  0  0
 84162  1  0  0  0
 84163  1  0  0  0
 85164  1  0  0  0
 85165  1  0  0  0
 86166  1  0  0  0
M  ISO  4   1 100  68 101  85 101  86 100
M  END
> <chiral flag>
0

> <version>
0

> <s_m_source_file>
/data/baiqing/PycharmProjects/Reinvent-master-3.2/result/LINK_invent/BTK/process_docking_weight1_custom_product_contain_oxygen_bond_distance_aromatic_linkinvent_7_9_3/rearranged_h_0132.sdf

> <i_m_source_file_index>
41

> <r_mmod_Potential_Energy-OPLS-2005>
81.0699615478516

> <r_mmod_Stretch_Energy-OPLS-2005>
52.1205444335938

> <r_mmod_Bend_Energy-OPLS-2005>
151.530303955078

> <r_mmod_Torsional_Energy-OPLS-2005>
246.365051269531

> <r_mmod_Improper_Torsional_Energy-OPLS-2005>
4.46894598007202

> <r_mmod_Van_der_Waal_Energy-OPLS-2005>
169.656372070312

> <r_mmod_Electrostatic_Energy-OPLS-2005>
-370.036071777344

> <r_mmod_Solvation_Energy-OPLS-2005>
-198.361602783203

> <b_mmod_Minimization_Converged-OPLS-2005>
0

> <r_mmod_RMS_Derivative-OPLS-2005>
1.35794007778168

$$$$
41
                    3D
 Structure written by MMmdl.
161169  0  0  1  0            999 V2000
  -30.7094  -14.4909   20.5293 C   0  0  0  0  0  0
  -30.4106  -12.2958   19.4432 C   0  0  0  0  0  0
  -29.5008  -12.5028   18.2135 C   0  0  0  0  0  0
  -28.0122  -12.4028   18.6071 C   0  0  0  0  0  0
  -27.6636  -13.2219   19.8810 C   0  0  2  0  0  0
  -28.7059  -12.9947   20.9987 C   0  0  0  0  0  0
  -25.2577  -13.8193   20.5690 C   0  0  0  0  0  0
  -24.1856  -13.0444   20.9179 C   0  0  0  0  0  0
  -24.6444  -11.6918   20.8768 C   0  0  0  0  0  0
  -23.9118  -10.4298   21.0438 C   0  0  0  0  0  0
  -24.3652   -9.4201   21.9205 C   0  0  0  0  0  0
  -23.6315   -8.2249   22.0775 C   0  0  0  0  0  0
  -22.4292   -8.0306   21.3572 C   0  0  0  0  0  0
  -21.9942   -9.0294   20.4679 C   0  0  0  0  0  0
  -22.7292  -10.2154   20.3092 C   0  0  0  0  0  0
  -21.6848   -6.0756   22.5292 C   0  0  0  0  0  0
  -21.4011   -6.5658   23.8223 C   0  0  0  0  0  0
  -21.3661   -5.6811   24.9184 C   0  0  0  0  0  0
  -21.6032   -4.3073   24.7237 C   0  0  0  0  0  0
  -21.8809   -3.8168   23.4358 C   0  0  0  0  0  0
  -21.9190   -4.6985   22.3416 C   0  0  0  0  0  0
  -22.7873  -13.5231   21.1835 C   0  0  0  0  0  0
  -22.1652   -4.2165   21.0995 F   0  0  0  0  0  0
  -21.5630   -3.4556   25.7749 F   0  0  0  0  0  0
  -30.0320  -13.3056   20.4484 N   0  0  0  0  0  0
  -26.3051  -12.9403   20.3403 N   0  0  0  0  0  0
  -25.9381  -11.6546   20.5816 N   0  0  0  0  0  0
  -22.0514  -12.8242   22.0393 N   0  0  0  0  0  0
  -25.4223  -15.1927   20.4122 N   0  0  0  0  0  0
  -31.8561  -14.5917   20.0856 O   0  0  0  0  0  0
  -21.6644   -6.8910   21.4263 O   0  0  0  0  0  0
  -22.3564  -14.5550   20.6689 O   0  0  0  0  0  0
  -24.6116  -31.8691   23.2130 C   0  0  0  0  0  0
  -25.9024  -32.4830   23.8430 C   0  0  1  0  0  0
  -27.2493  -27.4485   20.1226 C   0  0  0  0  0  0
  -25.5855  -33.8636   24.2333 N   0  0  0  0  0  0
  -23.4006  -30.4880   21.5515 C   0  0  2  0  0  0
  -24.8533  -28.9536   20.1219 C   0  0  0  0  0  0
  -22.7400  -29.4631   22.5005 C   0  0  0  0  0  0
  -18.0257  -28.1376   22.8486 C   0  0  0  0  0  0
  -24.1453  -36.7395   23.2678 C   0  0  0  0  0  0
  -25.9258  -30.8400   21.3658 C   0  0  0  0  0  0
  -26.0083  -29.4730   20.7216 C   0  0  0  0  0  0
  -27.2082  -28.7299   20.7194 C   0  0  0  0  0  0
  -26.0875  -26.9459   19.5044 C   0  0  0  0  0  0
  -24.8893  -27.6866   19.5086 C   0  0  0  0  0  0
  -23.6122  -29.8168   20.1674 C   0  0  0  0  0  0
  -25.4084  -36.3132   24.0334 C   0  0  1  0  0  0
  -20.5832  -28.3647   23.1328 C   0  0  2  0  0  0
  -20.6732  -26.9382   22.5435 C   0  0  0  0  0  0
  -19.5717  -26.6365   21.5230 C   0  0  0  0  0  0
  -18.1891  -26.7920   22.1625 C   0  0  0  0  0  0
  -19.1507  -28.8842   23.2889 C   0  0  0  0  0  0
  -18.9452  -30.1448   23.8896 C   0  0  0  0  0  0
  -17.6454  -30.6578   24.0572 C   0  0  0  0  0  0
  -25.8999  -34.9483   23.5116 C   0  0  0  0  0  0
  -16.5337  -29.9081   23.6349 C   0  0  0  0  0  0
  -16.7250  -28.6502   23.0363 C   0  0  0  0  0  0
  -26.4500  -31.6604   25.0756 C   0  0  0  0  0  0
  -25.3770  -31.3604   26.1472 C   0  0  0  0  0  0
  -27.0469  -30.3097   24.6129 C   0  0  0  0  0  0
  -27.6013  -32.4367   25.7573 C   0  0  0  0  0  0
  -27.5559  -37.1803   24.8447 C   0  0  0  0  0  0
  -21.4128  -29.3003   22.3745 N   0  0  0  0  0  0
  -26.4279  -37.3805   23.9385 N   0  0  0  0  0  0
  -24.6625  -31.0814   22.1016 N   0  0  0  0  0  0
  -23.4192  -28.8198   23.3062 O   0  0  0  0  0  0
  -28.4008  -26.6959   20.0493 O   0  0  0  0  0  0
  -26.5577  -34.8907   22.4679 O   0  0  0  0  0  0
  -23.5330  -32.1420   23.7552 O   0  0  0  0  0  0
  -30.4839  -19.3506   20.3505 C   0  0  0  0  0  0
  -30.1507  -20.6972   20.6001 C   0  0  0  0  0  0
  -28.6432  -19.9790   22.3463 C   0  0  0  0  0  0
  -29.9368  -18.2839   21.1040 C   0  0  0  0  0  0
  -29.2321  -21.0341   21.6138 C   0  0  0  0  0  0
  -28.9734  -18.6186   22.0997 C   0  0  0  0  0  0
  -30.4440  -16.9203   20.7541 C   0  0  0  0  0  0
  -29.9647  -15.6704   21.0046 C   0  0  0  0  0  0
  -28.2925  -17.5605   22.9511 C   0  0  0  0  0  0
  -29.8879  -27.0920   21.9358 C   0  0  0  0  0  0
  -28.9442  -22.5042   21.9749 C   0  0  0  0  0  0
  -28.7812  -23.5003   20.7831 C   0  0  0  0  0  0
  -29.6382  -24.7942   20.8764 C   0  0  0  0  0  0
  -28.9065  -26.1120   21.2597 C   0  0  2  0  0  0
  -31.4624  -12.3458   19.1571 H   0  0  0  0  0  0
  -30.2665  -11.2916   19.8464 H   0  0  0  0  0  0
  -29.7304  -11.7671   17.4421 H   0  0  0  0  0  0
  -29.7001  -13.4798   17.7711 H   0  0  0  0  0  0
  -27.7764  -11.3492   18.7654 H   0  0  0  0  0  0
  -27.3858  -12.7304   17.7774 H   0  0  0  0  0  0
  -27.7080  -14.2754   19.6044 H   0  0  0  0  0  0
  -28.6817  -11.9520   21.3199 H   0  0  0  0  0  0
  -28.4749  -13.5672   21.8957 H   0  0  0  0  0  0
  -25.2798   -9.5640   22.4779 H   0  0  0  0  0  0
  -23.9997   -7.4637   22.7498 H   0  0  0  0  0  0
  -21.0857   -8.8864   19.9006 H   0  0  0  0  0  0
  -22.3784  -10.9715   19.6214 H   0  0  0  0  0  0
  -21.1999   -7.6166   23.9729 H   0  0  0  0  0  0
  -21.1484   -6.0546   25.9082 H   0  0  0  0  0  0
  -22.0583   -2.7631   23.2865 H   0  0  0  0  0  0
  -22.4132  -11.9885   22.4751 H   0  0  0  0  0  0
  -21.1167  -13.1337   22.2669 H   0  0  0  0  0  0
  -24.6462  -15.8357   20.5225 H   0  0  0  0  0  0
  -26.2705  -15.6452   20.0948 H   0  0  0  0  0  0
  -26.7114  -32.5598   23.1220 H   0  0  0  0  0  0
  -24.9939  -33.9803   25.0424 H   0  0  0  0  0  0
  -22.6884  -31.3016   21.4102 H   0  0  0  0  0  0
  -23.3663  -35.9789   23.3360 H   0  0  0  0  0  0
  -24.3518  -36.9035   22.2088 H   0  0  0  0  0  0
  -23.7258  -37.6621   23.6706 H   0  0  0  0  0  0
  -26.0372  -31.6048   20.5971 H   0  0  0  0  0  0
  -26.8123  -30.8977   21.9839 H   0  0  0  0  0  0
  -28.1017  -29.1571   21.1486 H   0  0  0  0  0  0
  -26.1145  -25.9808   19.0175 H   0  0  0  0  0  0
  -24.0067  -27.2808   19.0333 H   0  0  0  0  0  0
  -23.7201  -30.5915   19.4071 H   0  0  0  0  0  0
  -22.7369  -29.2365   19.8700 H   0  0  0  0  0  0
  -25.1263  -36.1999   25.0828 H   0  0  0  0  0  0
  -20.9926  -28.3205   24.1445 H   0  0  0  0  0  0
  -20.5648  -26.2242   23.3611 H   0  0  0  0  0  0
  -21.6598  -26.7407   22.1221 H   0  0  0  0  0  0
  -19.6871  -25.6283   21.1240 H   0  0  0  0  0  0
  -19.6663  -27.3194   20.6781 H   0  0  0  0  0  0
  -17.4158  -26.6701   21.4017 H   0  0  0  0  0  0
  -18.0259  -26.0050   22.9008 H   0  0  0  0  0  0
  -19.7944  -30.7268   24.2231 H   0  0  0  0  0  0
  -17.5024  -31.6255   24.5183 H   0  0  0  0  0  0
  -15.5348  -30.2980   23.7707 H   0  0  0  0  0  0
  -15.8644  -28.0843   22.7063 H   0  0  0  0  0  0
  -24.5841  -30.7141   25.7702 H   0  0  0  0  0  0
  -24.9099  -32.2736   26.5162 H   0  0  0  0  0  0
  -25.8114  -30.8484   27.0079 H   0  0  0  0  0  0
  -26.3022  -29.6661   24.1434 H   0  0  0  0  0  0
  -27.4538  -29.7524   25.4583 H   0  0  0  0  0  0
  -27.8711  -30.4511   23.9138 H   0  0  0  0  0  0
  -27.2571  -33.3624   26.2183 H   0  0  0  0  0  0
  -28.3845  -32.6989   25.0438 H   0  0  0  0  0  0
  -28.0669  -31.8481   26.5488 H   0  0  0  0  0  0
  -28.2582  -38.0098   24.7498 H   0  0  0  0  0  0
  -28.1020  -36.2619   24.6250 H   0  0  0  0  0  0
  -27.2255  -37.1457   25.8845 H   0  0  0  0  0  0
  -20.9317  -29.8692   21.6911 H   0  0  0  0  0  0
  -26.0190  -38.2905   24.1347 H   0  0  0  0  0  0
  -31.1956  -19.1439   19.5644 H   0  0  0  0  0  0
  -30.6330  -21.4700   20.0159 H   0  0  0  0  0  0
  -27.9437  -20.2178   23.1349 H   0  0  0  0  0  0
  -31.3770  -16.9682   20.2075 H   0  0  0  0  0  0
  -29.0415  -15.5498   21.5328 H   0  0  0  0  0  0
  -27.7028  -18.0051   23.7494 H   0  0  0  0  0  0
  -29.0271  -16.9050   23.4199 H   0  0  0  0  0  0
  -27.6075  -16.9693   22.3424 H   0  0  0  0  0  0
  -29.3804  -27.9485   22.3721 H   0  0  0  0  0  0
  -30.6322  -27.4598   21.2281 H   0  0  0  0  0  0
  -30.4212  -26.6127   22.7572 H   0  0  0  0  0  0
  -29.7576  -22.8220   22.6268 H   0  0  0  0  0  0
  -28.0536  -22.5618   22.6053 H   0  0  0  0  0  0
  -27.7301  -23.7467   20.6373 H   0  0  0  0  0  0
  -29.0612  -22.9999   19.8564 H   0  0  0  0  0  0
  -30.1208  -24.9605   19.9121 H   0  0  0  0  0  0
  -30.4724  -24.6156   21.5553 H   0  0  0  0  0  0
  -28.0996  -25.8882   21.9596 H   0  0  0  0  0  0
  1 25  1  0  0  0
  1 30  2  0  0  0
  1 78  1  0  0  0
  2  3  1  0  0  0
  2 25  1  0  0  0
  2 85  1  0  0  0
  2 86  1  0  0  0
  3  4  1  0  0  0
  3 87  1  0  0  0
  3 88  1  0  0  0
  4  5  1  0  0  0
  4 89  1  0  0  0
  4 90  1  0  0  0
  5  6  1  0  0  0
  5 26  1  0  0  0
  5 91  1  0  0  0
  6 25  1  0  0  0
  6 92  1  0  0  0
  6 93  1  0  0  0
  7  8  2  0  0  0
  7 26  1  0  0  0
  7 29  1  0  0  0
  8  9  1  0  0  0
  8 22  1  0  0  0
  9 10  1  0  0  0
  9 27  2  0  0  0
 10 11  2  0  0  0
 10 15  1  0  0  0
 11 12  1  0  0  0
 11 94  1  0  0  0
 12 13  2  0  0  0
 12 95  1  0  0  0
 13 14  1  0  0  0
 13 31  1  0  0  0
 14 15  2  0  0  0
 14 96  1  0  0  0
 15 97  1  0  0  0
 16 17  2  0  0  0
 16 21  1  0  0  0
 16 31  1  0  0  0
 17 18  1  0  0  0
 17 98  1  0  0  0
 18 19  2  0  0  0
 18 99  1  0  0  0
 19 20  1  0  0  0
 19 24  1  0  0  0
 20 21  2  0  0  0
 20100  1  0  0  0
 21 23  1  0  0  0
 22 28  1  0  0  0
 22 32  2  0  0  0
 26 27  1  0  0  0
 28101  1  0  0  0
 28102  1  0  0  0
 29103  1  0  0  0
 29104  1  0  0  0
 33 34  1  0  0  0
 33 66  1  0  0  0
 33 70  2  0  0  0
 34 36  1  0  0  0
 34 59  1  0  0  0
 34105  1  0  0  0
 35 44  2  0  0  0
 35 45  1  0  0  0
 35 68  1  0  0  0
 36 56  1  0  0  0
 36106  1  0  0  0
 37 39  1  0  0  0
 37 47  1  0  0  0
 37 66  1  0  0  0
 37107  1  0  0  0
 38 43  2  0  0  0
 38 46  1  0  0  0
 38 47  1  0  0  0
 39 64  1  0  0  0
 39 67  2  0  0  0
 40 52  1  0  0  0
 40 53  2  0  0  0
 40 58  1  0  0  0
 41108  1  0  0  0
 41109  1  0  0  0
 41110  1  0  0  0
 41 48  1  0  0  0
 42 43  1  0  0  0
 42 66  1  0  0  0
 42111  1  0  0  0
 42112  1  0  0  0
 43 44  1  0  0  0
 44113  1  0  0  0
 45 46  2  0  0  0
 45114  1  0  0  0
 46115  1  0  0  0
 47116  1  0  0  0
 47117  1  0  0  0
 48 56  1  0  0  0
 48 65  1  0  0  0
 48118  1  0  0  0
 49 50  1  0  0  0
 49 53  1  0  0  0
 49 64  1  0  0  0
 49119  1  0  0  0
 50 51  1  0  0  0
 50120  1  0  0  0
 50121  1  0  0  0
 51 52  1  0  0  0
 51122  1  0  0  0
 51123  1  0  0  0
 52124  1  0  0  0
 52125  1  0  0  0
 53 54  1  0  0  0
 54 55  2  0  0  0
 54126  1  0  0  0
 55 57  1  0  0  0
 55127  1  0  0  0
 56 69  2  0  0  0
 57 58  2  0  0  0
 57128  1  0  0  0
 58129  1  0  0  0
 59 60  1  0  0  0
 59 61  1  0  0  0
 59 62  1  0  0  0
 60130  1  0  0  0
 60131  1  0  0  0
 60132  1  0  0  0
 61133  1  0  0  0
 61134  1  0  0  0
 61135  1  0  0  0
 62136  1  0  0  0
 62137  1  0  0  0
 62138  1  0  0  0
 63 65  1  0  0  0
 63139  1  0  0  0
 63140  1  0  0  0
 63141  1  0  0  0
 64142  1  0  0  0
 65143  1  0  0  0
 68 84  1  0  0  0
 71 72  2  0  0  0
 71 74  1  0  0  0
 71144  1  0  0  0
 72 75  1  0  0  0
 72145  1  0  0  0
 73 75  2  0  0  0
 73 76  1  0  0  0
 73146  1  0  0  0
 74 76  2  0  0  0
 74 77  1  0  0  0
 75 81  1  0  0  0
 76 79  1  0  0  0
 77 78  2  0  0  0
 77147  1  0  0  0
 78148  1  0  0  0
 79149  1  0  0  0
 79150  1  0  0  0
 79151  1  0  0  0
 80152  1  0  0  0
 80153  1  0  0  0
 80154  1  0  0  0
 80 84  1  0  0  0
 81 82  1  0  0  0
 81155  1  0  0  0
 81156  1  0  0  0
 82 83  1  0  0  0
 82157  1  0  0  0
 82158  1  0  0  0
 83 84  1  0  0  0
 83159  1  0  0  0
 83160  1  0  0  0
 84161  1  0  0  0
M  ISO  4   1 100  68 101  78 100  84 101
M  END
> <chiral flag>
0

> <version>
0

> <s_m_source_file>
/data/baiqing/PycharmProjects/Reinvent-master-3.2/result/LINK_invent/BTK/process_docking_weight1_custom_product_contain_oxygen_bond_distance_aromatic_linkinvent_7_9_3/rearranged_h_0132.sdf

> <i_m_source_file_index>
42

> <r_mmod_Potential_Energy-OPLS-2005>
18.8227577209473

> <r_mmod_Stretch_Energy-OPLS-2005>
43.5280838012695

> <r_mmod_Bend_Energy-OPLS-2005>
117.102424621582

> <r_mmod_Torsional_Energy-OPLS-2005>
226.52507019043

> <r_mmod_Improper_Torsional_Energy-OPLS-2005>
3.91375517845154

> <r_mmod_Van_der_Waal_Energy-OPLS-2005>
158.394744873047

> <r_mmod_Electrostatic_Energy-OPLS-2005>
-358.710693359375

> <r_mmod_Solvation_Energy-OPLS-2005>
-184.961212158203

> <b_mmod_Minimization_Converged-OPLS-2005>
0

> <r_mmod_RMS_Derivative-OPLS-2005>
3.49391222000122

$$$$
42
                    3D
 Structure written by MMmdl.
163171  0  0  1  0            999 V2000
  -30.6636  -14.5075   20.5407 C   0  0  0  0  0  0
  -30.4388  -12.3273   19.3942 C   0  0  0  0  0  0
  -29.4903  -12.4606   18.1853 C   0  0  0  0  0  0
  -28.0146  -12.3098   18.6153 C   0  0  0  0  0  0
  -27.6474  -13.1875   19.8384 C   0  0  2  0  0  0
  -28.6884  -12.9441   20.9445 C   0  0  0  0  0  0
  -25.2548  -13.8157   20.5581 C   0  0  0  0  0  0
  -24.1708  -13.0484   20.9086 C   0  0  0  0  0  0
  -24.6181  -11.6940   20.8562 C   0  0  0  0  0  0
  -23.8852  -10.4336   21.0287 C   0  0  0  0  0  0
  -24.3486   -9.4302   21.9061 C   0  0  0  0  0  0
  -23.6221   -8.2304   22.0670 C   0  0  0  0  0  0
  -22.4213   -8.0254   21.3484 C   0  0  0  0  0  0
  -21.9789   -9.0191   20.4595 C   0  0  0  0  0  0
  -22.7033  -10.2108   20.2965 C   0  0  0  0  0  0
  -21.6845   -6.0680   22.5251 C   0  0  0  0  0  0
  -21.4003   -6.5575   23.8187 C   0  0  0  0  0  0
  -21.3684   -5.6739   24.9153 C   0  0  0  0  0  0
  -21.6071   -4.3007   24.7215 C   0  0  0  0  0  0
  -21.8812   -3.8079   23.4333 C   0  0  0  0  0  0
  -21.9196   -4.6898   22.3384 C   0  0  0  0  0  0
  -22.7783  -13.5363   21.1861 C   0  0  0  0  0  0
  -22.1668   -4.2069   21.0970 F   0  0  0  0  0  0
  -21.5681   -3.4516   25.7751 F   0  0  0  0  0  0
  -30.0221  -13.3063   20.4151 N   0  0  0  0  0  0
  -26.2862  -12.9224   20.3115 N   0  0  0  0  0  0
  -25.9067  -11.6422   20.5497 N   0  0  0  0  0  0
  -22.0417  -12.8321   22.0431 N   0  0  0  0  0  0
  -25.4608  -15.1819   20.4070 N   0  0  0  0  0  0
  -31.8042  -14.6827   20.1056 O   0  0  0  0  0  0
  -21.6600   -6.8835   21.4213 O   0  0  0  0  0  0
  -22.3503  -14.5693   20.6788 O   0  0  0  0  0  0
  -24.6131  -31.8702   23.2088 C   0  0  0  0  0  0
  -25.9048  -32.4843   23.8359 C   0  0  1  0  0  0
  -27.2521  -27.4514   20.0998 C   0  0  0  0  0  0
  -25.5910  -33.8622   24.2329 N   0  0  0  0  0  0
  -23.4025  -30.4920   21.5490 C   0  0  2  0  0  0
  -24.8472  -28.9506   20.1295 C   0  0  0  0  0  0
  -22.7471  -29.4691   22.5036 C   0  0  0  0  0  0
  -18.0302  -28.1454   22.8501 C   0  0  0  0  0  0
  -24.1463  -36.7281   23.2636 C   0  0  0  0  0  0
  -25.9224  -30.8490   21.3491 C   0  0  0  0  0  0
  -26.0051  -29.4788   20.7102 C   0  0  0  0  0  0
  -27.2050  -28.7381   20.6885 C   0  0  0  0  0  0
  -26.0646  -26.9346   19.5211 C   0  0  0  0  0  0
  -24.8687  -27.6783   19.5382 C   0  0  0  0  0  0
  -23.6106  -29.8127   20.1681 C   0  0  0  0  0  0
  -25.4087  -36.3126   24.0355 C   0  0  1  0  0  0
  -20.5885  -28.3736   23.1352 C   0  0  2  0  0  0
  -20.6764  -26.9461   22.5470 C   0  0  0  0  0  0
  -19.5731  -26.6441   21.5255 C   0  0  0  0  0  0
  -18.1917  -26.8016   22.1643 C   0  0  0  0  0  0
  -19.1543  -28.8914   23.2918 C   0  0  0  0  0  0
  -18.9453  -30.1509   23.8942 C   0  0  0  0  0  0
  -17.6448  -30.6626   24.0603 C   0  0  0  0  0  0
  -25.9024  -34.9482   23.5136 C   0  0  0  0  0  0
  -16.5347  -29.9137   23.6340 C   0  0  0  0  0  0
  -16.7296  -28.6568   23.0356 C   0  0  0  0  0  0
  -26.4468  -31.6611   25.0674 C   0  0  0  0  0  0
  -25.3695  -31.3707   26.1398 C   0  0  0  0  0  0
  -27.0278  -30.3061   24.6019 C   0  0  0  0  0  0
  -27.6093  -32.4259   25.7442 C   0  0  0  0  0  0
  -27.5576  -37.1810   24.8488 C   0  0  0  0  0  0
  -21.4208  -29.3072   22.3766 N   0  0  0  0  0  0
  -26.4282  -37.3813   23.9416 N   0  0  0  0  0  0
  -24.6650  -31.0823   22.0979 N   0  0  0  0  0  0
  -23.4278  -28.8312   23.3109 O   0  0  0  0  0  0
  -28.4720  -26.8044   20.0779 O   0  0  0  0  0  0
  -26.5591  -34.8956   22.4702 O   0  0  0  0  0  0
  -23.5335  -32.1412   23.7524 O   0  0  0  0  0  0
  -31.5162  -19.1246   18.2475 C   0  0  0  0  0  0
  -31.4219  -20.3794   18.8763 C   0  0  0  0  0  0
  -30.3452  -19.2943   20.7547 C   0  0  0  0  0  0
  -30.4301  -18.0062   20.1507 C   0  0  0  0  0  0
  -31.0139  -17.9426   18.8470 C   0  0  0  0  0  0
  -30.8066  -20.4792   20.1332 C   0  0  0  0  0  0
  -29.8474  -16.9145   21.0024 C   0  0  0  0  0  0
  -29.8795  -15.5655   21.1826 C   0  0  0  0  0  0
  -28.9667  -24.8039   21.3734 C   0  0  0  0  0  0
  -29.3971  -23.5471   21.6417 C   0  0  0  0  0  0
  -31.0753  -16.6927   17.9911 C   0  0  0  0  0  0
  -28.9430  -22.0235   23.6674 C   0  0  0  0  0  0
  -28.5621  -25.3742   20.0250 C   0  0  0  0  0  0
  -29.7929  -23.1581   23.0684 C   0  0  0  0  0  0
  -29.5334  -22.4432   20.5863 C   0  0  0  0  0  0
  -30.7372  -21.6963   20.7783 O   0  0  0  0  0  0
  -31.4680  -12.4699   19.0648 H   0  0  0  0  0  0
  -30.3984  -11.3163   19.7993 H   0  0  0  0  0  0
  -29.7519  -11.7077   17.4386 H   0  0  0  0  0  0
  -29.6327  -13.4295   17.7104 H   0  0  0  0  0  0
  -27.8582  -11.2643   18.8771 H   0  0  0  0  0  0
  -27.3435  -12.5090   17.7829 H   0  0  0  0  0  0
  -27.6979  -14.2271   19.5133 H   0  0  0  0  0  0
  -28.6858  -11.8840   21.2070 H   0  0  0  0  0  0
  -28.3911  -13.4427   21.8613 H   0  0  0  0  0  0
  -25.2667   -9.5855   22.4554 H   0  0  0  0  0  0
  -24.0000   -7.4714   22.7350 H   0  0  0  0  0  0
  -21.0759   -8.8647   19.8879 H   0  0  0  0  0  0
  -22.3460  -10.9594   19.6040 H   0  0  0  0  0  0
  -21.1951   -7.6072   23.9682 H   0  0  0  0  0  0
  -21.1542   -6.0453   25.9065 H   0  0  0  0  0  0
  -22.0564   -2.7531   23.2843 H   0  0  0  0  0  0
  -22.4156  -12.0081   22.4915 H   0  0  0  0  0  0
  -21.0974  -13.1198   22.2626 H   0  0  0  0  0  0
  -24.7384  -15.8855   20.5145 H   0  0  0  0  0  0
  -26.3625  -15.5682   20.1491 H   0  0  0  0  0  0
  -26.7169  -32.5604   23.1171 H   0  0  0  0  0  0
  -25.0034  -33.9713   25.0468 H   0  0  0  0  0  0
  -22.6923  -31.3075   21.4017 H   0  0  0  0  0  0
  -23.3752  -35.9595   23.3331 H   0  0  0  0  0  0
  -24.3553  -36.8852   22.2043 H   0  0  0  0  0  0
  -23.7153  -37.6484   23.6608 H   0  0  0  0  0  0
  -26.0103  -31.6079   20.5723 H   0  0  0  0  0  0
  -26.8188  -30.9244   21.9541 H   0  0  0  0  0  0
  -28.1041  -29.1564   21.1230 H   0  0  0  0  0  0
  -26.0362  -25.9737   19.0312 H   0  0  0  0  0  0
  -23.9705  -27.2681   19.0988 H   0  0  0  0  0  0
  -23.7179  -30.5694   19.3894 H   0  0  0  0  0  0
  -22.7406  -29.2236   19.8783 H   0  0  0  0  0  0
  -25.1244  -36.2036   25.0855 H   0  0  0  0  0  0
  -20.9922  -28.3294   24.1486 H   0  0  0  0  0  0
  -20.5671  -26.2341   23.3674 H   0  0  0  0  0  0
  -21.6643  -26.7490   22.1250 H   0  0  0  0  0  0
  -19.6848  -25.6352   21.1276 H   0  0  0  0  0  0
  -19.6680  -27.3257   20.6785 H   0  0  0  0  0  0
  -17.4220  -26.6845   21.4025 H   0  0  0  0  0  0
  -18.0269  -26.0144   22.9006 H   0  0  0  0  0  0
  -19.7903  -30.7329   24.2361 H   0  0  0  0  0  0
  -17.4987  -31.6299   24.5221 H   0  0  0  0  0  0
  -15.5353  -30.3059   23.7600 H   0  0  0  0  0  0
  -15.8705  -28.0884   22.7051 H   0  0  0  0  0  0
  -24.5994  -30.6916   25.7720 H   0  0  0  0  0  0
  -24.8680  -32.2817   26.4689 H   0  0  0  0  0  0
  -25.7992  -30.9032   27.0254 H   0  0  0  0  0  0
  -26.2822  -29.6899   24.0981 H   0  0  0  0  0  0
  -27.3996  -29.7274   25.4494 H   0  0  0  0  0  0
  -27.8696  -30.4416   23.9199 H   0  0  0  0  0  0
  -27.2855  -33.3652   26.1943 H   0  0  0  0  0  0
  -28.3964  -32.6638   25.0262 H   0  0  0  0  0  0
  -28.0670  -31.8350   26.5397 H   0  0  0  0  0  0
  -28.2658  -38.0054   24.7556 H   0  0  0  0  0  0
  -28.1023  -36.2617   24.6325 H   0  0  0  0  0  0
  -27.2323  -37.1487   25.8900 H   0  0  0  0  0  0
  -20.9502  -29.8758   21.6882 H   0  0  0  0  0  0
  -26.0214  -38.2914   24.1417 H   0  0  0  0  0  0
  -31.9675  -19.0785   17.2676 H   0  0  0  0  0  0
  -31.8236  -21.2545   18.3832 H   0  0  0  0  0  0
  -29.8996  -19.3946   21.7335 H   0  0  0  0  0  0
  -29.1526  -17.3459   21.7100 H   0  0  0  0  0  0
  -29.2254  -15.2567   21.9772 H   0  0  0  0  0  0
  -28.8884  -25.5087   22.1878 H   0  0  0  0  0  0
  -32.0620  -16.2318   18.0520 H   0  0  0  0  0  0
  -30.9066  -16.9461   16.9414 H   0  0  0  0  0  0
  -30.3082  -15.9736   18.2690 H   0  0  0  0  0  0
  -28.9996  -22.0212   24.7590 H   0  0  0  0  0  0
  -29.2990  -21.0482   23.3320 H   0  0  0  0  0  0
  -27.8908  -22.1164   23.3895 H   0  0  0  0  0  0
  -27.6536  -24.8808   19.7018 H   0  0  0  0  0  0
  -29.3386  -25.1196   19.3026 H   0  0  0  0  0  0
  -29.7347  -24.0343   23.7161 H   0  0  0  0  0  0
  -30.8433  -22.8646   23.0714 H   0  0  0  0  0  0
  -29.4994  -22.8539   19.5762 H   0  0  0  0  0  0
  -28.6626  -21.7922   20.6677 H   0  0  0  0  0  0
  1 25  1  0  0  0
  1 30  2  0  0  0
  1 78  1  0  0  0
  2  3  1  0  0  0
  2 25  1  0  0  0
  2 87  1  0  0  0
  2 88  1  0  0  0
  3  4  1  0  0  0
  3 89  1  0  0  0
  3 90  1  0  0  0
  4  5  1  0  0  0
  4 91  1  0  0  0
  4 92  1  0  0  0
  5  6  1  0  0  0
  5 26  1  0  0  0
  5 93  1  0  0  0
  6 25  1  0  0  0
  6 94  1  0  0  0
  6 95  1  0  0  0
  7  8  2  0  0  0
  7 26  1  0  0  0
  7 29  1  0  0  0
  8  9  1  0  0  0
  8 22  1  0  0  0
  9 10  1  0  0  0
  9 27  2  0  0  0
 10 11  2  0  0  0
 10 15  1  0  0  0
 11 12  1  0  0  0
 11 96  1  0  0  0
 12 13  2  0  0  0
 12 97  1  0  0  0
 13 14  1  0  0  0
 13 31  1  0  0  0
 14 15  2  0  0  0
 14 98  1  0  0  0
 15 99  1  0  0  0
 16 17  2  0  0  0
 16 21  1  0  0  0
 16 31  1  0  0  0
 17 18  1  0  0  0
 17100  1  0  0  0
 18 19  2  0  0  0
 18101  1  0  0  0
 19 20  1  0  0  0
 19 24  1  0  0  0
 20 21  2  0  0  0
 20102  1  0  0  0
 21 23  1  0  0  0
 22 28  1  0  0  0
 22 32  2  0  0  0
 26 27  1  0  0  0
 28103  1  0  0  0
 28104  1  0  0  0
 29105  1  0  0  0
 29106  1  0  0  0
 33 34  1  0  0  0
 33 66  1  0  0  0
 33 70  2  0  0  0
 34 36  1  0  0  0
 34 59  1  0  0  0
 34107  1  0  0  0
 35 44  2  0  0  0
 35 45  1  0  0  0
 35 68  1  0  0  0
 36 56  1  0  0  0
 36108  1  0  0  0
 37 39  1  0  0  0
 37 47  1  0  0  0
 37 66  1  0  0  0
 37109  1  0  0  0
 38 43  2  0  0  0
 38 46  1  0  0  0
 38 47  1  0  0  0
 39 64  1  0  0  0
 39 67  2  0  0  0
 40 52  1  0  0  0
 40 53  2  0  0  0
 40 58  1  0  0  0
 41110  1  0  0  0
 41111  1  0  0  0
 41112  1  0  0  0
 41 48  1  0  0  0
 42 43  1  0  0  0
 42 66  1  0  0  0
 42113  1  0  0  0
 42114  1  0  0  0
 43 44  1  0  0  0
 44115  1  0  0  0
 45 46  2  0  0  0
 45116  1  0  0  0
 46117  1  0  0  0
 47118  1  0  0  0
 47119  1  0  0  0
 48 56  1  0  0  0
 48 65  1  0  0  0
 48120  1  0  0  0
 49 50  1  0  0  0
 49 53  1  0  0  0
 49 64  1  0  0  0
 49121  1  0  0  0
 50 51  1  0  0  0
 50122  1  0  0  0
 50123  1  0  0  0
 51 52  1  0  0  0
 51124  1  0  0  0
 51125  1  0  0  0
 52126  1  0  0  0
 52127  1  0  0  0
 53 54  1  0  0  0
 54 55  2  0  0  0
 54128  1  0  0  0
 55 57  1  0  0  0
 55129  1  0  0  0
 56 69  2  0  0  0
 57 58  2  0  0  0
 57130  1  0  0  0
 58131  1  0  0  0
 59 60  1  0  0  0
 59 61  1  0  0  0
 59 62  1  0  0  0
 60132  1  0  0  0
 60133  1  0  0  0
 60134  1  0  0  0
 61135  1  0  0  0
 61136  1  0  0  0
 61137  1  0  0  0
 62138  1  0  0  0
 62139  1  0  0  0
 62140  1  0  0  0
 63 65  1  0  0  0
 63141  1  0  0  0
 63142  1  0  0  0
 63143  1  0  0  0
 64144  1  0  0  0
 65145  1  0  0  0
 68 83  1  0  0  0
 71 72  2  0  0  0
 71 75  1  0  0  0
 71146  1  0  0  0
 72 76  1  0  0  0
 72147  1  0  0  0
 73 74  1  0  0  0
 73 76  2  0  0  0
 73148  1  0  0  0
 74 75  2  0  0  0
 74 77  1  0  0  0
 75 81  1  0  0  0
 76 86  1  0  0  0
 77 78  2  0  0  0
 77149  1  0  0  0
 78150  1  0  0  0
 79 80  2  0  0  0
 79 83  1  0  0  0
 79151  1  0  0  0
 80 84  1  0  0  0
 80 85  1  0  0  0
 81152  1  0  0  0
 81153  1  0  0  0
 81154  1  0  0  0
 82 84  1  0  0  0
 82155  1  0  0  0
 82156  1  0  0  0
 82157  1  0  0  0
 83158  1  0  0  0
 83159  1  0  0  0
 84160  1  0  0  0
 84161  1  0  0  0
 85 86  1  0  0  0
 85162  1  0  0  0
 85163  1  0  0  0
M  ISO  4   1 100  68 101  78 100  83 101
M  END
> <chiral flag>
0

> <version>
0

> <s_m_source_file>
/data/baiqing/PycharmProjects/Reinvent-master-3.2/result/LINK_invent/BTK/process_docking_weight1_custom_product_contain_oxygen_bond_distance_aromatic_linkinvent_7_9_3/rearranged_h_0132.sdf

> <i_m_source_file_index>
43

> <r_mmod_Potential_Energy-OPLS-2005>
93.2039031982422

> <r_mmod_Stretch_Energy-OPLS-2005>
43.3482437133789

> <r_mmod_Bend_Energy-OPLS-2005>
176.777969360352

> <r_mmod_Torsional_Energy-OPLS-2005>
221.385437011719

> <r_mmod_Improper_Torsional_Energy-OPLS-2005>
2.55296659469604

> <r_mmod_Van_der_Waal_Energy-OPLS-2005>
155.805801391602

> <r_mmod_Electrostatic_Energy-OPLS-2005>
-329.564086914062

> <r_mmod_Solvation_Energy-OPLS-2005>
-195.106460571289

> <b_mmod_Minimization_Converged-OPLS-2005>
0

> <r_mmod_RMS_Derivative-OPLS-2005>
7.521728515625

$$$$
43
                    3D
 Structure written by MMmdl.
164172  0  0  1  0            999 V2000
  -30.7091  -14.5067   20.5101 C   0  0  0  0  0  0
  -30.4125  -12.3090   19.4459 C   0  0  0  0  0  0
  -29.4972  -12.4856   18.2169 C   0  0  0  0  0  0
  -28.0173  -12.3476   18.6230 C   0  0  0  0  0  0
  -27.6509  -13.2126   19.8580 C   0  0  2  0  0  0
  -28.6915  -13.0535   20.9887 C   0  0  0  0  0  0
  -25.2554  -13.8174   20.5682 C   0  0  0  0  0  0
  -24.1821  -13.0443   20.9189 C   0  0  0  0  0  0
  -24.6385  -11.6915   20.8741 C   0  0  0  0  0  0
  -23.9059  -10.4298   21.0409 C   0  0  0  0  0  0
  -24.3611   -9.4212   21.9184 C   0  0  0  0  0  0
  -23.6290   -8.2248   22.0757 C   0  0  0  0  0  0
  -22.4273   -8.0282   21.3547 C   0  0  0  0  0  0
  -21.9909   -9.0255   20.4645 C   0  0  0  0  0  0
  -22.7234  -10.2135   20.3057 C   0  0  0  0  0  0
  -21.6858   -6.0731   22.5279 C   0  0  0  0  0  0
  -21.4016   -6.5635   23.8209 C   0  0  0  0  0  0
  -21.3660   -5.6791   24.9171 C   0  0  0  0  0  0
  -21.6048   -4.3054   24.7226 C   0  0  0  0  0  0
  -21.8822   -3.8142   23.4347 C   0  0  0  0  0  0
  -21.9197   -4.6959   22.3401 C   0  0  0  0  0  0
  -22.7841  -13.5229   21.1856 C   0  0  0  0  0  0
  -22.1664   -4.2141   21.0982 F   0  0  0  0  0  0
  -21.5629   -3.4540   25.7739 F   0  0  0  0  0  0
  -30.0218  -13.3324   20.4315 N   0  0  0  0  0  0
  -26.2971  -12.9351   20.3291 N   0  0  0  0  0  0
  -25.9311  -11.6511   20.5749 N   0  0  0  0  0  0
  -22.0480  -12.8223   22.0405 N   0  0  0  0  0  0
  -25.4302  -15.1890   20.4089 N   0  0  0  0  0  0
  -31.8911  -14.5713   20.1600 O   0  0  0  0  0  0
  -21.6644   -6.8875   21.4242 O   0  0  0  0  0  0
  -22.3530  -14.5539   20.6705 O   0  0  0  0  0  0
  -24.6115  -31.8705   23.2120 C   0  0  0  0  0  0
  -25.9018  -32.4840   23.8407 C   0  0  1  0  0  0
  -27.2326  -27.4510   20.1051 C   0  0  0  0  0  0
  -25.5888  -33.8634   24.2345 N   0  0  0  0  0  0
  -23.3980  -30.4931   21.5528 C   0  0  2  0  0  0
  -24.8463  -28.9631   20.1160 C   0  0  0  0  0  0
  -22.7396  -29.4651   22.5009 C   0  0  0  0  0  0
  -18.0267  -28.1367   22.8490 C   0  0  0  0  0  0
  -24.1489  -36.7315   23.2637 C   0  0  0  0  0  0
  -25.9234  -30.8432   21.3629 C   0  0  0  0  0  0
  -26.0029  -29.4759   20.7181 C   0  0  0  0  0  0
  -27.1999  -28.7260   20.7203 C   0  0  0  0  0  0
  -26.0659  -26.9569   19.4906 C   0  0  0  0  0  0
  -24.8709  -27.6999   19.5003 C   0  0  0  0  0  0
  -23.6058  -29.8262   20.1663 C   0  0  0  0  0  0
  -25.4107  -36.3118   24.0345 C   0  0  1  0  0  0
  -20.5852  -28.3642   23.1335 C   0  0  2  0  0  0
  -20.6764  -26.9383   22.5421 C   0  0  0  0  0  0
  -19.5745  -26.6373   21.5210 C   0  0  0  0  0  0
  -18.1920  -26.7919   22.1614 C   0  0  0  0  0  0
  -19.1514  -28.8823   23.2914 C   0  0  0  0  0  0
  -18.9441  -30.1432   23.8917 C   0  0  0  0  0  0
  -17.6445  -30.6578   24.0562 C   0  0  0  0  0  0
  -25.9028  -34.9486   23.5137 C   0  0  0  0  0  0
  -16.5336  -29.9083   23.6316 C   0  0  0  0  0  0
  -16.7258  -28.6500   23.0338 C   0  0  0  0  0  0
  -26.4451  -31.6604   25.0718 C   0  0  0  0  0  0
  -25.3719  -31.3719   26.1470 C   0  0  0  0  0  0
  -27.0276  -30.3058   24.6058 C   0  0  0  0  0  0
  -27.6027  -32.4310   25.7494 C   0  0  0  0  0  0
  -27.5580  -37.1818   24.8463 C   0  0  0  0  0  0
  -21.4122  -29.3019   22.3755 N   0  0  0  0  0  0
  -26.4295  -37.3796   23.9406 N   0  0  0  0  0  0
  -24.6620  -31.0827   22.1014 N   0  0  0  0  0  0
  -23.4188  -28.8185   23.3025 O   0  0  0  0  0  0
  -28.3444  -26.6427   20.0469 O   0  0  0  0  0  0
  -26.5582  -34.8930   22.4693 O   0  0  0  0  0  0
  -23.5312  -32.1441   23.7531 O   0  0  0  0  0  0
  -30.9390  -19.3718   21.0143 C   0  0  0  0  0  0
  -30.5261  -20.7116   20.8882 C   0  0  0  0  0  0
  -28.6726  -18.6283   20.6186 C   0  0  0  0  0  0
  -30.0304  -18.3072   20.8429 C   0  0  0  0  0  0
  -29.1870  -21.0401   20.5869 C   0  0  0  0  0  0
  -28.2425  -19.9750   20.4777 C   0  0  0  0  0  0
  -30.5746  -16.9260   20.8144 C   0  0  0  0  0  0
  -29.9292  -15.7326   20.7530 C   0  0  0  0  0  0
  -28.6836  -23.4459   21.4920 C   0  0  0  0  0  0
  -25.9154  -20.3055   21.4447 C   0  0  0  0  0  0
  -28.8707  -22.5197   20.2886 C   0  0  0  0  0  0
  -26.7657  -20.2050   20.1730 C   0  0  0  0  0  0
  -29.8864  -24.2842   21.9204 C   0  0  0  0  0  0
  -30.2320  -25.5067   21.0315 C   0  0  0  0  0  0
  -29.2783  -26.7174   21.1144 C   0  0  0  0  0  0
  -27.5877  -23.5173   22.1187 N   0  0  0  0  0  0
  -31.4594  -12.3811   19.1466 H   0  0  0  0  0  0
  -30.2947  -11.3120   19.8729 H   0  0  0  0  0  0
  -29.7426  -11.7452   17.4547 H   0  0  0  0  0  0
  -29.6687  -13.4628   17.7625 H   0  0  0  0  0  0
  -27.8331  -11.2948   18.8412 H   0  0  0  0  0  0
  -27.3705  -12.6003   17.7820 H   0  0  0  0  0  0
  -27.6752  -14.2472   19.5194 H   0  0  0  0  0  0
  -28.6677  -12.0400   21.3916 H   0  0  0  0  0  0
  -28.4629  -13.7102   21.8285 H   0  0  0  0  0  0
  -25.2760   -9.5687   22.4748 H   0  0  0  0  0  0
  -24.0000   -7.4645   22.7480 H   0  0  0  0  0  0
  -21.0845   -8.8775   19.8943 H   0  0  0  0  0  0
  -22.3701  -10.9674   19.6162 H   0  0  0  0  0  0
  -21.2007   -7.6143   23.9706 H   0  0  0  0  0  0
  -21.1479   -6.0524   25.9075 H   0  0  0  0  0  0
  -22.0600   -2.7603   23.2855 H   0  0  0  0  0  0
  -22.4099  -11.9891   22.4799 H   0  0  0  0  0  0
  -21.1088  -13.1241   22.2588 H   0  0  0  0  0  0
  -24.6691  -15.8494   20.5225 H   0  0  0  0  0  0
  -26.2823  -15.6209   20.0767 H   0  0  0  0  0  0
  -26.7096  -32.5572   23.1186 H   0  0  0  0  0  0
  -25.0085  -33.9804   25.0520 H   0  0  0  0  0  0
  -22.6846  -31.3081   21.4165 H   0  0  0  0  0  0
  -23.3750  -35.9646   23.3303 H   0  0  0  0  0  0
  -24.3596  -36.8915   22.2052 H   0  0  0  0  0  0
  -23.7235  -37.6523   23.6639 H   0  0  0  0  0  0
  -26.0293  -31.6067   20.5903 H   0  0  0  0  0  0
  -26.8141  -30.9028   21.9763 H   0  0  0  0  0  0
  -28.0860  -29.1357   21.1836 H   0  0  0  0  0  0
  -26.0814  -25.9854   19.0161 H   0  0  0  0  0  0
  -23.9829  -27.2982   19.0321 H   0  0  0  0  0  0
  -23.7079  -30.6014   19.4061 H   0  0  0  0  0  0
  -22.7317  -29.2424   19.8729 H   0  0  0  0  0  0
  -25.1282  -36.1994   25.0840 H   0  0  0  0  0  0
  -20.9943  -28.3194   24.1456 H   0  0  0  0  0  0
  -20.5673  -26.2237   23.3597 H   0  0  0  0  0  0
  -21.6639  -26.7437   22.1209 H   0  0  0  0  0  0
  -19.6912  -25.6288   21.1233 H   0  0  0  0  0  0
  -19.6698  -27.3191   20.6751 H   0  0  0  0  0  0
  -17.4195  -26.6664   21.4012 H   0  0  0  0  0  0
  -18.0316  -26.0056   22.9004 H   0  0  0  0  0  0
  -19.7911  -30.7241   24.2303 H   0  0  0  0  0  0
  -17.4994  -31.6261   24.5149 H   0  0  0  0  0  0
  -15.5336  -30.2994   23.7621 H   0  0  0  0  0  0
  -15.8655  -28.0830   22.7038 H   0  0  0  0  0  0
  -24.5870  -30.7093   25.7809 H   0  0  0  0  0  0
  -24.8939  -32.2887   26.4934 H   0  0  0  0  0  0
  -25.8075  -30.8871   27.0216 H   0  0  0  0  0  0
  -26.2831  -29.6862   24.1050 H   0  0  0  0  0  0
  -27.4002  -29.7247   25.4502 H   0  0  0  0  0  0
  -27.8676  -30.4402   23.9237 H   0  0  0  0  0  0
  -27.2648  -33.3598   26.2104 H   0  0  0  0  0  0
  -28.3838  -32.6886   25.0327 H   0  0  0  0  0  0
  -28.0688  -31.8409   26.5395 H   0  0  0  0  0  0
  -28.2607  -38.0109   24.7502 H   0  0  0  0  0  0
  -28.1071  -36.2641   24.6300 H   0  0  0  0  0  0
  -27.2299  -37.1483   25.8868 H   0  0  0  0  0  0
  -20.9272  -29.8772   21.7012 H   0  0  0  0  0  0
  -26.0190  -38.2877   24.1397 H   0  0  0  0  0  0
  -31.9857  -19.1683   21.1951 H   0  0  0  0  0  0
  -31.2693  -21.4923   20.9726 H   0  0  0  0  0  0
  -27.9528  -17.8326   20.4928 H   0  0  0  0  0  0
  -31.6561  -16.9058   20.7828 H   0  0  0  0  0  0
  -28.8544  -15.7064   20.8207 H   0  0  0  0  0  0
  -24.8622  -20.4420   21.1981 H   0  0  0  0  0  0
  -26.2229  -21.1436   22.0674 H   0  0  0  0  0  0
  -25.9985  -19.3995   22.0465 H   0  0  0  0  0  0
  -28.0130  -22.6280   19.6296 H   0  0  0  0  0  0
  -29.6963  -22.9090   19.6923 H   0  0  0  0  0  0
  -26.4021  -19.3698   19.5719 H   0  0  0  0  0  0
  -26.6071  -21.0788   19.5461 H   0  0  0  0  0  0
  -30.7545  -23.6259   21.9573 H   0  0  0  0  0  0
  -29.7409  -24.6193   22.9483 H   0  0  0  0  0  0
  -30.3773  -25.2097   19.9923 H   0  0  0  0  0  0
  -31.2107  -25.8562   21.3612 H   0  0  0  0  0  0
  -29.8521  -27.6385   21.0077 H   0  0  0  0  0  0
  -28.7799  -26.7541   22.0851 H   0  0  0  0  0  0
  -26.8938  -22.8906   21.7266 H   0  0  0  0  0  0
  1 25  1  0  0  0
  1 30  2  0  0  0
  1 78  1  0  0  0
  2  3  1  0  0  0
  2 25  1  0  0  0
  2 87  1  0  0  0
  2 88  1  0  0  0
  3  4  1  0  0  0
  3 89  1  0  0  0
  3 90  1  0  0  0
  4  5  1  0  0  0
  4 91  1  0  0  0
  4 92  1  0  0  0
  5  6  1  0  0  0
  5 26  1  0  0  0
  5 93  1  0  0  0
  6 25  1  0  0  0
  6 94  1  0  0  0
  6 95  1  0  0  0
  7  8  2  0  0  0
  7 26  1  0  0  0
  7 29  1  0  0  0
  8  9  1  0  0  0
  8 22  1  0  0  0
  9 10  1  0  0  0
  9 27  2  0  0  0
 10 11  2  0  0  0
 10 15  1  0  0  0
 11 12  1  0  0  0
 11 96  1  0  0  0
 12 13  2  0  0  0
 12 97  1  0  0  0
 13 14  1  0  0  0
 13 31  1  0  0  0
 14 15  2  0  0  0
 14 98  1  0  0  0
 15 99  1  0  0  0
 16 17  2  0  0  0
 16 21  1  0  0  0
 16 31  1  0  0  0
 17 18  1  0  0  0
 17100  1  0  0  0
 18 19  2  0  0  0
 18101  1  0  0  0
 19 20  1  0  0  0
 19 24  1  0  0  0
 20 21  2  0  0  0
 20102  1  0  0  0
 21 23  1  0  0  0
 22 28  1  0  0  0
 22 32  2  0  0  0
 26 27  1  0  0  0
 28103  1  0  0  0
 28104  1  0  0  0
 29105  1  0  0  0
 29106  1  0  0  0
 33 34  1  0  0  0
 33 66  1  0  0  0
 33 70  2  0  0  0
 34 36  1  0  0  0
 34 59  1  0  0  0
 34107  1  0  0  0
 35 44  2  0  0  0
 35 45  1  0  0  0
 35 68  1  0  0  0
 36 56  1  0  0  0
 36108  1  0  0  0
 37 39  1  0  0  0
 37 47  1  0  0  0
 37 66  1  0  0  0
 37109  1  0  0  0
 38 43  2  0  0  0
 38 46  1  0  0  0
 38 47  1  0  0  0
 39 64  1  0  0  0
 39 67  2  0  0  0
 40 52  1  0  0  0
 40 53  2  0  0  0
 40 58  1  0  0  0
 41110  1  0  0  0
 41111  1  0  0  0
 41112  1  0  0  0
 41 48  1  0  0  0
 42 43  1  0  0  0
 42 66  1  0  0  0
 42113  1  0  0  0
 42114  1  0  0  0
 43 44  1  0  0  0
 44115  1  0  0  0
 45 46  2  0  0  0
 45116  1  0  0  0
 46117  1  0  0  0
 47118  1  0  0  0
 47119  1  0  0  0
 48 56  1  0  0  0
 48 65  1  0  0  0
 48120  1  0  0  0
 49 50  1  0  0  0
 49 53  1  0  0  0
 49 64  1  0  0  0
 49121  1  0  0  0
 50 51  1  0  0  0
 50122  1  0  0  0
 50123  1  0  0  0
 51 52  1  0  0  0
 51124  1  0  0  0
 51125  1  0  0  0
 52126  1  0  0  0
 52127  1  0  0  0
 53 54  1  0  0  0
 54 55  2  0  0  0
 54128  1  0  0  0
 55 57  1  0  0  0
 55129  1  0  0  0
 56 69  2  0  0  0
 57 58  2  0  0  0
 57130  1  0  0  0
 58131  1  0  0  0
 59 60  1  0  0  0
 59 61  1  0  0  0
 59 62  1  0  0  0
 60132  1  0  0  0
 60133  1  0  0  0
 60134  1  0  0  0
 61135  1  0  0  0
 61136  1  0  0  0
 61137  1  0  0  0
 62138  1  0  0  0
 62139  1  0  0  0
 62140  1  0  0  0
 63 65  1  0  0  0
 63141  1  0  0  0
 63142  1  0  0  0
 63143  1  0  0  0
 64144  1  0  0  0
 65145  1  0  0  0
 68 85  1  0  0  0
 71 72  2  0  0  0
 71 74  1  0  0  0
 71146  1  0  0  0
 72 75  1  0  0  0
 72147  1  0  0  0
 73 74  2  0  0  0
 73 76  1  0  0  0
 73148  1  0  0  0
 74 77  1  0  0  0
 75 76  2  0  0  0
 75 81  1  0  0  0
 76 82  1  0  0  0
 77 78  2  0  0  0
 77149  1  0  0  0
 78150  1  0  0  0
 79 81  1  0  0  0
 79 83  1  0  0  0
 79 86  2  0  0  0
 80 82  1  0  0  0
 80151  1  0  0  0
 80152  1  0  0  0
 80153  1  0  0  0
 81154  1  0  0  0
 81155  1  0  0  0
 82156  1  0  0  0
 82157  1  0  0  0
 83 84  1  0  0  0
 83158  1  0  0  0
 83159  1  0  0  0
 84 85  1  0  0  0
 84160  1  0  0  0
 84161  1  0  0  0
 85162  1  0  0  0
 85163  1  0  0  0
 86164  1  0  0  0
M  ISO  4   1 100  68 101  78 100  85 101
M  END
> <chiral flag>
0

> <version>
0

> <s_m_source_file>
/data/baiqing/PycharmProjects/Reinvent-master-3.2/result/LINK_invent/BTK/process_docking_weight1_custom_product_contain_oxygen_bond_distance_aromatic_linkinvent_7_9_3/rearranged_h_0132.sdf

> <i_m_source_file_index>
44

> <r_mmod_Potential_Energy-OPLS-2005>
-15.1376543045044

> <r_mmod_Stretch_Energy-OPLS-2005>
38.8102340698242

> <r_mmod_Bend_Energy-OPLS-2005>
112.142166137695

> <r_mmod_Torsional_Energy-OPLS-2005>
205.154037475586

> <r_mmod_Improper_Torsional_Energy-OPLS-2005>
7.54820775985718

> <r_mmod_Van_der_Waal_Energy-OPLS-2005>
147.680419921875

> <r_mmod_Electrostatic_Energy-OPLS-2005>
-343.517120361328

> <r_mmod_Solvation_Energy-OPLS-2005>
-202.473007202148

> <b_mmod_Minimization_Converged-OPLS-2005>
0

> <r_mmod_RMS_Derivative-OPLS-2005>
1.33286023139954

$$$$
44
                    3D
 Structure written by MMmdl.
165173  0  0  1  0            999 V2000
  -30.7218  -14.4201   20.6319 C   0  0  0  0  0  0
  -30.4243  -12.2961   19.4073 C   0  0  0  0  0  0
  -29.4897  -12.5132   18.2003 C   0  0  0  0  0  0
  -28.0112  -12.3756   18.6137 C   0  0  0  0  0  0
  -27.6659  -13.2001   19.8822 C   0  0  2  0  0  0
  -28.7053  -12.9419   20.9958 C   0  0  0  0  0  0
  -25.2572  -13.8102   20.5580 C   0  0  0  0  0  0
  -24.1837  -13.0410   20.9159 C   0  0  0  0  0  0
  -24.6400  -11.6882   20.8756 C   0  0  0  0  0  0
  -23.9063  -10.4279   21.0425 C   0  0  0  0  0  0
  -24.3616   -9.4195   21.9199 C   0  0  0  0  0  0
  -23.6288   -8.2231   22.0759 C   0  0  0  0  0  0
  -22.4270   -8.0278   21.3549 C   0  0  0  0  0  0
  -21.9911   -9.0254   20.4649 C   0  0  0  0  0  0
  -22.7242  -10.2131   20.3063 C   0  0  0  0  0  0
  -21.6846   -6.0735   22.5282 C   0  0  0  0  0  0
  -21.4010   -6.5639   23.8216 C   0  0  0  0  0  0
  -21.3656   -5.6792   24.9178 C   0  0  0  0  0  0
  -21.6042   -4.3054   24.7229 C   0  0  0  0  0  0
  -21.8819   -3.8147   23.4349 C   0  0  0  0  0  0
  -21.9192   -4.6964   22.3406 C   0  0  0  0  0  0
  -22.7866  -13.5227   21.1829 C   0  0  0  0  0  0
  -22.1660   -4.2149   21.0984 F   0  0  0  0  0  0
  -21.5630   -3.4538   25.7742 F   0  0  0  0  0  0
  -30.0430  -13.2540   20.4566 N   0  0  0  0  0  0
  -26.3045  -12.9287   20.3389 N   0  0  0  0  0  0
  -25.9332  -11.6457   20.5811 N   0  0  0  0  0  0
  -22.0503  -12.8231   22.0393 N   0  0  0  0  0  0
  -25.4241  -15.1772   20.3779 N   0  0  0  0  0  0
  -31.7985  -14.6486   20.0729 O   0  0  0  0  0  0
  -21.6632   -6.8879   21.4243 O   0  0  0  0  0  0
  -22.3555  -14.5540   20.6684 O   0  0  0  0  0  0
  -24.6098  -31.8716   23.2116 C   0  0  0  0  0  0
  -25.9012  -32.4839   23.8409 C   0  0  1  0  0  0
  -27.2601  -27.4765   20.1021 C   0  0  0  0  0  0
  -25.5899  -33.8633   24.2359 N   0  0  0  0  0  0
  -23.3949  -30.4924   21.5513 C   0  0  2  0  0  0
  -24.8465  -28.9593   20.1206 C   0  0  0  0  0  0
  -22.7388  -29.4662   22.5008 C   0  0  0  0  0  0
  -18.0268  -28.1355   22.8486 C   0  0  0  0  0  0
  -24.1486  -36.7323   23.2637 C   0  0  0  0  0  0
  -25.9165  -30.8522   21.3564 C   0  0  0  0  0  0
  -25.9994  -29.4840   20.7168 C   0  0  0  0  0  0
  -27.2052  -28.7532   20.7120 C   0  0  0  0  0  0
  -26.0879  -26.9628   19.5074 C   0  0  0  0  0  0
  -24.8825  -27.6909   19.5160 C   0  0  0  0  0  0
  -23.6025  -29.8180   20.1673 C   0  0  0  0  0  0
  -25.4099  -36.3119   24.0345 C   0  0  1  0  0  0
  -20.5858  -28.3639   23.1334 C   0  0  2  0  0  0
  -20.6760  -26.9385   22.5417 C   0  0  0  0  0  0
  -19.5745  -26.6375   21.5205 C   0  0  0  0  0  0
  -18.1917  -26.7902   22.1612 C   0  0  0  0  0  0
  -19.1520  -28.8812   23.2901 C   0  0  0  0  0  0
  -18.9452  -30.1419   23.8907 C   0  0  0  0  0  0
  -17.6456  -30.6571   24.0559 C   0  0  0  0  0  0
  -25.9029  -34.9486   23.5149 C   0  0  0  0  0  0
  -16.5345  -29.9077   23.6313 C   0  0  0  0  0  0
  -16.7257  -28.6484   23.0340 C   0  0  0  0  0  0
  -26.4463  -31.6599   25.0716 C   0  0  0  0  0  0
  -25.3746  -31.3696   26.1479 C   0  0  0  0  0  0
  -27.0288  -30.3055   24.6027 C   0  0  0  0  0  0
  -27.6048  -32.4312   25.7479 C   0  0  0  0  0  0
  -27.5579  -37.1814   24.8466 C   0  0  0  0  0  0
  -21.4123  -29.3013   22.3751 N   0  0  0  0  0  0
  -26.4296  -37.3793   23.9403 N   0  0  0  0  0  0
  -24.6582  -31.0859   22.0994 N   0  0  0  0  0  0
  -23.4180  -28.8211   23.3039 O   0  0  0  0  0  0
  -28.3851  -26.6848   19.9923 O   0  0  0  0  0  0
  -26.5578  -34.8935   22.4701 O   0  0  0  0  0  0
  -23.5305  -32.1453   23.7540 O   0  0  0  0  0  0
  -31.8378  -18.6621   21.6925 C   0  0  0  0  0  0
  -31.6149  -17.2979   21.4214 C   0  0  0  0  0  0
  -29.5431  -18.8766   22.4486 C   0  0  0  0  0  0
  -30.8017  -19.4581   22.2148 C   0  0  0  0  0  0
  -29.2951  -17.5165   22.1581 C   0  0  0  0  0  0
  -30.3457  -16.7034   21.6456 C   0  0  0  0  0  0
  -26.7762  -17.8278   21.8051 C   0  0  0  0  0  0
  -31.0364  -20.9182   22.5705 C   0  0  0  0  0  0
  -27.8916  -16.9768   22.4358 C   0  0  0  0  0  0
  -30.2947  -21.9066   21.6502 C   0  0  0  0  0  0
  -30.3459  -23.3481   22.1880 C   0  0  0  0  0  0
  -29.8189  -24.3965   21.1934 C   0  0  0  0  0  0
  -29.7323  -25.8062   21.8099 C   0  0  0  0  0  0
  -29.5571  -26.9243   20.7704 C   0  0  0  0  0  0
  -30.0948  -15.3139   21.4210 N   0  0  0  0  0  0
  -31.4658  -12.4038   19.1001 H   0  0  0  0  0  0
  -30.3342  -11.2761   19.7841 H   0  0  0  0  0  0
  -29.7233  -11.7985   17.4100 H   0  0  0  0  0  0
  -29.6605  -13.5040   17.7770 H   0  0  0  0  0  0
  -27.8124  -11.3184   18.7941 H   0  0  0  0  0  0
  -27.3616  -12.6686   17.7880 H   0  0  0  0  0  0
  -27.7231  -14.2540   19.6084 H   0  0  0  0  0  0
  -28.6764  -11.8934   21.2970 H   0  0  0  0  0  0
  -28.4555  -13.4986   21.8996 H   0  0  0  0  0  0
  -25.2760   -9.5662   22.4773 H   0  0  0  0  0  0
  -23.9994   -7.4616   22.7473 H   0  0  0  0  0  0
  -21.0843   -8.8780   19.8948 H   0  0  0  0  0  0
  -22.3715  -10.9674   19.6169 H   0  0  0  0  0  0
  -21.1999   -7.6145   23.9720 H   0  0  0  0  0  0
  -21.1476   -6.0521   25.9081 H   0  0  0  0  0  0
  -22.0601   -2.7609   23.2852 H   0  0  0  0  0  0
  -22.4112  -11.9887   22.4775 H   0  0  0  0  0  0
  -21.1127  -13.1271   22.2604 H   0  0  0  0  0  0
  -24.6538  -15.8296   20.4700 H   0  0  0  0  0  0
  -26.2733  -15.6113   20.0413 H   0  0  0  0  0  0
  -26.7099  -32.5586   23.1200 H   0  0  0  0  0  0
  -25.0092  -33.9799   25.0531 H   0  0  0  0  0  0
  -22.6812  -31.3066   21.4111 H   0  0  0  0  0  0
  -23.3740  -35.9667   23.3321 H   0  0  0  0  0  0
  -24.3599  -36.8909   22.2051 H   0  0  0  0  0  0
  -23.7251  -37.6542   23.6635 H   0  0  0  0  0  0
  -26.0153  -31.6116   20.5793 H   0  0  0  0  0  0
  -26.8089  -30.9203   21.9657 H   0  0  0  0  0  0
  -28.0701  -29.2126   21.1629 H   0  0  0  0  0  0
  -26.1117  -25.9920   19.0322 H   0  0  0  0  0  0
  -23.9981  -27.2754   19.0532 H   0  0  0  0  0  0
  -23.6995  -30.5892   19.4023 H   0  0  0  0  0  0
  -22.7304  -29.2280   19.8786 H   0  0  0  0  0  0
  -25.1269  -36.2003   25.0840 H   0  0  0  0  0  0
  -20.9941  -28.3201   24.1460 H   0  0  0  0  0  0
  -20.5670  -26.2244   23.3593 H   0  0  0  0  0  0
  -21.6629  -26.7439   22.1210 H   0  0  0  0  0  0
  -19.6916  -25.6293   21.1216 H   0  0  0  0  0  0
  -19.6694  -27.3201   20.6747 H   0  0  0  0  0  0
  -17.4190  -26.6665   21.4008 H   0  0  0  0  0  0
  -18.0316  -26.0033   22.8999 H   0  0  0  0  0  0
  -19.7933  -30.7214   24.2307 H   0  0  0  0  0  0
  -17.5016  -31.6258   24.5142 H   0  0  0  0  0  0
  -15.5345  -30.2976   23.7628 H   0  0  0  0  0  0
  -15.8657  -28.0805   22.7053 H   0  0  0  0  0  0
  -24.5908  -30.7051   25.7826 H   0  0  0  0  0  0
  -24.8946  -32.2851   26.4945 H   0  0  0  0  0  0
  -25.8104  -30.8857   27.0225 H   0  0  0  0  0  0
  -26.2807  -29.6834   24.1097 H   0  0  0  0  0  0
  -27.4119  -29.7263   25.4436 H   0  0  0  0  0  0
  -27.8613  -30.4408   23.9115 H   0  0  0  0  0  0
  -27.2665  -33.3594   26.2091 H   0  0  0  0  0  0
  -28.3836  -32.6901   25.0296 H   0  0  0  0  0  0
  -28.0739  -31.8416   26.5365 H   0  0  0  0  0  0
  -28.2601  -38.0106   24.7494 H   0  0  0  0  0  0
  -28.1068  -36.2635   24.6306 H   0  0  0  0  0  0
  -27.2300  -37.1477   25.8872 H   0  0  0  0  0  0
  -20.9286  -29.8722   21.6966 H   0  0  0  0  0  0
  -26.0194  -38.2878   24.1396 H   0  0  0  0  0  0
  -32.8168  -19.0865   21.5170 H   0  0  0  0  0  0
  -32.4528  -16.7245   21.0556 H   0  0  0  0  0  0
  -28.7583  -19.4906   22.8666 H   0  0  0  0  0  0
  -25.8000  -17.3835   22.0002 H   0  0  0  0  0  0
  -26.8966  -17.9017   20.7240 H   0  0  0  0  0  0
  -26.7451  -18.8391   22.2090 H   0  0  0  0  0  0
  -32.1059  -21.1343   22.5522 H   0  0  0  0  0  0
  -30.7179  -21.0641   23.6033 H   0  0  0  0  0  0
  -27.7510  -16.9380   23.5165 H   0  0  0  0  0  0
  -27.7718  -15.9539   22.0849 H   0  0  0  0  0  0
  -29.2494  -21.6096   21.5533 H   0  0  0  0  0  0
  -30.7209  -21.8577   20.6477 H   0  0  0  0  0  0
  -31.3745  -23.6005   22.4524 H   0  0  0  0  0  0
  -29.7716  -23.4021   23.1146 H   0  0  0  0  0  0
  -28.8340  -24.1041   20.8273 H   0  0  0  0  0  0
  -30.4741  -24.4176   20.3216 H   0  0  0  0  0  0
  -30.6431  -26.0111   22.3749 H   0  0  0  0  0  0
  -28.9157  -25.8439   22.5312 H   0  0  0  0  0  0
  -30.4085  -26.9186   20.0888 H   0  0  0  0  0  0
  -29.5961  -27.8857   21.2721 H   0  0  0  0  0  0
  -29.2284  -14.9685   21.8002 H   0  0  0  0  0  0
  1 25  1  0  0  0
  1 30  2  0  0  0
  1 85  1  0  0  0
  2  3  1  0  0  0
  2 25  1  0  0  0
  2 86  1  0  0  0
  2 87  1  0  0  0
  3  4  1  0  0  0
  3 88  1  0  0  0
  3 89  1  0  0  0
  4  5  1  0  0  0
  4 90  1  0  0  0
  4 91  1  0  0  0
  5  6  1  0  0  0
  5 26  1  0  0  0
  5 92  1  0  0  0
  6 25  1  0  0  0
  6 93  1  0  0  0
  6 94  1  0  0  0
  7  8  2  0  0  0
  7 26  1  0  0  0
  7 29  1  0  0  0
  8  9  1  0  0  0
  8 22  1  0  0  0
  9 10  1  0  0  0
  9 27  2  0  0  0
 10 11  2  0  0  0
 10 15  1  0  0  0
 11 12  1  0  0  0
 11 95  1  0  0  0
 12 13  2  0  0  0
 12 96  1  0  0  0
 13 14  1  0  0  0
 13 31  1  0  0  0
 14 15  2  0  0  0
 14 97  1  0  0  0
 15 98  1  0  0  0
 16 17  2  0  0  0
 16 21  1  0  0  0
 16 31  1  0  0  0
 17 18  1  0  0  0
 17 99  1  0  0  0
 18 19  2  0  0  0
 18100  1  0  0  0
 19 20  1  0  0  0
 19 24  1  0  0  0
 20 21  2  0  0  0
 20101  1  0  0  0
 21 23  1  0  0  0
 22 28  1  0  0  0
 22 32  2  0  0  0
 26 27  1  0  0  0
 28102  1  0  0  0
 28103  1  0  0  0
 29104  1  0  0  0
 29105  1  0  0  0
 33 34  1  0  0  0
 33 66  1  0  0  0
 33 70  2  0  0  0
 34 36  1  0  0  0
 34 59  1  0  0  0
 34106  1  0  0  0
 35 44  2  0  0  0
 35 45  1  0  0  0
 35 68  1  0  0  0
 36 56  1  0  0  0
 36107  1  0  0  0
 37 39  1  0  0  0
 37 47  1  0  0  0
 37 66  1  0  0  0
 37108  1  0  0  0
 38 43  2  0  0  0
 38 46  1  0  0  0
 38 47  1  0  0  0
 39 64  1  0  0  0
 39 67  2  0  0  0
 40 52  1  0  0  0
 40 53  2  0  0  0
 40 58  1  0  0  0
 41109  1  0  0  0
 41110  1  0  0  0
 41111  1  0  0  0
 41 48  1  0  0  0
 42 43  1  0  0  0
 42 66  1  0  0  0
 42112  1  0  0  0
 42113  1  0  0  0
 43 44  1  0  0  0
 44114  1  0  0  0
 45 46  2  0  0  0
 45115  1  0  0  0
 46116  1  0  0  0
 47117  1  0  0  0
 47118  1  0  0  0
 48 56  1  0  0  0
 48 65  1  0  0  0
 48119  1  0  0  0
 49 50  1  0  0  0
 49 53  1  0  0  0
 49 64  1  0  0  0
 49120  1  0  0  0
 50 51  1  0  0  0
 50121  1  0  0  0
 50122  1  0  0  0
 51 52  1  0  0  0
 51123  1  0  0  0
 51124  1  0  0  0
 52125  1  0  0  0
 52126  1  0  0  0
 53 54  1  0  0  0
 54 55  2  0  0  0
 54127  1  0  0  0
 55 57  1  0  0  0
 55128  1  0  0  0
 56 69  2  0  0  0
 57 58  2  0  0  0
 57129  1  0  0  0
 58130  1  0  0  0
 59 60  1  0  0  0
 59 61  1  0  0  0
 59 62  1  0  0  0
 60131  1  0  0  0
 60132  1  0  0  0
 60133  1  0  0  0
 61134  1  0  0  0
 61135  1  0  0  0
 61136  1  0  0  0
 62137  1  0  0  0
 62138  1  0  0  0
 62139  1  0  0  0
 63 65  1  0  0  0
 63140  1  0  0  0
 63141  1  0  0  0
 63142  1  0  0  0
 64143  1  0  0  0
 65144  1  0  0  0
 68 84  1  0  0  0
 71 72  2  0  0  0
 71 74  1  0  0  0
 71145  1  0  0  0
 72 76  1  0  0  0
 72146  1  0  0  0
 73 74  2  0  0  0
 73 75  1  0  0  0
 73147  1  0  0  0
 74 78  1  0  0  0
 75 76  2  0  0  0
 75 79  1  0  0  0
 76 85  1  0  0  0
 77 79  1  0  0  0
 77148  1  0  0  0
 77149  1  0  0  0
 77150  1  0  0  0
 78 80  1  0  0  0
 78151  1  0  0  0
 78152  1  0  0  0
 79153  1  0  0  0
 79154  1  0  0  0
 80 81  1  0  0  0
 80155  1  0  0  0
 80156  1  0  0  0
 81 82  1  0  0  0
 81157  1  0  0  0
 81158  1  0  0  0
 82 83  1  0  0  0
 82159  1  0  0  0
 82160  1  0  0  0
 83 84  1  0  0  0
 83161  1  0  0  0
 83162  1  0  0  0
 84163  1  0  0  0
 84164  1  0  0  0
 85165  1  0  0  0
M  ISO  4   1 100  68 101  84 101  85 100
M  END
> <chiral flag>
0

> <version>
0

> <s_m_source_file>
/data/baiqing/PycharmProjects/Reinvent-master-3.2/result/LINK_invent/BTK/process_docking_weight1_custom_product_contain_oxygen_bond_distance_aromatic_linkinvent_7_9_3/rearranged_h_0132.sdf

> <i_m_source_file_index>
45

> <r_mmod_Potential_Energy-OPLS-2005>
-50.9974517822266

> <r_mmod_Stretch_Energy-OPLS-2005>
34.8143577575684

> <r_mmod_Bend_Energy-OPLS-2005>
111.005729675293

> <r_mmod_Torsional_Energy-OPLS-2005>
203.362640380859

> <r_mmod_Improper_Torsional_Energy-OPLS-2005>
2.53123426437378

> <r_mmod_Van_der_Waal_Energy-OPLS-2005>
157.057464599609

> <r_mmod_Electrostatic_Energy-OPLS-2005>
-375.945190429688

> <r_mmod_Solvation_Energy-OPLS-2005>
-190.700149536133

> <b_mmod_Minimization_Converged-OPLS-2005>
0

> <r_mmod_RMS_Derivative-OPLS-2005>
1.26636099815369

$$$$
45
                    3D
 Structure written by MMmdl.
166174  0  0  1  0            999 V2000
  -30.6204  -14.6325   20.4536 C   0  0  0  0  0  0
  -30.4389  -12.3748   19.4454 C   0  0  0  0  0  0
  -29.5061  -12.4705   18.2178 C   0  0  0  0  0  0
  -28.0255  -12.3293   18.6306 C   0  0  0  0  0  0
  -27.6471  -13.2087   19.8513 C   0  0  2  0  0  0
  -28.6960  -13.0832   20.9787 C   0  0  0  0  0  0
  -25.2506  -13.8107   20.5671 C   0  0  0  0  0  0
  -24.1793  -13.0385   20.9213 C   0  0  0  0  0  0
  -24.6370  -11.6867   20.8746 C   0  0  0  0  0  0
  -23.9033  -10.4265   21.0404 C   0  0  0  0  0  0
  -24.3596   -9.4186   21.9186 C   0  0  0  0  0  0
  -23.6288   -8.2216   22.0750 C   0  0  0  0  0  0
  -22.4268   -8.0253   21.3535 C   0  0  0  0  0  0
  -21.9890   -9.0217   20.4644 C   0  0  0  0  0  0
  -22.7208  -10.2110   20.3058 C   0  0  0  0  0  0
  -21.6845   -6.0717   22.5279 C   0  0  0  0  0  0
  -21.4007   -6.5626   23.8209 C   0  0  0  0  0  0
  -21.3658   -5.6784   24.9173 C   0  0  0  0  0  0
  -21.6047   -4.3045   24.7226 C   0  0  0  0  0  0
  -21.8818   -3.8134   23.4349 C   0  0  0  0  0  0
  -21.9192   -4.6949   22.3402 C   0  0  0  0  0  0
  -22.7819  -13.5191   21.1887 C   0  0  0  0  0  0
  -22.1663   -4.2132   21.0985 F   0  0  0  0  0  0
  -21.5634   -3.4532   25.7740 F   0  0  0  0  0  0
  -30.0110  -13.4085   20.4035 N   0  0  0  0  0  0
  -26.2942  -12.9300   20.3264 N   0  0  0  0  0  0
  -25.9291  -11.6471   20.5746 N   0  0  0  0  0  0
  -22.0463  -12.8194   22.0443 N   0  0  0  0  0  0
  -25.4114  -15.1816   20.4072 N   0  0  0  0  0  0
  -31.8098  -14.7801   20.1631 O   0  0  0  0  0  0
  -21.6633   -6.8853   21.4242 O   0  0  0  0  0  0
  -22.3518  -14.5497   20.6725 O   0  0  0  0  0  0
  -24.6236  -31.8634   23.2022 C   0  0  0  0  0  0
  -25.9093  -32.4795   23.8351 C   0  0  1  0  0  0
  -27.2350  -27.3504   20.1113 C   0  0  0  0  0  0
  -25.5926  -33.8594   24.2280 N   0  0  0  0  0  0
  -23.4161  -30.4857   21.5456 C   0  0  2  0  0  0
  -24.8625  -28.9429   20.1138 C   0  0  0  0  0  0
  -22.7470  -29.4636   22.4949 C   0  0  0  0  0  0
  -18.0287  -28.1400   22.8497 C   0  0  0  0  0  0
  -24.1491  -36.7284   23.2625 C   0  0  0  0  0  0
  -25.9549  -30.8015   21.3703 C   0  0  0  0  0  0
  -26.0299  -29.4312   20.7141 C   0  0  0  0  0  0
  -27.2164  -28.6456   20.7060 C   0  0  0  0  0  0
  -26.0390  -26.9036   19.4982 C   0  0  0  0  0  0
  -24.8665  -27.6807   19.5014 C   0  0  0  0  0  0
  -23.6292  -29.8185   20.1616 C   0  0  0  0  0  0
  -25.4113  -36.3090   24.0335 C   0  0  1  0  0  0
  -20.5887  -28.3695   23.1300 C   0  0  2  0  0  0
  -20.6783  -26.9426   22.5419 C   0  0  0  0  0  0
  -19.5756  -26.6403   21.5228 C   0  0  0  0  0  0
  -18.1932  -26.7941   22.1639 C   0  0  0  0  0  0
  -19.1538  -28.8867   23.2884 C   0  0  0  0  0  0
  -18.9459  -30.1475   23.8886 C   0  0  0  0  0  0
  -17.6460  -30.6595   24.0577 C   0  0  0  0  0  0
  -25.9066  -34.9468   23.5113 C   0  0  0  0  0  0
  -16.5354  -29.9101   23.6340 C   0  0  0  0  0  0
  -16.7272  -28.6527   23.0347 C   0  0  0  0  0  0
  -26.4483  -31.6602   25.0718 C   0  0  0  0  0  0
  -25.3706  -31.3758   26.1444 C   0  0  0  0  0  0
  -27.0312  -30.3027   24.6147 C   0  0  0  0  0  0
  -27.6067  -32.4327   25.7462 C   0  0  0  0  0  0
  -27.5619  -37.1748   24.8432 C   0  0  0  0  0  0
  -21.4182  -29.3045   22.3690 N   0  0  0  0  0  0
  -26.4276  -37.3807   23.9459 N   0  0  0  0  0  0
  -24.6834  -31.0671   22.0955 N   0  0  0  0  0  0
  -23.4199  -28.8183   23.3024 O   0  0  0  0  0  0
  -28.3779  -26.5404   20.1491 O   0  0  0  0  0  0
  -26.5628  -34.8942   22.4676 O   0  0  0  0  0  0
  -23.5409  -32.1414   23.7373 O   0  0  0  0  0  0
  -31.0028  -19.2530   21.1522 C   0  0  0  0  0  0
  -30.9214  -17.8342   21.1867 C   0  0  0  0  0  0
  -30.1577  -20.0449   20.3303 C   0  0  0  0  0  0
  -29.1106  -17.9141   19.5797 C   0  0  0  0  0  0
  -29.9656  -17.1284   20.4190 C   0  0  0  0  0  0
  -29.2387  -19.3411   19.5085 C   0  0  0  0  0  0
  -28.5417  -16.4435   17.5542 C   0  0  0  0  0  0
  -28.2845  -21.4073   16.6564 C   0  0  0  0  0  0
  -30.3410  -21.6036   20.2927 C   0  0  0  0  0  0
  -28.0165  -17.2397   18.7561 C   0  0  0  0  0  0
  -29.0929  -22.5745   20.3177 C   0  0  0  0  0  0
  -29.4024  -24.1310   20.3195 C   0  0  0  0  0  0
  -29.0511  -20.2961   17.3787 C   0  0  0  0  0  0
  -28.1976  -25.0922   19.9772 C   0  0  0  0  0  0
  -29.7663  -15.6922   20.5862 N   0  0  0  0  0  0
  -28.4476  -20.0558   18.6442 O   0  0  0  0  0  0
  -31.4793  -12.5022   19.1391 H   0  0  0  0  0  0
  -30.3787  -11.3859   19.9034 H   0  0  0  0  0  0
  -29.7632  -11.6964   17.4939 H   0  0  0  0  0  0
  -29.6616  -13.4207   17.7081 H   0  0  0  0  0  0
  -27.8532  -11.2798   18.8704 H   0  0  0  0  0  0
  -27.3741  -12.5563   17.7857 H   0  0  0  0  0  0
  -27.6557  -14.2352   19.4926 H   0  0  0  0  0  0
  -28.7044  -12.0715   21.3868 H   0  0  0  0  0  0
  -28.4478  -13.7414   21.8129 H   0  0  0  0  0  0
  -25.2741   -9.5675   22.4754 H   0  0  0  0  0  0
  -23.9999   -7.4605   22.7462 H   0  0  0  0  0  0
  -21.0813   -8.8721   19.8956 H   0  0  0  0  0  0
  -22.3642  -10.9640   19.6165 H   0  0  0  0  0  0
  -21.1991   -7.6133   23.9704 H   0  0  0  0  0  0
  -21.1490   -6.0517   25.9076 H   0  0  0  0  0  0
  -22.0599   -2.7600   23.2847 H   0  0  0  0  0  0
  -22.4070  -11.9857   22.4830 H   0  0  0  0  0  0
  -21.1087  -13.1239   22.2676 H   0  0  0  0  0  0
  -24.6269  -15.8186   20.4942 H   0  0  0  0  0  0
  -26.2329  -15.6183   20.0167 H   0  0  0  0  0  0
  -26.7164  -32.5473   23.1109 H   0  0  0  0  0  0
  -25.0111  -33.9741   25.0451 H   0  0  0  0  0  0
  -22.7090  -31.3053   21.4049 H   0  0  0  0  0  0
  -23.3793  -35.9571   23.3225 H   0  0  0  0  0  0
  -24.3610  -36.8948   22.2051 H   0  0  0  0  0  0
  -23.7181  -37.6453   23.6667 H   0  0  0  0  0  0
  -26.0880  -31.5646   20.6027 H   0  0  0  0  0  0
  -26.8348  -30.8480   21.9995 H   0  0  0  0  0  0
  -28.1121  -29.0167   21.1849 H   0  0  0  0  0  0
  -25.9787  -25.9397   19.0157 H   0  0  0  0  0  0
  -23.9687  -27.2959   19.0342 H   0  0  0  0  0  0
  -23.7452  -30.5922   19.4018 H   0  0  0  0  0  0
  -22.7500  -29.2452   19.8631 H   0  0  0  0  0  0
  -25.1270  -36.1929   25.0821 H   0  0  0  0  0  0
  -20.9989  -28.3269   24.1420 H   0  0  0  0  0  0
  -20.5741  -26.2294   23.3612 H   0  0  0  0  0  0
  -21.6648  -26.7495   22.1184 H   0  0  0  0  0  0
  -19.6919  -25.6315   21.1258 H   0  0  0  0  0  0
  -19.6691  -27.3220   20.6761 H   0  0  0  0  0  0
  -17.4217  -26.6696   21.4029 H   0  0  0  0  0  0
  -18.0320  -26.0090   22.9044 H   0  0  0  0  0  0
  -19.7931  -30.7303   24.2233 H   0  0  0  0  0  0
  -17.5017  -31.6267   24.5195 H   0  0  0  0  0  0
  -15.5354  -30.3003   23.7664 H   0  0  0  0  0  0
  -15.8676  -28.0857   22.7036 H   0  0  0  0  0  0
  -24.5874  -30.7115   25.7775 H   0  0  0  0  0  0
  -24.8903  -32.2941   26.4844 H   0  0  0  0  0  0
  -25.8014  -30.8955   27.0235 H   0  0  0  0  0  0
  -26.2873  -29.6788   24.1182 H   0  0  0  0  0  0
  -27.4040  -29.7267   25.4624 H   0  0  0  0  0  0
  -27.8732  -30.4331   23.9339 H   0  0  0  0  0  0
  -27.2716  -33.3644   26.2031 H   0  0  0  0  0  0
  -28.3866  -32.6853   25.0266 H   0  0  0  0  0  0
  -28.0755  -31.8458   26.5372 H   0  0  0  0  0  0
  -28.2498  -38.0186   24.7732 H   0  0  0  0  0  0
  -28.1255  -36.2744   24.5931 H   0  0  0  0  0  0
  -27.2389  -37.0995   25.8831 H   0  0  0  0  0  0
  -20.9365  -29.8747   21.6881 H   0  0  0  0  0  0
  -26.0153  -38.2846   24.1603 H   0  0  0  0  0  0
  -31.7435  -19.7365   21.7736 H   0  0  0  0  0  0
  -31.5793  -17.2872   21.8476 H   0  0  0  0  0  0
  -27.7161  -15.9880   17.0053 H   0  0  0  0  0  0
  -29.2102  -15.6441   17.8658 H   0  0  0  0  0  0
  -29.0886  -17.0789   16.8591 H   0  0  0  0  0  0
  -28.6782  -21.5580   15.6511 H   0  0  0  0  0  0
  -28.3669  -22.3569   17.1850 H   0  0  0  0  0  0
  -27.2261  -21.1623   16.5653 H   0  0  0  0  0  0
  -30.9367  -21.8332   19.4085 H   0  0  0  0  0  0
  -30.9760  -21.8747   21.1372 H   0  0  0  0  0  0
  -27.2918  -17.9722   18.4003 H   0  0  0  0  0  0
  -27.4504  -16.5945   19.4195 H   0  0  0  0  0  0
  -28.4862  -22.3389   21.1924 H   0  0  0  0  0  0
  -28.4569  -22.3652   19.4614 H   0  0  0  0  0  0
  -30.2076  -24.3309   19.6115 H   0  0  0  0  0  0
  -29.8030  -24.3966   21.2982 H   0  0  0  0  0  0
  -30.1005  -20.5784   17.4818 H   0  0  0  0  0  0
  -29.0224  -19.3850   16.7828 H   0  0  0  0  0  0
  -27.3432  -24.7798   20.5803 H   0  0  0  0  0  0
  -27.9283  -24.9094   18.9356 H   0  0  0  0  0  0
  -28.8031  -15.4056   20.6590 H   0  0  0  0  0  0
  1 25  1  0  0  0
  1 30  2  0  0  0
  1 85  1  0  0  0
  2  3  1  0  0  0
  2 25  1  0  0  0
  2 87  1  0  0  0
  2 88  1  0  0  0
  3  4  1  0  0  0
  3 89  1  0  0  0
  3 90  1  0  0  0
  4  5  1  0  0  0
  4 91  1  0  0  0
  4 92  1  0  0  0
  5  6  1  0  0  0
  5 26  1  0  0  0
  5 93  1  0  0  0
  6 25  1  0  0  0
  6 94  1  0  0  0
  6 95  1  0  0  0
  7  8  2  0  0  0
  7 26  1  0  0  0
  7 29  1  0  0  0
  8  9  1  0  0  0
  8 22  1  0  0  0
  9 10  1  0  0  0
  9 27  2  0  0  0
 10 11  2  0  0  0
 10 15  1  0  0  0
 11 12  1  0  0  0
 11 96  1  0  0  0
 12 13  2  0  0  0
 12 97  1  0  0  0
 13 14  1  0  0  0
 13 31  1  0  0  0
 14 15  2  0  0  0
 14 98  1  0  0  0
 15 99  1  0  0  0
 16 17  2  0  0  0
 16 21  1  0  0  0
 16 31  1  0  0  0
 17 18  1  0  0  0
 17100  1  0  0  0
 18 19  2  0  0  0
 18101  1  0  0  0
 19 20  1  0  0  0
 19 24  1  0  0  0
 20 21  2  0  0  0
 20102  1  0  0  0
 21 23  1  0  0  0
 22 28  1  0  0  0
 22 32  2  0  0  0
 26 27  1  0  0  0
 28103  1  0  0  0
 28104  1  0  0  0
 29105  1  0  0  0
 29106  1  0  0  0
 33 34  1  0  0  0
 33 66  1  0  0  0
 33 70  2  0  0  0
 34 36  1  0  0  0
 34 59  1  0  0  0
 34107  1  0  0  0
 35 44  2  0  0  0
 35 45  1  0  0  0
 35 68  1  0  0  0
 36 56  1  0  0  0
 36108  1  0  0  0
 37 39  1  0  0  0
 37 47  1  0  0  0
 37 66  1  0  0  0
 37109  1  0  0  0
 38 43  2  0  0  0
 38 46  1  0  0  0
 38 47  1  0  0  0
 39 64  1  0  0  0
 39 67  2  0  0  0
 40 52  1  0  0  0
 40 53  2  0  0  0
 40 58  1  0  0  0
 41110  1  0  0  0
 41111  1  0  0  0
 41112  1  0  0  0
 41 48  1  0  0  0
 42 43  1  0  0  0
 42 66  1  0  0  0
 42113  1  0  0  0
 42114  1  0  0  0
 43 44  1  0  0  0
 44115  1  0  0  0
 45 46  2  0  0  0
 45116  1  0  0  0
 46117  1  0  0  0
 47118  1  0  0  0
 47119  1  0  0  0
 48 56  1  0  0  0
 48 65  1  0  0  0
 48120  1  0  0  0
 49 50  1  0  0  0
 49 53  1  0  0  0
 49 64  1  0  0  0
 49121  1  0  0  0
 50 51  1  0  0  0
 50122  1  0  0  0
 50123  1  0  0  0
 51 52  1  0  0  0
 51124  1  0  0  0
 51125  1  0  0  0
 52126  1  0  0  0
 52127  1  0  0  0
 53 54  1  0  0  0
 54 55  2  0  0  0
 54128  1  0  0  0
 55 57  1  0  0  0
 55129  1  0  0  0
 56 69  2  0  0  0
 57 58  2  0  0  0
 57130  1  0  0  0
 58131  1  0  0  0
 59 60  1  0  0  0
 59 61  1  0  0  0
 59 62  1  0  0  0
 60132  1  0  0  0
 60133  1  0  0  0
 60134  1  0  0  0
 61135  1  0  0  0
 61136  1  0  0  0
 61137  1  0  0  0
 62138  1  0  0  0
 62139  1  0  0  0
 62140  1  0  0  0
 63 65  1  0  0  0
 63141  1  0  0  0
 63142  1  0  0  0
 63143  1  0  0  0
 64144  1  0  0  0
 65145  1  0  0  0
 68 84  1  0  0  0
 71 72  2  0  0  0
 71 73  1  0  0  0
 71146  1  0  0  0
 72 75  1  0  0  0
 72147  1  0  0  0
 73 76  2  0  0  0
 73 79  1  0  0  0
 74 75  2  0  0  0
 74 76  1  0  0  0
 74 80  1  0  0  0
 75 85  1  0  0  0
 76 86  1  0  0  0
 77 80  1  0  0  0
 77148  1  0  0  0
 77149  1  0  0  0
 77150  1  0  0  0
 78 83  1  0  0  0
 78151  1  0  0  0
 78152  1  0  0  0
 78153  1  0  0  0
 79 81  1  0  0  0
 79154  1  0  0  0
 79155  1  0  0  0
 80156  1  0  0  0
 80157  1  0  0  0
 81 82  1  0  0  0
 81158  1  0  0  0
 81159  1  0  0  0
 82 84  1  0  0  0
 82160  1  0  0  0
 82161  1  0  0  0
 83 86  1  0  0  0
 83162  1  0  0  0
 83163  1  0  0  0
 84164  1  0  0  0
 84165  1  0  0  0
 85166  1  0  0  0
M  ISO  4   1 100  68 101  84 101  85 100
M  END
> <chiral flag>
0

> <version>
0

> <s_m_source_file>
/data/baiqing/PycharmProjects/Reinvent-master-3.2/result/LINK_invent/BTK/process_docking_weight1_custom_product_contain_oxygen_bond_distance_aromatic_linkinvent_7_9_3/rearranged_h_0132.sdf

> <i_m_source_file_index>
46

> <r_mmod_Potential_Energy-OPLS-2005>
61.6117744445801

> <r_mmod_Stretch_Energy-OPLS-2005>
69.2568740844727

> <r_mmod_Bend_Energy-OPLS-2005>
120.712020874023

> <r_mmod_Torsional_Energy-OPLS-2005>
264.394226074219

> <r_mmod_Improper_Torsional_Energy-OPLS-2005>
7.36762666702271

> <r_mmod_Van_der_Waal_Energy-OPLS-2005>
134.238357543945

> <r_mmod_Electrostatic_Energy-OPLS-2005>
-375.382110595703

> <r_mmod_Solvation_Energy-OPLS-2005>
-203.049743652344

> <b_mmod_Minimization_Converged-OPLS-2005>
0

> <r_mmod_RMS_Derivative-OPLS-2005>
1.97408246994019

$$$$
46
                    3D
 Structure written by MMmdl.
154162  0  0  1  0            999 V2000
  -30.7672  -14.4517   20.6262 C   0  0  0  0  0  0
  -30.4149  -12.3042   19.4103 C   0  0  0  0  0  0
  -29.4892  -12.5250   18.2006 C   0  0  0  0  0  0
  -28.0140  -12.3633   18.6131 C   0  0  0  0  0  0
  -27.6547  -13.1991   19.8708 C   0  0  2  0  0  0
  -28.6932  -13.0015   20.9993 C   0  0  0  0  0  0
  -25.2575  -13.8133   20.5670 C   0  0  0  0  0  0
  -24.1818  -13.0426   20.9173 C   0  0  0  0  0  0
  -24.6355  -11.6894   20.8722 C   0  0  0  0  0  0
  -23.9023  -10.4285   21.0411 C   0  0  0  0  0  0
  -24.3592   -9.4210   21.9186 C   0  0  0  0  0  0
  -23.6282   -8.2238   22.0762 C   0  0  0  0  0  0
  -22.4269   -8.0268   21.3545 C   0  0  0  0  0  0
  -21.9893   -9.0227   20.4641 C   0  0  0  0  0  0
  -22.7202  -10.2114   20.3052 C   0  0  0  0  0  0
  -21.6844   -6.0732   22.5279 C   0  0  0  0  0  0
  -21.4000   -6.5634   23.8207 C   0  0  0  0  0  0
  -21.3664   -5.6792   24.9171 C   0  0  0  0  0  0
  -21.6055   -4.3057   24.7221 C   0  0  0  0  0  0
  -21.8811   -3.8149   23.4340 C   0  0  0  0  0  0
  -21.9190   -4.6966   22.3398 C   0  0  0  0  0  0
  -22.7851  -13.5250   21.1847 C   0  0  0  0  0  0
  -22.1663   -4.2162   21.0968 F   0  0  0  0  0  0
  -21.5641   -3.4536   25.7726 F   0  0  0  0  0  0
  -30.0269  -13.2706   20.4442 N   0  0  0  0  0  0
  -26.2976  -12.9279   20.3329 N   0  0  0  0  0  0
  -25.9277  -11.6448   20.5740 N   0  0  0  0  0  0
  -22.0477  -12.8240   22.0393 N   0  0  0  0  0  0
  -25.4293  -15.1850   20.4080 N   0  0  0  0  0  0
  -31.8503  -14.6972   20.0946 O   0  0  0  0  0  0
  -21.6631   -6.8871   21.4239 O   0  0  0  0  0  0
  -22.3558  -14.5585   20.6725 O   0  0  0  0  0  0
  -24.6153  -31.8692   23.2134 C   0  0  0  0  0  0
  -25.9054  -32.4821   23.8412 C   0  0  1  0  0  0
  -27.2209  -27.4302   20.0929 C   0  0  0  0  0  0
  -25.5913  -33.8623   24.2338 N   0  0  0  0  0  0
  -23.4022  -30.4959   21.5542 C   0  0  2  0  0  0
  -24.8465  -28.9709   20.1124 C   0  0  0  0  0  0
  -22.7409  -29.4662   22.4998 C   0  0  0  0  0  0
  -18.0266  -28.1373   22.8490 C   0  0  0  0  0  0
  -24.1486  -36.7313   23.2626 C   0  0  0  0  0  0
  -25.9340  -30.8324   21.3704 C   0  0  0  0  0  0
  -26.0095  -29.4703   20.7125 C   0  0  0  0  0  0
  -27.2023  -28.7091   20.6979 C   0  0  0  0  0  0
  -26.0406  -26.9598   19.4705 C   0  0  0  0  0  0
  -24.8580  -27.7167   19.4861 C   0  0  0  0  0  0
  -23.6096  -29.8366   20.1658 C   0  0  0  0  0  0
  -25.4104  -36.3118   24.0331 C   0  0  1  0  0  0
  -20.5855  -28.3659   23.1318 C   0  0  2  0  0  0
  -20.6758  -26.9393   22.5419 C   0  0  0  0  0  0
  -19.5747  -26.6380   21.5208 C   0  0  0  0  0  0
  -18.1914  -26.7929   22.1602 C   0  0  0  0  0  0
  -19.1513  -28.8835   23.2901 C   0  0  0  0  0  0
  -18.9443  -30.1438   23.8918 C   0  0  0  0  0  0
  -17.6447  -30.6580   24.0570 C   0  0  0  0  0  0
  -25.9043  -34.9480   23.5136 C   0  0  0  0  0  0
  -16.5339  -29.9088   23.6327 C   0  0  0  0  0  0
  -16.7256  -28.6503   23.0347 C   0  0  0  0  0  0
  -26.4479  -31.6596   25.0740 C   0  0  0  0  0  0
  -25.3734  -31.3676   26.1474 C   0  0  0  0  0  0
  -27.0309  -30.3039   24.6113 C   0  0  0  0  0  0
  -27.6060  -32.4304   25.7509 C   0  0  0  0  0  0
  -27.5611  -37.1776   24.8428 C   0  0  0  0  0  0
  -21.4133  -29.3036   22.3737 N   0  0  0  0  0  0
  -26.4275  -37.3821   23.9449 N   0  0  0  0  0  0
  -24.6688  -31.0790   22.1043 N   0  0  0  0  0  0
  -23.4187  -28.8186   23.3021 O   0  0  0  0  0  0
  -28.3642  -26.6569   20.1204 O   0  0  0  0  0  0
  -26.5593  -34.8931   22.4692 O   0  0  0  0  0  0
  -23.5344  -32.1451   23.7523 O   0  0  0  0  0  0
  -30.6358  -19.7376   21.6233 C   0  0  0  0  0  0
  -29.2610  -19.8531   19.6206 C   0  0  0  0  0  0
  -30.3752  -18.3510   21.7272 C   0  0  0  0  0  0
  -28.9969  -18.4723   19.7284 C   0  0  0  0  0  0
  -30.0803  -20.4995   20.5696 C   0  0  0  0  0  0
  -29.5519  -17.7060   20.7765 C   0  0  0  0  0  0
  -29.3676  -24.3938   20.4001 C   0  0  0  0  0  0
  -30.3774  -21.9927   20.4359 C   0  0  0  0  0  0
  -29.1720  -16.2283   20.8833 C   0  0  0  0  0  0
  -29.1295  -22.8871   20.6098 C   0  0  0  0  0  0
  -28.1105  -25.2731   20.4405 C   0  0  0  0  0  0
  -30.4938  -24.8619   20.2001 O   0  0  0  0  0  0
  -30.1620  -15.3555   21.4308 O   0  0  0  0  0  0
  -31.4616  -12.4073   19.1173 H   0  0  0  0  0  0
  -30.3073  -11.2881   19.7940 H   0  0  0  0  0  0
  -29.7339  -11.8251   17.4007 H   0  0  0  0  0  0
  -29.6508  -13.5248   17.7959 H   0  0  0  0  0  0
  -27.8308  -11.3050   18.8034 H   0  0  0  0  0  0
  -27.3629  -12.6399   17.7827 H   0  0  0  0  0  0
  -27.6809  -14.2384   19.5568 H   0  0  0  0  0  0
  -28.6587  -11.9746   21.3659 H   0  0  0  0  0  0
  -28.4581  -13.6289   21.8596 H   0  0  0  0  0  0
  -25.2736   -9.5685   22.4760 H   0  0  0  0  0  0
  -23.9991   -7.4632   22.7485 H   0  0  0  0  0  0
  -21.0833   -8.8715   19.8941 H   0  0  0  0  0  0
  -22.3662  -10.9636   19.6155 H   0  0  0  0  0  0
  -21.1968   -7.6139   23.9706 H   0  0  0  0  0  0
  -21.1514   -6.0529   25.9076 H   0  0  0  0  0  0
  -22.0593   -2.7614   23.2828 H   0  0  0  0  0  0
  -22.4103  -11.9892   22.4751 H   0  0  0  0  0  0
  -21.1092  -13.1252   22.2606 H   0  0  0  0  0  0
  -24.6537  -15.8311   20.5039 H   0  0  0  0  0  0
  -26.2709  -15.6245   20.0616 H   0  0  0  0  0  0
  -26.7121  -32.5535   23.1168 H   0  0  0  0  0  0
  -25.0086  -33.9786   25.0498 H   0  0  0  0  0  0
  -22.6908  -31.3123   21.4167 H   0  0  0  0  0  0
  -23.3791  -35.9591   23.3184 H   0  0  0  0  0  0
  -24.3614  -36.9044   22.2062 H   0  0  0  0  0  0
  -23.7150  -37.6447   23.6710 H   0  0  0  0  0  0
  -26.0467  -31.6023   20.6062 H   0  0  0  0  0  0
  -26.8211  -30.8816   21.9897 H   0  0  0  0  0  0
  -28.0988  -29.0855   21.1703 H   0  0  0  0  0  0
  -26.0069  -26.0134   18.9532 H   0  0  0  0  0  0
  -23.9683  -27.3350   19.0046 H   0  0  0  0  0  0
  -23.7155  -30.6145   19.4094 H   0  0  0  0  0  0
  -22.7347  -29.2554   19.8680 H   0  0  0  0  0  0
  -25.1268  -36.1967   25.0815 H   0  0  0  0  0  0
  -20.9930  -28.3221   24.1444 H   0  0  0  0  0  0
  -20.5660  -26.2265   23.3601 H   0  0  0  0  0  0
  -21.6633  -26.7437   22.1206 H   0  0  0  0  0  0
  -19.6907  -25.6298   21.1224 H   0  0  0  0  0  0
  -19.6699  -27.3210   20.6756 H   0  0  0  0  0  0
  -17.4191  -26.6694   21.3991 H   0  0  0  0  0  0
  -18.0301  -26.0048   22.8976 H   0  0  0  0  0  0
  -19.7920  -30.7248   24.2302 H   0  0  0  0  0  0
  -17.5001  -31.6267   24.5159 H   0  0  0  0  0  0
  -15.5342  -30.2994   23.7654 H   0  0  0  0  0  0
  -15.8653  -28.0842   22.7052 H   0  0  0  0  0  0
  -24.5957  -30.6967   25.7805 H   0  0  0  0  0  0
  -24.8854  -32.2807   26.4898 H   0  0  0  0  0  0
  -25.8092  -30.8875   27.0246 H   0  0  0  0  0  0
  -26.2855  -29.6793   24.1173 H   0  0  0  0  0  0
  -27.4086  -29.7281   25.4576 H   0  0  0  0  0  0
  -27.8690  -30.4355   23.9261 H   0  0  0  0  0  0
  -27.2704  -33.3618   26.2083 H   0  0  0  0  0  0
  -28.3891  -32.6832   25.0348 H   0  0  0  0  0  0
  -28.0696  -31.8406   26.5429 H   0  0  0  0  0  0
  -28.2493  -38.0211   24.7710 H   0  0  0  0  0  0
  -28.1252  -36.2765   24.5965 H   0  0  0  0  0  0
  -27.2369  -37.1066   25.8826 H   0  0  0  0  0  0
  -20.9292  -29.8789   21.6984 H   0  0  0  0  0  0
  -26.0161  -38.2864   24.1595 H   0  0  0  0  0  0
  -31.2693  -20.2149   22.3596 H   0  0  0  0  0  0
  -28.8286  -20.4150   18.8035 H   0  0  0  0  0  0
  -30.8025  -17.7880   22.5460 H   0  0  0  0  0  0
  -28.3524  -18.0015   18.9982 H   0  0  0  0  0  0
  -30.8211  -22.1659   19.4544 H   0  0  0  0  0  0
  -31.1356  -22.2791   21.1660 H   0  0  0  0  0  0
  -28.8883  -15.8981   19.8847 H   0  0  0  0  0  0
  -28.2778  -16.1548   21.5021 H   0  0  0  0  0  0
  -28.3571  -22.5774   19.9062 H   0  0  0  0  0  0
  -28.7118  -22.7453   21.6064 H   0  0  0  0  0  0
  -27.6696  -25.2062   21.4363 H   0  0  0  0  0  0
  -27.4082  -24.8160   19.7462 H   0  0  0  0  0  0
  1 25  1  0  0  0
  1 30  2  0  0  0
  1 83  1  0  0  0
  2  3  1  0  0  0
  2 25  1  0  0  0
  2 84  1  0  0  0
  2 85  1  0  0  0
  3  4  1  0  0  0
  3 86  1  0  0  0
  3 87  1  0  0  0
  4  5  1  0  0  0
  4 88  1  0  0  0
  4 89  1  0  0  0
  5  6  1  0  0  0
  5 26  1  0  0  0
  5 90  1  0  0  0
  6 25  1  0  0  0
  6 91  1  0  0  0
  6 92  1  0  0  0
  7  8  2  0  0  0
  7 26  1  0  0  0
  7 29  1  0  0  0
  8  9  1  0  0  0
  8 22  1  0  0  0
  9 10  1  0  0  0
  9 27  2  0  0  0
 10 11  2  0  0  0
 10 15  1  0  0  0
 11 12  1  0  0  0
 11 93  1  0  0  0
 12 13  2  0  0  0
 12 94  1  0  0  0
 13 14  1  0  0  0
 13 31  1  0  0  0
 14 15  2  0  0  0
 14 95  1  0  0  0
 15 96  1  0  0  0
 16 17  2  0  0  0
 16 21  1  0  0  0
 16 31  1  0  0  0
 17 18  1  0  0  0
 17 97  1  0  0  0
 18 19  2  0  0  0
 18 98  1  0  0  0
 19 20  1  0  0  0
 19 24  1  0  0  0
 20 21  2  0  0  0
 20 99  1  0  0  0
 21 23  1  0  0  0
 22 28  1  0  0  0
 22 32  2  0  0  0
 26 27  1  0  0  0
 28100  1  0  0  0
 28101  1  0  0  0
 29102  1  0  0  0
 29103  1  0  0  0
 33 34  1  0  0  0
 33 66  1  0  0  0
 33 70  2  0  0  0
 34 36  1  0  0  0
 34 59  1  0  0  0
 34104  1  0  0  0
 35 44  2  0  0  0
 35 45  1  0  0  0
 35 68  1  0  0  0
 36 56  1  0  0  0
 36105  1  0  0  0
 37 39  1  0  0  0
 37 47  1  0  0  0
 37 66  1  0  0  0
 37106  1  0  0  0
 38 43  2  0  0  0
 38 46  1  0  0  0
 38 47  1  0  0  0
 39 64  1  0  0  0
 39 67  2  0  0  0
 40 52  1  0  0  0
 40 53  2  0  0  0
 40 58  1  0  0  0
 41107  1  0  0  0
 41108  1  0  0  0
 41109  1  0  0  0
 41 48  1  0  0  0
 42 43  1  0  0  0
 42 66  1  0  0  0
 42110  1  0  0  0
 42111  1  0  0  0
 43 44  1  0  0  0
 44112  1  0  0  0
 45 46  2  0  0  0
 45113  1  0  0  0
 46114  1  0  0  0
 47115  1  0  0  0
 47116  1  0  0  0
 48 56  1  0  0  0
 48 65  1  0  0  0
 48117  1  0  0  0
 49 50  1  0  0  0
 49 53  1  0  0  0
 49 64  1  0  0  0
 49118  1  0  0  0
 50 51  1  0  0  0
 50119  1  0  0  0
 50120  1  0  0  0
 51 52  1  0  0  0
 51121  1  0  0  0
 51122  1  0  0  0
 52123  1  0  0  0
 52124  1  0  0  0
 53 54  1  0  0  0
 54 55  2  0  0  0
 54125  1  0  0  0
 55 57  1  0  0  0
 55126  1  0  0  0
 56 69  2  0  0  0
 57 58  2  0  0  0
 57127  1  0  0  0
 58128  1  0  0  0
 59 60  1  0  0  0
 59 61  1  0  0  0
 59 62  1  0  0  0
 60129  1  0  0  0
 60130  1  0  0  0
 60131  1  0  0  0
 61132  1  0  0  0
 61133  1  0  0  0
 61134  1  0  0  0
 62135  1  0  0  0
 62136  1  0  0  0
 62137  1  0  0  0
 63 65  1  0  0  0
 63138  1  0  0  0
 63139  1  0  0  0
 63140  1  0  0  0
 64141  1  0  0  0
 65142  1  0  0  0
 68 81  1  0  0  0
 71 73  2  0  0  0
 71 75  1  0  0  0
 71143  1  0  0  0
 72 74  1  0  0  0
 72 75  2  0  0  0
 72144  1  0  0  0
 73 76  1  0  0  0
 73145  1  0  0  0
 74 76  2  0  0  0
 74146  1  0  0  0
 75 78  1  0  0  0
 76 79  1  0  0  0
 77 80  1  0  0  0
 77 81  1  0  0  0
 77 82  2  0  0  0
 78 80  1  0  0  0
 78147  1  0  0  0
 78148  1  0  0  0
 79 83  1  0  0  0
 79149  1  0  0  0
 79150  1  0  0  0
 80151  1  0  0  0
 80152  1  0  0  0
 81153  1  0  0  0
 81154  1  0  0  0
M  ISO  4   1 100  68 101  81 101  83 100
M  END
> <chiral flag>
0

> <version>
0

> <s_m_source_file>
/data/baiqing/PycharmProjects/Reinvent-master-3.2/result/LINK_invent/BTK/process_docking_weight1_custom_product_contain_oxygen_bond_distance_aromatic_linkinvent_7_9_3/rearranged_h_0132.sdf

> <i_m_source_file_index>
47

> <r_mmod_Potential_Energy-OPLS-2005>
-45.5771560668945

> <r_mmod_Stretch_Energy-OPLS-2005>
35.0978584289551

> <r_mmod_Bend_Energy-OPLS-2005>
91.0210266113281

> <r_mmod_Torsional_Energy-OPLS-2005>
206.121658325195

> <r_mmod_Improper_Torsional_Energy-OPLS-2005>
2.05032157897949

> <r_mmod_Van_der_Waal_Energy-OPLS-2005>
148.232086181641

> <r_mmod_Electrostatic_Energy-OPLS-2005>
-323.106781005859

> <r_mmod_Solvation_Energy-OPLS-2005>
-217.357055664062

> <b_mmod_Minimization_Converged-OPLS-2005>
0

> <r_mmod_RMS_Derivative-OPLS-2005>
1.96705996990204

$$$$
47
                    3D
 Structure written by MMmdl.
161169  0  0  1  0            999 V2000
  -30.6920  -14.4981   20.5692 C   0  0  0  0  0  0
  -30.4108  -12.3286   19.4123 C   0  0  0  0  0  0
  -29.4740  -12.4808   18.1973 C   0  0  0  0  0  0
  -27.9962  -12.3568   18.6104 C   0  0  0  0  0  0
  -27.6480  -13.2085   19.8582 C   0  0  2  0  0  0
  -28.6935  -13.0254   20.9818 C   0  0  0  0  0  0
  -25.2547  -13.8223   20.5679 C   0  0  0  0  0  0
  -24.1749  -13.0509   20.9212 C   0  0  0  0  0  0
  -24.6273  -11.6976   20.8745 C   0  0  0  0  0  0
  -23.8945  -10.4352   21.0453 C   0  0  0  0  0  0
  -24.3519   -9.4298   21.9237 C   0  0  0  0  0  0
  -23.6244   -8.2303   22.0794 C   0  0  0  0  0  0
  -22.4258   -8.0267   21.3563 C   0  0  0  0  0  0
  -21.9850   -9.0248   20.4695 C   0  0  0  0  0  0
  -22.7130  -10.2169   20.3116 C   0  0  0  0  0  0
  -21.6864   -6.0696   22.5275 C   0  0  0  0  0  0
  -21.4020   -6.5617   23.8200 C   0  0  0  0  0  0
  -21.3672   -5.6787   24.9170 C   0  0  0  0  0  0
  -21.6064   -4.3046   24.7240 C   0  0  0  0  0  0
  -21.8817   -3.8127   23.4366 C   0  0  0  0  0  0
  -21.9193   -4.6922   22.3418 C   0  0  0  0  0  0
  -22.7798  -13.5369   21.1851 C   0  0  0  0  0  0
  -22.1649   -4.2104   21.0990 F   0  0  0  0  0  0
  -21.5648   -3.4535   25.7758 F   0  0  0  0  0  0
  -30.0206  -13.3221   20.4258 N   0  0  0  0  0  0
  -26.2915  -12.9331   20.3320 N   0  0  0  0  0  0
  -25.9197  -11.6515   20.5759 N   0  0  0  0  0  0
  -22.0329  -12.8413   22.0385 N   0  0  0  0  0  0
  -25.4461  -15.1874   20.4046 N   0  0  0  0  0  0
  -31.8135  -14.6624   20.0767 O   0  0  0  0  0  0
  -21.6670   -6.8822   21.4230 O   0  0  0  0  0  0
  -22.3545  -14.5668   20.6647 O   0  0  0  0  0  0
  -24.6289  -31.8688   23.2189 C   0  0  0  0  0  0
  -25.9193  -32.4821   23.8448 C   0  0  1  0  0  0
  -27.2168  -27.3972   20.0513 C   0  0  0  0  0  0
  -25.6087  -33.8602   24.2457 N   0  0  0  0  0  0
  -23.4179  -30.5118   21.5536 C   0  0  2  0  0  0
  -24.8537  -28.9856   20.1038 C   0  0  0  0  0  0
  -22.7526  -29.4698   22.4841 C   0  0  0  0  0  0
  -18.0314  -28.1481   22.8373 C   0  0  0  0  0  0
  -24.1504  -36.7229   23.2638 C   0  0  0  0  0  0
  -25.9608  -30.8077   21.3999 C   0  0  0  0  0  0
  -26.0186  -29.4487   20.7221 C   0  0  0  0  0  0
  -27.1958  -28.6602   20.6999 C   0  0  0  0  0  0
  -26.0223  -26.9668   19.4194 C   0  0  0  0  0  0
  -24.8546  -27.7472   19.4461 C   0  0  0  0  0  0
  -23.6432  -29.8912   20.1495 C   0  0  0  0  0  0
  -25.4135  -36.3099   24.0378 C   0  0  1  0  0  0
  -20.5924  -28.3723   23.1161 C   0  0  2  0  0  0
  -20.6876  -26.9479   22.5265 C   0  0  0  0  0  0
  -19.5773  -26.6316   21.5180 C   0  0  0  0  0  0
  -18.1915  -26.8034   22.1484 C   0  0  0  0  0  0
  -19.1571  -28.8902   23.2830 C   0  0  0  0  0  0
  -18.9513  -30.1446   23.8950 C   0  0  0  0  0  0
  -17.6532  -30.6619   24.0628 C   0  0  0  0  0  0
  -25.9055  -34.9459   23.5176 C   0  0  0  0  0  0
  -16.5412  -29.9195   23.6292 C   0  0  0  0  0  0
  -16.7302  -28.6638   23.0221 C   0  0  0  0  0  0
  -26.4671  -31.6544   25.0711 C   0  0  0  0  0  0
  -25.3938  -31.3485   26.1406 C   0  0  0  0  0  0
  -27.0568  -30.3012   24.6095 C   0  0  0  0  0  0
  -27.6327  -32.4220   25.7392 C   0  0  0  0  0  0
  -27.5624  -37.1776   24.8498 C   0  0  0  0  0  0
  -21.4231  -29.3133   22.3628 N   0  0  0  0  0  0
  -26.4339  -37.3776   23.9428 N   0  0  0  0  0  0
  -24.6868  -31.0752   22.1144 N   0  0  0  0  0  0
  -23.4294  -28.8160   23.2824 O   0  0  0  0  0  0
  -28.4060  -26.6723   20.0409 O   0  0  0  0  0  0
  -26.5464  -34.8891   22.4655 O   0  0  0  0  0  0
  -23.5458  -32.1441   23.7548 O   0  0  0  0  0  0
  -28.8536  -19.6697   23.2419 C   0  0  0  0  0  0
  -28.9248  -20.8150   22.4274 C   0  0  0  0  0  0
  -30.2594  -19.5547   20.8325 C   0  0  0  0  0  0
  -29.5169  -18.4776   22.8866 C   0  0  0  0  0  0
  -30.1450  -18.3687   21.6158 C   0  0  0  0  0  0
  -29.6779  -20.7872   21.2380 C   0  0  0  0  0  0
  -29.6145  -17.4075   23.9605 C   0  0  0  0  0  0
  -27.8851  -24.5150   21.8636 C   0  0  0  0  0  0
  -30.7858  -17.0624   21.0894 C   0  0  0  0  0  0
  -30.0047  -15.7117   21.2492 C   0  0  0  0  0  0
  -28.4746  -25.3062   19.5482 C   0  0  0  0  0  0
  -28.7694  -22.7736   20.1752 C   0  0  0  0  0  0
  -28.8210  -24.2683   20.6641 C   0  0  2  0  0  0
  -29.9016  -21.9439   20.5082 O   0  0  0  0  0  0
  -31.4450  -12.4495   19.0865 H   0  0  0  0  0  0
  -30.3443  -11.3249   19.8323 H   0  0  0  0  0  0
  -29.7061  -11.7145   17.4577 H   0  0  0  0  0  0
  -29.6421  -13.4406   17.7047 H   0  0  0  0  0  0
  -27.7954  -11.3021   18.8052 H   0  0  0  0  0  0
  -27.3485  -12.6326   17.7774 H   0  0  0  0  0  0
  -27.6797  -14.2512   19.5376 H   0  0  0  0  0  0
  -28.6719  -12.0054   21.3686 H   0  0  0  0  0  0
  -28.4477  -13.6645   21.8297 H   0  0  0  0  0  0
  -25.2627   -9.5830   22.4851 H   0  0  0  0  0  0
  -23.9985   -7.4717   22.7521 H   0  0  0  0  0  0
  -21.0795   -8.8738   19.8992 H   0  0  0  0  0  0
  -22.3541  -10.9703   19.6250 H   0  0  0  0  0  0
  -21.1988   -7.6131   23.9668 H   0  0  0  0  0  0
  -21.1509   -6.0539   25.9067 H   0  0  0  0  0  0
  -22.0574   -2.7584   23.2897 H   0  0  0  0  0  0
  -22.3781  -12.0057   22.4860 H   0  0  0  0  0  0
  -21.0961  -13.1589   22.2496 H   0  0  0  0  0  0
  -24.7077  -15.8759   20.4985 H   0  0  0  0  0  0
  -26.3232  -15.5919   20.1006 H   0  0  0  0  0  0
  -26.7276  -32.5519   23.1197 H   0  0  0  0  0  0
  -25.0635  -33.9787   25.0871 H   0  0  0  0  0  0
  -22.7189  -31.3430   21.4332 H   0  0  0  0  0  0
  -23.3837  -35.9496   23.3311 H   0  0  0  0  0  0
  -24.3614  -36.8756   22.2045 H   0  0  0  0  0  0
  -23.7152  -37.6410   23.6593 H   0  0  0  0  0  0
  -26.1222  -31.6045   20.6726 H   0  0  0  0  0  0
  -26.8316  -30.8196   22.0438 H   0  0  0  0  0  0
  -28.0933  -29.0085   21.1884 H   0  0  0  0  0  0
  -25.9383  -26.0548   18.8518 H   0  0  0  0  0  0
  -23.9709  -27.4103   18.9199 H   0  0  0  0  0  0
  -23.8383  -30.7057   19.4494 H   0  0  0  0  0  0
  -22.7531  -29.3905   19.7710 H   0  0  0  0  0  0
  -25.1316  -36.2010   25.0880 H   0  0  0  0  0  0
  -21.0051  -28.3295   24.1274 H   0  0  0  0  0  0
  -20.5996  -26.2291   23.3427 H   0  0  0  0  0  0
  -21.6681  -26.7666   22.0845 H   0  0  0  0  0  0
  -19.6874  -25.6141   21.1415 H   0  0  0  0  0  0
  -19.6735  -27.2881   20.6518 H   0  0  0  0  0  0
  -17.4270  -26.6980   21.3763 H   0  0  0  0  0  0
  -18.0064  -26.0182   22.8817 H   0  0  0  0  0  0
  -19.8002  -30.7186   24.2435 H   0  0  0  0  0  0
  -17.5124  -31.6255   24.5352 H   0  0  0  0  0  0
  -15.5439  -30.3156   23.7587 H   0  0  0  0  0  0
  -15.8676  -28.1045   22.6845 H   0  0  0  0  0  0
  -24.6166  -30.6876   25.7560 H   0  0  0  0  0  0
  -24.9089  -32.2527   26.5058 H   0  0  0  0  0  0
  -25.8254  -30.8386   27.0022 H   0  0  0  0  0  0
  -26.3052  -29.6531   24.1557 H   0  0  0  0  0  0
  -27.4830  -29.7502   25.4487 H   0  0  0  0  0  0
  -27.8701  -30.4359   23.8962 H   0  0  0  0  0  0
  -27.3138  -33.3534   26.2080 H   0  0  0  0  0  0
  -28.4030  -32.6726   25.0085 H   0  0  0  0  0  0
  -28.1180  -31.8250   26.5132 H   0  0  0  0  0  0
  -28.2669  -38.0059   24.7592 H   0  0  0  0  0  0
  -28.1101  -36.2588   24.6331 H   0  0  0  0  0  0
  -27.2305  -37.1406   25.8887 H   0  0  0  0  0  0
  -20.9389  -29.9010   21.6983 H   0  0  0  0  0  0
  -26.0248  -38.2866   24.1421 H   0  0  0  0  0  0
  -28.3318  -19.7242   24.1875 H   0  0  0  0  0  0
  -28.4592  -21.7305   22.7598 H   0  0  0  0  0  0
  -30.8136  -19.5266   19.9030 H   0  0  0  0  0  0
  -29.6988  -17.8887   24.9356 H   0  0  0  0  0  0
  -30.5121  -16.7960   23.8646 H   0  0  0  0  0  0
  -28.7306  -16.7700   23.9824 H   0  0  0  0  0  0
  -26.8471  -24.3562   21.5677 H   0  0  0  0  0  0
  -27.9681  -25.5470   22.2021 H   0  0  0  0  0  0
  -28.0955  -23.8907   22.7312 H   0  0  0  0  0  0
  -31.7645  -16.9592   21.5544 H   0  0  0  0  0  0
  -30.9729  -17.2122   20.0220 H   0  0  0  0  0  0
  -29.0085  -15.8342   20.8278 H   0  0  0  0  0  0
  -29.8865  -15.4425   22.2939 H   0  0  0  0  0  0
  -27.5983  -24.9699   19.0058 H   0  0  0  0  0  0
  -29.2650  -25.2933   18.7986 H   0  0  0  0  0  0
  -28.7491  -22.7549   19.0857 H   0  0  0  0  0  0
  -27.8295  -22.3021   20.4635 H   0  0  0  0  0  0
  -29.8408  -24.4859   20.9784 H   0  0  0  0  0  0
  1 25  1  0  0  0
  1 30  2  0  0  0
  1 80  1  0  0  0
  2  3  1  0  0  0
  2 25  1  0  0  0
  2 85  1  0  0  0
  2 86  1  0  0  0
  3  4  1  0  0  0
  3 87  1  0  0  0
  3 88  1  0  0  0
  4  5  1  0  0  0
  4 89  1  0  0  0
  4 90  1  0  0  0
  5  6  1  0  0  0
  5 26  1  0  0  0
  5 91  1  0  0  0
  6 25  1  0  0  0
  6 92  1  0  0  0
  6 93  1  0  0  0
  7  8  2  0  0  0
  7 26  1  0  0  0
  7 29  1  0  0  0
  8  9  1  0  0  0
  8 22  1  0  0  0
  9 10  1  0  0  0
  9 27  2  0  0  0
 10 11  2  0  0  0
 10 15  1  0  0  0
 11 12  1  0  0  0
 11 94  1  0  0  0
 12 13  2  0  0  0
 12 95  1  0  0  0
 13 14  1  0  0  0
 13 31  1  0  0  0
 14 15  2  0  0  0
 14 96  1  0  0  0
 15 97  1  0  0  0
 16 17  2  0  0  0
 16 21  1  0  0  0
 16 31  1  0  0  0
 17 18  1  0  0  0
 17 98  1  0  0  0
 18 19  2  0  0  0
 18 99  1  0  0  0
 19 20  1  0  0  0
 19 24  1  0  0  0
 20 21  2  0  0  0
 20100  1  0  0  0
 21 23  1  0  0  0
 22 28  1  0  0  0
 22 32  2  0  0  0
 26 27  1  0  0  0
 28101  1  0  0  0
 28102  1  0  0  0
 29103  1  0  0  0
 29104  1  0  0  0
 33 34  1  0  0  0
 33 66  1  0  0  0
 33 70  2  0  0  0
 34 36  1  0  0  0
 34 59  1  0  0  0
 34105  1  0  0  0
 35 44  2  0  0  0
 35 45  1  0  0  0
 35 68  1  0  0  0
 36 56  1  0  0  0
 36106  1  0  0  0
 37 39  1  0  0  0
 37 47  1  0  0  0
 37 66  1  0  0  0
 37107  1  0  0  0
 38 43  2  0  0  0
 38 46  1  0  0  0
 38 47  1  0  0  0
 39 64  1  0  0  0
 39 67  2  0  0  0
 40 52  1  0  0  0
 40 53  2  0  0  0
 40 58  1  0  0  0
 41108  1  0  0  0
 41109  1  0  0  0
 41110  1  0  0  0
 41 48  1  0  0  0
 42 43  1  0  0  0
 42 66  1  0  0  0
 42111  1  0  0  0
 42112  1  0  0  0
 43 44  1  0  0  0
 44113  1  0  0  0
 45 46  2  0  0  0
 45114  1  0  0  0
 46115  1  0  0  0
 47116  1  0  0  0
 47117  1  0  0  0
 48 56  1  0  0  0
 48 65  1  0  0  0
 48118  1  0  0  0
 49 50  1  0  0  0
 49 53  1  0  0  0
 49 64  1  0  0  0
 49119  1  0  0  0
 50 51  1  0  0  0
 50120  1  0  0  0
 50121  1  0  0  0
 51 52  1  0  0  0
 51122  1  0  0  0
 51123  1  0  0  0
 52124  1  0  0  0
 52125  1  0  0  0
 53 54  1  0  0  0
 54 55  2  0  0  0
 54126  1  0  0  0
 55 57  1  0  0  0
 55127  1  0  0  0
 56 69  2  0  0  0
 57 58  2  0  0  0
 57128  1  0  0  0
 58129  1  0  0  0
 59 60  1  0  0  0
 59 61  1  0  0  0
 59 62  1  0  0  0
 60130  1  0  0  0
 60131  1  0  0  0
 60132  1  0  0  0
 61133  1  0  0  0
 61134  1  0  0  0
 61135  1  0  0  0
 62136  1  0  0  0
 62137  1  0  0  0
 62138  1  0  0  0
 63 65  1  0  0  0
 63139  1  0  0  0
 63140  1  0  0  0
 63141  1  0  0  0
 64142  1  0  0  0
 65143  1  0  0  0
 68 81  1  0  0  0
 71 72  2  0  0  0
 71 74  1  0  0  0
 71144  1  0  0  0
 72 76  1  0  0  0
 72145  1  0  0  0
 73 75  1  0  0  0
 73 76  2  0  0  0
 73146  1  0  0  0
 74 75  2  0  0  0
 74 77  1  0  0  0
 75 79  1  0  0  0
 76 84  1  0  0  0
 77147  1  0  0  0
 77148  1  0  0  0
 77149  1  0  0  0
 78150  1  0  0  0
 78151  1  0  0  0
 78152  1  0  0  0
 78 83  1  0  0  0
 79 80  1  0  0  0
 79153  1  0  0  0
 79154  1  0  0  0
 80155  1  0  0  0
 80156  1  0  0  0
 81 83  1  0  0  0
 81157  1  0  0  0
 81158  1  0  0  0
 82 83  1  0  0  0
 82 84  1  0  0  0
 82159  1  0  0  0
 82160  1  0  0  0
 83161  1  0  0  0
M  ISO  4   1 100  68 101  80 100  81 101
M  END
> <chiral flag>
0

> <version>
0

> <s_m_source_file>
/data/baiqing/PycharmProjects/Reinvent-master-3.2/result/LINK_invent/BTK/process_docking_weight1_custom_product_contain_oxygen_bond_distance_aromatic_linkinvent_7_9_3/rearranged_h_0132.sdf

> <i_m_source_file_index>
48

> <r_mmod_Potential_Energy-OPLS-2005>
15.434045791626

> <r_mmod_Stretch_Energy-OPLS-2005>
48.4262771606445

> <r_mmod_Bend_Energy-OPLS-2005>
123.779762268066

> <r_mmod_Torsional_Energy-OPLS-2005>
205.654647827148

> <r_mmod_Improper_Torsional_Energy-OPLS-2005>
3.15141034126282

> <r_mmod_Van_der_Waal_Energy-OPLS-2005>
158.325561523438

> <r_mmod_Electrostatic_Energy-OPLS-2005>
-352.451629638672

> <r_mmod_Solvation_Energy-OPLS-2005>
-193.388809204102

> <b_mmod_Minimization_Converged-OPLS-2005>
0

> <r_mmod_RMS_Derivative-OPLS-2005>
7.28876733779907

$$$$
48
                    3D
 Structure written by MMmdl.
160168  0  0  1  0            999 V2000
  -30.5717  -14.6113   20.6209 C   0  0  0  0  0  0
  -30.4627  -12.4287   19.4034 C   0  0  0  0  0  0
  -29.5007  -12.5436   18.1905 C   0  0  0  0  0  0
  -28.0109  -12.3975   18.5812 C   0  0  0  0  0  0
  -27.6580  -13.1883   19.8632 C   0  0  2  0  0  0
  -28.7006  -12.8659   20.9483 C   0  0  0  0  0  0
  -25.2614  -13.8105   20.5568 C   0  0  0  0  0  0
  -24.1866  -13.0425   20.9077 C   0  0  0  0  0  0
  -24.6386  -11.6875   20.8652 C   0  0  0  0  0  0
  -23.9081  -10.4258   21.0348 C   0  0  0  0  0  0
  -24.3635   -9.4206   21.9172 C   0  0  0  0  0  0
  -23.6279   -8.2263   22.0801 C   0  0  0  0  0  0
  -22.4279   -8.0273   21.3556 C   0  0  0  0  0  0
  -21.9888   -9.0274   20.4697 C   0  0  0  0  0  0
  -22.7231  -10.2129   20.3044 C   0  0  0  0  0  0
  -21.6849   -6.0741   22.5287 C   0  0  0  0  0  0
  -21.4035   -6.5637   23.8232 C   0  0  0  0  0  0
  -21.3653   -5.6779   24.9166 C   0  0  0  0  0  0
  -21.6032   -4.3055   24.7212 C   0  0  0  0  0  0
  -21.8814   -3.8148   23.4330 C   0  0  0  0  0  0
  -21.9208   -4.6969   22.3385 C   0  0  0  0  0  0
  -22.7903  -13.5266   21.1743 C   0  0  0  0  0  0
  -22.1685   -4.2143   21.0967 F   0  0  0  0  0  0
  -21.5618   -3.4560   25.7743 F   0  0  0  0  0  0
  -30.0066  -13.3588   20.4645 N   0  0  0  0  0  0
  -26.3003  -12.9227   20.3204 N   0  0  0  0  0  0
  -25.9271  -11.6403   20.5582 N   0  0  0  0  0  0
  -22.0497  -12.8318   22.0301 N   0  0  0  0  0  0
  -25.4302  -15.1825   20.4011 N   0  0  0  0  0  0
  -31.6681  -14.8726   20.1065 O   0  0  0  0  0  0
  -21.6640   -6.8875   21.4250 O   0  0  0  0  0  0
  -22.3616  -14.5540   20.6498 O   0  0  0  0  0  0
  -24.6277  -31.8569   23.1936 C   0  0  0  0  0  0
  -25.9149  -32.4753   23.8316 C   0  0  1  0  0  0
  -27.2522  -27.3448   20.0993 C   0  0  0  0  0  0
  -25.5935  -33.8558   24.2280 N   0  0  0  0  0  0
  -23.4242  -30.4735   21.5328 C   0  0  2  0  0  0
  -24.8732  -28.9170   20.1125 C   0  0  0  0  0  0
  -22.7505  -29.4607   22.4865 C   0  0  0  0  0  0
  -18.0305  -28.1365   22.8471 C   0  0  0  0  0  0
  -24.1487  -36.7308   23.2650 C   0  0  0  0  0  0
  -25.9568  -30.7999   21.3532 C   0  0  0  0  0  0
  -26.0339  -29.4206   20.7065 C   0  0  0  0  0  0
  -27.2226  -28.6428   20.6877 C   0  0  0  0  0  0
  -26.0650  -26.8749   19.4947 C   0  0  0  0  0  0
  -24.8845  -27.6492   19.5018 C   0  0  0  0  0  0
  -23.6407  -29.7929   20.1520 C   0  0  0  0  0  0
  -25.4098  -36.3080   24.0350 C   0  0  1  0  0  0
  -20.5905  -28.3709   23.1223 C   0  0  2  0  0  0
  -20.6742  -26.9411   22.5385 C   0  0  0  0  0  0
  -19.5723  -26.6372   21.5173 C   0  0  0  0  0  0
  -18.1915  -26.7909   22.1613 C   0  0  0  0  0  0
  -19.1552  -28.8848   23.2868 C   0  0  0  0  0  0
  -18.9483  -30.1421   23.8928 C   0  0  0  0  0  0
  -17.6488  -30.6569   24.0545 C   0  0  0  0  0  0
  -25.9018  -34.9445   23.5106 C   0  0  0  0  0  0
  -16.5377  -29.9092   23.6266 C   0  0  0  0  0  0
  -16.7295  -28.6481   23.0340 C   0  0  0  0  0  0
  -26.4554  -31.6538   25.0679 C   0  0  0  0  0  0
  -25.3820  -31.3664   26.1442 C   0  0  0  0  0  0
  -27.0354  -30.2960   24.6057 C   0  0  0  0  0  0
  -27.6115  -32.4249   25.7485 C   0  0  0  0  0  0
  -27.5566  -37.1802   24.8480 C   0  0  0  0  0  0
  -21.4225  -29.3081   22.3642 N   0  0  0  0  0  0
  -26.4276  -37.3774   23.9424 N   0  0  0  0  0  0
  -24.6882  -31.0605   22.0847 N   0  0  0  0  0  0
  -23.4208  -28.8148   23.2967 O   0  0  0  0  0  0
  -28.4305  -26.5951   20.1407 O   0  0  0  0  0  0
  -26.5590  -34.8928   22.4681 O   0  0  0  0  0  0
  -23.5428  -32.1362   23.7250 O   0  0  0  0  0  0
  -29.6677  -17.6518   19.7243 C   0  0  0  0  0  0
  -29.3663  -19.0003   19.3694 C   0  0  0  0  0  0
  -29.3078  -19.6144   21.6848 C   0  0  0  0  0  0
  -29.7512  -17.2168   21.0757 C   0  0  0  0  0  0
  -29.1442  -20.0092   20.3404 C   0  0  0  0  0  0
  -29.5997  -18.2648   22.0673 C   0  0  0  0  0  0
  -29.7688  -15.7080   21.4432 C   0  0  0  0  0  0
  -29.9635  -19.1361   24.5215 C   0  0  0  0  0  0
  -28.5834  -21.4216   19.9446 C   0  0  0  0  0  0
  -29.6648  -17.9629   23.5755 C   0  0  0  0  0  0
  -29.1186  -22.7205   20.6700 C   0  0  0  0  0  0
  -28.2336  -24.0489   20.6640 C   0  0  0  0  0  0
  -28.5514  -25.2143   19.6477 C   0  0  0  0  0  0
  -29.0843  -15.3775   22.4527 N   0  0  0  0  0  0
  -30.4956  -11.4088   19.7833 H   0  0  0  0  0  0
  -31.4786  -12.6393   19.0711 H   0  0  0  0  0  0
  -29.7594  -11.7985   17.4393 H   0  0  0  0  0  0
  -29.6349  -13.5141   17.7105 H   0  0  0  0  0  0
  -27.7995  -11.3399   18.7321 H   0  0  0  0  0  0
  -27.3756  -12.7171   17.7524 H   0  0  0  0  0  0
  -27.7191  -14.2454   19.6117 H   0  0  0  0  0  0
  -28.7384  -11.7832   21.0800 H   0  0  0  0  0  0
  -28.4017  -13.1930   21.9350 H   0  0  0  0  0  0
  -25.2782   -9.5696   22.4764 H   0  0  0  0  0  0
  -23.9981   -7.4657   22.7555 H   0  0  0  0  0  0
  -21.0800   -8.8787   19.9027 H   0  0  0  0  0  0
  -22.3662  -10.9680   19.6170 H   0  0  0  0  0  0
  -21.2040   -7.6159   23.9715 H   0  0  0  0  0  0
  -21.1478   -6.0522   25.9063 H   0  0  0  0  0  0
  -22.0587   -2.7622   23.2820 H   0  0  0  0  0  0
  -22.4117  -12.0012   22.4760 H   0  0  0  0  0  0
  -21.1163  -13.1434   22.2567 H   0  0  0  0  0  0
  -24.6543  -15.8258   20.5156 H   0  0  0  0  0  0
  -26.2816  -15.6314   20.0910 H   0  0  0  0  0  0
  -26.7226  -32.5461   23.1078 H   0  0  0  0  0  0
  -25.0134  -33.9661   25.0466 H   0  0  0  0  0  0
  -22.7224  -31.2942   21.3748 H   0  0  0  0  0  0
  -23.3708  -35.9662   23.3309 H   0  0  0  0  0  0
  -24.3577  -36.8918   22.2050 H   0  0  0  0  0  0
  -23.7238  -37.6536   23.6641 H   0  0  0  0  0  0
  -26.0627  -31.5510   20.5673 H   0  0  0  0  0  0
  -26.8475  -30.8691   21.9645 H   0  0  0  0  0  0
  -28.1267  -29.0336   21.1323 H   0  0  0  0  0  0
  -26.0282  -25.9024   19.0261 H   0  0  0  0  0  0
  -23.9911  -27.2595   19.0367 H   0  0  0  0  0  0
  -23.7757  -30.5634   19.3925 H   0  0  0  0  0  0
  -22.7643  -29.2239   19.8375 H   0  0  0  0  0  0
  -25.1232  -36.1936   25.0816 H   0  0  0  0  0  0
  -21.0017  -28.3288   24.1340 H   0  0  0  0  0  0
  -20.5531  -26.2357   23.3621 H   0  0  0  0  0  0
  -21.6609  -26.7332   22.1242 H   0  0  0  0  0  0
  -19.6877  -25.6281   21.1196 H   0  0  0  0  0  0
  -19.6619  -27.3178   20.6680 H   0  0  0  0  0  0
  -17.4164  -26.6670   21.4042 H   0  0  0  0  0  0
  -18.0352  -26.0036   22.8991 H   0  0  0  0  0  0
  -19.7974  -30.7187   24.2352 H   0  0  0  0  0  0
  -17.5056  -31.6227   24.5180 H   0  0  0  0  0  0
  -15.5387  -30.3009   23.7513 H   0  0  0  0  0  0
  -15.8713  -28.0770   22.7074 H   0  0  0  0  0  0
  -24.6028  -30.6946   25.7860 H   0  0  0  0  0  0
  -24.8977  -32.2794   26.4883 H   0  0  0  0  0  0
  -25.8207  -30.8912   27.0219 H   0  0  0  0  0  0
  -26.2857  -29.6730   24.1156 H   0  0  0  0  0  0
  -27.4184  -29.7194   25.4496 H   0  0  0  0  0  0
  -27.8681  -30.4293   23.9143 H   0  0  0  0  0  0
  -27.2741  -33.3556   26.2074 H   0  0  0  0  0  0
  -28.3956  -32.6783   25.0338 H   0  0  0  0  0  0
  -28.0754  -31.8355   26.5411 H   0  0  0  0  0  0
  -28.2586  -38.0105   24.7459 H   0  0  0  0  0  0
  -28.1043  -36.2601   24.6327 H   0  0  0  0  0  0
  -27.2292  -37.1494   25.8903 H   0  0  0  0  0  0
  -20.9412  -29.8946   21.6966 H   0  0  0  0  0  0
  -26.0162  -38.2850   24.1413 H   0  0  0  0  0  0
  -29.7477  -16.9235   18.9275 H   0  0  0  0  0  0
  -29.2326  -19.2411   18.3233 H   0  0  0  0  0  0
  -29.1404  -20.3593   22.4422 H   0  0  0  0  0  0
  -29.9942  -18.7811   25.5498 H   0  0  0  0  0  0
  -29.1871  -19.8991   24.4931 H   0  0  0  0  0  0
  -30.9256  -19.5956   24.2933 H   0  0  0  0  0  0
  -27.5060  -21.3641   20.1155 H   0  0  0  0  0  0
  -28.6976  -21.5454   18.8649 H   0  0  0  0  0  0
  -30.4246  -17.2028   23.7579 H   0  0  0  0  0  0
  -28.7058  -17.5309   23.8796 H   0  0  0  0  0  0
  -29.2064  -22.4533   21.7237 H   0  0  0  0  0  0
  -30.1391  -22.9412   20.3536 H   0  0  0  0  0  0
  -28.3546  -24.4933   21.6514 H   0  0  0  0  0  0
  -27.1746  -23.7947   20.6129 H   0  0  0  0  0  0
  -28.0217  -25.0755   18.7031 H   0  0  0  0  0  0
  -29.6042  -25.1145   19.3723 H   0  0  0  0  0  0
  -28.6047  -16.1889   22.8318 H   0  0  0  0  0  0
  1 25  1  0  0  0
  1 30  2  0  0  0
  1 77  1  0  0  0
  2  3  1  0  0  0
  2 25  1  0  0  0
  2 85  1  0  0  0
  2 86  1  0  0  0
  3  4  1  0  0  0
  3 87  1  0  0  0
  3 88  1  0  0  0
  4  5  1  0  0  0
  4 89  1  0  0  0
  4 90  1  0  0  0
  5  6  1  0  0  0
  5 26  1  0  0  0
  5 91  1  0  0  0
  6 25  1  0  0  0
  6 92  1  0  0  0
  6 93  1  0  0  0
  7  8  2  0  0  0
  7 26  1  0  0  0
  7 29  1  0  0  0
  8  9  1  0  0  0
  8 22  1  0  0  0
  9 10  1  0  0  0
  9 27  2  0  0  0
 10 11  2  0  0  0
 10 15  1  0  0  0
 11 12  1  0  0  0
 11 94  1  0  0  0
 12 13  2  0  0  0
 12 95  1  0  0  0
 13 14  1  0  0  0
 13 31  1  0  0  0
 14 15  2  0  0  0
 14 96  1  0  0  0
 15 97  1  0  0  0
 16 17  2  0  0  0
 16 21  1  0  0  0
 16 31  1  0  0  0
 17 18  1  0  0  0
 17 98  1  0  0  0
 18 19  2  0  0  0
 18 99  1  0  0  0
 19 20  1  0  0  0
 19 24  1  0  0  0
 20 21  2  0  0  0
 20100  1  0  0  0
 21 23  1  0  0  0
 22 28  1  0  0  0
 22 32  2  0  0  0
 26 27  1  0  0  0
 28101  1  0  0  0
 28102  1  0  0  0
 29103  1  0  0  0
 29104  1  0  0  0
 33 34  1  0  0  0
 33 66  1  0  0  0
 33 70  2  0  0  0
 34 36  1  0  0  0
 34 59  1  0  0  0
 34105  1  0  0  0
 35 44  2  0  0  0
 35 45  1  0  0  0
 35 68  1  0  0  0
 36 56  1  0  0  0
 36106  1  0  0  0
 37 39  1  0  0  0
 37 47  1  0  0  0
 37 66  1  0  0  0
 37107  1  0  0  0
 38 43  2  0  0  0
 38 46  1  0  0  0
 38 47  1  0  0  0
 39 64  1  0  0  0
 39 67  2  0  0  0
 40 52  1  0  0  0
 40 53  2  0  0  0
 40 58  1  0  0  0
 41108  1  0  0  0
 41109  1  0  0  0
 41110  1  0  0  0
 41 48  1  0  0  0
 42 43  1  0  0  0
 42 66  1  0  0  0
 42111  1  0  0  0
 42112  1  0  0  0
 43 44  1  0  0  0
 44113  1  0  0  0
 45 46  2  0  0  0
 45114  1  0  0  0
 46115  1  0  0  0
 47116  1  0  0  0
 47117  1  0  0  0
 48 56  1  0  0  0
 48 65  1  0  0  0
 48118  1  0  0  0
 49 50  1  0  0  0
 49 53  1  0  0  0
 49 64  1  0  0  0
 49119  1  0  0  0
 50 51  1  0  0  0
 50120  1  0  0  0
 50121  1  0  0  0
 51 52  1  0  0  0
 51122  1  0  0  0
 51123  1  0  0  0
 52124  1  0  0  0
 52125  1  0  0  0
 53 54  1  0  0  0
 54 55  2  0  0  0
 54126  1  0  0  0
 55 57  1  0  0  0
 55127  1  0  0  0
 56 69  2  0  0  0
 57 58  2  0  0  0
 57128  1  0  0  0
 58129  1  0  0  0
 59 60  1  0  0  0
 59 61  1  0  0  0
 59 62  1  0  0  0
 60130  1  0  0  0
 60131  1  0  0  0
 60132  1  0  0  0
 61133  1  0  0  0
 61134  1  0  0  0
 61135  1  0  0  0
 62136  1  0  0  0
 62137  1  0  0  0
 62138  1  0  0  0
 63 65  1  0  0  0
 63139  1  0  0  0
 63140  1  0  0  0
 63141  1  0  0  0
 64142  1  0  0  0
 65143  1  0  0  0
 68 83  1  0  0  0
 71 72  2  0  0  0
 71 74  1  0  0  0
 71144  1  0  0  0
 72 75  1  0  0  0
 72145  1  0  0  0
 73 75  2  0  0  0
 73 76  1  0  0  0
 73146  1  0  0  0
 74 76  2  0  0  0
 74 77  1  0  0  0
 75 79  1  0  0  0
 76 80  1  0  0  0
 77 84  2  0  0  0
 78 80  1  0  0  0
 78147  1  0  0  0
 78148  1  0  0  0
 78149  1  0  0  0
 79 81  1  0  0  0
 79150  1  0  0  0
 79151  1  0  0  0
 80152  1  0  0  0
 80153  1  0  0  0
 81 82  1  0  0  0
 81154  1  0  0  0
 81155  1  0  0  0
 82 83  1  0  0  0
 82156  1  0  0  0
 82157  1  0  0  0
 83158  1  0  0  0
 83159  1  0  0  0
 84160  1  0  0  0
M  ISO  4   1 100  68 101  77 100  83 101
M  END
> <chiral flag>
0

> <version>
0

> <s_m_source_file>
/data/baiqing/PycharmProjects/Reinvent-master-3.2/result/LINK_invent/BTK/process_docking_weight1_custom_product_contain_oxygen_bond_distance_aromatic_linkinvent_7_9_3/rearranged_h_0132.sdf

> <i_m_source_file_index>
49

> <r_mmod_Potential_Energy-OPLS-2005>
281.250091552734

> <r_mmod_Stretch_Energy-OPLS-2005>
93.8649368286133

> <r_mmod_Bend_Energy-OPLS-2005>
169.075012207031

> <r_mmod_Torsional_Energy-OPLS-2005>
205.76171875

> <r_mmod_Improper_Torsional_Energy-OPLS-2005>
4.01963138580322

> <r_mmod_Van_der_Waal_Energy-OPLS-2005>
166.744125366211

> <r_mmod_Electrostatic_Energy-OPLS-2005>
-214.283615112305

> <r_mmod_Solvation_Energy-OPLS-2005>
-184.872741699219

> <b_mmod_Minimization_Converged-OPLS-2005>
0

> <r_mmod_RMS_Derivative-OPLS-2005>
6.197509765625

$$$$
49
                    3D
 Structure written by MMmdl.
164172  0  0  1  0            999 V2000
  -30.7138  -14.4934   20.5396 C   0  0  0  0  0  0
  -30.4144  -12.3056   19.4449 C   0  0  0  0  0  0
  -29.4959  -12.4929   18.2197 C   0  0  0  0  0  0
  -28.0152  -12.3616   18.6238 C   0  0  0  0  0  0
  -27.6559  -13.2124   19.8726 C   0  0  2  0  0  0
  -28.6983  -13.0189   20.9971 C   0  0  0  0  0  0
  -25.2569  -13.8174   20.5691 C   0  0  0  0  0  0
  -24.1824  -13.0443   20.9180 C   0  0  0  0  0  0
  -24.6385  -11.6907   20.8753 C   0  0  0  0  0  0
  -23.9049  -10.4295   21.0410 C   0  0  0  0  0  0
  -24.3595   -9.4212   21.9192 C   0  0  0  0  0  0
  -23.6277   -8.2244   22.0759 C   0  0  0  0  0  0
  -22.4267   -8.0282   21.3541 C   0  0  0  0  0  0
  -21.9891   -9.0255   20.4651 C   0  0  0  0  0  0
  -22.7214  -10.2139   20.3068 C   0  0  0  0  0  0
  -21.6858   -6.0733   22.5276 C   0  0  0  0  0  0
  -21.4013   -6.5634   23.8207 C   0  0  0  0  0  0
  -21.3663   -5.6788   24.9171 C   0  0  0  0  0  0
  -21.6046   -4.3049   24.7223 C   0  0  0  0  0  0
  -21.8814   -3.8142   23.4342 C   0  0  0  0  0  0
  -21.9183   -4.6958   22.3399 C   0  0  0  0  0  0
  -22.7847  -13.5250   21.1822 C   0  0  0  0  0  0
  -22.1653   -4.2147   21.0975 F   0  0  0  0  0  0
  -21.5626   -3.4530   25.7731 F   0  0  0  0  0  0
  -30.0280  -13.3172   20.4426 N   0  0  0  0  0  0
  -26.2995  -12.9348   20.3366 N   0  0  0  0  0  0
  -25.9318  -11.6500   20.5787 N   0  0  0  0  0  0
  -22.0468  -12.8291   22.0391 N   0  0  0  0  0  0
  -25.4298  -15.1896   20.4096 N   0  0  0  0  0  0
  -31.8690  -14.5915   20.1161 O   0  0  0  0  0  0
  -21.6635   -6.8881   21.4240 O   0  0  0  0  0  0
  -22.3541  -14.5535   20.6634 O   0  0  0  0  0  0
  -24.6105  -31.8686   23.2134 C   0  0  0  0  0  0
  -25.9002  -32.4842   23.8408 C   0  0  1  0  0  0
  -27.2466  -27.4552   20.1181 C   0  0  0  0  0  0
  -25.5842  -33.8640   24.2334 N   0  0  0  0  0  0
  -23.4005  -30.4908   21.5513 C   0  0  2  0  0  0
  -24.8542  -28.9622   20.1174 C   0  0  0  0  0  0
  -22.7406  -29.4658   22.5006 C   0  0  0  0  0  0
  -18.0261  -28.1383   22.8499 C   0  0  0  0  0  0
  -24.1462  -36.7352   23.2648 C   0  0  0  0  0  0
  -25.9245  -30.8471   21.3605 C   0  0  0  0  0  0
  -26.0100  -29.4815   20.7138 C   0  0  0  0  0  0
  -27.2131  -28.7393   20.7124 C   0  0  0  0  0  0
  -26.0797  -26.9572   19.5043 C   0  0  0  0  0  0
  -24.8826  -27.6963   19.5079 C   0  0  0  0  0  0
  -23.6109  -29.8211   20.1659 C   0  0  0  0  0  0
  -25.4068  -36.3129   24.0351 C   0  0  1  0  0  0
  -20.5850  -28.3664   23.1330 C   0  0  2  0  0  0
  -20.6744  -26.9404   22.5430 C   0  0  0  0  0  0
  -19.5724  -26.6395   21.5225 C   0  0  0  0  0  0
  -18.1899  -26.7936   22.1635 C   0  0  0  0  0  0
  -19.1514  -28.8844   23.2904 C   0  0  0  0  0  0
  -18.9453  -30.1444   23.8921 C   0  0  0  0  0  0
  -17.6459  -30.6591   24.0578 C   0  0  0  0  0  0
  -25.8995  -34.9489   23.5141 C   0  0  0  0  0  0
  -16.5345  -29.9102   23.6319 C   0  0  0  0  0  0
  -16.7253  -28.6514   23.0345 C   0  0  0  0  0  0
  -26.4494  -31.6614   25.0708 C   0  0  0  0  0  0
  -25.3805  -31.3707   26.1490 C   0  0  0  0  0  0
  -27.0323  -30.3059   24.6069 C   0  0  0  0  0  0
  -27.6085  -32.4358   25.7412 C   0  0  0  0  0  0
  -27.5567  -37.1799   24.8456 C   0  0  0  0  0  0
  -21.4132  -29.3032   22.3748 N   0  0  0  0  0  0
  -26.4279  -37.3797   23.9405 N   0  0  0  0  0  0
  -24.6635  -31.0808   22.1014 N   0  0  0  0  0  0
  -23.4176  -28.8212   23.3061 O   0  0  0  0  0  0
  -28.3558  -26.6395   20.0701 O   0  0  0  0  0  0
  -26.5585  -34.8943   22.4719 O   0  0  0  0  0  0
  -23.5308  -32.1410   23.7540 O   0  0  0  0  0  0
  -28.6375  -18.4764   21.0126 C   0  0  0  0  0  0
  -28.0636  -19.7415   21.2582 C   0  0  0  0  0  0
  -30.1378  -20.4919   22.2706 C   0  0  0  0  0  0
  -29.9776  -18.2029   21.3691 C   0  0  0  0  0  0
  -28.8058  -20.7632   21.8885 C   0  0  0  0  0  0
  -30.7250  -19.2298   22.0103 C   0  0  0  0  0  0
  -30.5840  -16.8788   21.0804 C   0  0  0  0  0  0
  -29.9577  -15.6799   20.9683 C   0  0  0  0  0  0
  -32.1667  -18.9976   22.4362 C   0  0  0  0  0  0
  -28.0247  -26.9803   23.3388 C   0  0  0  0  0  0
  -28.1217  -22.0956   22.2087 C   0  0  0  0  0  0
  -28.9543  -23.3914   22.0343 C   0  0  0  0  0  0
  -28.0957  -24.6420   22.3438 C   0  0  0  0  0  0
  -29.3075  -26.6413   21.1383 C   0  0  0  0  0  0
  -28.8385  -25.9984   22.4750 C   0  0  1  0  0  0
  -31.4609  -12.3781   19.1449 H   0  0  0  0  0  0
  -30.2974  -11.3046   19.8636 H   0  0  0  0  0  0
  -29.7406  -11.7572   17.4523 H   0  0  0  0  0  0
  -29.6686  -13.4729   17.7744 H   0  0  0  0  0  0
  -27.8206  -11.3072   18.8224 H   0  0  0  0  0  0
  -27.3718  -12.6347   17.7863 H   0  0  0  0  0  0
  -27.6909  -14.2561   19.5605 H   0  0  0  0  0  0
  -28.6792  -11.9879   21.3533 H   0  0  0  0  0  0
  -28.4646  -13.6277   21.8705 H   0  0  0  0  0  0
  -25.2742   -9.5690   22.4770 H   0  0  0  0  0  0
  -23.9981   -7.4640   22.7489 H   0  0  0  0  0  0
  -21.0814   -8.8772   19.8980 H   0  0  0  0  0  0
  -22.3660  -10.9673   19.6178 H   0  0  0  0  0  0
  -21.2015   -7.6140   23.9707 H   0  0  0  0  0  0
  -21.1493   -6.0522   25.9073 H   0  0  0  0  0  0
  -22.0594   -2.7605   23.2835 H   0  0  0  0  0  0
  -22.4058  -11.9959   22.4807 H   0  0  0  0  0  0
  -21.1100  -13.1376   22.2586 H   0  0  0  0  0  0
  -24.6658  -15.8479   20.5203 H   0  0  0  0  0  0
  -26.2846  -15.6250   20.0869 H   0  0  0  0  0  0
  -26.7068  -32.5614   23.1171 H   0  0  0  0  0  0
  -24.9930  -33.9775   25.0438 H   0  0  0  0  0  0
  -22.6894  -31.3066   21.4098 H   0  0  0  0  0  0
  -23.3698  -35.9715   23.3332 H   0  0  0  0  0  0
  -24.3538  -36.8957   22.2051 H   0  0  0  0  0  0
  -23.7245  -37.6568   23.6658 H   0  0  0  0  0  0
  -26.0230  -31.6112   20.5885 H   0  0  0  0  0  0
  -26.8175  -30.9134   21.9696 H   0  0  0  0  0  0
  -28.0975  -29.1557   21.1722 H   0  0  0  0  0  0
  -26.1000  -25.9821   19.0389 H   0  0  0  0  0  0
  -23.9956  -27.2876   19.0442 H   0  0  0  0  0  0
  -23.7133  -30.5934   19.4035 H   0  0  0  0  0  0
  -22.7387  -29.2344   19.8738 H   0  0  0  0  0  0
  -25.1242  -36.1992   25.0850 H   0  0  0  0  0  0
  -20.9933  -28.3231   24.1451 H   0  0  0  0  0  0
  -20.5625  -26.2282   23.3620 H   0  0  0  0  0  0
  -21.6612  -26.7424   22.1235 H   0  0  0  0  0  0
  -19.6858  -25.6312   21.1235 H   0  0  0  0  0  0
  -19.6656  -27.3217   20.6766 H   0  0  0  0  0  0
  -17.4168  -26.6706   21.4030 H   0  0  0  0  0  0
  -18.0272  -26.0081   22.9031 H   0  0  0  0  0  0
  -19.7933  -30.7241   24.2309 H   0  0  0  0  0  0
  -17.5021  -31.6263   24.5194 H   0  0  0  0  0  0
  -15.5351  -30.3013   23.7631 H   0  0  0  0  0  0
  -15.8655  -28.0842   22.7041 H   0  0  0  0  0  0
  -24.5974  -30.7052   25.7831 H   0  0  0  0  0  0
  -24.9017  -32.2859   26.4971 H   0  0  0  0  0  0
  -25.8233  -30.8890   27.0225 H   0  0  0  0  0  0
  -26.2862  -29.6808   24.1149 H   0  0  0  0  0  0
  -27.4200  -29.7326   25.4502 H   0  0  0  0  0  0
  -27.8642  -30.4396   23.9162 H   0  0  0  0  0  0
  -28.3825  -32.7005   25.0189 H   0  0  0  0  0  0
  -28.0844  -31.8457   26.5262 H   0  0  0  0  0  0
  -27.2670  -33.3602   26.2069 H   0  0  0  0  0  0
  -28.2587  -38.0093   24.7476 H   0  0  0  0  0  0
  -28.1048  -36.2615   24.6287 H   0  0  0  0  0  0
  -27.2284  -37.1456   25.8862 H   0  0  0  0  0  0
  -20.9300  -29.8801   21.7007 H   0  0  0  0  0  0
  -26.0183  -38.2881   24.1387 H   0  0  0  0  0  0
  -28.0390  -17.7244   20.5175 H   0  0  0  0  0  0
  -27.0376  -19.9165   20.9653 H   0  0  0  0  0  0
  -30.7124  -21.2537   22.7801 H   0  0  0  0  0  0
  -31.6479  -16.9126   20.8890 H   0  0  0  0  0  0
  -28.8986  -15.6275   21.1628 H   0  0  0  0  0  0
  -32.5553  -19.8326   23.0192 H   0  0  0  0  0  0
  -32.8087  -18.8793   21.5624 H   0  0  0  0  0  0
  -32.2485  -18.1021   23.0522 H   0  0  0  0  0  0
  -28.5399  -27.9348   23.4437 H   0  0  0  0  0  0
  -27.8678  -26.5866   24.3436 H   0  0  0  0  0  0
  -27.0411  -27.1752   22.9161 H   0  0  0  0  0  0
  -27.7677  -22.0333   23.2394 H   0  0  0  0  0  0
  -27.2228  -22.1786   21.5966 H   0  0  0  0  0  0
  -29.3475  -23.4547   21.0204 H   0  0  0  0  0  0
  -29.8147  -23.3675   22.7040 H   0  0  0  0  0  0
  -27.5946  -24.4514   23.2946 H   0  0  0  0  0  0
  -27.2898  -24.7332   21.6152 H   0  0  0  0  0  0
  -30.1527  -26.0577   20.7715 H   0  0  0  0  0  0
  -29.7118  -27.6395   21.3036 H   0  0  0  0  0  0
  -29.7453  -25.8098   23.0514 H   0  0  0  0  0  0
  1 25  1  0  0  0
  1 30  2  0  0  0
  1 78  1  0  0  0
  2  3  1  0  0  0
  2 25  1  0  0  0
  2 86  1  0  0  0
  2 87  1  0  0  0
  3  4  1  0  0  0
  3 88  1  0  0  0
  3 89  1  0  0  0
  4  5  1  0  0  0
  4 90  1  0  0  0
  4 91  1  0  0  0
  5  6  1  0  0  0
  5 26  1  0  0  0
  5 92  1  0  0  0
  6 25  1  0  0  0
  6 93  1  0  0  0
  6 94  1  0  0  0
  7  8  2  0  0  0
  7 26  1  0  0  0
  7 29  1  0  0  0
  8  9  1  0  0  0
  8 22  1  0  0  0
  9 10  1  0  0  0
  9 27  2  0  0  0
 10 11  2  0  0  0
 10 15  1  0  0  0
 11 12  1  0  0  0
 11 95  1  0  0  0
 12 13  2  0  0  0
 12 96  1  0  0  0
 13 14  1  0  0  0
 13 31  1  0  0  0
 14 15  2  0  0  0
 14 97  1  0  0  0
 15 98  1  0  0  0
 16 17  2  0  0  0
 16 21  1  0  0  0
 16 31  1  0  0  0
 17 18  1  0  0  0
 17 99  1  0  0  0
 18 19  2  0  0  0
 18100  1  0  0  0
 19 20  1  0  0  0
 19 24  1  0  0  0
 20 21  2  0  0  0
 20101  1  0  0  0
 21 23  1  0  0  0
 22 28  1  0  0  0
 22 32  2  0  0  0
 26 27  1  0  0  0
 28102  1  0  0  0
 28103  1  0  0  0
 29104  1  0  0  0
 29105  1  0  0  0
 33 34  1  0  0  0
 33 66  1  0  0  0
 33 70  2  0  0  0
 34 36  1  0  0  0
 34 59  1  0  0  0
 34106  1  0  0  0
 35 44  2  0  0  0
 35 45  1  0  0  0
 35 68  1  0  0  0
 36 56  1  0  0  0
 36107  1  0  0  0
 37 39  1  0  0  0
 37 47  1  0  0  0
 37 66  1  0  0  0
 37108  1  0  0  0
 38 43  2  0  0  0
 38 46  1  0  0  0
 38 47  1  0  0  0
 39 64  1  0  0  0
 39 67  2  0  0  0
 40 52  1  0  0  0
 40 53  2  0  0  0
 40 58  1  0  0  0
 41109  1  0  0  0
 41110  1  0  0  0
 41111  1  0  0  0
 41 48  1  0  0  0
 42 43  1  0  0  0
 42 66  1  0  0  0
 42112  1  0  0  0
 42113  1  0  0  0
 43 44  1  0  0  0
 44114  1  0  0  0
 45 46  2  0  0  0
 45115  1  0  0  0
 46116  1  0  0  0
 47117  1  0  0  0
 47118  1  0  0  0
 48 56  1  0  0  0
 48 65  1  0  0  0
 48119  1  0  0  0
 49 50  1  0  0  0
 49 53  1  0  0  0
 49 64  1  0  0  0
 49120  1  0  0  0
 50 51  1  0  0  0
 50121  1  0  0  0
 50122  1  0  0  0
 51 52  1  0  0  0
 51123  1  0  0  0
 51124  1  0  0  0
 52125  1  0  0  0
 52126  1  0  0  0
 53 54  1  0  0  0
 54 55  2  0  0  0
 54127  1  0  0  0
 55 57  1  0  0  0
 55128  1  0  0  0
 56 69  2  0  0  0
 57 58  2  0  0  0
 57129  1  0  0  0
 58130  1  0  0  0
 59 60  1  0  0  0
 59 61  1  0  0  0
 59 62  1  0  0  0
 60131  1  0  0  0
 60132  1  0  0  0
 60133  1  0  0  0
 61134  1  0  0  0
 61135  1  0  0  0
 61136  1  0  0  0
 62137  1  0  0  0
 62138  1  0  0  0
 62139  1  0  0  0
 63 65  1  0  0  0
 63140  1  0  0  0
 63141  1  0  0  0
 63142  1  0  0  0
 64143  1  0  0  0
 65144  1  0  0  0
 68 84  1  0  0  0
 71 72  2  0  0  0
 71 74  1  0  0  0
 71145  1  0  0  0
 72 75  1  0  0  0
 72146  1  0  0  0
 73 75  2  0  0  0
 73 76  1  0  0  0
 73147  1  0  0  0
 74 76  2  0  0  0
 74 77  1  0  0  0
 75 81  1  0  0  0
 76 79  1  0  0  0
 77 78  2  0  0  0
 77148  1  0  0  0
 78149  1  0  0  0
 79150  1  0  0  0
 79151  1  0  0  0
 79152  1  0  0  0
 80153  1  0  0  0
 80154  1  0  0  0
 80155  1  0  0  0
 80 85  1  0  0  0
 81 82  1  0  0  0
 81156  1  0  0  0
 81157  1  0  0  0
 82 83  1  0  0  0
 82158  1  0  0  0
 82159  1  0  0  0
 83 85  1  0  0  0
 83160  1  0  0  0
 83161  1  0  0  0
 84 85  1  0  0  0
 84162  1  0  0  0
 84163  1  0  0  0
 85164  1  0  0  0
M  ISO  4   1 100  68 101  78 100  84 101
M  END
> <chiral flag>
0

> <version>
0

> <s_m_source_file>
/data/baiqing/PycharmProjects/Reinvent-master-3.2/result/LINK_invent/BTK/process_docking_weight1_custom_product_contain_oxygen_bond_distance_aromatic_linkinvent_7_9_3/rearranged_h_0132.sdf

> <i_m_source_file_index>
50

> <r_mmod_Potential_Energy-OPLS-2005>
-11.0876893997192

> <r_mmod_Stretch_Energy-OPLS-2005>
38.8082427978516

> <r_mmod_Bend_Energy-OPLS-2005>
114.445938110352

> <r_mmod_Torsional_Energy-OPLS-2005>
191.222213745117

> <r_mmod_Improper_Torsional_Energy-OPLS-2005>
4.9524884223938

> <r_mmod_Van_der_Waal_Energy-OPLS-2005>
149.129821777344

> <r_mmod_Electrostatic_Energy-OPLS-2005>
-340.632354736328

> <r_mmod_Solvation_Energy-OPLS-2005>
-184.239807128906

> <b_mmod_Minimization_Converged-OPLS-2005>
0

> <r_mmod_RMS_Derivative-OPLS-2005>
2.50961494445801

$$$$
50
                    3D
 Structure written by MMmdl.
157165  0  0  1  0            999 V2000
  -30.7520  -14.4268   20.5576 C   0  0  0  0  0  0
  -30.4047  -12.2723   19.4328 C   0  0  0  0  0  0
  -29.4932  -12.4908   18.2095 C   0  0  0  0  0  0
  -28.0112  -12.3675   18.6140 C   0  0  0  0  0  0
  -27.6585  -13.2103   19.8699 C   0  0  2  0  0  0
  -28.6990  -13.0079   20.9947 C   0  0  0  0  0  0
  -25.2570  -13.8172   20.5670 C   0  0  0  0  0  0
  -24.1826  -13.0446   20.9175 C   0  0  0  0  0  0
  -24.6378  -11.6913   20.8722 C   0  0  0  0  0  0
  -23.9045  -10.4298   21.0389 C   0  0  0  0  0  0
  -24.3599   -9.4220   21.9175 C   0  0  0  0  0  0
  -23.6284   -8.2249   22.0751 C   0  0  0  0  0  0
  -22.4265   -8.0276   21.3542 C   0  0  0  0  0  0
  -21.9893   -9.0245   20.4649 C   0  0  0  0  0  0
  -22.7212  -10.2128   20.3050 C   0  0  0  0  0  0
  -21.6855   -6.0725   22.5276 C   0  0  0  0  0  0
  -21.4017   -6.5633   23.8211 C   0  0  0  0  0  0
  -21.3661   -5.6785   24.9171 C   0  0  0  0  0  0
  -21.6046   -4.3049   24.7223 C   0  0  0  0  0  0
  -21.8820   -3.8141   23.4344 C   0  0  0  0  0  0
  -21.9197   -4.6957   22.3400 C   0  0  0  0  0  0
  -22.7852  -13.5246   21.1841 C   0  0  0  0  0  0
  -22.1660   -4.2141   21.0974 F   0  0  0  0  0  0
  -21.5634   -3.4533   25.7741 F   0  0  0  0  0  0
  -30.0328  -13.2783   20.4405 N   0  0  0  0  0  0
  -26.3005  -12.9350   20.3334 N   0  0  0  0  0  0
  -25.9306  -11.6507   20.5742 N   0  0  0  0  0  0
  -22.0487  -12.8244   22.0396 N   0  0  0  0  0  0
  -25.4292  -15.1887   20.4077 N   0  0  0  0  0  0
  -31.9027  -14.5097   20.1180 O   0  0  0  0  0  0
  -21.6643   -6.8863   21.4236 O   0  0  0  0  0  0
  -22.3534  -14.5550   20.6686 O   0  0  0  0  0  0
  -24.6096  -31.8713   23.2135 C   0  0  0  0  0  0
  -25.9005  -32.4843   23.8421 C   0  0  1  0  0  0
  -27.2391  -27.4746   20.0996 C   0  0  0  0  0  0
  -25.5877  -33.8641   24.2351 N   0  0  0  0  0  0
  -23.3967  -30.4943   21.5518 C   0  0  2  0  0  0
  -24.8463  -28.9630   20.1160 C   0  0  0  0  0  0
  -22.7383  -29.4674   22.5004 C   0  0  0  0  0  0
  -18.0265  -28.1375   22.8495 C   0  0  0  0  0  0
  -24.1481  -36.7332   23.2641 C   0  0  0  0  0  0
  -25.9192  -30.8493   21.3606 C   0  0  0  0  0  0
  -25.9994  -29.4830   20.7176 C   0  0  0  0  0  0
  -27.1984  -28.7431   20.7172 C   0  0  0  0  0  0
  -26.0799  -26.9646   19.4835 C   0  0  0  0  0  0
  -24.8782  -27.6993   19.4983 C   0  0  0  0  0  0
  -23.6052  -29.8246   20.1659 C   0  0  0  0  0  0
  -25.4098  -36.3131   24.0345 C   0  0  1  0  0  0
  -20.5853  -28.3655   23.1331 C   0  0  2  0  0  0
  -20.6753  -26.9395   22.5422 C   0  0  0  0  0  0
  -19.5735  -26.6384   21.5213 C   0  0  0  0  0  0
  -18.1914  -26.7923   22.1625 C   0  0  0  0  0  0
  -19.1515  -28.8830   23.2914 C   0  0  0  0  0  0
  -18.9446  -30.1436   23.8925 C   0  0  0  0  0  0
  -17.6452  -30.6586   24.0565 C   0  0  0  0  0  0
  -25.9019  -34.9493   23.5146 C   0  0  0  0  0  0
  -16.5341  -29.9092   23.6319 C   0  0  0  0  0  0
  -16.7257  -28.6506   23.0344 C   0  0  0  0  0  0
  -26.4459  -31.6608   25.0728 C   0  0  0  0  0  0
  -25.3747  -31.3696   26.1493 C   0  0  0  0  0  0
  -27.0280  -30.3062   24.6059 C   0  0  0  0  0  0
  -27.6047  -32.4319   25.7482 C   0  0  0  0  0  0
  -27.5579  -37.1819   24.8466 C   0  0  0  0  0  0
  -21.4118  -29.3031   22.3740 N   0  0  0  0  0  0
  -26.4294  -37.3805   23.9409 N   0  0  0  0  0  0
  -24.6599  -31.0855   22.1012 N   0  0  0  0  0  0
  -23.4176  -28.8218   23.3030 O   0  0  0  0  0  0
  -28.3798  -26.7180   20.0690 O   0  0  0  0  0  0
  -26.5582  -34.8936   22.4710 O   0  0  0  0  0  0
  -23.5298  -32.1447   23.7547 O   0  0  0  0  0  0
  -28.9656  -18.5133   21.2686 C   0  0  0  0  0  0
  -31.2861  -19.0929   21.7224 C   0  0  0  0  0  0
  -28.6359  -19.8851   21.2344 C   0  0  0  0  0  0
  -30.9583  -20.4586   21.6914 C   0  0  0  0  0  0
  -30.3070  -18.1110   21.4617 C   0  0  0  0  0  0
  -29.6406  -20.8616   21.4037 C   0  0  0  0  0  0
  -30.7688  -16.7308   21.2602 C   0  0  0  0  0  0
  -30.0387  -15.6262   20.9898 C   0  0  0  0  0  0
  -29.9965  -25.3701   21.2479 C   0  0  0  0  0  0
  -29.3526  -22.3348   21.1773 C   0  0  0  0  0  0
  -30.2075  -24.4468   22.4523 C   0  0  0  0  0  0
  -28.9313  -26.4617   21.3586 C   0  0  0  0  0  0
  -29.3126  -23.1844   22.4660 C   0  0  0  0  0  0
  -30.6842  -25.2433   20.2300 O   0  0  0  0  0  0
  -31.4539  -12.3263   19.1360 H   0  0  0  0  0  0
  -30.2679  -11.2690   19.8384 H   0  0  0  0  0  0
  -29.7291  -11.7654   17.4308 H   0  0  0  0  0  0
  -29.6797  -13.4762   17.7790 H   0  0  0  0  0  0
  -27.8069  -11.3135   18.8043 H   0  0  0  0  0  0
  -27.3697  -12.6539   17.7794 H   0  0  0  0  0  0
  -27.6986  -14.2551   19.5647 H   0  0  0  0  0  0
  -28.6629  -11.9829   21.3653 H   0  0  0  0  0  0
  -28.4754  -13.6345   21.8591 H   0  0  0  0  0  0
  -25.2745   -9.5716   22.4739 H   0  0  0  0  0  0
  -24.0009   -7.4644   22.7461 H   0  0  0  0  0  0
  -21.0830   -8.8755   19.8944 H   0  0  0  0  0  0
  -22.3662  -10.9664   19.6154 H   0  0  0  0  0  0
  -21.2004   -7.6141   23.9709 H   0  0  0  0  0  0
  -21.1483   -6.0513   25.9071 H   0  0  0  0  0  0
  -22.0599   -2.7604   23.2845 H   0  0  0  0  0  0
  -22.4094  -11.9915   22.4813 H   0  0  0  0  0  0
  -21.1096  -13.1272   22.2570 H   0  0  0  0  0  0
  -24.6646  -15.8455   20.5198 H   0  0  0  0  0  0
  -26.2829  -15.6271   20.0871 H   0  0  0  0  0  0
  -26.7087  -32.5584   23.1206 H   0  0  0  0  0  0
  -25.0031  -33.9814   25.0496 H   0  0  0  0  0  0
  -22.6837  -31.3098   21.4129 H   0  0  0  0  0  0
  -23.3732  -35.9679   23.3334 H   0  0  0  0  0  0
  -24.3573  -36.8909   22.2049 H   0  0  0  0  0  0
  -23.7247  -37.6556   23.6625 H   0  0  0  0  0  0
  -26.0195  -31.6119   20.5869 H   0  0  0  0  0  0
  -26.8119  -30.9127   21.9710 H   0  0  0  0  0  0
  -28.0866  -29.1525   21.1777 H   0  0  0  0  0  0
  -26.1066  -25.9957   19.0046 H   0  0  0  0  0  0
  -23.9925  -27.2926   19.0291 H   0  0  0  0  0  0
  -23.7100  -30.5988   19.4048 H   0  0  0  0  0  0
  -22.7317  -29.2403   19.8716 H   0  0  0  0  0  0
  -25.1272  -36.2013   25.0840 H   0  0  0  0  0  0
  -20.9948  -28.3218   24.1451 H   0  0  0  0  0  0
  -20.5653  -26.2264   23.3604 H   0  0  0  0  0  0
  -21.6626  -26.7442   22.1219 H   0  0  0  0  0  0
  -19.6895  -25.6300   21.1233 H   0  0  0  0  0  0
  -19.6676  -27.3202   20.6748 H   0  0  0  0  0  0
  -17.4184  -26.6675   21.4026 H   0  0  0  0  0  0
  -18.0315  -26.0061   22.9017 H   0  0  0  0  0  0
  -19.7924  -30.7233   24.2319 H   0  0  0  0  0  0
  -17.5012  -31.6270   24.5159 H   0  0  0  0  0  0
  -15.5343  -30.3005   23.7625 H   0  0  0  0  0  0
  -15.8657  -28.0830   22.7047 H   0  0  0  0  0  0
  -24.5901  -30.7066   25.7834 H   0  0  0  0  0  0
  -24.8960  -32.2843   26.4998 H   0  0  0  0  0  0
  -25.8117  -30.8824   27.0218 H   0  0  0  0  0  0
  -26.2803  -29.6837   24.1131 H   0  0  0  0  0  0
  -27.4091  -29.7283   25.4487 H   0  0  0  0  0  0
  -27.8621  -30.4403   23.9168 H   0  0  0  0  0  0
  -27.2676  -33.3603   26.2107 H   0  0  0  0  0  0
  -28.3830  -32.6907   25.0290 H   0  0  0  0  0  0
  -28.0751  -31.8418   26.5357 H   0  0  0  0  0  0
  -28.2615  -38.0097   24.7498 H   0  0  0  0  0  0
  -28.1052  -36.2632   24.6304 H   0  0  0  0  0  0
  -27.2300  -37.1500   25.8871 H   0  0  0  0  0  0
  -20.9267  -29.8767   21.6981 H   0  0  0  0  0  0
  -26.0193  -38.2892   24.1390 H   0  0  0  0  0  0
  -28.1929  -17.7848   21.0689 H   0  0  0  0  0  0
  -32.3181  -18.8073   21.8756 H   0  0  0  0  0  0
  -27.6194  -20.1817   21.0143 H   0  0  0  0  0  0
  -31.7373  -21.1966   21.8282 H   0  0  0  0  0  0
  -31.8477  -16.6361   21.2703 H   0  0  0  0  0  0
  -28.9614  -15.6593   21.0169 H   0  0  0  0  0  0
  -28.4189  -22.4510   20.6256 H   0  0  0  0  0  0
  -30.1332  -22.6872   20.5031 H   0  0  0  0  0  0
  -30.0420  -25.0221   23.3630 H   0  0  0  0  0  0
  -31.2556  -24.1491   22.4670 H   0  0  0  0  0  0
  -29.3907  -27.3623   21.7654 H   0  0  0  0  0  0
  -28.1505  -26.1390   22.0483 H   0  0  0  0  0  0
  -29.6206  -22.5714   23.3141 H   0  0  0  0  0  0
  -28.2795  -23.4625   22.6790 H   0  0  0  0  0  0
  1 25  1  0  0  0
  1 30  2  0  0  0
  1 78  1  0  0  0
  2  3  1  0  0  0
  2 25  1  0  0  0
  2 85  1  0  0  0
  2 86  1  0  0  0
  3  4  1  0  0  0
  3 87  1  0  0  0
  3 88  1  0  0  0
  4  5  1  0  0  0
  4 89  1  0  0  0
  4 90  1  0  0  0
  5  6  1  0  0  0
  5 26  1  0  0  0
  5 91  1  0  0  0
  6 25  1  0  0  0
  6 92  1  0  0  0
  6 93  1  0  0  0
  7  8  2  0  0  0
  7 26  1  0  0  0
  7 29  1  0  0  0
  8  9  1  0  0  0
  8 22  1  0  0  0
  9 10  1  0  0  0
  9 27  2  0  0  0
 10 11  2  0  0  0
 10 15  1  0  0  0
 11 12  1  0  0  0
 11 94  1  0  0  0
 12 13  2  0  0  0
 12 95  1  0  0  0
 13 14  1  0  0  0
 13 31  1  0  0  0
 14 15  2  0  0  0
 14 96  1  0  0  0
 15 97  1  0  0  0
 16 17  2  0  0  0
 16 21  1  0  0  0
 16 31  1  0  0  0
 17 18  1  0  0  0
 17 98  1  0  0  0
 18 19  2  0  0  0
 18 99  1  0  0  0
 19 20  1  0  0  0
 19 24  1  0  0  0
 20 21  2  0  0  0
 20100  1  0  0  0
 21 23  1  0  0  0
 22 28  1  0  0  0
 22 32  2  0  0  0
 26 27  1  0  0  0
 28101  1  0  0  0
 28102  1  0  0  0
 29103  1  0  0  0
 29104  1  0  0  0
 33 34  1  0  0  0
 33 66  1  0  0  0
 33 70  2  0  0  0
 34 36  1  0  0  0
 34 59  1  0  0  0
 34105  1  0  0  0
 35 44  2  0  0  0
 35 45  1  0  0  0
 35 68  1  0  0  0
 36 56  1  0  0  0
 36106  1  0  0  0
 37 39  1  0  0  0
 37 47  1  0  0  0
 37 66  1  0  0  0
 37107  1  0  0  0
 38 43  2  0  0  0
 38 46  1  0  0  0
 38 47  1  0  0  0
 39 64  1  0  0  0
 39 67  2  0  0  0
 40 52  1  0  0  0
 40 53  2  0  0  0
 40 58  1  0  0  0
 41108  1  0  0  0
 41109  1  0  0  0
 41110  1  0  0  0
 41 48  1  0  0  0
 42 43  1  0  0  0
 42 66  1  0  0  0
 42111  1  0  0  0
 42112  1  0  0  0
 43 44  1  0  0  0
 44113  1  0  0  0
 45 46  2  0  0  0
 45114  1  0  0  0
 46115  1  0  0  0
 47116  1  0  0  0
 47117  1  0  0  0
 48 56  1  0  0  0
 48 65  1  0  0  0
 48118  1  0  0  0
 49 50  1  0  0  0
 49 53  1  0  0  0
 49 64  1  0  0  0
 49119  1  0  0  0
 50 51  1  0  0  0
 50120  1  0  0  0
 50121  1  0  0  0
 51 52  1  0  0  0
 51122  1  0  0  0
 51123  1  0  0  0
 52124  1  0  0  0
 52125  1  0  0  0
 53 54  1  0  0  0
 54 55  2  0  0  0
 54126  1  0  0  0
 55 57  1  0  0  0
 55127  1  0  0  0
 56 69  2  0  0  0
 57 58  2  0  0  0
 57128  1  0  0  0
 58129  1  0  0  0
 59 60  1  0  0  0
 59 61  1  0  0  0
 59 62  1  0  0  0
 60130  1  0  0  0
 60131  1  0  0  0
 60132  1  0  0  0
 61133  1  0  0  0
 61134  1  0  0  0
 61135  1  0  0  0
 62136  1  0  0  0
 62137  1  0  0  0
 62138  1  0  0  0
 63 65  1  0  0  0
 63139  1  0  0  0
 63140  1  0  0  0
 63141  1  0  0  0
 64142  1  0  0  0
 65143  1  0  0  0
 68 82  1  0  0  0
 71 73  2  0  0  0
 71 75  1  0  0  0
 71144  1  0  0  0
 72 74  1  0  0  0
 72 75  2  0  0  0
 72145  1  0  0  0
 73 76  1  0  0  0
 73146  1  0  0  0
 74 76  2  0  0  0
 74147  1  0  0  0
 75 77  1  0  0  0
 76 80  1  0  0  0
 77 78  2  0  0  0
 77148  1  0  0  0
 78149  1  0  0  0
 79 81  1  0  0  0
 79 82  1  0  0  0
 79 84  2  0  0  0
 80 83  1  0  0  0
 80150  1  0  0  0
 80151  1  0  0  0
 81 83  1  0  0  0
 81152  1  0  0  0
 81153  1  0  0  0
 82154  1  0  0  0
 82155  1  0  0  0
 83156  1  0  0  0
 83157  1  0  0  0
M  ISO  4   1 100  68 101  78 100  82 101
M  END
> <chiral flag>
0

> <version>
0

> <s_m_source_file>
/data/baiqing/PycharmProjects/Reinvent-master-3.2/result/LINK_invent/BTK/process_docking_weight1_custom_product_contain_oxygen_bond_distance_aromatic_linkinvent_7_9_3/rearranged_h_0132.sdf

> <i_m_source_file_index>
51

> <r_mmod_Potential_Energy-OPLS-2005>
-5.25533962249756

> <r_mmod_Stretch_Energy-OPLS-2005>
31.6053771972656

> <r_mmod_Bend_Energy-OPLS-2005>
93.3349456787109

> <r_mmod_Torsional_Energy-OPLS-2005>
215.314758300781

> <r_mmod_Improper_Torsional_Energy-OPLS-2005>
7.56066989898682

> <r_mmod_Van_der_Waal_Energy-OPLS-2005>
158.048965454102

> <r_mmod_Electrostatic_Energy-OPLS-2005>
-312.850311279297

> <r_mmod_Solvation_Energy-OPLS-2005>
-211.668212890625

> <b_mmod_Minimization_Converged-OPLS-2005>
0

> <r_mmod_RMS_Derivative-OPLS-2005>
1.18426966667175

$$$$
51
                    3D
 Structure written by MMmdl.
171180  0  0  1  0            999 V2000
  -30.6760  -14.4885   20.5586 C   0  0  0  0  0  0
  -30.4260  -12.3111   19.4490 C   0  0  0  0  0  0
  -29.5016  -12.5096   18.2294 C   0  0  0  0  0  0
  -28.0202  -12.3768   18.6335 C   0  0  0  0  0  0
  -27.6608  -13.2164   19.8901 C   0  0  2  0  0  0
  -28.6973  -12.9914   21.0095 C   0  0  0  0  0  0
  -25.2538  -13.8147   20.5761 C   0  0  0  0  0  0
  -24.1795  -13.0471   20.9215 C   0  0  0  0  0  0
  -24.6346  -11.6904   20.8802 C   0  0  0  0  0  0
  -23.9020  -10.4310   21.0439 C   0  0  0  0  0  0
  -24.3590   -9.4217   21.9188 C   0  0  0  0  0  0
  -23.6274   -8.2262   22.0754 C   0  0  0  0  0  0
  -22.4233   -8.0315   21.3598 C   0  0  0  0  0  0
  -21.9880   -9.0256   20.4661 C   0  0  0  0  0  0
  -22.7199  -10.2140   20.3067 C   0  0  0  0  0  0
  -21.6823   -6.0788   22.5352 C   0  0  0  0  0  0
  -21.4028   -6.5680   23.8305 C   0  0  0  0  0  0
  -21.3634   -5.6801   24.9248 C   0  0  0  0  0  0
  -21.6017   -4.3066   24.7257 C   0  0  0  0  0  0
  -21.8783   -3.8204   23.4357 C   0  0  0  0  0  0
  -21.9155   -4.7035   22.3442 C   0  0  0  0  0  0
  -22.7801  -13.5304   21.1803 C   0  0  0  0  0  0
  -22.1628   -4.2245   21.1015 F   0  0  0  0  0  0
  -21.5563   -3.4517   25.7750 F   0  0  0  0  0  0
  -30.0265  -13.2953   20.4691 N   0  0  0  0  0  0
  -26.3021  -12.9357   20.3474 N   0  0  0  0  0  0
  -25.9289  -11.6488   20.5847 N   0  0  0  0  0  0
  -22.0350  -12.8454   22.0380 N   0  0  0  0  0  0
  -25.4198  -15.1871   20.4135 N   0  0  0  0  0  0
  -31.8239  -14.6279   20.1322 O   0  0  0  0  0  0
  -21.6599   -6.8921   21.4308 O   0  0  0  0  0  0
  -22.3575  -14.5636   20.6586 O   0  0  0  0  0  0
  -24.6111  -31.8684   23.2147 C   0  0  0  0  0  0
  -25.9004  -32.4827   23.8445 C   0  0  1  0  0  0
  -27.2348  -27.4418   20.1461 C   0  0  0  0  0  0
  -25.5895  -33.8626   24.2365 N   0  0  0  0  0  0
  -23.3980  -30.4958   21.5528 C   0  0  2  0  0  0
  -24.8495  -28.9582   20.1180 C   0  0  0  0  0  0
  -22.7370  -29.4682   22.4983 C   0  0  0  0  0  0
  -18.0227  -28.1355   22.8458 C   0  0  0  0  0  0
  -24.1478  -36.7313   23.2634 C   0  0  0  0  0  0
  -25.9225  -30.8430   21.3650 C   0  0  0  0  0  0
  -26.0033  -29.4786   20.7152 C   0  0  0  0  0  0
  -27.1956  -28.7296   20.7286 C   0  0  0  0  0  0
  -26.0791  -26.9481   19.5007 C   0  0  0  0  0  0
  -24.8819  -27.6956   19.4994 C   0  0  0  0  0  0
  -23.6077  -29.8223   20.1679 C   0  0  0  0  0  0
  -25.4087  -36.3126   24.0351 C   0  0  1  0  0  0
  -20.5836  -28.3639   23.1291 C   0  0  2  0  0  0
  -20.6749  -26.9376   22.5411 C   0  0  0  0  0  0
  -19.5731  -26.6351   21.5203 C   0  0  0  0  0  0
  -18.1896  -26.7906   22.1583 C   0  0  0  0  0  0
  -19.1489  -28.8809   23.2877 C   0  0  0  0  0  0
  -18.9426  -30.1427   23.8881 C   0  0  0  0  0  0
  -17.6441  -30.6586   24.0546 C   0  0  0  0  0  0
  -25.8997  -34.9464   23.5148 C   0  0  0  0  0  0
  -16.5324  -29.9089   23.6323 C   0  0  0  0  0  0
  -16.7232  -28.6496   23.0351 C   0  0  0  0  0  0
  -26.4457  -31.6617   25.0781 C   0  0  0  0  0  0
  -25.3777  -31.3702   26.1592 C   0  0  0  0  0  0
  -27.0276  -30.3056   24.6146 C   0  0  0  0  0  0
  -27.6038  -32.4362   25.7525 C   0  0  0  0  0  0
  -27.5565  -37.1823   24.8450 C   0  0  0  0  0  0
  -21.4101  -29.3036   22.3696 N   0  0  0  0  0  0
  -26.4270  -37.3812   23.9412 N   0  0  0  0  0  0
  -24.6629  -31.0840   22.1032 N   0  0  0  0  0  0
  -23.4145  -28.8232   23.3026 O   0  0  0  0  0  0
  -28.3492  -26.6355   20.2347 O   0  0  0  0  0  0
  -26.5507  -34.8890   22.4685 O   0  0  0  0  0  0
  -23.5278  -32.1381   23.7581 O   0  0  0  0  0  0
  -30.3794  -20.5826   22.2680 C   0  0  0  0  0  0
  -29.8768  -19.3596   21.7776 C   0  0  0  0  0  0
  -29.7621  -20.3078   19.5511 C   0  0  0  0  0  0
  -30.4918  -21.7159   21.4252 C   0  0  0  0  0  0
  -29.5489  -19.2225   20.4213 C   0  0  0  0  0  0
  -30.1863  -21.5608   20.0427 C   0  0  0  0  0  0
  -29.9564  -25.4478   21.7023 C   0  0  0  0  0  0
  -29.7065  -24.1352   21.9616 C   0  0  0  0  0  0
  -31.3729  -25.9889   21.5462 C   0  0  0  0  0  0
  -32.4555  -25.0450   22.0869 C   0  0  0  0  0  0
  -32.2341  -23.6085   21.6128 C   0  0  0  0  0  0
  -30.8387  -23.0818   22.0559 C   0  0  2  0  0  0
  -30.1839  -22.7124   19.0415 C   0  0  0  0  0  0
  -28.2901  -23.6065   22.2248 C   0  0  0  0  0  0
  -28.8867  -17.9526   19.9023 C   0  0  0  0  0  0
  -28.8899  -26.5405   21.5684 C   0  0  0  0  0  0
  -29.9402  -15.7877   20.9833 C   0  0  0  0  0  0
  -29.8371  -16.7485   19.7637 C   0  0  0  0  0  0
  -31.4672  -12.4243   19.1439 H   0  0  0  0  0  0
  -30.3524  -11.2964   19.8407 H   0  0  0  0  0  0
  -29.7540  -11.7920   17.4461 H   0  0  0  0  0  0
  -29.6754  -13.4994   17.8051 H   0  0  0  0  0  0
  -27.8350  -11.3237   18.8474 H   0  0  0  0  0  0
  -27.3707  -12.6455   17.8010 H   0  0  0  0  0  0
  -27.7106  -14.2687   19.6111 H   0  0  0  0  0  0
  -28.6558  -11.9581   21.3512 H   0  0  0  0  0  0
  -28.4684  -13.5849   21.8939 H   0  0  0  0  0  0
  -25.2677   -9.5716   22.4813 H   0  0  0  0  0  0
  -23.9959   -7.4669   22.7483 H   0  0  0  0  0  0
  -21.0761   -8.8768   19.9023 H   0  0  0  0  0  0
  -22.3563  -10.9695   19.6249 H   0  0  0  0  0  0
  -21.2083   -7.6204   23.9877 H   0  0  0  0  0  0
  -21.1454   -6.0516   25.9160 H   0  0  0  0  0  0
  -22.0558   -2.7681   23.2830 H   0  0  0  0  0  0
  -22.3749  -12.0146   22.5047 H   0  0  0  0  0  0
  -21.1026  -13.1724   22.2459 H   0  0  0  0  0  0
  -24.6482  -15.8365   20.5231 H   0  0  0  0  0  0
  -26.2637  -15.6371   20.0925 H   0  0  0  0  0  0
  -26.7107  -32.5522   23.1218 H   0  0  0  0  0  0
  -25.0310  -33.9835   25.0693 H   0  0  0  0  0  0
  -22.6857  -31.3093   21.4105 H   0  0  0  0  0  0
  -23.3756  -35.9632   23.3302 H   0  0  0  0  0  0
  -24.3580  -36.8906   22.2046 H   0  0  0  0  0  0
  -23.7202  -37.6509   23.6628 H   0  0  0  0  0  0
  -26.0287  -31.6102   20.5974 H   0  0  0  0  0  0
  -26.8132  -30.8985   21.9782 H   0  0  0  0  0  0
  -28.0771  -29.1393   21.1989 H   0  0  0  0  0  0
  -26.0777  -25.9659   19.0434 H   0  0  0  0  0  0
  -23.9883  -27.2926   19.0401 H   0  0  0  0  0  0
  -23.7153  -30.5902   19.4040 H   0  0  0  0  0  0
  -22.7307  -29.2484   19.8715 H   0  0  0  0  0  0
  -25.1278  -36.2013   25.0846 H   0  0  0  0  0  0
  -20.9896  -28.3257   24.1425 H   0  0  0  0  0  0
  -20.5630  -26.2275   23.3608 H   0  0  0  0  0  0
  -21.6635  -26.7451   22.1228 H   0  0  0  0  0  0
  -19.6933  -25.6261   21.1241 H   0  0  0  0  0  0
  -19.6710  -27.3141   20.6711 H   0  0  0  0  0  0
  -17.4194  -26.6609   21.3973 H   0  0  0  0  0  0
  -18.0328  -26.0059   22.8968 H   0  0  0  0  0  0
  -19.7924  -30.7218   24.2263 H   0  0  0  0  0  0
  -17.5016  -31.6261   24.5139 H   0  0  0  0  0  0
  -15.5340  -30.2981   23.7684 H   0  0  0  0  0  0
  -15.8609  -28.0812   22.7101 H   0  0  0  0  0  0
  -24.5932  -30.7039   25.8010 H   0  0  0  0  0  0
  -24.8986  -32.2828   26.5125 H   0  0  0  0  0  0
  -25.8212  -30.8870   27.0291 H   0  0  0  0  0  0
  -26.2818  -29.6862   24.1148 H   0  0  0  0  0  0
  -27.3969  -29.7281   25.4619 H   0  0  0  0  0  0
  -27.8681  -30.4389   23.9339 H   0  0  0  0  0  0
  -27.2645  -33.3631   26.2131 H   0  0  0  0  0  0
  -28.3801  -32.6959   25.0341 H   0  0  0  0  0  0
  -28.0727  -31.8479   26.5397 H   0  0  0  0  0  0
  -28.2609  -38.0103   24.7522 H   0  0  0  0  0  0
  -28.1048  -36.2648   24.6279 H   0  0  0  0  0  0
  -27.2280  -37.1478   25.8848 H   0  0  0  0  0  0
  -20.9239  -29.8714   21.6876 H   0  0  0  0  0  0
  -26.0172  -38.2873   24.1480 H   0  0  0  0  0  0
  -30.6012  -20.6626   23.3232 H   0  0  0  0  0  0
  -29.7041  -18.5272   22.4468 H   0  0  0  0  0  0
  -29.5141  -20.2152   18.5015 H   0  0  0  0  0  0
  -31.4721  -26.9227   22.0991 H   0  0  0  0  0  0
  -31.5401  -26.2185   20.4896 H   0  0  0  0  0  0
  -32.4430  -25.0626   23.1807 H   0  0  0  0  0  0
  -33.4394  -25.4179   21.8001 H   0  0  0  0  0  0
  -33.0408  -22.9788   21.9988 H   0  0  0  0  0  0
  -32.3458  -23.5863   20.5303 H   0  0  0  0  0  0
  -30.9300  -22.9030   23.1281 H   0  0  0  0  0  0
  -31.0480  -22.6836   18.3770 H   0  0  0  0  0  0
  -30.1583  -23.6996   19.4869 H   0  0  0  0  0  0
  -29.2856  -22.6224   18.4300 H   0  0  0  0  0  0
  -27.5218  -24.2890   21.8658 H   0  0  0  0  0  0
  -28.1099  -23.4379   23.2887 H   0  0  0  0  0  0
  -28.0931  -22.6564   21.7342 H   0  0  0  0  0  0
  -28.4618  -18.1937   18.9215 H   0  0  0  0  0  0
  -28.0258  -17.7147   20.5287 H   0  0  0  0  0  0
  -29.3502  -27.4876   21.8418 H   0  0  0  0  0  0
  -28.1036  -26.3911   22.3121 H   0  0  0  0  0  0
  -28.9592  -15.6165   21.4280 H   0  0  0  0  0  0
  -30.5284  -16.2626   21.7703 H   0  0  0  0  0  0
  -29.4779  -16.1572   18.9188 H   0  0  0  0  0  0
  -30.8245  -17.1078   19.4726 H   0  0  0  0  0  0
  1 25  1  0  0  0
  1 30  2  0  0  0
  1 87  1  0  0  0
  2  3  1  0  0  0
  2 25  1  0  0  0
  2 89  1  0  0  0
  2 90  1  0  0  0
  3  4  1  0  0  0
  3 91  1  0  0  0
  3 92  1  0  0  0
  4  5  1  0  0  0
  4 93  1  0  0  0
  4 94  1  0  0  0
  5  6  1  0  0  0
  5 26  1  0  0  0
  5 95  1  0  0  0
  6 25  1  0  0  0
  6 96  1  0  0  0
  6 97  1  0  0  0
  7  8  2  0  0  0
  7 26  1  0  0  0
  7 29  1  0  0  0
  8  9  1  0  0  0
  8 22  1  0  0  0
  9 10  1  0  0  0
  9 27  2  0  0  0
 10 11  2  0  0  0
 10 15  1  0  0  0
 11 12  1  0  0  0
 11 98  1  0  0  0
 12 13  2  0  0  0
 12 99  1  0  0  0
 13 14  1  0  0  0
 13 31  1  0  0  0
 14 15  2  0  0  0
 14100  1  0  0  0
 15101  1  0  0  0
 16 17  2  0  0  0
 16 21  1  0  0  0
 16 31  1  0  0  0
 17 18  1  0  0  0
 17102  1  0  0  0
 18 19  2  0  0  0
 18103  1  0  0  0
 19 20  1  0  0  0
 19 24  1  0  0  0
 20 21  2  0  0  0
 20104  1  0  0  0
 21 23  1  0  0  0
 22 28  1  0  0  0
 22 32  2  0  0  0
 26 27  1  0  0  0
 28105  1  0  0  0
 28106  1  0  0  0
 29107  1  0  0  0
 29108  1  0  0  0
 33 34  1  0  0  0
 33 66  1  0  0  0
 33 70  2  0  0  0
 34 36  1  0  0  0
 34 59  1  0  0  0
 34109  1  0  0  0
 35 44  2  0  0  0
 35 45  1  0  0  0
 35 68  1  0  0  0
 36 56  1  0  0  0
 36110  1  0  0  0
 37 39  1  0  0  0
 37 47  1  0  0  0
 37 66  1  0  0  0
 37111  1  0  0  0
 38 43  2  0  0  0
 38 46  1  0  0  0
 38 47  1  0  0  0
 39 64  1  0  0  0
 39 67  2  0  0  0
 40 52  1  0  0  0
 40 53  2  0  0  0
 40 58  1  0  0  0
 41112  1  0  0  0
 41113  1  0  0  0
 41114  1  0  0  0
 41 48  1  0  0  0
 42 43  1  0  0  0
 42 66  1  0  0  0
 42115  1  0  0  0
 42116  1  0  0  0
 43 44  1  0  0  0
 44117  1  0  0  0
 45 46  2  0  0  0
 45118  1  0  0  0
 46119  1  0  0  0
 47120  1  0  0  0
 47121  1  0  0  0
 48 56  1  0  0  0
 48 65  1  0  0  0
 48122  1  0  0  0
 49 50  1  0  0  0
 49 53  1  0  0  0
 49 64  1  0  0  0
 49123  1  0  0  0
 50 51  1  0  0  0
 50124  1  0  0  0
 50125  1  0  0  0
 51 52  1  0  0  0
 51126  1  0  0  0
 51127  1  0  0  0
 52128  1  0  0  0
 52129  1  0  0  0
 53 54  1  0  0  0
 54 55  2  0  0  0
 54130  1  0  0  0
 55 57  1  0  0  0
 55131  1  0  0  0
 56 69  2  0  0  0
 57 58  2  0  0  0
 57132  1  0  0  0
 58133  1  0  0  0
 59 60  1  0  0  0
 59 61  1  0  0  0
 59 62  1  0  0  0
 60134  1  0  0  0
 60135  1  0  0  0
 60136  1  0  0  0
 61137  1  0  0  0
 61138  1  0  0  0
 61139  1  0  0  0
 62140  1  0  0  0
 62141  1  0  0  0
 62142  1  0  0  0
 63 65  1  0  0  0
 63143  1  0  0  0
 63144  1  0  0  0
 63145  1  0  0  0
 64146  1  0  0  0
 65147  1  0  0  0
 68 86  1  0  0  0
 71 72  2  0  0  0
 71 74  1  0  0  0
 71148  1  0  0  0
 72 75  1  0  0  0
 72149  1  0  0  0
 73 75  2  0  0  0
 73 76  1  0  0  0
 73150  1  0  0  0
 74 76  2  0  0  0
 74 82  1  0  0  0
 75 85  1  0  0  0
 76 83  1  0  0  0
 77 78  2  0  0  0
 77 79  1  0  0  0
 77 86  1  0  0  0
 78 82  1  0  0  0
 78 84  1  0  0  0
 79 80  1  0  0  0
 79151  1  0  0  0
 79152  1  0  0  0
 80 81  1  0  0  0
 80153  1  0  0  0
 80154  1  0  0  0
 81 82  1  0  0  0
 81155  1  0  0  0
 81156  1  0  0  0
 82157  1  0  0  0
 83158  1  0  0  0
 83159  1  0  0  0
 83160  1  0  0  0
 84161  1  0  0  0
 84162  1  0  0  0
 84163  1  0  0  0
 85 88  1  0  0  0
 85164  1  0  0  0
 85165  1  0  0  0
 86166  1  0  0  0
 86167  1  0  0  0
 87 88  1  0  0  0
 87168  1  0  0  0
 87169  1  0  0  0
 88170  1  0  0  0
 88171  1  0  0  0
M  ISO  4   1 100  68 101  86 101  87 100
M  END
> <chiral flag>
0

> <version>
0

> <s_m_source_file>
/data/baiqing/PycharmProjects/Reinvent-master-3.2/result/LINK_invent/BTK/process_docking_weight1_custom_product_contain_oxygen_bond_distance_aromatic_linkinvent_7_9_3/rearranged_h_0132.sdf

> <i_m_source_file_index>
52

> <r_mmod_Potential_Energy-OPLS-2005>
41.5754814147949

> <r_mmod_Stretch_Energy-OPLS-2005>
43.2611656188965

> <r_mmod_Bend_Energy-OPLS-2005>
107.081199645996

> <r_mmod_Torsional_Energy-OPLS-2005>
219.678634643555

> <r_mmod_Improper_Torsional_Energy-OPLS-2005>
5.5504584312439

> <r_mmod_Van_der_Waal_Energy-OPLS-2005>
156.892852783203

> <r_mmod_Electrostatic_Energy-OPLS-2005>
-324.515563964844

> <r_mmod_Solvation_Energy-OPLS-2005>
-185.514678955078

> <b_mmod_Minimization_Converged-OPLS-2005>
0

> <r_mmod_RMS_Derivative-OPLS-2005>
9.10036754608154

$$$$
52
                    3D
 Structure written by MMmdl.
162170  0  0  1  0            999 V2000
  -30.6907  -14.4959   20.5512 C   0  0  0  0  0  0
  -30.4275  -12.3148   19.4286 C   0  0  0  0  0  0
  -29.5007  -12.5104   18.2105 C   0  0  0  0  0  0
  -28.0206  -12.3718   18.6172 C   0  0  0  0  0  0
  -27.6618  -13.2047   19.8774 C   0  0  2  0  0  0
  -28.7070  -12.9958   20.9979 C   0  0  0  0  0  0
  -25.2600  -13.8145   20.5689 C   0  0  0  0  0  0
  -24.1839  -13.0429   20.9162 C   0  0  0  0  0  0
  -24.6398  -11.6890   20.8723 C   0  0  0  0  0  0
  -23.9057  -10.4275   21.0399 C   0  0  0  0  0  0
  -24.3603   -9.4201   21.9189 C   0  0  0  0  0  0
  -23.6280   -8.2241   22.0760 C   0  0  0  0  0  0
  -22.4258   -8.0279   21.3549 C   0  0  0  0  0  0
  -21.9900   -9.0258   20.4657 C   0  0  0  0  0  0
  -22.7229  -10.2128   20.3062 C   0  0  0  0  0  0
  -21.6856   -6.0732   22.5281 C   0  0  0  0  0  0
  -21.4021   -6.5636   23.8212 C   0  0  0  0  0  0
  -21.3652   -5.6788   24.9177 C   0  0  0  0  0  0
  -21.6047   -4.3054   24.7230 C   0  0  0  0  0  0
  -21.8815   -3.8140   23.4345 C   0  0  0  0  0  0
  -21.9192   -4.6959   22.3405 C   0  0  0  0  0  0
  -22.7864  -13.5247   21.1825 C   0  0  0  0  0  0
  -22.1661   -4.2150   21.0982 F   0  0  0  0  0  0
  -21.5615   -3.4534   25.7738 F   0  0  0  0  0  0
  -30.0399  -13.3031   20.4481 N   0  0  0  0  0  0
  -26.3027  -12.9302   20.3373 N   0  0  0  0  0  0
  -25.9325  -11.6461   20.5763 N   0  0  0  0  0  0
  -22.0478  -12.8269   22.0372 N   0  0  0  0  0  0
  -25.4330  -15.1865   20.4103 N   0  0  0  0  0  0
  -31.8171  -14.6861   20.0818 O   0  0  0  0  0  0
  -21.6631   -6.8874   21.4242 O   0  0  0  0  0  0
  -22.3570  -14.5559   20.6663 O   0  0  0  0  0  0
  -24.6146  -31.8671   23.2073 C   0  0  0  0  0  0
  -25.9042  -32.4810   23.8364 C   0  0  1  0  0  0
  -27.2396  -27.4434   20.0941 C   0  0  0  0  0  0
  -25.5879  -33.8603   24.2309 N   0  0  0  0  0  0
  -23.4027  -30.4888   21.5483 C   0  0  2  0  0  0
  -24.8530  -28.9544   20.1112 C   0  0  0  0  0  0
  -22.7409  -29.4647   22.4979 C   0  0  0  0  0  0
  -18.0267  -28.1362   22.8492 C   0  0  0  0  0  0
  -24.1485  -36.7323   23.2634 C   0  0  0  0  0  0
  -25.9284  -30.8378   21.3552 C   0  0  0  0  0  0
  -26.0119  -29.4709   20.7066 C   0  0  0  0  0  0
  -27.2114  -28.7210   20.6994 C   0  0  0  0  0  0
  -26.0700  -26.9422   19.4889 C   0  0  0  0  0  0
  -24.8759  -27.6891   19.4981 C   0  0  0  0  0  0
  -23.6127  -29.8190   20.1633 C   0  0  0  0  0  0
  -25.4099  -36.3103   24.0342 C   0  0  1  0  0  0
  -20.5862  -28.3653   23.1315 C   0  0  2  0  0  0
  -20.6763  -26.9385   22.5417 C   0  0  0  0  0  0
  -19.5749  -26.6373   21.5202 C   0  0  0  0  0  0
  -18.1923  -26.7909   22.1614 C   0  0  0  0  0  0
  -19.1521  -28.8824   23.2903 C   0  0  0  0  0  0
  -18.9449  -30.1432   23.8913 C   0  0  0  0  0  0
  -17.6452  -30.6582   24.0564 C   0  0  0  0  0  0
  -25.9030  -34.9467   23.5126 C   0  0  0  0  0  0
  -16.5346  -29.9083   23.6318 C   0  0  0  0  0  0
  -16.7255  -28.6492   23.0344 C   0  0  0  0  0  0
  -26.4471  -31.6571   25.0678 C   0  0  0  0  0  0
  -25.3743  -31.3674   26.1425 C   0  0  0  0  0  0
  -27.0268  -30.3010   24.6017 C   0  0  0  0  0  0
  -27.6058  -32.4253   25.7462 C   0  0  0  0  0  0
  -27.5585  -37.1808   24.8461 C   0  0  0  0  0  0
  -21.4131  -29.3032   22.3728 N   0  0  0  0  0  0
  -26.4284  -37.3793   23.9417 N   0  0  0  0  0  0
  -24.6673  -31.0773   22.0973 N   0  0  0  0  0  0
  -23.4178  -28.8188   23.3023 O   0  0  0  0  0  0
  -28.3670  -26.6545   20.1073 O   0  0  0  0  0  0
  -26.5605  -34.8922   22.4699 O   0  0  0  0  0  0
  -23.5345  -32.1405   23.7487 O   0  0  0  0  0  0
  -30.4207  -19.1662   21.7774 C   0  0  0  0  0  0
  -30.3996  -17.7602   21.9344 C   0  0  0  0  0  0
  -29.8057  -18.9075   19.4496 C   0  0  0  0  0  0
  -30.1133  -19.7559   20.5329 C   0  0  0  0  0  0
  -29.7832  -17.4981   19.5901 C   0  0  0  0  0  0
  -30.0920  -16.9042   20.8502 C   0  0  0  0  0  0
  -30.5093  -16.5843   17.3295 C   0  0  0  0  0  0
  -30.1059  -21.2809   20.3460 C   0  0  0  0  0  0
  -29.3822  -16.6878   18.3642 C   0  0  0  0  0  0
  -28.7213  -21.9214   20.6056 C   0  0  0  0  0  0
  -28.5302  -23.4028   20.1675 C   0  0  0  0  0  0
  -29.2049  -24.4694   21.0652 C   0  0  0  0  0  0
  -28.4102  -25.7904   21.2523 C   0  0  0  0  0  0
  -29.9744  -15.4968   21.1028 N   0  0  0  0  0  0
  -31.4741  -12.4092   19.1311 H   0  0  0  0  0  0
  -30.3216  -11.3067   19.8319 H   0  0  0  0  0  0
  -29.7415  -11.7877   17.4303 H   0  0  0  0  0  0
  -29.6715  -13.4940   17.7712 H   0  0  0  0  0  0
  -27.8272  -11.3146   18.8062 H   0  0  0  0  0  0
  -27.3753  -12.6537   17.7853 H   0  0  0  0  0  0
  -27.6925  -14.2515   19.5845 H   0  0  0  0  0  0
  -28.6872  -11.9611   21.3450 H   0  0  0  0  0  0
  -28.4667  -13.6004   21.8742 H   0  0  0  0  0  0
  -25.2749   -9.5672   22.4761 H   0  0  0  0  0  0
  -23.9982   -7.4633   22.7481 H   0  0  0  0  0  0
  -21.0821   -8.8782   19.8971 H   0  0  0  0  0  0
  -22.3694  -10.9669   19.6159 H   0  0  0  0  0  0
  -21.2031   -7.6149   23.9724 H   0  0  0  0  0  0
  -21.1474   -6.0518   25.9082 H   0  0  0  0  0  0
  -22.0601   -2.7607   23.2851 H   0  0  0  0  0  0
  -22.4050  -11.9930   22.4795 H   0  0  0  0  0  0
  -21.1113  -13.1350   22.2556 H   0  0  0  0  0  0
  -24.6697  -15.8439   20.5278 H   0  0  0  0  0  0
  -26.2937  -15.6284   20.1124 H   0  0  0  0  0  0
  -26.7125  -32.5533   23.1143 H   0  0  0  0  0  0
  -25.0023  -33.9755   25.0452 H   0  0  0  0  0  0
  -22.6900  -31.3049   21.4082 H   0  0  0  0  0  0
  -23.3732  -35.9670   23.3282 H   0  0  0  0  0  0
  -24.3585  -36.8940   22.2049 H   0  0  0  0  0  0
  -23.7248  -37.6534   23.6645 H   0  0  0  0  0  0
  -26.0281  -31.5980   20.5784 H   0  0  0  0  0  0
  -26.8225  -30.9025   21.9645 H   0  0  0  0  0  0
  -28.1056  -29.1126   21.1650 H   0  0  0  0  0  0
  -26.0839  -25.9663   19.0244 H   0  0  0  0  0  0
  -23.9858  -27.2856   19.0335 H   0  0  0  0  0  0
  -23.7175  -30.5915   19.4002 H   0  0  0  0  0  0
  -22.7364  -29.2366   19.8718 H   0  0  0  0  0  0
  -25.1274  -36.1959   25.0836 H   0  0  0  0  0  0
  -20.9970  -28.3205   24.1430 H   0  0  0  0  0  0
  -20.5634  -26.2255   23.3598 H   0  0  0  0  0  0
  -21.6636  -26.7401   22.1238 H   0  0  0  0  0  0
  -19.6911  -25.6285   21.1222 H   0  0  0  0  0  0
  -19.6690  -27.3188   20.6736 H   0  0  0  0  0  0
  -17.4196  -26.6638   21.4019 H   0  0  0  0  0  0
  -18.0343  -26.0037   22.9000 H   0  0  0  0  0  0
  -19.7928  -30.7249   24.2277 H   0  0  0  0  0  0
  -17.5012  -31.6263   24.5157 H   0  0  0  0  0  0
  -15.5356  -30.3005   23.7624 H   0  0  0  0  0  0
  -15.8647  -28.0833   22.7050 H   0  0  0  0  0  0
  -24.5951  -30.6973   25.7778 H   0  0  0  0  0  0
  -24.8902  -32.2826   26.4833 H   0  0  0  0  0  0
  -25.8123  -30.8890   27.0191 H   0  0  0  0  0  0
  -26.2796  -29.6794   24.1069 H   0  0  0  0  0  0
  -27.4043  -29.7207   25.4441 H   0  0  0  0  0  0
  -27.8623  -30.4324   23.9139 H   0  0  0  0  0  0
  -27.2699  -33.3545   26.2076 H   0  0  0  0  0  0
  -28.3882  -32.6796   25.0302 H   0  0  0  0  0  0
  -28.0694  -31.8318   26.5350 H   0  0  0  0  0  0
  -28.2594  -38.0115   24.7523 H   0  0  0  0  0  0
  -28.1082  -36.2642   24.6259 H   0  0  0  0  0  0
  -27.2301  -37.1445   25.8863 H   0  0  0  0  0  0
  -20.9263  -29.8785   21.6998 H   0  0  0  0  0  0
  -26.0161  -38.2873   24.1400 H   0  0  0  0  0  0
  -30.6598  -19.7912   22.6270 H   0  0  0  0  0  0
  -30.6137  -17.3416   22.9077 H   0  0  0  0  0  0
  -29.5631  -19.3460   18.4906 H   0  0  0  0  0  0
  -30.1925  -15.9902   16.4717 H   0  0  0  0  0  0
  -31.3922  -16.1075   17.7553 H   0  0  0  0  0  0
  -30.8056  -17.5669   16.9613 H   0  0  0  0  0  0
  -30.4208  -21.5038   19.3253 H   0  0  0  0  0  0
  -30.8563  -21.7308   20.9964 H   0  0  0  0  0  0
  -28.5130  -17.1610   17.9071 H   0  0  0  0  0  0
  -29.0492  -15.6926   18.6399 H   0  0  0  0  0  0
  -28.4534  -21.8044   21.6559 H   0  0  0  0  0  0
  -27.9874  -21.3344   20.0525 H   0  0  0  0  0  0
  -27.4556  -23.5925   20.1696 H   0  0  0  0  0  0
  -28.8420  -23.5395   19.1305 H   0  0  0  0  0  0
  -30.2165  -24.6768   20.7152 H   0  0  0  0  0  0
  -29.3235  -24.0426   22.0623 H   0  0  0  0  0  0
  -28.8695  -26.3581   22.0625 H   0  0  0  0  0  0
  -27.4031  -25.5446   21.5980 H   0  0  0  0  0  0
  -29.1426  -15.2063   21.5949 H   0  0  0  0  0  0
  1 25  1  0  0  0
  1 30  2  0  0  0
  1 84  1  0  0  0
  2  3  1  0  0  0
  2 25  1  0  0  0
  2 85  1  0  0  0
  2 86  1  0  0  0
  3  4  1  0  0  0
  3 87  1  0  0  0
  3 88  1  0  0  0
  4  5  1  0  0  0
  4 89  1  0  0  0
  4 90  1  0  0  0
  5  6  1  0  0  0
  5 26  1  0  0  0
  5 91  1  0  0  0
  6 25  1  0  0  0
  6 92  1  0  0  0
  6 93  1  0  0  0
  7  8  2  0  0  0
  7 26  1  0  0  0
  7 29  1  0  0  0
  8  9  1  0  0  0
  8 22  1  0  0  0
  9 10  1  0  0  0
  9 27  2  0  0  0
 10 11  2  0  0  0
 10 15  1  0  0  0
 11 12  1  0  0  0
 11 94  1  0  0  0
 12 13  2  0  0  0
 12 95  1  0  0  0
 13 14  1  0  0  0
 13 31  1  0  0  0
 14 15  2  0  0  0
 14 96  1  0  0  0
 15 97  1  0  0  0
 16 17  2  0  0  0
 16 21  1  0  0  0
 16 31  1  0  0  0
 17 18  1  0  0  0
 17 98  1  0  0  0
 18 19  2  0  0  0
 18 99  1  0  0  0
 19 20  1  0  0  0
 19 24  1  0  0  0
 20 21  2  0  0  0
 20100  1  0  0  0
 21 23  1  0  0  0
 22 28  1  0  0  0
 22 32  2  0  0  0
 26 27  1  0  0  0
 28101  1  0  0  0
 28102  1  0  0  0
 29103  1  0  0  0
 29104  1  0  0  0
 33 34  1  0  0  0
 33 66  1  0  0  0
 33 70  2  0  0  0
 34 36  1  0  0  0
 34 59  1  0  0  0
 34105  1  0  0  0
 35 44  2  0  0  0
 35 45  1  0  0  0
 35 68  1  0  0  0
 36 56  1  0  0  0
 36106  1  0  0  0
 37 39  1  0  0  0
 37 47  1  0  0  0
 37 66  1  0  0  0
 37107  1  0  0  0
 38 43  2  0  0  0
 38 46  1  0  0  0
 38 47  1  0  0  0
 39 64  1  0  0  0
 39 67  2  0  0  0
 40 52  1  0  0  0
 40 53  2  0  0  0
 40 58  1  0  0  0
 41108  1  0  0  0
 41109  1  0  0  0
 41110  1  0  0  0
 41 48  1  0  0  0
 42 43  1  0  0  0
 42 66  1  0  0  0
 42111  1  0  0  0
 42112  1  0  0  0
 43 44  1  0  0  0
 44113  1  0  0  0
 45 46  2  0  0  0
 45114  1  0  0  0
 46115  1  0  0  0
 47116  1  0  0  0
 47117  1  0  0  0
 48 56  1  0  0  0
 48 65  1  0  0  0
 48118  1  0  0  0
 49 50  1  0  0  0
 49 53  1  0  0  0
 49 64  1  0  0  0
 49119  1  0  0  0
 50 51  1  0  0  0
 50120  1  0  0  0
 50121  1  0  0  0
 51 52  1  0  0  0
 51122  1  0  0  0
 51123  1  0  0  0
 52124  1  0  0  0
 52125  1  0  0  0
 53 54  1  0  0  0
 54 55  2  0  0  0
 54126  1  0  0  0
 55 57  1  0  0  0
 55127  1  0  0  0
 56 69  2  0  0  0
 57 58  2  0  0  0
 57128  1  0  0  0
 58129  1  0  0  0
 59 60  1  0  0  0
 59 61  1  0  0  0
 59 62  1  0  0  0
 60130  1  0  0  0
 60131  1  0  0  0
 60132  1  0  0  0
 61133  1  0  0  0
 61134  1  0  0  0
 61135  1  0  0  0
 62136  1  0  0  0
 62137  1  0  0  0
 62138  1  0  0  0
 63 65  1  0  0  0
 63139  1  0  0  0
 63140  1  0  0  0
 63141  1  0  0  0
 64142  1  0  0  0
 65143  1  0  0  0
 68 83  1  0  0  0
 71 72  2  0  0  0
 71 74  1  0  0  0
 71144  1  0  0  0
 72 76  1  0  0  0
 72145  1  0  0  0
 73 74  2  0  0  0
 73 75  1  0  0  0
 73146  1  0  0  0
 74 78  1  0  0  0
 75 76  2  0  0  0
 75 79  1  0  0  0
 76 84  1  0  0  0
 77 79  1  0  0  0
 77147  1  0  0  0
 77148  1  0  0  0
 77149  1  0  0  0
 78 80  1  0  0  0
 78150  1  0  0  0
 78151  1  0  0  0
 79152  1  0  0  0
 79153  1  0  0  0
 80 81  1  0  0  0
 80154  1  0  0  0
 80155  1  0  0  0
 81 82  1  0  0  0
 81156  1  0  0  0
 81157  1  0  0  0
 82 83  1  0  0  0
 82158  1  0  0  0
 82159  1  0  0  0
 83160  1  0  0  0
 83161  1  0  0  0
 84162  1  0  0  0
M  ISO  4   1 100  68 101  83 101  84 100
M  END
> <chiral flag>
0

> <version>
0

> <s_m_source_file>
/data/baiqing/PycharmProjects/Reinvent-master-3.2/result/LINK_invent/BTK/process_docking_weight1_custom_product_contain_oxygen_bond_distance_aromatic_linkinvent_7_9_3/rearranged_h_0132.sdf

> <i_m_source_file_index>
53

> <r_mmod_Potential_Energy-OPLS-2005>
-7.85197496414185

> <r_mmod_Stretch_Energy-OPLS-2005>
39.4218063354492

> <r_mmod_Bend_Energy-OPLS-2005>
97.4415054321289

> <r_mmod_Torsional_Energy-OPLS-2005>
274.802520751953

> <r_mmod_Improper_Torsional_Energy-OPLS-2005>
3.71937942504883

> <r_mmod_Van_der_Waal_Energy-OPLS-2005>
134.840606689453

> <r_mmod_Electrostatic_Energy-OPLS-2005>
-373.969573974609

> <r_mmod_Solvation_Energy-OPLS-2005>
-198.168991088867

> <b_mmod_Minimization_Converged-OPLS-2005>
0

> <r_mmod_RMS_Derivative-OPLS-2005>
2.14782285690308

$$$$
53
                    3D
 Structure written by MMmdl.
161169  0  0  1  0            999 V2000
  -30.7047  -14.5046   20.4312 C   0  0  0  0  0  0
  -30.4124  -12.2816   19.4549 C   0  0  0  0  0  0
  -29.4971  -12.4492   18.2232 C   0  0  0  0  0  0
  -28.0141  -12.3331   18.6268 C   0  0  0  0  0  0
  -27.6512  -13.1959   19.8652 C   0  0  2  0  0  0
  -28.7018  -13.0605   20.9914 C   0  0  0  0  0  0
  -25.2561  -13.8108   20.5798 C   0  0  0  0  0  0
  -24.1811  -13.0382   20.9199 C   0  0  0  0  0  0
  -24.6374  -11.6860   20.8752 C   0  0  0  0  0  0
  -23.9055  -10.4254   21.0403 C   0  0  0  0  0  0
  -24.3596   -9.4179   21.9195 C   0  0  0  0  0  0
  -23.6270   -8.2223   22.0770 C   0  0  0  0  0  0
  -22.4258   -8.0261   21.3550 C   0  0  0  0  0  0
  -21.9906   -9.0222   20.4635 C   0  0  0  0  0  0
  -22.7238  -10.2099   20.3042 C   0  0  0  0  0  0
  -21.6832   -6.0717   22.5264 C   0  0  0  0  0  0
  -21.3979   -6.5622   23.8194 C   0  0  0  0  0  0
  -21.3650   -5.6781   24.9161 C   0  0  0  0  0  0
  -21.6044   -4.3045   24.7216 C   0  0  0  0  0  0
  -21.8834   -3.8138   23.4340 C   0  0  0  0  0  0
  -21.9197   -4.6947   22.3389 C   0  0  0  0  0  0
  -22.7834  -13.5173   21.1839 C   0  0  0  0  0  0
  -22.1668   -4.2137   21.0963 F   0  0  0  0  0  0
  -21.5644   -3.4533   25.7741 F   0  0  0  0  0  0
  -30.0332  -13.3193   20.4249 N   0  0  0  0  0  0
  -26.2976  -12.9271   20.3384 N   0  0  0  0  0  0
  -25.9308  -11.6440   20.5819 N   0  0  0  0  0  0
  -22.0475  -12.8175   22.0380 N   0  0  0  0  0  0
  -25.4209  -15.1861   20.4440 N   0  0  0  0  0  0
  -31.9151  -14.5617   20.2069 O   0  0  0  0  0  0
  -21.6626   -6.8866   21.4228 O   0  0  0  0  0  0
  -22.3542  -14.5500   20.6691 O   0  0  0  0  0  0
  -24.6131  -31.8675   23.2134 C   0  0  0  0  0  0
  -25.9063  -32.4787   23.8440 C   0  0  1  0  0  0
  -27.2338  -27.4301   20.1161 C   0  0  0  0  0  0
  -25.5981  -33.8591   24.2390 N   0  0  0  0  0  0
  -23.4023  -30.4937   21.5489 C   0  0  2  0  0  0
  -24.8535  -28.9651   20.1076 C   0  0  0  0  0  0
  -22.7403  -29.4657   22.4958 C   0  0  0  0  0  0
  -18.0255  -28.1383   22.8451 C   0  0  0  0  0  0
  -24.1491  -36.7224   23.2648 C   0  0  0  0  0  0
  -25.9338  -30.8291   21.3753 C   0  0  0  0  0  0
  -26.0121  -29.4702   20.7124 C   0  0  0  0  0  0
  -27.2049  -28.7110   20.7134 C   0  0  0  0  0  0
  -26.0642  -26.9542   19.4795 C   0  0  0  0  0  0
  -24.8758  -27.7063   19.4843 C   0  0  0  0  0  0
  -23.6146  -29.8291   20.1613 C   0  0  0  0  0  0
  -25.4104  -36.3054   24.0370 C   0  0  1  0  0  0
  -20.5858  -28.3642   23.1269 C   0  0  2  0  0  0
  -20.6731  -26.9379   22.5375 C   0  0  0  0  0  0
  -19.5697  -26.6353   21.5181 C   0  0  0  0  0  0
  -18.1866  -26.7930   22.1580 C   0  0  0  0  0  0
  -19.1522  -28.8835   23.2836 C   0  0  0  0  0  0
  -18.9499  -30.1448   23.8836 C   0  0  0  0  0  0
  -17.6509  -30.6596   24.0561 C   0  0  0  0  0  0
  -25.9058  -34.9436   23.5148 C   0  0  0  0  0  0
  -16.5376  -29.9092   23.6392 C   0  0  0  0  0  0
  -16.7258  -28.6521   23.0389 C   0  0  0  0  0  0
  -26.4552  -31.6579   25.0762 C   0  0  0  0  0  0
  -25.3861  -31.3609   26.1525 C   0  0  0  0  0  0
  -27.0459  -30.3058   24.6134 C   0  0  0  0  0  0
  -27.6104  -32.4340   25.7495 C   0  0  0  0  0  0
  -27.5599  -37.1724   24.8472 C   0  0  0  0  0  0
  -21.4142  -29.3010   22.3686 N   0  0  0  0  0  0
  -26.4262  -37.3773   23.9482 N   0  0  0  0  0  0
  -24.6666  -31.0791   22.1012 N   0  0  0  0  0  0
  -23.4164  -28.8198   23.3002 O   0  0  0  0  0  0
  -28.3818  -26.6633   20.1605 O   0  0  0  0  0  0
  -26.5547  -34.8893   22.4667 O   0  0  0  0  0  0
  -23.5352  -32.1435   23.7535 O   0  0  0  0  0  0
  -28.3853  -20.4611   18.5293 C   0  0  0  0  0  0
  -27.8991  -19.2072   18.1292 C   0  0  0  0  0  0
  -30.0995  -19.3574   19.8622 C   0  0  0  0  0  0
  -29.6316  -18.0821   19.4553 C   0  0  0  0  0  0
  -29.4806  -20.5505   19.4102 C   0  0  0  0  0  0
  -28.5133  -18.0212   18.5783 C   0  0  0  0  0  0
  -30.3776  -16.8627   19.8551 C   0  0  0  0  0  0
  -29.8639  -15.7054   20.3430 C   0  0  0  0  0  0
  -27.9739  -16.7047   18.0469 C   0  0  0  0  0  0
  -30.5519  -24.6505   21.3941 C   0  0  0  0  0  0
  -30.0256  -21.9277   19.7992 C   0  0  0  0  0  0
  -28.9725  -22.8984   20.3973 C   0  0  0  0  0  0
  -28.1901  -25.3260   20.6686 C   0  0  0  0  0  0
  -29.3986  -24.3932   20.4057 C   0  0  1  0  0  0
  -31.4600  -12.3476   19.1589 H   0  0  0  0  0  0
  -30.2929  -11.2892   19.8935 H   0  0  0  0  0  0
  -29.7350  -11.6905   17.4758 H   0  0  0  0  0  0
  -29.6796  -13.4157   17.7517 H   0  0  0  0  0  0
  -27.8112  -11.2822   18.8344 H   0  0  0  0  0  0
  -27.3756  -12.6029   17.7838 H   0  0  0  0  0  0
  -27.6628  -14.2196   19.5139 H   0  0  0  0  0  0
  -28.6790  -12.0607   21.4274 H   0  0  0  0  0  0
  -28.4883  -13.7479   21.8123 H   0  0  0  0  0  0
  -25.2731   -9.5654   22.4783 H   0  0  0  0  0  0
  -23.9956   -7.4620   22.7514 H   0  0  0  0  0  0
  -21.0838   -8.8732   19.8924 H   0  0  0  0  0  0
  -22.3703  -10.9634   19.6132 H   0  0  0  0  0  0
  -21.1936   -7.6133   23.9685 H   0  0  0  0  0  0
  -21.1453   -6.0512   25.9058 H   0  0  0  0  0  0
  -22.0626   -2.7604   23.2844 H   0  0  0  0  0  0
  -22.4086  -11.9828   22.4752 H   0  0  0  0  0  0
  -21.1082  -13.1192   22.2560 H   0  0  0  0  0  0
  -24.6581  -15.8288   20.6313 H   0  0  0  0  0  0
  -26.2931  -15.6545   20.2409 H   0  0  0  0  0  0
  -26.7115  -32.5538   23.1199 H   0  0  0  0  0  0
  -25.0365  -33.9777   25.0690 H   0  0  0  0  0  0
  -22.6904  -31.3106   21.4105 H   0  0  0  0  0  0
  -23.3805  -35.9497   23.3249 H   0  0  0  0  0  0
  -24.3620  -36.8891   22.2080 H   0  0  0  0  0  0
  -23.7165  -37.6374   23.6706 H   0  0  0  0  0  0
  -26.0762  -31.6082   20.6245 H   0  0  0  0  0  0
  -26.8061  -30.8576   22.0150 H   0  0  0  0  0  0
  -28.0915  -29.0939   21.2024 H   0  0  0  0  0  0
  -26.0578  -26.0058   18.9627 H   0  0  0  0  0  0
  -23.9910  -27.3167   18.9949 H   0  0  0  0  0  0
  -23.7172  -30.6074   19.4021 H   0  0  0  0  0  0
  -22.7427  -29.2446   19.8664 H   0  0  0  0  0  0
  -25.1252  -36.1902   25.0859 H   0  0  0  0  0  0
  -20.9977  -28.3249   24.1383 H   0  0  0  0  0  0
  -20.5672  -26.2261   23.3565 H   0  0  0  0  0  0
  -21.6583  -26.7425   22.1144 H   0  0  0  0  0  0
  -19.6844  -25.6265   21.1227 H   0  0  0  0  0  0
  -19.6669  -27.3159   20.6703 H   0  0  0  0  0  0
  -17.4156  -26.6746   21.3965 H   0  0  0  0  0  0
  -18.0189  -26.0062   22.8957 H   0  0  0  0  0  0
  -19.8009  -30.7236   24.2173 H   0  0  0  0  0  0
  -17.5108  -31.6295   24.5145 H   0  0  0  0  0  0
  -15.5390  -30.2978   23.7802 H   0  0  0  0  0  0
  -15.8638  -28.0854   22.7142 H   0  0  0  0  0  0
  -24.6066  -30.6910   25.7897 H   0  0  0  0  0  0
  -24.9005  -32.2714   26.5057 H   0  0  0  0  0  0
  -25.8272  -30.8772   27.0253 H   0  0  0  0  0  0
  -26.2966  -29.6585   24.1556 H   0  0  0  0  0  0
  -27.4693  -29.7530   25.4543 H   0  0  0  0  0  0
  -27.8603  -30.4415   23.8988 H   0  0  0  0  0  0
  -27.2725  -33.3651   26.2055 H   0  0  0  0  0  0
  -28.3905  -32.6885   25.0304 H   0  0  0  0  0  0
  -28.0780  -31.8489   26.5424 H   0  0  0  0  0  0
  -28.2499  -38.0140   24.7704 H   0  0  0  0  0  0
  -28.1204  -36.2687   24.6052 H   0  0  0  0  0  0
  -27.2341  -37.1071   25.8867 H   0  0  0  0  0  0
  -20.9319  -29.8735   21.6924 H   0  0  0  0  0  0
  -26.0135  -38.2808   24.1642 H   0  0  0  0  0  0
  -27.9169  -21.3506   18.1306 H   0  0  0  0  0  0
  -27.0635  -19.1684   17.4434 H   0  0  0  0  0  0
  -30.9690  -19.4158   20.5029 H   0  0  0  0  0  0
  -31.4375  -16.9122   19.6390 H   0  0  0  0  0  0
  -28.8201  -15.6761   20.6053 H   0  0  0  0  0  0
  -27.3524  -16.8418   17.1612 H   0  0  0  0  0  0
  -27.3547  -16.2466   18.8103 H   0  0  0  0  0  0
  -28.7767  -16.0180   17.7810 H   0  0  0  0  0  0
  -31.4654  -24.1528   21.0696 H   0  0  0  0  0  0
  -30.3235  -24.2851   22.3965 H   0  0  0  0  0  0
  -30.7734  -25.7144   21.4741 H   0  0  0  0  0  0
  -30.4531  -22.3703   18.8979 H   0  0  0  0  0  0
  -30.8567  -21.8084   20.4952 H   0  0  0  0  0  0
  -28.6815  -22.5713   21.3972 H   0  0  0  0  0  0
  -28.0653  -22.8277   19.7988 H   0  0  0  0  0  0
  -27.9741  -25.3642   21.7383 H   0  0  0  0  0  0
  -27.3187  -24.8615   20.2108 H   0  0  0  0  0  0
  -29.7461  -24.6364   19.4027 H   0  0  0  0  0  0
  1 25  1  0  0  0
  1 30  2  0  0  0
  1 78  1  0  0  0
  2  3  1  0  0  0
  2 25  1  0  0  0
  2 85  1  0  0  0
  2 86  1  0  0  0
  3  4  1  0  0  0
  3 87  1  0  0  0
  3 88  1  0  0  0
  4  5  1  0  0  0
  4 89  1  0  0  0
  4 90  1  0  0  0
  5  6  1  0  0  0
  5 26  1  0  0  0
  5 91  1  0  0  0
  6 25  1  0  0  0
  6 92  1  0  0  0
  6 93  1  0  0  0
  7  8  2  0  0  0
  7 26  1  0  0  0
  7 29  1  0  0  0
  8  9  1  0  0  0
  8 22  1  0  0  0
  9 10  1  0  0  0
  9 27  2  0  0  0
 10 11  2  0  0  0
 10 15  1  0  0  0
 11 12  1  0  0  0
 11 94  1  0  0  0
 12 13  2  0  0  0
 12 95  1  0  0  0
 13 14  1  0  0  0
 13 31  1  0  0  0
 14 15  2  0  0  0
 14 96  1  0  0  0
 15 97  1  0  0  0
 16 17  2  0  0  0
 16 21  1  0  0  0
 16 31  1  0  0  0
 17 18  1  0  0  0
 17 98  1  0  0  0
 18 19  2  0  0  0
 18 99  1  0  0  0
 19 20  1  0  0  0
 19 24  1  0  0  0
 20 21  2  0  0  0
 20100  1  0  0  0
 21 23  1  0  0  0
 22 28  1  0  0  0
 22 32  2  0  0  0
 26 27  1  0  0  0
 28101  1  0  0  0
 28102  1  0  0  0
 29103  1  0  0  0
 29104  1  0  0  0
 33 34  1  0  0  0
 33 66  1  0  0  0
 33 70  2  0  0  0
 34 36  1  0  0  0
 34 59  1  0  0  0
 34105  1  0  0  0
 35 44  2  0  0  0
 35 45  1  0  0  0
 35 68  1  0  0  0
 36 56  1  0  0  0
 36106  1  0  0  0
 37 39  1  0  0  0
 37 47  1  0  0  0
 37 66  1  0  0  0
 37107  1  0  0  0
 38 43  2  0  0  0
 38 46  1  0  0  0
 38 47  1  0  0  0
 39 64  1  0  0  0
 39 67  2  0  0  0
 40 52  1  0  0  0
 40 53  2  0  0  0
 40 58  1  0  0  0
 41108  1  0  0  0
 41109  1  0  0  0
 41110  1  0  0  0
 41 48  1  0  0  0
 42 43  1  0  0  0
 42 66  1  0  0  0
 42111  1  0  0  0
 42112  1  0  0  0
 43 44  1  0  0  0
 44113  1  0  0  0
 45 46  2  0  0  0
 45114  1  0  0  0
 46115  1  0  0  0
 47116  1  0  0  0
 47117  1  0  0  0
 48 56  1  0  0  0
 48 65  1  0  0  0
 48118  1  0  0  0
 49 50  1  0  0  0
 49 53  1  0  0  0
 49 64  1  0  0  0
 49119  1  0  0  0
 50 51  1  0  0  0
 50120  1  0  0  0
 50121  1  0  0  0
 51 52  1  0  0  0
 51122  1  0  0  0
 51123  1  0  0  0
 52124  1  0  0  0
 52125  1  0  0  0
 53 54  1  0  0  0
 54 55  2  0  0  0
 54126  1  0  0  0
 55 57  1  0  0  0
 55127  1  0  0  0
 56 69  2  0  0  0
 57 58  2  0  0  0
 57128  1  0  0  0
 58129  1  0  0  0
 59 60  1  0  0  0
 59 61  1  0  0  0
 59 62  1  0  0  0
 60130  1  0  0  0
 60131  1  0  0  0
 60132  1  0  0  0
 61133  1  0  0  0
 61134  1  0  0  0
 61135  1  0  0  0
 62136  1  0  0  0
 62137  1  0  0  0
 62138  1  0  0  0
 63 65  1  0  0  0
 63139  1  0  0  0
 63140  1  0  0  0
 63141  1  0  0  0
 64142  1  0  0  0
 65143  1  0  0  0
 68 83  1  0  0  0
 71 72  2  0  0  0
 71 75  1  0  0  0
 71144  1  0  0  0
 72 76  1  0  0  0
 72145  1  0  0  0
 73 74  1  0  0  0
 73 75  2  0  0  0
 73146  1  0  0  0
 74 76  2  0  0  0
 74 77  1  0  0  0
 75 81  1  0  0  0
 76 79  1  0  0  0
 77 78  2  0  0  0
 77147  1  0  0  0
 78148  1  0  0  0
 79149  1  0  0  0
 79150  1  0  0  0
 79151  1  0  0  0
 80152  1  0  0  0
 80153  1  0  0  0
 80154  1  0  0  0
 80 84  1  0  0  0
 81 82  1  0  0  0
 81155  1  0  0  0
 81156  1  0  0  0
 82 84  1  0  0  0
 82157  1  0  0  0
 82158  1  0  0  0
 83 84  1  0  0  0
 83159  1  0  0  0
 83160  1  0  0  0
 84161  1  0  0  0
M  ISO  4   1 100  68 101  78 100  83 101
M  END
> <chiral flag>
0

> <version>
0

> <s_m_source_file>
/data/baiqing/PycharmProjects/Reinvent-master-3.2/result/LINK_invent/BTK/process_docking_weight1_custom_product_contain_oxygen_bond_distance_aromatic_linkinvent_7_9_3/rearranged_h_0132.sdf

> <i_m_source_file_index>
54

> <r_mmod_Potential_Energy-OPLS-2005>
42.1015510559082

> <r_mmod_Stretch_Energy-OPLS-2005>
39.0470085144043

> <r_mmod_Bend_Energy-OPLS-2005>
92.3913726806641

> <r_mmod_Torsional_Energy-OPLS-2005>
239.874114990234

> <r_mmod_Improper_Torsional_Energy-OPLS-2005>
10.976996421814

> <r_mmod_Van_der_Waal_Energy-OPLS-2005>
158.084884643555

> <r_mmod_Electrostatic_Energy-OPLS-2005>
-340.635223388672

> <r_mmod_Solvation_Energy-OPLS-2005>
-185.467697143555

> <b_mmod_Minimization_Converged-OPLS-2005>
0

> <r_mmod_RMS_Derivative-OPLS-2005>
4.00874328613281

$$$$
54
                    3D
 Structure written by MMmdl.
167176  0  0  1  0            999 V2000
  -30.5733  -14.5393   20.6553 C   0  0  0  0  0  0
  -30.4510  -12.3831   19.4148 C   0  0  0  0  0  0
  -29.5042  -12.5671   18.2068 C   0  0  0  0  0  0
  -28.0200  -12.3981   18.5992 C   0  0  0  0  0  0
  -27.6564  -13.2010   19.8721 C   0  0  2  0  0  0
  -28.6904  -12.9221   20.9774 C   0  0  0  0  0  0
  -25.2453  -13.7986   20.5438 C   0  0  0  0  0  0
  -24.1800  -13.0419   20.9187 C   0  0  0  0  0  0
  -24.6339  -11.6833   20.8671 C   0  0  0  0  0  0
  -23.9019  -10.4294   21.0348 C   0  0  0  0  0  0
  -24.3606   -9.4271   21.9167 C   0  0  0  0  0  0
  -23.6311   -8.2277   22.0749 C   0  0  0  0  0  0
  -22.4274   -8.0317   21.3563 C   0  0  0  0  0  0
  -21.9891   -9.0240   20.4640 C   0  0  0  0  0  0
  -22.7167  -10.2139   20.3032 C   0  0  0  0  0  0
  -21.6881   -6.0774   22.5279 C   0  0  0  0  0  0
  -21.4017   -6.5672   23.8216 C   0  0  0  0  0  0
  -21.3628   -5.6822   24.9156 C   0  0  0  0  0  0
  -21.6043   -4.3074   24.7212 C   0  0  0  0  0  0
  -21.8844   -3.8192   23.4313 C   0  0  0  0  0  0
  -21.9228   -4.7007   22.3399 C   0  0  0  0  0  0
  -22.7801  -13.5151   21.1789 C   0  0  0  0  0  0
  -22.1714   -4.2198   21.0964 F   0  0  0  0  0  0
  -21.5598   -3.4563   25.7708 F   0  0  0  0  0  0
  -30.0108  -13.3131   20.4658 N   0  0  0  0  0  0
  -26.2999  -12.9233   20.3311 N   0  0  0  0  0  0
  -25.9273  -11.6418   20.5765 N   0  0  0  0  0  0
  -22.0497  -12.8205   22.0417 N   0  0  0  0  0  0
  -25.3890  -15.1599   20.3121 N   0  0  0  0  0  0
  -31.6805  -14.8088   20.1666 O   0  0  0  0  0  0
  -21.6676   -6.8885   21.4238 O   0  0  0  0  0  0
  -22.3548  -14.5555   20.6699 O   0  0  0  0  0  0
  -24.6186  -31.8810   23.2168 C   0  0  0  0  0  0
  -25.9187  -32.4862   23.8446 C   0  0  1  0  0  0
  -27.1612  -27.4124   20.1783 C   0  0  0  0  0  0
  -25.6121  -33.8679   24.2401 N   0  0  0  0  0  0
  -23.3950  -30.5333   21.5480 C   0  0  2  0  0  0
  -24.8459  -29.0137   20.0865 C   0  0  0  0  0  0
  -22.7341  -29.5035   22.4913 C   0  0  0  0  0  0
  -18.0246  -28.1343   22.8419 C   0  0  0  0  0  0
  -24.1544  -36.7292   23.2611 C   0  0  0  0  0  0
  -25.9365  -30.8547   21.3798 C   0  0  0  0  0  0
  -26.0053  -29.5030   20.6963 C   0  0  0  0  0  0
  -27.1813  -28.7149   20.7319 C   0  0  0  0  0  0
  -26.0000  -26.9774   19.5047 C   0  0  0  0  0  0
  -24.8416  -27.7533   19.4835 C   0  0  0  0  0  0
  -23.6021  -29.8841   20.1528 C   0  0  0  0  0  0
  -25.4167  -36.3089   24.0292 C   0  0  1  0  0  0
  -20.5828  -28.4080   23.1281 C   0  0  2  0  0  0
  -20.7278  -27.0017   22.4869 C   0  0  0  0  0  0
  -19.5884  -26.6285   21.5343 C   0  0  0  0  0  0
  -18.2162  -26.7695   22.2030 C   0  0  0  0  0  0
  -19.1367  -28.8971   23.2802 C   0  0  0  0  0  0
  -18.9018  -30.1633   23.8783 C   0  0  0  0  0  0
  -17.5940  -30.6532   24.0460 C   0  0  0  0  0  0
  -25.9098  -34.9501   23.5094 C   0  0  0  0  0  0
  -16.5026  -29.8997   23.5909 C   0  0  0  0  0  0
  -16.7124  -28.6445   22.9912 C   0  0  0  0  0  0
  -26.4579  -31.6567   25.0740 C   0  0  0  0  0  0
  -25.3803  -31.3663   26.1418 C   0  0  0  0  0  0
  -27.0396  -30.3010   24.6118 C   0  0  0  0  0  0
  -27.6130  -32.4228   25.7528 C   0  0  0  0  0  0
  -27.5613  -37.1843   24.8483 C   0  0  0  0  0  0
  -21.4000  -29.3843   22.4099 N   0  0  0  0  0  0
  -26.4321  -37.3799   23.9397 N   0  0  0  0  0  0
  -24.6663  -31.1037   22.1003 N   0  0  0  0  0  0
  -23.4149  -28.8113   23.2525 O   0  0  0  0  0  0
  -28.2075  -26.5391   20.3735 O   0  0  0  0  0  0
  -26.5552  -34.8953   22.4581 O   0  0  0  0  0  0
  -23.5424  -32.1520   23.7665 O   0  0  0  0  0  0
  -28.1669  -20.3907   22.2806 C   0  0  0  0  0  0
  -29.1508  -19.3979   22.0040 C   0  0  0  0  0  0
  -27.3883  -17.8655   21.3895 C   0  0  0  0  0  0
  -26.7968  -20.1721   22.0142 C   0  0  0  0  0  0
  -28.7693  -18.1265   21.4977 C   0  0  0  0  0  0
  -26.4062  -18.8676   21.6158 C   0  0  0  0  0  0
  -25.5084  -22.0786   23.3238 C   0  0  0  0  0  0
  -24.9685  -23.4509   22.9002 C   0  0  0  0  0  0
  -26.2254  -22.4920   21.0592 C   0  0  0  0  0  0
  -25.8029  -21.3586   22.0092 C   0  0  1  0  0  0
  -25.7708  -23.8360   21.6363 C   0  0  2  0  0  0
  -24.9417  -18.5185   21.3640 C   0  0  0  0  0  0
  -29.7976  -17.1128   20.9242 C   0  0  0  0  0  0
  -29.7577  -15.6378   21.4381 C   0  0  0  0  0  0
  -26.9611  -24.8191   21.8836 C   0  0  0  0  0  0
  -27.8150  -25.1497   20.6055 C   0  0  0  0  0  0
  -31.4886  -12.5550   19.1072 H   0  0  0  0  0  0
  -30.4043  -11.3577   19.7908 H   0  0  0  0  0  0
  -29.7602  -11.8613   17.4198 H   0  0  0  0  0  0
  -29.6475  -13.5678   17.7886 H   0  0  0  0  0  0
  -27.8324  -11.3414   18.7756 H   0  0  0  0  0  0
  -27.3702  -12.7066   17.7796 H   0  0  0  0  0  0
  -27.7001  -14.2590   19.6059 H   0  0  0  0  0  0
  -28.6917  -11.8616   21.2336 H   0  0  0  0  0  0
  -28.4248  -13.3952   21.9176 H   0  0  0  0  0  0
  -25.2753   -9.5858   22.4722 H   0  0  0  0  0  0
  -24.0073   -7.4735   22.7505 H   0  0  0  0  0  0
  -21.0813   -8.8753   19.8969 H   0  0  0  0  0  0
  -22.3588  -10.9681   19.6170 H   0  0  0  0  0  0
  -21.2010   -7.6190   23.9708 H   0  0  0  0  0  0
  -21.1384   -6.0546   25.9053 H   0  0  0  0  0  0
  -22.0631   -2.7648   23.2804 H   0  0  0  0  0  0
  -22.4164  -11.9852   22.4823 H   0  0  0  0  0  0
  -21.1159  -13.1253   22.2683 H   0  0  0  0  0  0
  -24.5104  -15.6476   20.1607 H   0  0  0  0  0  0
  -26.0847  -15.4430   19.6346 H   0  0  0  0  0  0
  -26.7263  -32.5620   23.1200 H   0  0  0  0  0  0
  -25.0518  -33.9815   25.0735 H   0  0  0  0  0  0
  -22.6884  -31.3535   21.4209 H   0  0  0  0  0  0
  -23.3802  -35.9635   23.3279 H   0  0  0  0  0  0
  -24.3621  -36.8911   22.2028 H   0  0  0  0  0  0
  -23.7335  -37.6516   23.6636 H   0  0  0  0  0  0
  -26.0789  -31.6385   20.6322 H   0  0  0  0  0  0
  -26.8030  -30.8721   22.0241 H   0  0  0  0  0  0
  -28.0640  -29.0721   21.2675 H   0  0  0  0  0  0
  -25.9229  -26.0041   19.0495 H   0  0  0  0  0  0
  -23.9418  -27.3622   19.0303 H   0  0  0  0  0  0
  -23.7303  -30.6679   19.4134 H   0  0  0  0  0  0
  -22.7211  -29.3254   19.8392 H   0  0  0  0  0  0
  -25.1366  -36.1870   25.0775 H   0  0  0  0  0  0
  -20.9751  -28.3452   24.1413 H   0  0  0  0  0  0
  -20.7411  -26.2695   23.3004 H   0  0  0  0  0  0
  -21.6932  -26.8948   21.9822 H   0  0  0  0  0  0
  -19.7121  -25.5951   21.2002 H   0  0  0  0  0  0
  -19.6373  -27.2945   20.6625 H   0  0  0  0  0  0
  -17.4400  -26.5661   21.4625 H   0  0  0  0  0  0
  -18.0540  -26.0102   22.9643 H   0  0  0  0  0  0
  -19.7306  -30.7589   24.2378 H   0  0  0  0  0  0
  -17.4222  -31.5984   24.5350 H   0  0  0  0  0  0
  -15.4961  -30.2824   23.7190 H   0  0  0  0  0  0
  -15.8516  -28.0956   22.6258 H   0  0  0  0  0  0
  -24.5982  -30.7034   25.7682 H   0  0  0  0  0  0
  -24.9006  -32.2862   26.4833 H   0  0  0  0  0  0
  -25.8114  -30.8793   27.0192 H   0  0  0  0  0  0
  -26.2994  -29.6745   24.1124 H   0  0  0  0  0  0
  -27.4153  -29.7216   25.4573 H   0  0  0  0  0  0
  -27.8862  -30.4277   23.9324 H   0  0  0  0  0  0
  -27.2776  -33.3509   26.2163 H   0  0  0  0  0  0
  -28.3997  -32.6791   25.0413 H   0  0  0  0  0  0
  -28.0781  -31.8299   26.5426 H   0  0  0  0  0  0
  -28.2616  -38.0137   24.7508 H   0  0  0  0  0  0
  -28.1090  -36.2683   24.6327 H   0  0  0  0  0  0
  -27.2307  -37.1538   25.8864 H   0  0  0  0  0  0
  -20.8965  -30.0708   21.8591 H   0  0  0  0  0  0
  -26.0167  -38.2851   24.1397 H   0  0  0  0  0  0
  -28.4600  -21.3694   22.6379 H   0  0  0  0  0  0
  -30.1970  -19.6735   22.1304 H   0  0  0  0  0  0
  -27.1056  -16.8847   21.0408 H   0  0  0  0  0  0
  -24.8113  -21.4899   23.9337 H   0  0  0  0  0  0
  -26.4340  -22.2176   23.8756 H   0  0  0  0  0  0
  -25.0439  -24.1851   23.6959 H   0  0  0  0  0  0
  -23.8987  -23.3708   22.6356 H   0  0  0  0  0  0
  -25.7518  -22.3494   20.0917 H   0  0  0  0  0  0
  -27.2913  -22.4760   20.8640 H   0  0  0  0  0  0
  -24.8417  -21.0222   21.6434 H   0  0  0  0  0  0
  -25.0895  -24.3224   20.9348 H   0  0  0  0  0  0
  -24.8752  -17.5329   20.9185 H   0  0  0  0  0  0
  -24.4880  -19.2021   20.6521 H   0  0  0  0  0  0
  -24.3451  -18.5173   22.2774 H   0  0  0  0  0  0
  -30.7927  -17.5491   21.0047 H   0  0  0  0  0  0
  -29.5817  -17.0505   19.8616 H   0  0  0  0  0  0
  -28.7071  -15.3690   21.3905 H   0  0  0  0  0  0
  -30.0526  -15.6152   22.4798 H   0  0  0  0  0  0
  -27.5957  -24.4109   22.6736 H   0  0  0  0  0  0
  -26.5256  -25.7210   22.3090 H   0  0  0  0  0  0
  -27.2963  -24.7213   19.7468 H   0  0  0  0  0  0
  -28.7214  -24.5441   20.6693 H   0  0  0  0  0  0
  1 25  1  0  0  0
  1 30  2  0  0  0
  1 84  1  0  0  0
  2  3  1  0  0  0
  2 25  1  0  0  0
  2 87  1  0  0  0
  2 88  1  0  0  0
  3  4  1  0  0  0
  3 89  1  0  0  0
  3 90  1  0  0  0
  4  5  1  0  0  0
  4 91  1  0  0  0
  4 92  1  0  0  0
  5  6  1  0  0  0
  5 26  1  0  0  0
  5 93  1  0  0  0
  6 25  1  0  0  0
  6 94  1  0  0  0
  6 95  1  0  0  0
  7  8  2  0  0  0
  7 26  1  0  0  0
  7 29  1  0  0  0
  8  9  1  0  0  0
  8 22  1  0  0  0
  9 10  1  0  0  0
  9 27  2  0  0  0
 10 11  2  0  0  0
 10 15  1  0  0  0
 11 12  1  0  0  0
 11 96  1  0  0  0
 12 13  2  0  0  0
 12 97  1  0  0  0
 13 14  1  0  0  0
 13 31  1  0  0  0
 14 15  2  0  0  0
 14 98  1  0  0  0
 15 99  1  0  0  0
 16 17  2  0  0  0
 16 21  1  0  0  0
 16 31  1  0  0  0
 17 18  1  0  0  0
 17100  1  0  0  0
 18 19  2  0  0  0
 18101  1  0  0  0
 19 20  1  0  0  0
 19 24  1  0  0  0
 20 21  2  0  0  0
 20102  1  0  0  0
 21 23  1  0  0  0
 22 28  1  0  0  0
 22 32  2  0  0  0
 26 27  1  0  0  0
 28103  1  0  0  0
 28104  1  0  0  0
 29105  1  0  0  0
 29106  1  0  0  0
 33 34  1  0  0  0
 33 66  1  0  0  0
 33 70  2  0  0  0
 34 36  1  0  0  0
 34 59  1  0  0  0
 34107  1  0  0  0
 35 44  2  0  0  0
 35 45  1  0  0  0
 35 68  1  0  0  0
 36 56  1  0  0  0
 36108  1  0  0  0
 37 39  1  0  0  0
 37 47  1  0  0  0
 37 66  1  0  0  0
 37109  1  0  0  0
 38 43  2  0  0  0
 38 46  1  0  0  0
 38 47  1  0  0  0
 39 64  1  0  0  0
 39 67  2  0  0  0
 40 52  1  0  0  0
 40 53  2  0  0  0
 40 58  1  0  0  0
 41110  1  0  0  0
 41111  1  0  0  0
 41112  1  0  0  0
 41 48  1  0  0  0
 42 43  1  0  0  0
 42 66  1  0  0  0
 42113  1  0  0  0
 42114  1  0  0  0
 43 44  1  0  0  0
 44115  1  0  0  0
 45 46  2  0  0  0
 45116  1  0  0  0
 46117  1  0  0  0
 47118  1  0  0  0
 47119  1  0  0  0
 48 56  1  0  0  0
 48 65  1  0  0  0
 48120  1  0  0  0
 49 50  1  0  0  0
 49 53  1  0  0  0
 49 64  1  0  0  0
 49121  1  0  0  0
 50 51  1  0  0  0
 50122  1  0  0  0
 50123  1  0  0  0
 51 52  1  0  0  0
 51124  1  0  0  0
 51125  1  0  0  0
 52126  1  0  0  0
 52127  1  0  0  0
 53 54  1  0  0  0
 54 55  2  0  0  0
 54128  1  0  0  0
 55 57  1  0  0  0
 55129  1  0  0  0
 56 69  2  0  0  0
 57 58  2  0  0  0
 57130  1  0  0  0
 58131  1  0  0  0
 59 60  1  0  0  0
 59 61  1  0  0  0
 59 62  1  0  0  0
 60132  1  0  0  0
 60133  1  0  0  0
 60134  1  0  0  0
 61135  1  0  0  0
 61136  1  0  0  0
 61137  1  0  0  0
 62138  1  0  0  0
 62139  1  0  0  0
 62140  1  0  0  0
 63 65  1  0  0  0
 63141  1  0  0  0
 63142  1  0  0  0
 63143  1  0  0  0
 64144  1  0  0  0
 65145  1  0  0  0
 68 86  1  0  0  0
 71 72  2  0  0  0
 71 74  1  0  0  0
 71146  1  0  0  0
 72 75  1  0  0  0
 72147  1  0  0  0
 73 75  2  0  0  0
 73 76  1  0  0  0
 73148  1  0  0  0
 74 76  2  0  0  0
 74 80  1  0  0  0
 75 83  1  0  0  0
 76 82  1  0  0  0
 77 78  1  0  0  0
 77 80  1  0  0  0
 77149  1  0  0  0
 77150  1  0  0  0
 78 81  1  0  0  0
 78151  1  0  0  0
 78152  1  0  0  0
 79 80  1  0  0  0
 79 81  1  0  0  0
 79153  1  0  0  0
 79154  1  0  0  0
 80155  1  0  0  0
 81 85  1  0  0  0
 81156  1  0  0  0
 82157  1  0  0  0
 82158  1  0  0  0
 82159  1  0  0  0
 83 84  1  0  0  0
 83160  1  0  0  0
 83161  1  0  0  0
 84162  1  0  0  0
 84163  1  0  0  0
 85 86  1  0  0  0
 85164  1  0  0  0
 85165  1  0  0  0
 86166  1  0  0  0
 86167  1  0  0  0
M  ISO  4   1 100  68 101  84 100  86 101
M  END
> <chiral flag>
0

> <version>
0

> <s_m_source_file>
/data/baiqing/PycharmProjects/Reinvent-master-3.2/result/LINK_invent/BTK/process_docking_weight1_custom_product_contain_oxygen_bond_distance_aromatic_linkinvent_7_9_3/rearranged_h_0132.sdf

> <i_m_source_file_index>
55

> <r_mmod_Potential_Energy-OPLS-2005>
149.842056274414

> <r_mmod_Stretch_Energy-OPLS-2005>
53.4947929382324

> <r_mmod_Bend_Energy-OPLS-2005>
133.342269897461

> <r_mmod_Torsional_Energy-OPLS-2005>
268.407897949219

> <r_mmod_Improper_Torsional_Energy-OPLS-2005>
9.47635078430176

> <r_mmod_Van_der_Waal_Energy-OPLS-2005>
162.77165222168

> <r_mmod_Electrostatic_Energy-OPLS-2005>
-348.935943603516

> <r_mmod_Solvation_Energy-OPLS-2005>
-179.522018432617

> <b_mmod_Minimization_Converged-OPLS-2005>
0

> <r_mmod_RMS_Derivative-OPLS-2005>
18.1788482666016

$$$$
55
                    3D
 Structure written by MMmdl.
165173  0  0  1  0            999 V2000
  -30.7621  -14.3969   20.5958 C   0  0  0  0  0  0
  -30.3990  -12.2632   19.4260 C   0  0  0  0  0  0
  -29.4853  -12.4969   18.2083 C   0  0  0  0  0  0
  -28.0080  -12.3646   18.6206 C   0  0  0  0  0  0
  -27.6607  -13.2113   19.8750 C   0  0  2  0  0  0
  -28.7011  -13.0092   21.0009 C   0  0  0  0  0  0
  -25.2579  -13.8185   20.5698 C   0  0  0  0  0  0
  -24.1832  -13.0443   20.9178 C   0  0  0  0  0  0
  -24.6394  -11.6915   20.8741 C   0  0  0  0  0  0
  -23.9068  -10.4294   21.0406 C   0  0  0  0  0  0
  -24.3617   -9.4210   21.9187 C   0  0  0  0  0  0
  -23.6293   -8.2247   22.0757 C   0  0  0  0  0  0
  -22.4279   -8.0283   21.3545 C   0  0  0  0  0  0
  -21.9912   -9.0257   20.4647 C   0  0  0  0  0  0
  -22.7244  -10.2137   20.3053 C   0  0  0  0  0  0
  -21.6850   -6.0736   22.5279 C   0  0  0  0  0  0
  -21.4019   -6.5644   23.8215 C   0  0  0  0  0  0
  -21.3659   -5.6795   24.9177 C   0  0  0  0  0  0
  -21.6042   -4.3054   24.7225 C   0  0  0  0  0  0
  -21.8820   -3.8149   23.4346 C   0  0  0  0  0  0
  -21.9196   -4.6965   22.3403 C   0  0  0  0  0  0
  -22.7853  -13.5233   21.1845 C   0  0  0  0  0  0
  -22.1660   -4.2152   21.0977 F   0  0  0  0  0  0
  -21.5628   -3.4537   25.7736 F   0  0  0  0  0  0
  -30.0385  -13.2581   20.4474 N   0  0  0  0  0  0
  -26.3024  -12.9363   20.3389 N   0  0  0  0  0  0
  -25.9327  -11.6519   20.5784 N   0  0  0  0  0  0
  -22.0501  -12.8216   22.0399 N   0  0  0  0  0  0
  -25.4307  -15.1898   20.4112 N   0  0  0  0  0  0
  -31.8684  -14.5213   20.0622 O   0  0  0  0  0  0
  -21.6640   -6.8882   21.4241 O   0  0  0  0  0  0
  -22.3536  -14.5547   20.6707 O   0  0  0  0  0  0
  -24.6110  -31.8716   23.2145 C   0  0  0  0  0  0
  -25.9027  -32.4842   23.8401 C   0  0  1  0  0  0
  -27.2270  -27.4620   20.0717 C   0  0  0  0  0  0
  -25.5881  -33.8639   24.2317 N   0  0  0  0  0  0
  -23.3959  -30.4979   21.5547 C   0  0  2  0  0  0
  -24.8389  -28.9735   20.1108 C   0  0  0  0  0  0
  -22.7394  -29.4673   22.5002 C   0  0  0  0  0  0
  -18.0268  -28.1385   22.8502 C   0  0  0  0  0  0
  -24.1486  -36.7328   23.2634 C   0  0  0  0  0  0
  -25.9254  -30.8401   21.3710 C   0  0  0  0  0  0
  -25.9976  -29.4800   20.7111 C   0  0  0  0  0  0
  -27.1909  -28.7274   20.6957 C   0  0  0  0  0  0
  -26.0499  -26.9752   19.4526 C   0  0  0  0  0  0
  -24.8576  -27.7174   19.4843 C   0  0  0  0  0  0
  -23.6011  -29.8372   20.1664 C   0  0  0  0  0  0
  -25.4109  -36.3120   24.0324 C   0  0  1  0  0  0
  -20.5856  -28.3660   23.1342 C   0  0  2  0  0  0
  -20.6764  -26.9405   22.5420 C   0  0  0  0  0  0
  -19.5737  -26.6398   21.5216 C   0  0  0  0  0  0
  -18.1912  -26.7934   22.1626 C   0  0  0  0  0  0
  -19.1518  -28.8834   23.2924 C   0  0  0  0  0  0
  -18.9448  -30.1444   23.8923 C   0  0  0  0  0  0
  -17.6454  -30.6592   24.0572 C   0  0  0  0  0  0
  -25.9028  -34.9489   23.5123 C   0  0  0  0  0  0
  -16.5346  -29.9093   23.6335 C   0  0  0  0  0  0
  -16.7259  -28.6516   23.0343 C   0  0  0  0  0  0
  -26.4449  -31.6637   25.0737 C   0  0  0  0  0  0
  -25.3705  -31.3777   26.1487 C   0  0  0  0  0  0
  -27.0290  -30.3071   24.6145 C   0  0  0  0  0  0
  -27.5999  -32.4391   25.7511 C   0  0  0  0  0  0
  -27.5592  -37.1818   24.8454 C   0  0  0  0  0  0
  -21.4126  -29.3040   22.3762 N   0  0  0  0  0  0
  -26.4305  -37.3801   23.9401 N   0  0  0  0  0  0
  -24.6618  -31.0838   22.1042 N   0  0  0  0  0  0
  -23.4191  -28.8198   23.3009 O   0  0  0  0  0  0
  -28.4122  -26.7595   20.0969 O   0  0  0  0  0  0
  -26.5609  -34.8942   22.4696 O   0  0  0  0  0  0
  -23.5315  -32.1472   23.7556 O   0  0  0  0  0  0
  -30.1740  -18.4509   22.9524 C   0  0  0  0  0  0
  -29.8411  -19.7716   23.3157 C   0  0  0  0  0  0
  -30.7438  -19.2297   20.7158 C   0  0  0  0  0  0
  -30.6498  -18.1821   21.6551 C   0  0  0  0  0  0
  -29.9870  -20.8308   22.3929 C   0  0  0  0  0  0
  -30.4235  -20.5540   21.0720 C   0  0  0  0  0  0
  -28.2369  -24.1703   21.9969 C   0  0  0  0  0  0
  -32.0274  -22.1997   19.9883 C   0  0  0  0  0  0
  -31.1800  -16.8121   21.2741 C   0  0  0  0  0  0
  -29.6892  -22.2538   22.8383 C   0  0  0  0  0  0
  -30.5988  -21.6430   20.0192 C   0  0  0  0  0  0
  -28.2817  -22.7022   22.4148 C   0  0  0  0  0  0
  -27.5681  -24.4815   20.6588 C   0  0  0  0  0  0
  -30.1883  -15.6218   21.3374 C   0  0  0  0  0  0
  -28.4072  -25.3814   19.7221 C   0  0  0  0  0  0
  -28.7107  -25.0565   22.7124 O   0  0  0  0  0  0
  -31.4481  -12.3112   19.1286 H   0  0  0  0  0  0
  -30.2551  -11.2572   19.8240 H   0  0  0  0  0  0
  -29.7187  -11.7819   17.4179 H   0  0  0  0  0  0
  -29.6666  -13.4890   17.7922 H   0  0  0  0  0  0
  -27.8145  -11.3099   18.8195 H   0  0  0  0  0  0
  -27.3570  -12.6392   17.7900 H   0  0  0  0  0  0
  -27.7042  -14.2570   19.5704 H   0  0  0  0  0  0
  -28.6525  -11.9895   21.3855 H   0  0  0  0  0  0
  -28.4769  -13.6566   21.8492 H   0  0  0  0  0  0
  -25.2760   -9.5688   22.4764 H   0  0  0  0  0  0
  -24.0003   -7.4637   22.7471 H   0  0  0  0  0  0
  -21.0850   -8.8775   19.8943 H   0  0  0  0  0  0
  -22.3705  -10.9677   19.6159 H   0  0  0  0  0  0
  -21.2013   -7.6152   23.9722 H   0  0  0  0  0  0
  -21.1480   -6.0522   25.9081 H   0  0  0  0  0  0
  -22.0600   -2.7611   23.2843 H   0  0  0  0  0  0
  -22.4111  -11.9847   22.4739 H   0  0  0  0  0  0
  -21.1124  -13.1244   22.2630 H   0  0  0  0  0  0
  -24.6690  -15.8498   20.5251 H   0  0  0  0  0  0
  -26.2948  -15.6294   20.1186 H   0  0  0  0  0  0
  -26.7102  -32.5547   23.1168 H   0  0  0  0  0  0
  -24.9994  -33.9800   25.0431 H   0  0  0  0  0  0
  -22.6828  -31.3141   21.4206 H   0  0  0  0  0  0
  -23.3751  -35.9662   23.3303 H   0  0  0  0  0  0
  -24.3569  -36.8936   22.2046 H   0  0  0  0  0  0
  -23.7244  -37.6533   23.6659 H   0  0  0  0  0  0
  -26.0467  -31.6148   20.6119 H   0  0  0  0  0  0
  -26.8101  -30.8799   21.9957 H   0  0  0  0  0  0
  -28.0849  -29.1093   21.1703 H   0  0  0  0  0  0
  -26.0265  -26.0270   18.9369 H   0  0  0  0  0  0
  -23.9687  -27.3238   19.0115 H   0  0  0  0  0  0
  -23.7035  -30.6157   19.4093 H   0  0  0  0  0  0
  -22.7254  -29.2552   19.8718 H   0  0  0  0  0  0
  -25.1294  -36.1988   25.0816 H   0  0  0  0  0  0
  -20.9940  -28.3220   24.1466 H   0  0  0  0  0  0
  -20.5693  -26.2254   23.3594 H   0  0  0  0  0  0
  -21.6633  -26.7479   22.1191 H   0  0  0  0  0  0
  -19.6911  -25.6316   21.1223 H   0  0  0  0  0  0
  -19.6683  -27.3235   20.6767 H   0  0  0  0  0  0
  -17.4188  -26.6696   21.4028 H   0  0  0  0  0  0
  -18.0305  -26.0070   22.9012 H   0  0  0  0  0  0
  -19.7925  -30.7247   24.2313 H   0  0  0  0  0  0
  -17.5014  -31.6274   24.5175 H   0  0  0  0  0  0
  -15.5349  -30.3001   23.7660 H   0  0  0  0  0  0
  -15.8652  -28.0855   22.7033 H   0  0  0  0  0  0
  -24.5788  -30.7239   25.7823 H   0  0  0  0  0  0
  -24.9007  -32.2962   26.5020 H   0  0  0  0  0  0
  -25.8016  -30.8853   27.0207 H   0  0  0  0  0  0
  -26.2859  -29.6842   24.1149 H   0  0  0  0  0  0
  -27.3988  -29.7314   25.4640 H   0  0  0  0  0  0
  -27.8728  -30.4382   23.9361 H   0  0  0  0  0  0
  -27.2547  -33.3644   26.2153 H   0  0  0  0  0  0
  -28.3764  -32.7044   25.0322 H   0  0  0  0  0  0
  -28.0720  -31.8492   26.5379 H   0  0  0  0  0  0
  -28.2598  -38.0130   24.7518 H   0  0  0  0  0  0
  -28.1098  -36.2656   24.6261 H   0  0  0  0  0  0
  -27.2306  -37.1434   25.8855 H   0  0  0  0  0  0
  -20.9280  -29.8756   21.6987 H   0  0  0  0  0  0
  -26.0199  -38.2890   24.1388 H   0  0  0  0  0  0
  -30.0979  -17.6568   23.6818 H   0  0  0  0  0  0
  -29.4993  -19.9714   24.3222 H   0  0  0  0  0  0
  -31.1089  -19.0292   19.7175 H   0  0  0  0  0  0
  -32.1200  -22.9967   19.2498 H   0  0  0  0  0  0
  -32.7472  -21.4233   19.7269 H   0  0  0  0  0  0
  -32.3176  -22.6096   20.9558 H   0  0  0  0  0  0
  -32.0391  -16.5977   21.9110 H   0  0  0  0  0  0
  -31.5822  -16.9093   20.2646 H   0  0  0  0  0  0
  -30.4613  -22.9165   22.4443 H   0  0  0  0  0  0
  -29.7823  -22.3275   23.9225 H   0  0  0  0  0  0
  -29.8898  -22.4534   20.1732 H   0  0  0  0  0  0
  -30.3485  -21.2346   19.0388 H   0  0  0  0  0  0
  -27.9548  -22.1076   21.5629 H   0  0  0  0  0  0
  -27.5602  -22.5156   23.2099 H   0  0  0  0  0  0
  -26.5879  -24.9084   20.8624 H   0  0  0  0  0  0
  -27.3786  -23.5404   20.1433 H   0  0  0  0  0  0
  -29.2505  -15.8983   20.8555 H   0  0  0  0  0  0
  -29.9640  -15.3683   22.3735 H   0  0  0  0  0  0
  -28.0797  -25.2723   18.6878 H   0  0  0  0  0  0
  -29.4431  -25.0401   19.7223 H   0  0  0  0  0  0
  1 25  1  0  0  0
  1 30  2  0  0  0
  1 84  1  0  0  0
  2  3  1  0  0  0
  2 25  1  0  0  0
  2 87  1  0  0  0
  2 88  1  0  0  0
  3  4  1  0  0  0
  3 89  1  0  0  0
  3 90  1  0  0  0
  4  5  1  0  0  0
  4 91  1  0  0  0
  4 92  1  0  0  0
  5  6  1  0  0  0
  5 26  1  0  0  0
  5 93  1  0  0  0
  6 25  1  0  0  0
  6 94  1  0  0  0
  6 95  1  0  0  0
  7  8  2  0  0  0
  7 26  1  0  0  0
  7 29  1  0  0  0
  8  9  1  0  0  0
  8 22  1  0  0  0
  9 10  1  0  0  0
  9 27  2  0  0  0
 10 11  2  0  0  0
 10 15  1  0  0  0
 11 12  1  0  0  0
 11 96  1  0  0  0
 12 13  2  0  0  0
 12 97  1  0  0  0
 13 14  1  0  0  0
 13 31  1  0  0  0
 14 15  2  0  0  0
 14 98  1  0  0  0
 15 99  1  0  0  0
 16 17  2  0  0  0
 16 21  1  0  0  0
 16 31  1  0  0  0
 17 18  1  0  0  0
 17100  1  0  0  0
 18 19  2  0  0  0
 18101  1  0  0  0
 19 20  1  0  0  0
 19 24  1  0  0  0
 20 21  2  0  0  0
 20102  1  0  0  0
 21 23  1  0  0  0
 22 28  1  0  0  0
 22 32  2  0  0  0
 26 27  1  0  0  0
 28103  1  0  0  0
 28104  1  0  0  0
 29105  1  0  0  0
 29106  1  0  0  0
 33 34  1  0  0  0
 33 66  1  0  0  0
 33 70  2  0  0  0
 34 36  1  0  0  0
 34 59  1  0  0  0
 34107  1  0  0  0
 35 44  2  0  0  0
 35 45  1  0  0  0
 35 68  1  0  0  0
 36 56  1  0  0  0
 36108  1  0  0  0
 37 39  1  0  0  0
 37 47  1  0  0  0
 37 66  1  0  0  0
 37109  1  0  0  0
 38 43  2  0  0  0
 38 46  1  0  0  0
 38 47  1  0  0  0
 39 64  1  0  0  0
 39 67  2  0  0  0
 40 52  1  0  0  0
 40 53  2  0  0  0
 40 58  1  0  0  0
 41110  1  0  0  0
 41111  1  0  0  0
 41112  1  0  0  0
 41 48  1  0  0  0
 42 43  1  0  0  0
 42 66  1  0  0  0
 42113  1  0  0  0
 42114  1  0  0  0
 43 44  1  0  0  0
 44115  1  0  0  0
 45 46  2  0  0  0
 45116  1  0  0  0
 46117  1  0  0  0
 47118  1  0  0  0
 47119  1  0  0  0
 48 56  1  0  0  0
 48 65  1  0  0  0
 48120  1  0  0  0
 49 50  1  0  0  0
 49 53  1  0  0  0
 49 64  1  0  0  0
 49121  1  0  0  0
 50 51  1  0  0  0
 50122  1  0  0  0
 50123  1  0  0  0
 51 52  1  0  0  0
 51124  1  0  0  0
 51125  1  0  0  0
 52126  1  0  0  0
 52127  1  0  0  0
 53 54  1  0  0  0
 54 55  2  0  0  0
 54128  1  0  0  0
 55 57  1  0  0  0
 55129  1  0  0  0
 56 69  2  0  0  0
 57 58  2  0  0  0
 57130  1  0  0  0
 58131  1  0  0  0
 59 60  1  0  0  0
 59 61  1  0  0  0
 59 62  1  0  0  0
 60132  1  0  0  0
 60133  1  0  0  0
 60134  1  0  0  0
 61135  1  0  0  0
 61136  1  0  0  0
 61137  1  0  0  0
 62138  1  0  0  0
 62139  1  0  0  0
 62140  1  0  0  0
 63 65  1  0  0  0
 63141  1  0  0  0
 63142  1  0  0  0
 63143  1  0  0  0
 64144  1  0  0  0
 65145  1  0  0  0
 68 85  1  0  0  0
 71 72  2  0  0  0
 71 74  1  0  0  0
 71146  1  0  0  0
 72 75  1  0  0  0
 72147  1  0  0  0
 73 74  2  0  0  0
 73 76  1  0  0  0
 73148  1  0  0  0
 74 79  1  0  0  0
 75 76  2  0  0  0
 75 80  1  0  0  0
 76 81  1  0  0  0
 77 82  1  0  0  0
 77 83  1  0  0  0
 77 86  2  0  0  0
 78 81  1  0  0  0
 78149  1  0  0  0
 78150  1  0  0  0
 78151  1  0  0  0
 79 84  1  0  0  0
 79152  1  0  0  0
 79153  1  0  0  0
 80 82  1  0  0  0
 80154  1  0  0  0
 80155  1  0  0  0
 81156  1  0  0  0
 81157  1  0  0  0
 82158  1  0  0  0
 82159  1  0  0  0
 83 85  1  0  0  0
 83160  1  0  0  0
 83161  1  0  0  0
 84162  1  0  0  0
 84163  1  0  0  0
 85164  1  0  0  0
 85165  1  0  0  0
M  ISO  4   1 100  68 101  84 100  85 101
M  END
> <chiral flag>
0

> <version>
0

> <s_m_source_file>
/data/baiqing/PycharmProjects/Reinvent-master-3.2/result/LINK_invent/BTK/process_docking_weight1_custom_product_contain_oxygen_bond_distance_aromatic_linkinvent_7_9_3/rearranged_h_0132.sdf

> <i_m_source_file_index>
56

> <r_mmod_Potential_Energy-OPLS-2005>
-108.084190368652

> <r_mmod_Stretch_Energy-OPLS-2005>
32.3443832397461

> <r_mmod_Bend_Energy-OPLS-2005>
95.347297668457

> <r_mmod_Torsional_Energy-OPLS-2005>
169.872573852539

> <r_mmod_Improper_Torsional_Energy-OPLS-2005>
2.68662214279175

> <r_mmod_Van_der_Waal_Energy-OPLS-2005>
160.945373535156

> <r_mmod_Electrostatic_Energy-OPLS-2005>
-374.523406982422

> <r_mmod_Solvation_Energy-OPLS-2005>
-207.453125

> <b_mmod_Minimization_Converged-OPLS-2005>
0

> <r_mmod_RMS_Derivative-OPLS-2005>
1.63159644603729

$$$$
56
                    3D
 Structure written by MMmdl.
157165  0  0  1  0            999 V2000
  -30.7454  -14.4349   20.5616 C   0  0  0  0  0  0
  -30.4034  -12.2737   19.4345 C   0  0  0  0  0  0
  -29.4902  -12.4847   18.2105 C   0  0  0  0  0  0
  -28.0109  -12.3572   18.6197 C   0  0  0  0  0  0
  -27.6587  -13.2128   19.8667 C   0  0  2  0  0  0
  -28.6984  -13.0246   20.9930 C   0  0  0  0  0  0
  -25.2591  -13.8177   20.5689 C   0  0  0  0  0  0
  -24.1848  -13.0448   20.9170 C   0  0  0  0  0  0
  -24.6411  -11.6918   20.8725 C   0  0  0  0  0  0
  -23.9077  -10.4301   21.0395 C   0  0  0  0  0  0
  -24.3621   -9.4220   21.9185 C   0  0  0  0  0  0
  -23.6296   -8.2252   22.0755 C   0  0  0  0  0  0
  -22.4276   -8.0287   21.3545 C   0  0  0  0  0  0
  -21.9922   -9.0255   20.4634 C   0  0  0  0  0  0
  -22.7249  -10.2137   20.3045 C   0  0  0  0  0  0
  -21.6853   -6.0748   22.5280 C   0  0  0  0  0  0
  -21.4015   -6.5644   23.8218 C   0  0  0  0  0  0
  -21.3657   -5.6794   24.9174 C   0  0  0  0  0  0
  -21.6034   -4.3054   24.7218 C   0  0  0  0  0  0
  -21.8827   -3.8154   23.4341 C   0  0  0  0  0  0
  -21.9193   -4.6978   22.3399 C   0  0  0  0  0  0
  -22.7869  -13.5236   21.1829 C   0  0  0  0  0  0
  -22.1666   -4.2162   21.0974 F   0  0  0  0  0  0
  -21.5624   -3.4538   25.7736 F   0  0  0  0  0  0
  -30.0352  -13.2816   20.4420 N   0  0  0  0  0  0
  -26.3022  -12.9363   20.3343 N   0  0  0  0  0  0
  -25.9339  -11.6513   20.5757 N   0  0  0  0  0  0
  -22.0505  -12.8214   22.0371 N   0  0  0  0  0  0
  -25.4324  -15.1900   20.4117 N   0  0  0  0  0  0
  -31.8771  -14.5308   20.0804 O   0  0  0  0  0  0
  -21.6635   -6.8888   21.4242 O   0  0  0  0  0  0
  -22.3548  -14.5537   20.6676 O   0  0  0  0  0  0
  -24.6118  -31.8713   23.2146 C   0  0  0  0  0  0
  -25.9036  -32.4832   23.8418 C   0  0  1  0  0  0
  -27.2267  -27.4563   20.0710 C   0  0  0  0  0  0
  -25.5927  -33.8629   24.2353 N   0  0  0  0  0  0
  -23.3959  -30.4972   21.5569 C   0  0  2  0  0  0
  -24.8371  -28.9673   20.1160 C   0  0  0  0  0  0
  -22.7390  -29.4672   22.5028 C   0  0  0  0  0  0
  -18.0265  -28.1370   22.8480 C   0  0  0  0  0  0
  -24.1491  -36.7296   23.2635 C   0  0  0  0  0  0
  -25.9234  -30.8394   21.3652 C   0  0  0  0  0  0
  -25.9978  -29.4752   20.7122 C   0  0  0  0  0  0
  -27.1909  -28.7225   20.6957 C   0  0  0  0  0  0
  -26.0445  -26.9621   19.4667 C   0  0  0  0  0  0
  -24.8530  -27.7064   19.4987 C   0  0  0  0  0  0
  -23.6032  -29.8369   20.1681 C   0  0  0  0  0  0
  -25.4112  -36.3113   24.0348 C   0  0  1  0  0  0
  -20.5851  -28.3650   23.1329 C   0  0  2  0  0  0
  -20.6768  -26.9398   22.5407 C   0  0  0  0  0  0
  -19.5751  -26.6393   21.5197 C   0  0  0  0  0  0
  -18.1916  -26.7917   22.1610 C   0  0  0  0  0  0
  -19.1517  -28.8826   23.2897 C   0  0  0  0  0  0
  -18.9452  -30.1424   23.8923 C   0  0  0  0  0  0
  -17.6463  -30.6580   24.0572 C   0  0  0  0  0  0
  -25.9048  -34.9482   23.5139 C   0  0  0  0  0  0
  -16.5347  -29.9087   23.6332 C   0  0  0  0  0  0
  -16.7265  -28.6503   23.0349 C   0  0  0  0  0  0
  -26.4492  -31.6583   25.0709 C   0  0  0  0  0  0
  -25.3768  -31.3627   26.1445 C   0  0  0  0  0  0
  -27.0332  -30.3062   24.6007 C   0  0  0  0  0  0
  -27.6064  -32.4276   25.7487 C   0  0  0  0  0  0
  -27.5577  -37.1805   24.8473 C   0  0  0  0  0  0
  -21.4122  -29.3030   22.3760 N   0  0  0  0  0  0
  -26.4296  -37.3792   23.9415 N   0  0  0  0  0  0
  -24.6625  -31.0812   22.1042 N   0  0  0  0  0  0
  -23.4167  -28.8209   23.3057 O   0  0  0  0  0  0
  -28.4174  -26.7630   20.0739 O   0  0  0  0  0  0
  -26.5581  -34.8929   22.4681 O   0  0  0  0  0  0
  -23.5329  -32.1476   23.7553 O   0  0  0  0  0  0
  -30.1760  -18.8843   20.2000 C   0  0  0  0  0  0
  -29.9048  -20.2668   20.1639 C   0  0  0  0  0  0
  -30.8286  -19.0679   22.5361 C   0  0  0  0  0  0
  -30.6647  -18.2827   21.3778 C   0  0  0  0  0  0
  -30.5561  -20.4525   22.5047 C   0  0  0  0  0  0
  -30.1188  -21.0697   21.3114 C   0  0  0  0  0  0
  -29.4774  -24.6023   20.3946 C   0  0  0  0  0  0
  -30.7736  -21.2945   23.7488 C   0  0  0  0  0  0
  -31.1724  -16.8475   21.3460 C   0  0  0  0  0  0
  -28.4078  -25.3976   19.6455 C   0  0  0  0  0  0
  -29.4899  -23.0901   20.1591 C   0  0  0  0  0  0
  -30.1162  -15.7223   21.1451 C   0  0  0  0  0  0
  -30.2825  -25.1488   21.1608 O   0  0  0  0  0  0
  -29.9538  -22.4371   21.3368 O   0  0  0  0  0  0
  -31.4525  -12.3242   19.1389 H   0  0  0  0  0  0
  -30.2654  -11.2725   19.8458 H   0  0  0  0  0  0
  -29.7258  -11.7543   17.4351 H   0  0  0  0  0  0
  -29.6708  -13.4681   17.7737 H   0  0  0  0  0  0
  -27.8180  -11.3036   18.8262 H   0  0  0  0  0  0
  -27.3630  -12.6244   17.7837 H   0  0  0  0  0  0
  -27.6969  -14.2556   19.5508 H   0  0  0  0  0  0
  -28.6592  -12.0058   21.3804 H   0  0  0  0  0  0
  -28.4683  -13.6691   21.8400 H   0  0  0  0  0  0
  -25.2767   -9.5690   22.4763 H   0  0  0  0  0  0
  -23.9996   -7.4646   22.7485 H   0  0  0  0  0  0
  -21.0857   -8.8775   19.8932 H   0  0  0  0  0  0
  -22.3719  -10.9672   19.6143 H   0  0  0  0  0  0
  -21.2013   -7.6151   23.9725 H   0  0  0  0  0  0
  -21.1466   -6.0518   25.9075 H   0  0  0  0  0  0
  -22.0606   -2.7616   23.2835 H   0  0  0  0  0  0
  -22.4104  -11.9856   22.4731 H   0  0  0  0  0  0
  -21.1115  -13.1230   22.2555 H   0  0  0  0  0  0
  -24.6705  -15.8502   20.5257 H   0  0  0  0  0  0
  -26.2956  -15.6298   20.1153 H   0  0  0  0  0  0
  -26.7097  -32.5570   23.1176 H   0  0  0  0  0  0
  -25.0125  -33.9804   25.0535 H   0  0  0  0  0  0
  -22.6829  -31.3140   21.4235 H   0  0  0  0  0  0
  -23.3769  -35.9611   23.3306 H   0  0  0  0  0  0
  -24.3594  -36.8903   22.2049 H   0  0  0  0  0  0
  -23.7224  -37.6497   23.6641 H   0  0  0  0  0  0
  -26.0265  -31.6070   20.5963 H   0  0  0  0  0  0
  -26.8147  -30.8944   21.9793 H   0  0  0  0  0  0
  -28.0877  -29.1096   21.1611 H   0  0  0  0  0  0
  -26.0138  -26.0163   18.9468 H   0  0  0  0  0  0
  -23.9608  -27.3104   19.0322 H   0  0  0  0  0  0
  -23.7161  -30.6201   19.4168 H   0  0  0  0  0  0
  -22.7254  -29.2630   19.8658 H   0  0  0  0  0  0
  -25.1275  -36.2002   25.0842 H   0  0  0  0  0  0
  -20.9925  -28.3225   24.1462 H   0  0  0  0  0  0
  -20.5704  -26.2256   23.3591 H   0  0  0  0  0  0
  -21.6638  -26.7478   22.1173 H   0  0  0  0  0  0
  -19.6930  -25.6317   21.1196 H   0  0  0  0  0  0
  -19.6701  -27.3246   20.6758 H   0  0  0  0  0  0
  -17.4193  -26.6679   21.4002 H   0  0  0  0  0  0
  -18.0312  -26.0046   22.8996 H   0  0  0  0  0  0
  -19.7937  -30.7203   24.2340 H   0  0  0  0  0  0
  -17.5029  -31.6275   24.5142 H   0  0  0  0  0  0
  -15.5351  -30.2999   23.7642 H   0  0  0  0  0  0
  -15.8658  -28.0833   22.7059 H   0  0  0  0  0  0
  -24.5982  -30.6939   25.7757 H   0  0  0  0  0  0
  -24.8902  -32.2742   26.4919 H   0  0  0  0  0  0
  -25.8121  -30.8777   27.0191 H   0  0  0  0  0  0
  -26.2845  -29.6805   24.1123 H   0  0  0  0  0  0
  -27.4247  -29.7299   25.4400 H   0  0  0  0  0  0
  -27.8619  -30.4436   23.9051 H   0  0  0  0  0  0
  -27.2705  -33.3582   26.2072 H   0  0  0  0  0  0
  -28.3889  -32.6810   25.0319 H   0  0  0  0  0  0
  -28.0711  -31.8381   26.5405 H   0  0  0  0  0  0
  -28.2575  -38.0116   24.7532 H   0  0  0  0  0  0
  -28.1084  -36.2644   24.6284 H   0  0  0  0  0  0
  -27.2280  -37.1445   25.8869 H   0  0  0  0  0  0
  -20.9297  -29.8753   21.6980 H   0  0  0  0  0  0
  -26.0199  -38.2870   24.1427 H   0  0  0  0  0  0
  -30.0594  -18.3003   19.2975 H   0  0  0  0  0  0
  -29.5707  -20.6906   19.2281 H   0  0  0  0  0  0
  -31.2176  -18.6190   23.4396 H   0  0  0  0  0  0
  -30.9758  -20.6764   24.6233 H   0  0  0  0  0  0
  -29.8910  -21.8998   23.9590 H   0  0  0  0  0  0
  -31.6180  -21.9685   23.6030 H   0  0  0  0  0  0
  -31.7407  -16.6408   22.2538 H   0  0  0  0  0  0
  -31.9108  -16.8529   20.5435 H   0  0  0  0  0  0
  -27.4617  -24.9048   19.8666 H   0  0  0  0  0  0
  -28.5834  -25.3396   18.5706 H   0  0  0  0  0  0
  -30.1432  -22.8795   19.3112 H   0  0  0  0  0  0
  -28.4853  -22.7457   19.9126 H   0  0  0  0  0  0
  -29.3644  -16.0496   20.4276 H   0  0  0  0  0  0
  -29.5983  -15.5323   22.0832 H   0  0  0  0  0  0
  1 25  1  0  0  0
  1 30  2  0  0  0
  1 82  1  0  0  0
  2  3  1  0  0  0
  2 25  1  0  0  0
  2 85  1  0  0  0
  2 86  1  0  0  0
  3  4  1  0  0  0
  3 87  1  0  0  0
  3 88  1  0  0  0
  4  5  1  0  0  0
  4 89  1  0  0  0
  4 90  1  0  0  0
  5  6  1  0  0  0
  5 26  1  0  0  0
  5 91  1  0  0  0
  6 25  1  0  0  0
  6 92  1  0  0  0
  6 93  1  0  0  0
  7  8  2  0  0  0
  7 26  1  0  0  0
  7 29  1  0  0  0
  8  9  1  0  0  0
  8 22  1  0  0  0
  9 10  1  0  0  0
  9 27  2  0  0  0
 10 11  2  0  0  0
 10 15  1  0  0  0
 11 12  1  0  0  0
 11 94  1  0  0  0
 12 13  2  0  0  0
 12 95  1  0  0  0
 13 14  1  0  0  0
 13 31  1  0  0  0
 14 15  2  0  0  0
 14 96  1  0  0  0
 15 97  1  0  0  0
 16 17  2  0  0  0
 16 21  1  0  0  0
 16 31  1  0  0  0
 17 18  1  0  0  0
 17 98  1  0  0  0
 18 19  2  0  0  0
 18 99  1  0  0  0
 19 20  1  0  0  0
 19 24  1  0  0  0
 20 21  2  0  0  0
 20100  1  0  0  0
 21 23  1  0  0  0
 22 28  1  0  0  0
 22 32  2  0  0  0
 26 27  1  0  0  0
 28101  1  0  0  0
 28102  1  0  0  0
 29103  1  0  0  0
 29104  1  0  0  0
 33 34  1  0  0  0
 33 66  1  0  0  0
 33 70  2  0  0  0
 34 36  1  0  0  0
 34 59  1  0  0  0
 34105  1  0  0  0
 35 44  2  0  0  0
 35 45  1  0  0  0
 35 68  1  0  0  0
 36 56  1  0  0  0
 36106  1  0  0  0
 37 39  1  0  0  0
 37 47  1  0  0  0
 37 66  1  0  0  0
 37107  1  0  0  0
 38 43  2  0  0  0
 38 46  1  0  0  0
 38 47  1  0  0  0
 39 64  1  0  0  0
 39 67  2  0  0  0
 40 52  1  0  0  0
 40 53  2  0  0  0
 40 58  1  0  0  0
 41108  1  0  0  0
 41109  1  0  0  0
 41110  1  0  0  0
 41 48  1  0  0  0
 42 43  1  0  0  0
 42 66  1  0  0  0
 42111  1  0  0  0
 42112  1  0  0  0
 43 44  1  0  0  0
 44113  1  0  0  0
 45 46  2  0  0  0
 45114  1  0  0  0
 46115  1  0  0  0
 47116  1  0  0  0
 47117  1  0  0  0
 48 56  1  0  0  0
 48 65  1  0  0  0
 48118  1  0  0  0
 49 50  1  0  0  0
 49 53  1  0  0  0
 49 64  1  0  0  0
 49119  1  0  0  0
 50 51  1  0  0  0
 50120  1  0  0  0
 50121  1  0  0  0
 51 52  1  0  0  0
 51122  1  0  0  0
 51123  1  0  0  0
 52124  1  0  0  0
 52125  1  0  0  0
 53 54  1  0  0  0
 54 55  2  0  0  0
 54126  1  0  0  0
 55 57  1  0  0  0
 55127  1  0  0  0
 56 69  2  0  0  0
 57 58  2  0  0  0
 57128  1  0  0  0
 58129  1  0  0  0
 59 60  1  0  0  0
 59 61  1  0  0  0
 59 62  1  0  0  0
 60130  1  0  0  0
 60131  1  0  0  0
 60132  1  0  0  0
 61133  1  0  0  0
 61134  1  0  0  0
 61135  1  0  0  0
 62136  1  0  0  0
 62137  1  0  0  0
 62138  1  0  0  0
 63 65  1  0  0  0
 63139  1  0  0  0
 63140  1  0  0  0
 63141  1  0  0  0
 64142  1  0  0  0
 65143  1  0  0  0
 68 80  1  0  0  0
 71 72  2  0  0  0
 71 74  1  0  0  0
 71144  1  0  0  0
 72 76  1  0  0  0
 72145  1  0  0  0
 73 74  2  0  0  0
 73 75  1  0  0  0
 73146  1  0  0  0
 74 79  1  0  0  0
 75 76  2  0  0  0
 75 78  1  0  0  0
 76 84  1  0  0  0
 77 80  1  0  0  0
 77 81  1  0  0  0
 77 83  2  0  0  0
 78147  1  0  0  0
 78148  1  0  0  0
 78149  1  0  0  0
 79 82  1  0  0  0
 79150  1  0  0  0
 79151  1  0  0  0
 80152  1  0  0  0
 80153  1  0  0  0
 81 84  1  0  0  0
 81154  1  0  0  0
 81155  1  0  0  0
 82156  1  0  0  0
 82157  1  0  0  0
M  ISO  4   1 100  68 101  80 101  82 100
M  END
> <chiral flag>
0

> <version>
0

> <s_m_source_file>
/data/baiqing/PycharmProjects/Reinvent-master-3.2/result/LINK_invent/BTK/process_docking_weight1_custom_product_contain_oxygen_bond_distance_aromatic_linkinvent_7_9_3/rearranged_h_0132.sdf

> <i_m_source_file_index>
57

> <r_mmod_Potential_Energy-OPLS-2005>
-49.1250343322754

> <r_mmod_Stretch_Energy-OPLS-2005>
33.6725463867188

> <r_mmod_Bend_Energy-OPLS-2005>
100.595886230469

> <r_mmod_Torsional_Energy-OPLS-2005>
172.433303833008

> <r_mmod_Improper_Torsional_Energy-OPLS-2005>
3.91793251037598

> <r_mmod_Van_der_Waal_Energy-OPLS-2005>
165.676223754883

> <r_mmod_Electrostatic_Energy-OPLS-2005>
-309.516296386719

> <r_mmod_Solvation_Energy-OPLS-2005>
-229.75895690918

> <b_mmod_Minimization_Converged-OPLS-2005>
0

> <r_mmod_RMS_Derivative-OPLS-2005>
2.16260838508606

$$$$
57
                    3D
 Structure written by MMmdl.
164172  0  0  1  0            999 V2000
  -29.7603  -15.6875   20.8554 C   0  0  0  0  0  0
  -30.3414  -13.2126   19.7764 C   0  0  0  0  0  0
  -29.5698  -12.7760   18.4784 C   0  0  0  0  0  0
  -28.1367  -12.3316   18.8102 C   0  0  0  0  0  0
  -27.5532  -13.2737   19.8820 C   0  0  2  0  0  0
  -28.4441  -13.4482   21.1184 C   0  0  0  0  0  0
  -25.2011  -13.8192   20.5743 C   0  0  0  0  0  0
  -24.1415  -13.0371   20.9224 C   0  0  0  0  0  0
  -24.6092  -11.6869   20.8708 C   0  0  0  0  0  0
  -23.8897  -10.4244   21.0407 C   0  0  0  0  0  0
  -24.3526   -9.4189   21.9178 C   0  0  0  0  0  0
  -23.6248   -8.2201   22.0746 C   0  0  0  0  0  0
  -22.4235   -8.0220   21.3531 C   0  0  0  0  0  0
  -21.9820   -9.0168   20.4632 C   0  0  0  0  0  0
  -22.7097  -10.2064   20.3044 C   0  0  0  0  0  0
  -21.6849   -6.0704   22.5286 C   0  0  0  0  0  0
  -21.4003   -6.5619   23.8213 C   0  0  0  0  0  0
  -21.3656   -5.6776   24.9179 C   0  0  0  0  0  0
  -21.6050   -4.3041   24.7235 C   0  0  0  0  0  0
  -21.8820   -3.8125   23.4359 C   0  0  0  0  0  0
  -21.9187   -4.6935   22.3411 C   0  0  0  0  0  0
  -22.7499  -13.5154   21.1951 C   0  0  0  0  0  0
  -22.1660   -4.2121   21.0991 F   0  0  0  0  0  0
  -21.5631   -3.4532   25.7752 F   0  0  0  0  0  0
  -29.5611  -14.2432   20.6499 N   0  0  0  0  0  0
  -26.2261  -12.9370   20.3046 N   0  0  0  0  0  0
  -25.8957  -11.6499   20.5571 N   0  0  0  0  0  0
  -22.0217  -12.8135   22.0538 N   0  0  0  0  0  0
  -25.3833  -15.1961   20.4433 N   0  0  0  0  0  0
  -30.9425  -15.8721   20.4485 O   0  0  0  0  0  0
  -21.6617   -6.8817   21.4239 O   0  0  0  0  0  0
  -22.3208  -14.5483   20.6825 O   0  0  0  0  0  0
  -24.7980  -31.8564   23.2497 C   0  0  0  0  0  0
  -26.0209  -32.5185   23.8928 C   0  0  1  0  0  0
  -26.0588  -27.2996   20.2433 C   0  0  0  0  0  0
  -25.6481  -33.8854   24.2621 N   0  0  0  0  0  0
  -23.9788  -30.1224   21.7155 C   0  0  2  0  0  0
  -25.2357  -29.5780   19.6300 C   0  0  0  0  0  0
  -23.8795  -28.5269   22.4977 C   0  0  0  0  0  0
  -18.1730  -27.9216   22.7201 C   0  0  0  0  0  0
  -24.1500  -36.7346   23.2558 C   0  0  0  0  0  0
  -26.3000  -30.7815   21.5469 C   0  0  0  0  0  0
  -26.2460  -29.6050   20.5856 C   0  0  0  0  0  0
  -26.8080  -28.3595   20.8500 C   0  0  0  0  0  0
  -25.9985  -27.3876   18.8888 C   0  0  0  0  0  0
  -25.2253  -28.5384   18.6427 C   0  0  0  0  0  0
  -24.0740  -30.3592   20.1159 C   0  0  0  0  0  0
  -25.4111  -36.3199   24.0294 C   0  0  1  0  0  0
  -20.9142  -27.2962   22.9380 C   0  0  2  0  0  0
  -20.5381  -26.1650   22.0870 C   0  0  0  0  0  0
  -19.3900  -26.4482   21.1636 C   0  0  0  0  0  0
  -18.1143  -26.6487   21.9528 C   0  0  0  0  0  0
  -19.4531  -28.3239   23.2364 C   0  0  0  0  0  0
  -19.1827  -29.4982   24.0923 C   0  0  0  0  0  0
  -17.9734  -30.2712   24.1753 C   0  0  0  0  0  0
  -25.9155  -34.9610   23.5143 C   0  0  0  0  0  0
  -16.8050  -29.7977   23.5784 C   0  0  0  0  0  0
  -16.9197  -28.5895   22.8861 C   0  0  0  0  0  0
  -26.5071  -31.6982   25.1419 C   0  0  0  0  0  0
  -25.3876  -31.4006   26.1672 C   0  0  0  0  0  0
  -27.1510  -30.3503   24.7440 C   0  0  0  0  0  0
  -27.6235  -32.4903   25.8459 C   0  0  0  0  0  0
  -27.5573  -37.1861   24.8455 C   0  0  0  0  0  0
  -22.6903  -27.4492   22.5177 N   0  0  0  0  0  0
  -26.4274  -37.3895   23.9423 N   0  0  0  0  0  0
  -25.0253  -30.9436   22.2680 N   0  0  0  0  0  0
  -24.7190  -28.3845   23.3242 O   0  0  0  0  0  0
  -24.6196  -27.1881   20.5211 O   0  0  0  0  0  0
  -26.5512  -34.9026   22.4582 O   0  0  0  0  0  0
  -23.6747  -32.1537   23.6924 O   0  0  0  0  0  0
  -24.0355  -23.3868   23.5612 C   0  0  0  0  0  0
  -25.8695  -24.5106   23.5124 C   0  0  0  0  0  0
  -24.8089  -22.0843   23.1364 C   0  0  0  0  0  0
  -26.6425  -23.2092   23.0777 C   0  0  0  0  0  0
  -24.4198  -24.8352   23.8362 C   0  0  0  0  0  0
  -26.2603  -21.7535   22.8238 C   0  0  0  0  0  0
  -21.6381  -29.1810   21.1530 C   0  0  0  0  0  0
  -27.3883  -19.5046   24.0095 C   0  0  0  0  0  0
  -23.4635  -26.3348   24.6988 C   0  0  0  0  0  0
  -21.7571  -29.5716   23.1721 C   0  0  0  0  0  0
  -22.9290  -27.9825   20.1293 C   0  0  0  0  0  0
  -22.5100  -28.2455   24.7132 C   0  0  0  0  0  0
  -27.9247  -18.5186   21.4418 C   0  0  0  0  0  0
  -27.3372  -20.1034   22.6031 C   0  0  1  0  0  0
  -28.6973  -16.7990   21.3846 N   0  0  0  0  0  0
  -20.7502  -29.7518   20.5144 O   0  0  0  0  0  0
  -31.3060  -13.6304   19.4878 H   0  0  0  0  0  0
  -30.5932  -12.3341   20.3722 H   0  0  0  0  0  0
  -30.1082  -11.9879   17.9477 H   0  0  0  0  0  0
  -29.5317  -13.6322   17.8018 H   0  0  0  0  0  0
  -28.1707  -11.3145   19.2031 H   0  0  0  0  0  0
  -27.5120  -12.3116   17.9169 H   0  0  0  0  0  0
  -27.4697  -14.2422   19.3867 H   0  0  0  0  0  0
  -28.7302  -12.4961   21.5643 H   0  0  0  0  0  0
  -27.9205  -14.0003   21.8998 H   0  0  0  0  0  0
  -25.2676   -9.5714   22.4735 H   0  0  0  0  0  0
  -23.9989   -7.4601   22.7459 H   0  0  0  0  0  0
  -21.0755   -8.8651   19.8941 H   0  0  0  0  0  0
  -22.3536  -10.9594   19.6152 H   0  0  0  0  0  0
  -21.1991   -7.6128   23.9705 H   0  0  0  0  0  0
  -21.1485   -6.0515   25.9080 H   0  0  0  0  0  0
  -22.0605   -2.7589   23.2871 H   0  0  0  0  0  0
  -22.3871  -11.9791   22.4874 H   0  0  0  0  0  0
  -21.0852  -13.1139   22.2816 H   0  0  0  0  0  0
  -24.6274  -15.8583   20.5807 H   0  0  0  0  0  0
  -26.2328  -15.6333   20.1106 H   0  0  0  0  0  0
  -26.8510  -32.5851   23.1910 H   0  0  0  0  0  0
  -25.0688  -33.9922   25.0810 H   0  0  0  0  0  0
  -23.1846  -30.8536   21.8107 H   0  0  0  0  0  0
  -23.3796  -35.9649   23.3217 H   0  0  0  0  0  0
  -24.3621  -36.8914   22.1971 H   0  0  0  0  0  0
  -23.7218  -37.6541   23.6553 H   0  0  0  0  0  0
  -26.5168  -31.6896   20.9788 H   0  0  0  0  0  0
  -27.1610  -30.6270   22.1876 H   0  0  0  0  0  0
  -27.3439  -28.2149   21.7788 H   0  0  0  0  0  0
  -25.7681  -26.5334   18.2652 H   0  0  0  0  0  0
  -24.5484  -28.5579   17.8009 H   0  0  0  0  0  0
  -24.3130  -31.4068   19.9287 H   0  0  0  0  0  0
  -23.1974  -30.2883   19.4787 H   0  0  0  0  0  0
  -25.1260  -36.2046   25.0773 H   0  0  0  0  0  0
  -20.9028  -26.7604   23.8850 H   0  0  0  0  0  0
  -20.2711  -25.2923   22.6889 H   0  0  0  0  0  0
  -21.3752  -25.8034   21.4921 H   0  0  0  0  0  0
  -19.2590  -25.5959   20.4934 H   0  0  0  0  0  0
  -19.5831  -27.3117   20.5322 H   0  0  0  0  0  0
  -17.2704  -26.6729   21.2606 H   0  0  0  0  0  0
  -17.9403  -25.8244   22.6475 H   0  0  0  0  0  0
  -19.9378  -29.8093   24.8012 H   0  0  0  0  0  0
  -17.9300  -31.1506   24.8060 H   0  0  0  0  0  0
  -15.8595  -30.3109   23.6887 H   0  0  0  0  0  0
  -16.0271  -28.1734   22.4422 H   0  0  0  0  0  0
  -24.6411  -30.7101   25.7752 H   0  0  0  0  0  0
  -24.8698  -32.3122   26.4670 H   0  0  0  0  0  0
  -25.7900  -30.9439   27.0721 H   0  0  0  0  0  0
  -26.4848  -29.6977   24.1992 H   0  0  0  0  0  0
  -27.4563  -29.7921   25.6299 H   0  0  0  0  0  0
  -28.0566  -30.4916   24.1555 H   0  0  0  0  0  0
  -27.2529  -33.4198   26.2825 H   0  0  0  0  0  0
  -28.4294  -32.7489   25.1569 H   0  0  0  0  0  0
  -28.0663  -31.9134   26.6583 H   0  0  0  0  0  0
  -28.2565  -38.0180   24.7551 H   0  0  0  0  0  0
  -28.1093  -36.2705   24.6255 H   0  0  0  0  0  0
  -27.2278  -37.1481   25.8848 H   0  0  0  0  0  0
  -23.1278  -26.5883   22.8222 H   0  0  0  0  0  0
  -26.0138  -38.2947   24.1489 H   0  0  0  0  0  0
  -22.9877  -23.1996   23.7424 H   0  0  0  0  0  0
  -26.5242  -25.3627   23.6442 H   0  0  0  0  0  0
  -24.1644  -21.2187   23.0917 H   0  0  0  0  0  0
  -27.7062  -23.3848   22.9822 H   0  0  0  0  0  0
  -27.7153  -20.2483   24.7359 H   0  0  0  0  0  0
  -28.0960  -18.6777   24.0643 H   0  0  0  0  0  0
  -26.4114  -19.1359   24.3168 H   0  0  0  0  0  0
  -24.1301  -26.4498   25.5515 H   0  0  0  0  0  0
  -22.6546  -25.7388   25.1203 H   0  0  0  0  0  0
  -21.0526  -30.3547   23.3776 H   0  0  0  0  0  0
  -22.4587  -30.3346   23.4301 H   0  0  0  0  0  0
  -22.8831  -28.3140   19.0983 H   0  0  0  0  0  0
  -22.3279  -27.0817   20.0116 H   0  0  0  0  0  0
  -21.7198  -28.1535   25.4584 H   0  0  0  0  0  0
  -23.2172  -28.8784   25.2559 H   0  0  0  0  0  0
  -28.3241  -18.9767   20.5372 H   0  0  0  0  0  0
  -26.9239  -18.2091   21.1336 H   0  0  0  0  0  0
  -28.2872  -20.6377   22.5239 H   0  0  0  0  0  0
  -27.9519  -16.2047   21.7205 H   0  0  0  0  0  0
  1 25  1  0  0  0
  1 30  2  0  0  0
  1 85  1  0  0  0
  2  3  1  0  0  0
  2 25  1  0  0  0
  2 87  1  0  0  0
  2 88  1  0  0  0
  3  4  1  0  0  0
  3 89  1  0  0  0
  3 90  1  0  0  0
  4  5  1  0  0  0
  4 91  1  0  0  0
  4 92  1  0  0  0
  5  6  1  0  0  0
  5 26  1  0  0  0
  5 93  1  0  0  0
  6 25  1  0  0  0
  6 94  1  0  0  0
  6 95  1  0  0  0
  7  8  2  0  0  0
  7 26  1  0  0  0
  7 29  1  0  0  0
  8  9  1  0  0  0
  8 22  1  0  0  0
  9 10  1  0  0  0
  9 27  2  0  0  0
 10 11  2  0  0  0
 10 15  1  0  0  0
 11 12  1  0  0  0
 11 96  1  0  0  0
 12 13  2  0  0  0
 12 97  1  0  0  0
 13 14  1  0  0  0
 13 31  1  0  0  0
 14 15  2  0  0  0
 14 98  1  0  0  0
 15 99  1  0  0  0
 16 17  2  0  0  0
 16 21  1  0  0  0
 16 31  1  0  0  0
 17 18  1  0  0  0
 17100  1  0  0  0
 18 19  2  0  0  0
 18101  1  0  0  0
 19 20  1  0  0  0
 19 24  1  0  0  0
 20 21  2  0  0  0
 20102  1  0  0  0
 21 23  1  0  0  0
 22 28  1  0  0  0
 22 32  2  0  0  0
 26 27  1  0  0  0
 28103  1  0  0  0
 28104  1  0  0  0
 29105  1  0  0  0
 29106  1  0  0  0
 33 34  1  0  0  0
 33 66  1  0  0  0
 33 70  2  0  0  0
 34 36  1  0  0  0
 34 59  1  0  0  0
 34107  1  0  0  0
 35 44  2  0  0  0
 35 45  1  0  0  0
 35 68  1  0  0  0
 36 56  1  0  0  0
 36108  1  0  0  0
 37 39  1  0  0  0
 37 47  1  0  0  0
 37 66  1  0  0  0
 37109  1  0  0  0
 38 43  2  0  0  0
 38 46  1  0  0  0
 38 47  1  0  0  0
 39 64  1  0  0  0
 39 67  2  0  0  0
 40 52  1  0  0  0
 40 53  2  0  0  0
 40 58  1  0  0  0
 41110  1  0  0  0
 41111  1  0  0  0
 41112  1  0  0  0
 41 48  1  0  0  0
 42 43  1  0  0  0
 42 66  1  0  0  0
 42113  1  0  0  0
 42114  1  0  0  0
 43 44  1  0  0  0
 44115  1  0  0  0
 45 46  2  0  0  0
 45116  1  0  0  0
 46117  1  0  0  0
 47118  1  0  0  0
 47119  1  0  0  0
 48 56  1  0  0  0
 48 65  1  0  0  0
 48120  1  0  0  0
 49 50  1  0  0  0
 49 53  1  0  0  0
 49 64  1  0  0  0
 49121  1  0  0  0
 50 51  1  0  0  0
 50122  1  0  0  0
 50123  1  0  0  0
 51 52  1  0  0  0
 51124  1  0  0  0
 51125  1  0  0  0
 52126  1  0  0  0
 52127  1  0  0  0
 53 54  1  0  0  0
 54 55  2  0  0  0
 54128  1  0  0  0
 55 57  1  0  0  0
 55129  1  0  0  0
 56 69  2  0  0  0
 57 58  2  0  0  0
 57130  1  0  0  0
 58131  1  0  0  0
 59 60  1  0  0  0
 59 61  1  0  0  0
 59 62  1  0  0  0
 60132  1  0  0  0
 60133  1  0  0  0
 60134  1  0  0  0
 61135  1  0  0  0
 61136  1  0  0  0
 61137  1  0  0  0
 62138  1  0  0  0
 62139  1  0  0  0
 62140  1  0  0  0
 63 65  1  0  0  0
 63141  1  0  0  0
 63142  1  0  0  0
 63143  1  0  0  0
 64144  1  0  0  0
 65145  1  0  0  0
 68 81  1  0  0  0
 71 73  2  0  0  0
 71 75  1  0  0  0
 71146  1  0  0  0
 72 74  1  0  0  0
 72 75  2  0  0  0
 72147  1  0  0  0
 73 76  1  0  0  0
 73148  1  0  0  0
 74 76  2  0  0  0
 74149  1  0  0  0
 75 79  1  0  0  0
 76 84  1  0  0  0
 77 80  1  0  0  0
 77 81  1  0  0  0
 77 86  2  0  0  0
 78150  1  0  0  0
 78151  1  0  0  0
 78152  1  0  0  0
 78 84  1  0  0  0
 79 82  1  0  0  0
 79153  1  0  0  0
 79154  1  0  0  0
 80 82  1  0  0  0
 80155  1  0  0  0
 80156  1  0  0  0
 81157  1  0  0  0
 81158  1  0  0  0
 82159  1  0  0  0
 82160  1  0  0  0
 83 84  1  0  0  0
 83 85  1  0  0  0
 83161  1  0  0  0
 83162  1  0  0  0
 84163  1  0  0  0
 85164  1  0  0  0
M  ISO  4   1 100  68 101  81 101  85 100
M  END
> <chiral flag>
0

> <version>
0

> <s_m_source_file>
/data/baiqing/PycharmProjects/Reinvent-master-3.2/result/LINK_invent/BTK/process_docking_weight1_custom_product_contain_oxygen_bond_distance_aromatic_linkinvent_7_9_3/rearranged_h_0132.sdf

> <i_m_source_file_index>
58

> <r_mmod_Potential_Energy-OPLS-2005>
11855.4755859375

> <r_mmod_Stretch_Energy-OPLS-2005>
4218.15185546875

> <r_mmod_Bend_Energy-OPLS-2005>
1754.6513671875

> <r_mmod_Torsional_Energy-OPLS-2005>
589.173522949219

> <r_mmod_Improper_Torsional_Energy-OPLS-2005>
63.8203926086426

> <r_mmod_Van_der_Waal_Energy-OPLS-2005>
1569.16101074219

> <r_mmod_Electrostatic_Energy-OPLS-2005>
-371.273101806641

> <r_mmod_Solvation_Energy-OPLS-2005>
-205.925888061523

> <b_mmod_Minimization_Converged-OPLS-2005>
0

> <r_mmod_RMS_Derivative-OPLS-2005>
7.96326541900635

$$$$
58
                    3D
 Structure written by MMmdl.
166174  0  0  1  0            999 V2000
  -30.6726  -14.5204   20.6483 C   0  0  0  0  0  0
  -30.4422  -12.3629   19.4350 C   0  0  0  0  0  0
  -29.4989  -12.5209   18.2209 C   0  0  0  0  0  0
  -28.0212  -12.3751   18.6323 C   0  0  0  0  0  0
  -27.6657  -13.2104   19.8906 C   0  0  2  0  0  0
  -28.7068  -12.9845   21.0088 C   0  0  0  0  0  0
  -25.2614  -13.8183   20.5731 C   0  0  0  0  0  0
  -24.1849  -13.0441   20.9201 C   0  0  0  0  0  0
  -24.6386  -11.6921   20.8763 C   0  0  0  0  0  0
  -23.9031  -10.4302   21.0427 C   0  0  0  0  0  0
  -24.3596   -9.4222   21.9198 C   0  0  0  0  0  0
  -23.6292   -8.2240   22.0741 C   0  0  0  0  0  0
  -22.4283   -8.0267   21.3519 C   0  0  0  0  0  0
  -21.9905   -9.0235   20.4626 C   0  0  0  0  0  0
  -22.7214  -10.2131   20.3063 C   0  0  0  0  0  0
  -21.6838   -6.0738   22.5280 C   0  0  0  0  0  0
  -21.4000   -6.5640   23.8216 C   0  0  0  0  0  0
  -21.3669   -5.6791   24.9177 C   0  0  0  0  0  0
  -21.6051   -4.3056   24.7226 C   0  0  0  0  0  0
  -21.8823   -3.8149   23.4348 C   0  0  0  0  0  0
  -21.9204   -4.6968   22.3405 C   0  0  0  0  0  0
  -22.7879  -13.5242   21.1862 C   0  0  0  0  0  0
  -22.1678   -4.2146   21.0985 F   0  0  0  0  0  0
  -21.5622   -3.4550   25.7742 F   0  0  0  0  0  0
  -30.0263  -13.3307   20.4674 N   0  0  0  0  0  0
  -26.3049  -12.9350   20.3468 N   0  0  0  0  0  0
  -25.9324  -11.6504   20.5824 N   0  0  0  0  0  0
  -22.0497  -12.8211   22.0408 N   0  0  0  0  0  0
  -25.4357  -15.1882   20.4158 N   0  0  0  0  0  0
  -31.7686  -14.7219   20.1152 O   0  0  0  0  0  0
  -21.6627   -6.8882   21.4243 O   0  0  0  0  0  0
  -22.3557  -14.5546   20.6738 O   0  0  0  0  0  0
  -24.6176  -31.8611   23.2065 C   0  0  0  0  0  0
  -25.9053  -32.4781   23.8345 C   0  0  1  0  0  0
  -27.2180  -27.3685   20.1634 C   0  0  0  0  0  0
  -25.5897  -33.8586   24.2272 N   0  0  0  0  0  0
  -23.4061  -30.4792   21.5471 C   0  0  2  0  0  0
  -24.8528  -28.9405   20.1052 C   0  0  0  0  0  0
  -22.7417  -29.4588   22.4999 C   0  0  0  0  0  0
  -18.0248  -28.1371   22.8458 C   0  0  0  0  0  0
  -24.1503  -36.7339   23.2638 C   0  0  0  0  0  0
  -25.9351  -30.8158   21.3591 C   0  0  0  0  0  0
  -26.0092  -29.4452   20.7111 C   0  0  0  0  0  0
  -27.1930  -28.6671   20.7316 C   0  0  0  0  0  0
  -26.0580  -26.9062   19.5038 C   0  0  0  0  0  0
  -24.8765  -27.6762   19.4851 C   0  0  0  0  0  0
  -23.6118  -29.8057   20.1621 C   0  0  0  0  0  0
  -25.4106  -36.3093   24.0341 C   0  0  1  0  0  0
  -20.5826  -28.3640   23.1331 C   0  0  2  0  0  0
  -20.6735  -26.9370   22.5440 C   0  0  0  0  0  0
  -19.5721  -26.6358   21.5218 C   0  0  0  0  0  0
  -18.1891  -26.7904   22.1604 C   0  0  0  0  0  0
  -19.1493  -28.8835   23.2872 C   0  0  0  0  0  0
  -18.9435  -30.1449   23.8859 C   0  0  0  0  0  0
  -17.6446  -30.6578   24.0561 C   0  0  0  0  0  0
  -25.9031  -34.9453   23.5111 C   0  0  0  0  0  0
  -16.5341  -29.9074   23.6349 C   0  0  0  0  0  0
  -16.7245  -28.6506   23.0314 C   0  0  0  0  0  0
  -26.4467  -31.6592   25.0707 C   0  0  0  0  0  0
  -25.3768  -31.3711   26.1511 C   0  0  0  0  0  0
  -27.0324  -30.3034   24.6102 C   0  0  0  0  0  0
  -27.6010  -32.4357   25.7486 C   0  0  0  0  0  0
  -27.5584  -37.1807   24.8451 C   0  0  0  0  0  0
  -21.4129  -29.3018   22.3788 N   0  0  0  0  0  0
  -26.4296  -37.3779   23.9408 N   0  0  0  0  0  0
  -24.6711  -31.0690   22.0944 N   0  0  0  0  0  0
  -23.4199  -28.8095   23.3013 O   0  0  0  0  0  0
  -28.3665  -26.6070   20.3013 O   0  0  0  0  0  0
  -26.5625  -34.8928   22.4680 O   0  0  0  0  0  0
  -23.5384  -32.1326   23.7497 O   0  0  0  0  0  0
  -30.8559  -19.6629   23.8275 C   0  0  0  0  0  0
  -29.1534  -19.3411   21.6406 C   0  0  0  0  0  0
  -31.0232  -18.5390   22.9875 C   0  0  0  0  0  0
  -29.8730  -20.6457   23.5735 C   0  0  0  0  0  0
  -30.1384  -18.3375   21.8956 C   0  0  0  0  0  0
  -29.0216  -20.5146   22.4429 C   0  0  0  0  0  0
  -32.1892  -17.5938   23.2623 C   0  0  0  0  0  0
  -29.7966  -21.8375   24.5262 C   0  0  0  0  0  0
  -26.2931  -24.1744   21.3435 C   0  0  0  0  0  0
  -30.3196  -17.1331   20.9305 C   0  0  0  0  0  0
  -27.9749  -21.6102   22.0981 C   0  0  0  0  0  0
  -30.0367  -15.6874   21.4804 C   0  0  0  0  0  0
  -28.5168  -22.8093   21.2489 C   0  0  0  0  0  0
  -28.3587  -25.1575   20.1790 C   0  0  0  0  0  0
  -27.8362  -24.2305   21.3449 C   0  0  1  0  0  0
  -31.4800  -12.5021   19.1220 H   0  0  0  0  0  0
  -30.3954  -11.3515   19.8403 H   0  0  0  0  0  0
  -29.7462  -11.7867   17.4528 H   0  0  0  0  0  0
  -29.6544  -13.5025   17.7700 H   0  0  0  0  0  0
  -27.8301  -11.3203   18.8273 H   0  0  0  0  0  0
  -27.3669  -12.6542   17.8062 H   0  0  0  0  0  0
  -27.7157  -14.2589   19.5999 H   0  0  0  0  0  0
  -28.7032  -11.9378   21.3135 H   0  0  0  0  0  0
  -28.4581  -13.5407   21.9108 H   0  0  0  0  0  0
  -25.2735   -9.5695   22.4785 H   0  0  0  0  0  0
  -24.0001   -7.4625   22.7453 H   0  0  0  0  0  0
  -21.0839   -8.8754   19.8928 H   0  0  0  0  0  0
  -22.3671  -10.9672   19.6186 H   0  0  0  0  0  0
  -21.1978   -7.6148   23.9719 H   0  0  0  0  0  0
  -21.1488   -6.0519   25.9078 H   0  0  0  0  0  0
  -22.0598   -2.7611   23.2848 H   0  0  0  0  0  0
  -22.4053  -11.9865   22.4795 H   0  0  0  0  0  0
  -21.1121  -13.1230   22.2607 H   0  0  0  0  0  0
  -24.6772  -15.8510   20.5295 H   0  0  0  0  0  0
  -26.2971  -15.6218   20.1037 H   0  0  0  0  0  0
  -26.7123  -32.5500   23.1107 H   0  0  0  0  0  0
  -25.0072  -33.9695   25.0446 H   0  0  0  0  0  0
  -22.6941  -31.2948   21.4039 H   0  0  0  0  0  0
  -23.3753  -35.9689   23.3294 H   0  0  0  0  0  0
  -24.3572  -36.8968   22.2050 H   0  0  0  0  0  0
  -23.7291  -37.6547   23.6675 H   0  0  0  0  0  0
  -26.0482  -31.5741   20.5822 H   0  0  0  0  0  0
  -26.8227  -30.8713   21.9771 H   0  0  0  0  0  0
  -28.0784  -29.0333   21.2330 H   0  0  0  0  0  0
  -26.0392  -25.9401   19.0250 H   0  0  0  0  0  0
  -23.9911  -27.2793   19.0063 H   0  0  0  0  0  0
  -23.7061  -30.5721   19.3920 H   0  0  0  0  0  0
  -22.7382  -29.2117   19.8876 H   0  0  0  0  0  0
  -25.1287  -36.1941   25.0839 H   0  0  0  0  0  0
  -20.9867  -28.3213   24.1460 H   0  0  0  0  0  0
  -20.5627  -26.2232   23.3616 H   0  0  0  0  0  0
  -21.6602  -26.7426   22.1216 H   0  0  0  0  0  0
  -19.6889  -25.6258   21.1251 H   0  0  0  0  0  0
  -19.6695  -27.3175   20.6748 H   0  0  0  0  0  0
  -17.4165  -26.6659   21.4016 H   0  0  0  0  0  0
  -18.0267  -26.0073   22.9014 H   0  0  0  0  0  0
  -19.7942  -30.7251   24.2194 H   0  0  0  0  0  0
  -17.5029  -31.6245   24.5170 H   0  0  0  0  0  0
  -15.5330  -30.2961   23.7720 H   0  0  0  0  0  0
  -15.8632  -28.0865   22.6985 H   0  0  0  0  0  0
  -24.5913  -30.7054   25.7915 H   0  0  0  0  0  0
  -24.9014  -32.2880   26.5011 H   0  0  0  0  0  0
  -25.8182  -30.8881   27.0242 H   0  0  0  0  0  0
  -26.2863  -29.6759   24.1201 H   0  0  0  0  0  0
  -27.4131  -29.7314   25.4571 H   0  0  0  0  0  0
  -27.8680  -30.4361   23.9222 H   0  0  0  0  0  0
  -27.2558  -33.3649   26.2038 H   0  0  0  0  0  0
  -28.3819  -32.6927   25.0321 H   0  0  0  0  0  0
  -28.0658  -31.8512   26.5429 H   0  0  0  0  0  0
  -28.2582  -38.0125   24.7486 H   0  0  0  0  0  0
  -28.1092  -36.2643   24.6273 H   0  0  0  0  0  0
  -27.2296  -37.1445   25.8853 H   0  0  0  0  0  0
  -20.9298  -29.8842   21.7093 H   0  0  0  0  0  0
  -26.0198  -38.2870   24.1378 H   0  0  0  0  0  0
  -31.5168  -19.7928   24.6753 H   0  0  0  0  0  0
  -28.4989  -19.2276   20.7883 H   0  0  0  0  0  0
  -32.9815  -18.0789   23.8347 H   0  0  0  0  0  0
  -32.6524  -17.2445   22.3394 H   0  0  0  0  0  0
  -31.8694  -16.7220   23.8316 H   0  0  0  0  0  0
  -30.0350  -21.5357   25.5458 H   0  0  0  0  0  0
  -28.8148  -22.2973   24.5874 H   0  0  0  0  0  0
  -30.5002  -22.6182   24.2353 H   0  0  0  0  0  0
  -25.8836  -23.4229   22.0196 H   0  0  0  0  0  0
  -25.9090  -23.9529   20.3482 H   0  0  0  0  0  0
  -25.8683  -25.1316   21.6531 H   0  0  0  0  0  0
  -31.3280  -17.1884   20.5205 H   0  0  0  0  0  0
  -29.6696  -17.2936   20.0711 H   0  0  0  0  0  0
  -27.5235  -21.9829   23.0129 H   0  0  0  0  0  0
  -27.1327  -21.1497   21.5784 H   0  0  0  0  0  0
  -28.9569  -15.5858   21.5633 H   0  0  0  0  0  0
  -30.4262  -15.5861   22.4907 H   0  0  0  0  0  0
  -28.5427  -22.4948   20.2052 H   0  0  0  0  0  0
  -29.5599  -22.9617   21.5315 H   0  0  0  0  0  0
  -27.9156  -24.8458   19.2348 H   0  0  0  0  0  0
  -29.4172  -24.9206   20.0714 H   0  0  0  0  0  0
  -28.1460  -24.6532   22.3016 H   0  0  0  0  0  0
  1 25  1  0  0  0
  1 30  2  0  0  0
  1 82  1  0  0  0
  2  3  1  0  0  0
  2 25  1  0  0  0
  2 86  1  0  0  0
  2 87  1  0  0  0
  3  4  1  0  0  0
  3 88  1  0  0  0
  3 89  1  0  0  0
  4  5  1  0  0  0
  4 90  1  0  0  0
  4 91  1  0  0  0
  5  6  1  0  0  0
  5 26  1  0  0  0
  5 92  1  0  0  0
  6 25  1  0  0  0
  6 93  1  0  0  0
  6 94  1  0  0  0
  7  8  2  0  0  0
  7 26  1  0  0  0
  7 29  1  0  0  0
  8  9  1  0  0  0
  8 22  1  0  0  0
  9 10  1  0  0  0
  9 27  2  0  0  0
 10 11  2  0  0  0
 10 15  1  0  0  0
 11 12  1  0  0  0
 11 95  1  0  0  0
 12 13  2  0  0  0
 12 96  1  0  0  0
 13 14  1  0  0  0
 13 31  1  0  0  0
 14 15  2  0  0  0
 14 97  1  0  0  0
 15 98  1  0  0  0
 16 17  2  0  0  0
 16 21  1  0  0  0
 16 31  1  0  0  0
 17 18  1  0  0  0
 17 99  1  0  0  0
 18 19  2  0  0  0
 18100  1  0  0  0
 19 20  1  0  0  0
 19 24  1  0  0  0
 20 21  2  0  0  0
 20101  1  0  0  0
 21 23  1  0  0  0
 22 28  1  0  0  0
 22 32  2  0  0  0
 26 27  1  0  0  0
 28102  1  0  0  0
 28103  1  0  0  0
 29104  1  0  0  0
 29105  1  0  0  0
 33 34  1  0  0  0
 33 66  1  0  0  0
 33 70  2  0  0  0
 34 36  1  0  0  0
 34 59  1  0  0  0
 34106  1  0  0  0
 35 44  2  0  0  0
 35 45  1  0  0  0
 35 68  1  0  0  0
 36 56  1  0  0  0
 36107  1  0  0  0
 37 39  1  0  0  0
 37 47  1  0  0  0
 37 66  1  0  0  0
 37108  1  0  0  0
 38 43  2  0  0  0
 38 46  1  0  0  0
 38 47  1  0  0  0
 39 64  1  0  0  0
 39 67  2  0  0  0
 40 52  1  0  0  0
 40 53  2  0  0  0
 40 58  1  0  0  0
 41109  1  0  0  0
 41110  1  0  0  0
 41111  1  0  0  0
 41 48  1  0  0  0
 42 43  1  0  0  0
 42 66  1  0  0  0
 42112  1  0  0  0
 42113  1  0  0  0
 43 44  1  0  0  0
 44114  1  0  0  0
 45 46  2  0  0  0
 45115  1  0  0  0
 46116  1  0  0  0
 47117  1  0  0  0
 47118  1  0  0  0
 48 56  1  0  0  0
 48 65  1  0  0  0
 48119  1  0  0  0
 49 50  1  0  0  0
 49 53  1  0  0  0
 49 64  1  0  0  0
 49120  1  0  0  0
 50 51  1  0  0  0
 50121  1  0  0  0
 50122  1  0  0  0
 51 52  1  0  0  0
 51123  1  0  0  0
 51124  1  0  0  0
 52125  1  0  0  0
 52126  1  0  0  0
 53 54  1  0  0  0
 54 55  2  0  0  0
 54127  1  0  0  0
 55 57  1  0  0  0
 55128  1  0  0  0
 56 69  2  0  0  0
 57 58  2  0  0  0
 57129  1  0  0  0
 58130  1  0  0  0
 59 60  1  0  0  0
 59 61  1  0  0  0
 59 62  1  0  0  0
 60131  1  0  0  0
 60132  1  0  0  0
 60133  1  0  0  0
 61134  1  0  0  0
 61135  1  0  0  0
 61136  1  0  0  0
 62137  1  0  0  0
 62138  1  0  0  0
 62139  1  0  0  0
 63 65  1  0  0  0
 63140  1  0  0  0
 63141  1  0  0  0
 63142  1  0  0  0
 64143  1  0  0  0
 65144  1  0  0  0
 68 84  1  0  0  0
 71 73  2  0  0  0
 71 74  1  0  0  0
 71145  1  0  0  0
 72 75  2  0  0  0
 72 76  1  0  0  0
 72146  1  0  0  0
 73 75  1  0  0  0
 73 77  1  0  0  0
 74 76  2  0  0  0
 74 78  1  0  0  0
 75 80  1  0  0  0
 76 81  1  0  0  0
 77147  1  0  0  0
 77148  1  0  0  0
 77149  1  0  0  0
 78150  1  0  0  0
 78151  1  0  0  0
 78152  1  0  0  0
 79153  1  0  0  0
 79154  1  0  0  0
 79155  1  0  0  0
 79 85  1  0  0  0
 80 82  1  0  0  0
 80156  1  0  0  0
 80157  1  0  0  0
 81 83  1  0  0  0
 81158  1  0  0  0
 81159  1  0  0  0
 82160  1  0  0  0
 82161  1  0  0  0
 83 85  1  0  0  0
 83162  1  0  0  0
 83163  1  0  0  0
 84 85  1  0  0  0
 84164  1  0  0  0
 84165  1  0  0  0
 85166  1  0  0  0
M  ISO  4   1 100  68 101  82 100  84 101
M  END
> <chiral flag>
0

> <version>
0

> <s_m_source_file>
/data/baiqing/PycharmProjects/Reinvent-master-3.2/result/LINK_invent/BTK/process_docking_weight1_custom_product_contain_oxygen_bond_distance_aromatic_linkinvent_7_9_3/rearranged_h_0132.sdf

> <i_m_source_file_index>
59

> <r_mmod_Potential_Energy-OPLS-2005>
-0.979636371135712

> <r_mmod_Stretch_Energy-OPLS-2005>
58.2303581237793

> <r_mmod_Bend_Energy-OPLS-2005>
131.762680053711

> <r_mmod_Torsional_Energy-OPLS-2005>
179.236541748047

> <r_mmod_Improper_Torsional_Energy-OPLS-2005>
2.27952289581299

> <r_mmod_Van_der_Waal_Energy-OPLS-2005>
145.726593017578

> <r_mmod_Electrostatic_Energy-OPLS-2005>
-360.938537597656

> <r_mmod_Solvation_Energy-OPLS-2005>
-185.086624145508

> <b_mmod_Minimization_Converged-OPLS-2005>
0

> <r_mmod_RMS_Derivative-OPLS-2005>
5.00835752487183

$$$$
59
                    3D
 Structure written by MMmdl.
158166  0  0  1  0            999 V2000
  -30.7025  -14.4992   20.4612 C   0  0  0  0  0  0
  -30.4241  -12.2886   19.4469 C   0  0  0  0  0  0
  -29.5022  -12.4631   18.2205 C   0  0  0  0  0  0
  -28.0212  -12.3280   18.6294 C   0  0  0  0  0  0
  -27.6564  -13.1963   19.8625 C   0  0  2  0  0  0
  -28.7037  -13.0317   20.9882 C   0  0  0  0  0  0
  -25.2605  -13.8122   20.5806 C   0  0  0  0  0  0
  -24.1820  -13.0405   20.9192 C   0  0  0  0  0  0
  -24.6359  -11.6885   20.8721 C   0  0  0  0  0  0
  -23.9026  -10.4281   21.0382 C   0  0  0  0  0  0
  -24.3590   -9.4215   21.9169 C   0  0  0  0  0  0
  -23.6278   -8.2249   22.0750 C   0  0  0  0  0  0
  -22.4257   -8.0286   21.3546 C   0  0  0  0  0  0
  -21.9879   -9.0252   20.4642 C   0  0  0  0  0  0
  -22.7197  -10.2129   20.3037 C   0  0  0  0  0  0
  -21.6849   -6.0733   22.5277 C   0  0  0  0  0  0
  -21.4020   -6.5634   23.8213 C   0  0  0  0  0  0
  -21.3638   -5.6781   24.9171 C   0  0  0  0  0  0
  -21.6038   -4.3047   24.7218 C   0  0  0  0  0  0
  -21.8826   -3.8146   23.4338 C   0  0  0  0  0  0
  -21.9198   -4.6964   22.3395 C   0  0  0  0  0  0
  -22.7847  -13.5235   21.1841 C   0  0  0  0  0  0
  -22.1679   -4.2153   21.0971 F   0  0  0  0  0  0
  -21.5616   -3.4526   25.7726 F   0  0  0  0  0  0
  -30.0378  -13.3096   20.4309 N   0  0  0  0  0  0
  -26.3004  -12.9279   20.3347 N   0  0  0  0  0  0
  -25.9278  -11.6451   20.5715 N   0  0  0  0  0  0
  -22.0477  -12.8238   22.0387 N   0  0  0  0  0  0
  -25.4328  -15.1852   20.4513 N   0  0  0  0  0  0
  -31.8995  -14.5849   20.1751 O   0  0  0  0  0  0
  -21.6636   -6.8882   21.4245 O   0  0  0  0  0  0
  -22.3541  -14.5551   20.6702 O   0  0  0  0  0  0
  -24.6155  -31.8697   23.2133 C   0  0  0  0  0  0
  -25.9065  -32.4820   23.8403 C   0  0  1  0  0  0
  -27.2285  -27.4412   20.0787 C   0  0  0  0  0  0
  -25.5945  -33.8612   24.2348 N   0  0  0  0  0  0
  -23.3996  -30.4994   21.5538 C   0  0  2  0  0  0
  -24.8434  -28.9736   20.1122 C   0  0  0  0  0  0
  -22.7397  -29.4683   22.4974 C   0  0  0  0  0  0
  -18.0278  -28.1351   22.8490 C   0  0  0  0  0  0
  -24.1487  -36.7292   23.2628 C   0  0  0  0  0  0
  -25.9314  -30.8351   21.3704 C   0  0  0  0  0  0
  -26.0047  -29.4728   20.7134 C   0  0  0  0  0  0
  -27.1956  -28.7104   20.7008 C   0  0  0  0  0  0
  -26.0450  -26.9714   19.4525 C   0  0  0  0  0  0
  -24.8593  -27.7217   19.4810 C   0  0  0  0  0  0
  -23.6069  -29.8407   20.1654 C   0  0  0  0  0  0
  -25.4108  -36.3092   24.0339 C   0  0  1  0  0  0
  -20.5869  -28.3645   23.1304 C   0  0  2  0  0  0
  -20.6768  -26.9392   22.5375 C   0  0  0  0  0  0
  -19.5734  -26.6379   21.5184 C   0  0  0  0  0  0
  -18.1915  -26.7910   22.1590 C   0  0  0  0  0  0
  -19.1522  -28.8813   23.2907 C   0  0  0  0  0  0
  -18.9438  -30.1415   23.8917 C   0  0  0  0  0  0
  -17.6438  -30.6554   24.0582 C   0  0  0  0  0  0
  -25.9042  -34.9462   23.5131 C   0  0  0  0  0  0
  -16.5339  -29.9058   23.6324 C   0  0  0  0  0  0
  -16.7267  -28.6487   23.0329 C   0  0  0  0  0  0
  -26.4515  -31.6573   25.0710 C   0  0  0  0  0  0
  -25.3797  -31.3670   26.1467 C   0  0  0  0  0  0
  -27.0349  -30.3016   24.6071 C   0  0  0  0  0  0
  -27.6097  -32.4277   25.7472 C   0  0  0  0  0  0
  -27.5576  -37.1799   24.8474 C   0  0  0  0  0  0
  -21.4124  -29.3047   22.3725 N   0  0  0  0  0  0
  -26.4287  -37.3784   23.9418 N   0  0  0  0  0  0
  -24.6661  -31.0822   22.1033 N   0  0  0  0  0  0
  -23.4185  -28.8200   23.2987 O   0  0  0  0  0  0
  -28.4014  -26.7053   20.1105 O   0  0  0  0  0  0
  -26.5572  -34.8915   22.4667 O   0  0  0  0  0  0
  -23.5352  -32.1441   23.7549 O   0  0  0  0  0  0
  -27.8184  -20.3619   19.4853 C   0  0  0  0  0  0
  -27.4574  -19.1408   18.8980 C   0  0  0  0  0  0
  -29.8390  -19.3315   20.3710 C   0  0  0  0  0  0
  -29.4534  -18.0763   19.8343 C   0  0  0  0  0  0
  -29.0413  -20.4883   20.1781 C   0  0  0  0  0  0
  -28.2826  -18.0091   19.0303 C   0  0  0  0  0  0
  -30.2952  -16.8817   20.0555 C   0  0  0  0  0  0
  -29.8454  -15.6855   20.5075 C   0  0  0  0  0  0
  -27.8928  -16.7731   18.2337 C   0  0  0  0  0  0
  -29.4676  -21.8562   20.7187 C   0  0  0  0  0  0
  -29.3559  -23.0037   19.6777 C   0  0  0  0  0  0
  -29.4566  -24.4447   20.2406 C   0  0  0  0  0  0
  -28.3275  -25.3382   19.6872 C   0  0  0  0  0  0
  -31.4713  -12.3606   19.1487 H   0  0  0  0  0  0
  -30.3114  -11.2943   19.8821 H   0  0  0  0  0  0
  -29.7445  -11.7184   17.4621 H   0  0  0  0  0  0
  -29.6755  -13.4375   17.7618 H   0  0  0  0  0  0
  -27.8370  -11.2752   18.8526 H   0  0  0  0  0  0
  -27.3710  -12.5790   17.7906 H   0  0  0  0  0  0
  -27.6782  -14.2258   19.5190 H   0  0  0  0  0  0
  -28.6745  -12.0163   21.3863 H   0  0  0  0  0  0
  -28.4790  -13.6846   21.8323 H   0  0  0  0  0  0
  -25.2728   -9.5718   22.4747 H   0  0  0  0  0  0
  -23.9990   -7.4649   22.7472 H   0  0  0  0  0  0
  -21.0802   -8.8776   19.8956 H   0  0  0  0  0  0
  -22.3651  -10.9683   19.6158 H   0  0  0  0  0  0
  -21.2037   -7.6147   23.9716 H   0  0  0  0  0  0
  -21.1435   -6.0511   25.9064 H   0  0  0  0  0  0
  -22.0625   -2.7610   23.2843 H   0  0  0  0  0  0
  -22.4054  -11.9886   22.4771 H   0  0  0  0  0  0
  -21.1135  -13.1335   22.2641 H   0  0  0  0  0  0
  -24.6818  -15.8405   20.6404 H   0  0  0  0  0  0
  -26.3088  -15.6441   20.2385 H   0  0  0  0  0  0
  -26.7129  -32.5549   23.1156 H   0  0  0  0  0  0
  -25.0191  -33.9771   25.0563 H   0  0  0  0  0  0
  -22.6872  -31.3176   21.4209 H   0  0  0  0  0  0
  -23.3744  -35.9629   23.3303 H   0  0  0  0  0  0
  -24.3581  -36.8882   22.2037 H   0  0  0  0  0  0
  -23.7245  -37.6506   23.6628 H   0  0  0  0  0  0
  -26.0501  -31.6063   20.6068 H   0  0  0  0  0  0
  -26.8171  -30.8791   21.9922 H   0  0  0  0  0  0
  -28.0881  -29.0894   21.1785 H   0  0  0  0  0  0
  -26.0067  -26.0335   18.9201 H   0  0  0  0  0  0
  -23.9689  -27.3383   19.0013 H   0  0  0  0  0  0
  -23.7179  -30.6202   19.4106 H   0  0  0  0  0  0
  -22.7290  -29.2652   19.8640 H   0  0  0  0  0  0
  -25.1275  -36.1948   25.0831 H   0  0  0  0  0  0
  -20.9978  -28.3178   24.1414 H   0  0  0  0  0  0
  -20.5675  -26.2252   23.3550 H   0  0  0  0  0  0
  -21.6621  -26.7424   22.1133 H   0  0  0  0  0  0
  -19.6883  -25.6304   21.1172 H   0  0  0  0  0  0
  -19.6664  -27.3227   20.6735 H   0  0  0  0  0  0
  -17.4197  -26.6706   21.3976 H   0  0  0  0  0  0
  -18.0287  -26.0018   22.8946 H   0  0  0  0  0  0
  -19.7916  -30.7226   24.2289 H   0  0  0  0  0  0
  -17.4984  -31.6218   24.5196 H   0  0  0  0  0  0
  -15.5327  -30.2946   23.7623 H   0  0  0  0  0  0
  -15.8687  -28.0816   22.6987 H   0  0  0  0  0  0
  -24.5994  -30.6989   25.7822 H   0  0  0  0  0  0
  -24.8982  -32.2819   26.4916 H   0  0  0  0  0  0
  -25.8181  -30.8861   27.0218 H   0  0  0  0  0  0
  -26.2891  -29.6752   24.1171 H   0  0  0  0  0  0
  -27.4177  -29.7271   25.4514 H   0  0  0  0  0  0
  -27.8700  -30.4333   23.9185 H   0  0  0  0  0  0
  -27.2732  -33.3570   26.2075 H   0  0  0  0  0  0
  -28.3902  -32.6830   25.0293 H   0  0  0  0  0  0
  -28.0764  -31.8378   26.5364 H   0  0  0  0  0  0
  -28.2607  -38.0085   24.7503 H   0  0  0  0  0  0
  -28.1053  -36.2612   24.6316 H   0  0  0  0  0  0
  -27.2286  -37.1468   25.8876 H   0  0  0  0  0  0
  -20.9247  -29.8820   21.7011 H   0  0  0  0  0  0
  -26.0167  -38.2857   24.1432 H   0  0  0  0  0  0
  -27.1541  -21.2064   19.3630 H   0  0  0  0  0  0
  -26.5470  -19.0830   18.3154 H   0  0  0  0  0  0
  -30.7615  -19.4098   20.9324 H   0  0  0  0  0  0
  -31.3272  -16.9857   19.7485 H   0  0  0  0  0  0
  -28.8235  -15.6229   20.8448 H   0  0  0  0  0  0
  -27.5757  -17.0600   17.2301 H   0  0  0  0  0  0
  -27.0495  -16.2784   18.7044 H   0  0  0  0  0  0
  -28.7046  -16.0568   18.1125 H   0  0  0  0  0  0
  -30.4910  -21.8064   21.0942 H   0  0  0  0  0  0
  -28.8365  -22.0748   21.5805 H   0  0  0  0  0  0
  -28.3974  -22.9286   19.1686 H   0  0  0  0  0  0
  -30.0962  -22.8620   18.8900 H   0  0  0  0  0  0
  -30.4295  -24.8711   19.9962 H   0  0  0  0  0  0
  -29.3931  -24.4298   21.3281 H   0  0  0  0  0  0
  -27.3998  -24.8794   20.0333 H   0  0  0  0  0  0
  -28.3260  -25.3139   18.5959 H   0  0  0  0  0  0
  1 25  1  0  0  0
  1 30  2  0  0  0
  1 78  1  0  0  0
  2  3  1  0  0  0
  2 25  1  0  0  0
  2 84  1  0  0  0
  2 85  1  0  0  0
  3  4  1  0  0  0
  3 86  1  0  0  0
  3 87  1  0  0  0
  4  5  1  0  0  0
  4 88  1  0  0  0
  4 89  1  0  0  0
  5  6  1  0  0  0
  5 26  1  0  0  0
  5 90  1  0  0  0
  6 25  1  0  0  0
  6 91  1  0  0  0
  6 92  1  0  0  0
  7  8  2  0  0  0
  7 26  1  0  0  0
  7 29  1  0  0  0
  8  9  1  0  0  0
  8 22  1  0  0  0
  9 10  1  0  0  0
  9 27  2  0  0  0
 10 11  2  0  0  0
 10 15  1  0  0  0
 11 12  1  0  0  0
 11 93  1  0  0  0
 12 13  2  0  0  0
 12 94  1  0  0  0
 13 14  1  0  0  0
 13 31  1  0  0  0
 14 15  2  0  0  0
 14 95  1  0  0  0
 15 96  1  0  0  0
 16 17  2  0  0  0
 16 21  1  0  0  0
 16 31  1  0  0  0
 17 18  1  0  0  0
 17 97  1  0  0  0
 18 19  2  0  0  0
 18 98  1  0  0  0
 19 20  1  0  0  0
 19 24  1  0  0  0
 20 21  2  0  0  0
 20 99  1  0  0  0
 21 23  1  0  0  0
 22 28  1  0  0  0
 22 32  2  0  0  0
 26 27  1  0  0  0
 28100  1  0  0  0
 28101  1  0  0  0
 29102  1  0  0  0
 29103  1  0  0  0
 33 34  1  0  0  0
 33 66  1  0  0  0
 33 70  2  0  0  0
 34 36  1  0  0  0
 34 59  1  0  0  0
 34104  1  0  0  0
 35 44  2  0  0  0
 35 45  1  0  0  0
 35 68  1  0  0  0
 36 56  1  0  0  0
 36105  1  0  0  0
 37 39  1  0  0  0
 37 47  1  0  0  0
 37 66  1  0  0  0
 37106  1  0  0  0
 38 43  2  0  0  0
 38 46  1  0  0  0
 38 47  1  0  0  0
 39 64  1  0  0  0
 39 67  2  0  0  0
 40 52  1  0  0  0
 40 53  2  0  0  0
 40 58  1  0  0  0
 41107  1  0  0  0
 41108  1  0  0  0
 41109  1  0  0  0
 41 48  1  0  0  0
 42 43  1  0  0  0
 42 66  1  0  0  0
 42110  1  0  0  0
 42111  1  0  0  0
 43 44  1  0  0  0
 44112  1  0  0  0
 45 46  2  0  0  0
 45113  1  0  0  0
 46114  1  0  0  0
 47115  1  0  0  0
 47116  1  0  0  0
 48 56  1  0  0  0
 48 65  1  0  0  0
 48117  1  0  0  0
 49 50  1  0  0  0
 49 53  1  0  0  0
 49 64  1  0  0  0
 49118  1  0  0  0
 50 51  1  0  0  0
 50119  1  0  0  0
 50120  1  0  0  0
 51 52  1  0  0  0
 51121  1  0  0  0
 51122  1  0  0  0
 52123  1  0  0  0
 52124  1  0  0  0
 53 54  1  0  0  0
 54 55  2  0  0  0
 54125  1  0  0  0
 55 57  1  0  0  0
 55126  1  0  0  0
 56 69  2  0  0  0
 57 58  2  0  0  0
 57127  1  0  0  0
 58128  1  0  0  0
 59 60  1  0  0  0
 59 61  1  0  0  0
 59 62  1  0  0  0
 60129  1  0  0  0
 60130  1  0  0  0
 60131  1  0  0  0
 61132  1  0  0  0
 61133  1  0  0  0
 61134  1  0  0  0
 62135  1  0  0  0
 62136  1  0  0  0
 62137  1  0  0  0
 63 65  1  0  0  0
 63138  1  0  0  0
 63139  1  0  0  0
 63140  1  0  0  0
 64141  1  0  0  0
 65142  1  0  0  0
 68 83  1  0  0  0
 71 72  2  0  0  0
 71 75  1  0  0  0
 71143  1  0  0  0
 72 76  1  0  0  0
 72144  1  0  0  0
 73 74  1  0  0  0
 73 75  2  0  0  0
 73145  1  0  0  0
 74 76  2  0  0  0
 74 77  1  0  0  0
 75 80  1  0  0  0
 76 79  1  0  0  0
 77 78  2  0  0  0
 77146  1  0  0  0
 78147  1  0  0  0
 79148  1  0  0  0
 79149  1  0  0  0
 79150  1  0  0  0
 80 81  1  0  0  0
 80151  1  0  0  0
 80152  1  0  0  0
 81 82  1  0  0  0
 81153  1  0  0  0
 81154  1  0  0  0
 82 83  1  0  0  0
 82155  1  0  0  0
 82156  1  0  0  0
 83157  1  0  0  0
 83158  1  0  0  0
M  ISO  4   1 100  68 101  78 100  83 101
M  END
> <chiral flag>
0

> <version>
0

> <s_m_source_file>
/data/baiqing/PycharmProjects/Reinvent-master-3.2/result/LINK_invent/BTK/process_docking_weight1_custom_product_contain_oxygen_bond_distance_aromatic_linkinvent_7_9_3/rearranged_h_0132.sdf

> <i_m_source_file_index>
60

> <r_mmod_Potential_Energy-OPLS-2005>
21.9371509552002

> <r_mmod_Stretch_Energy-OPLS-2005>
37.2104225158691

> <r_mmod_Bend_Energy-OPLS-2005>
94.4404602050781

> <r_mmod_Torsional_Energy-OPLS-2005>
220.151931762695

> <r_mmod_Improper_Torsional_Energy-OPLS-2005>
9.62217998504639

> <r_mmod_Van_der_Waal_Energy-OPLS-2005>
166.375152587891

> <r_mmod_Electrostatic_Energy-OPLS-2005>
-340.45263671875

> <r_mmod_Solvation_Energy-OPLS-2005>
-187.893142700195

> <b_mmod_Minimization_Converged-OPLS-2005>
0

> <r_mmod_RMS_Derivative-OPLS-2005>
2.26290225982666

$$$$
60
                    3D
 Structure written by MMmdl.
160168  0  0  1  0            999 V2000
  -30.6897  -14.4684   20.5976 C   0  0  0  0  0  0
  -30.4239  -12.3065   19.4249 C   0  0  0  0  0  0
  -29.4966  -12.5089   18.2087 C   0  0  0  0  0  0
  -28.0169  -12.3658   18.6161 C   0  0  0  0  0  0
  -27.6613  -13.2038   19.8725 C   0  0  2  0  0  0
  -28.7013  -12.9899   20.9948 C   0  0  0  0  0  0
  -25.2604  -13.8150   20.5676 C   0  0  0  0  0  0
  -24.1857  -13.0432   20.9164 C   0  0  0  0  0  0
  -24.6399  -11.6898   20.8722 C   0  0  0  0  0  0
  -23.9062  -10.4289   21.0404 C   0  0  0  0  0  0
  -24.3610   -9.4210   21.9189 C   0  0  0  0  0  0
  -23.6288   -8.2246   22.0761 C   0  0  0  0  0  0
  -22.4275   -8.0282   21.3543 C   0  0  0  0  0  0
  -21.9909   -9.0253   20.4644 C   0  0  0  0  0  0
  -22.7234  -10.2133   20.3052 C   0  0  0  0  0  0
  -21.6847   -6.0737   22.5269 C   0  0  0  0  0  0
  -21.4015   -6.5643   23.8202 C   0  0  0  0  0  0
  -21.3663   -5.6797   24.9167 C   0  0  0  0  0  0
  -21.6047   -4.3059   24.7220 C   0  0  0  0  0  0
  -21.8822   -3.8148   23.4342 C   0  0  0  0  0  0
  -21.9197   -4.6966   22.3394 C   0  0  0  0  0  0
  -22.7884  -13.5235   21.1834 C   0  0  0  0  0  0
  -22.1667   -4.2154   21.0972 F   0  0  0  0  0  0
  -21.5630   -3.4547   25.7738 F   0  0  0  0  0  0
  -30.0330  -13.2867   20.4492 N   0  0  0  0  0  0
  -26.3031  -12.9312   20.3347 N   0  0  0  0  0  0
  -25.9321  -11.6474   20.5741 N   0  0  0  0  0  0
  -22.0519  -12.8220   22.0373 N   0  0  0  0  0  0
  -25.4357  -15.1870   20.4106 N   0  0  0  0  0  0
  -31.8122  -14.6508   20.1141 O   0  0  0  0  0  0
  -21.6634   -6.8884   21.4233 O   0  0  0  0  0  0
  -22.3571  -14.5548   20.6688 O   0  0  0  0  0  0
  -24.6141  -31.8689   23.2090 C   0  0  0  0  0  0
  -25.9038  -32.4829   23.8390 C   0  0  1  0  0  0
  -27.2314  -27.4276   20.1151 C   0  0  0  0  0  0
  -25.5896  -33.8626   24.2326 N   0  0  0  0  0  0
  -23.4019  -30.4898   21.5501 C   0  0  2  0  0  0
  -24.8491  -28.9486   20.1216 C   0  0  0  0  0  0
  -22.7405  -29.4662   22.5009 C   0  0  0  0  0  0
  -18.0271  -28.1373   22.8507 C   0  0  0  0  0  0
  -24.1480  -36.7304   23.2640 C   0  0  0  0  0  0
  -25.9298  -30.8319   21.3627 C   0  0  0  0  0  0
  -26.0078  -29.4622   20.7188 C   0  0  0  0  0  0
  -27.2046  -28.7093   20.7113 C   0  0  0  0  0  0
  -26.0612  -26.9268   19.5105 C   0  0  0  0  0  0
  -24.8701  -27.6794   19.5148 C   0  0  0  0  0  0
  -23.6111  -29.8170   20.1669 C   0  0  0  0  0  0
  -25.4105  -36.3112   24.0342 C   0  0  1  0  0  0
  -20.5860  -28.3655   23.1335 C   0  0  2  0  0  0
  -20.6757  -26.9392   22.5433 C   0  0  0  0  0  0
  -19.5742  -26.6380   21.5224 C   0  0  0  0  0  0
  -18.1912  -26.7931   22.1616 C   0  0  0  0  0  0
  -19.1521  -28.8833   23.2915 C   0  0  0  0  0  0
  -18.9447  -30.1444   23.8920 C   0  0  0  0  0  0
  -17.6450  -30.6584   24.0574 C   0  0  0  0  0  0
  -25.9039  -34.9480   23.5133 C   0  0  0  0  0  0
  -16.5343  -29.9087   23.6332 C   0  0  0  0  0  0
  -16.7263  -28.6500   23.0359 C   0  0  0  0  0  0
  -26.4459  -31.6604   25.0720 C   0  0  0  0  0  0
  -25.3717  -31.3697   26.1460 C   0  0  0  0  0  0
  -27.0291  -30.3051   24.6091 C   0  0  0  0  0  0
  -27.6049  -32.4306   25.7482 C   0  0  0  0  0  0
  -27.5591  -37.1797   24.8456 C   0  0  0  0  0  0
  -21.4134  -29.3026   22.3741 N   0  0  0  0  0  0
  -26.4288  -37.3802   23.9426 N   0  0  0  0  0  0
  -24.6667  -31.0789   22.0991 N   0  0  0  0  0  0
  -23.4181  -28.8219   23.3062 O   0  0  0  0  0  0
  -28.3971  -26.6992   20.0571 O   0  0  0  0  0  0
  -26.5608  -34.8937   22.4697 O   0  0  0  0  0  0
  -23.5334  -32.1441   23.7482 O   0  0  0  0  0  0
  -29.4835  -18.7040   22.6604 C   0  0  0  0  0  0
  -28.7316  -19.9267   22.6363 C   0  0  0  0  0  0
  -29.8809  -18.2615   21.4257 C   0  0  0  0  0  0
  -28.5804  -20.4277   21.3599 C   0  0  0  0  0  0
  -27.5577  -19.6036   24.8726 C   0  0  0  0  0  0
  -28.1891  -20.5882   23.8768 C   0  0  0  0  0  0
  -30.6906  -17.0332   21.0866 C   0  0  0  0  0  0
  -27.8648  -21.6802   20.8998 C   0  0  0  0  0  0
  -29.9662  -15.6696   21.2636 C   0  0  0  0  0  0
  -28.5672  -23.0229   21.2287 C   0  0  0  0  0  0
  -27.9553  -24.2579   20.5079 C   0  0  0  0  0  0
  -28.5339  -25.6146   20.9890 C   0  0  0  0  0  0
  -29.3418  -19.3705   20.1882 S   0  0  0  0  0  0
  -31.4689  -12.4059   19.1275 H   0  0  0  0  0  0
  -30.3232  -11.2944   19.8199 H   0  0  0  0  0  0
  -29.7397  -11.7904   17.4252 H   0  0  0  0  0  0
  -29.6644  -13.4985   17.7805 H   0  0  0  0  0  0
  -27.8250  -11.3098   18.8079 H   0  0  0  0  0  0
  -27.3692  -12.6452   17.7843 H   0  0  0  0  0  0
  -27.7028  -14.2493   19.5702 H   0  0  0  0  0  0
  -28.6731  -11.9570   21.3446 H   0  0  0  0  0  0
  -28.4628  -13.6005   21.8659 H   0  0  0  0  0  0
  -25.2748   -9.5692   22.4771 H   0  0  0  0  0  0
  -23.9992   -7.4646   22.7492 H   0  0  0  0  0  0
  -21.0838   -8.8773   19.8953 H   0  0  0  0  0  0
  -22.3690  -10.9677   19.6161 H   0  0  0  0  0  0
  -21.2003   -7.6148   23.9704 H   0  0  0  0  0  0
  -21.1488   -6.0530   25.9071 H   0  0  0  0  0  0
  -22.0603   -2.7613   23.2835 H   0  0  0  0  0  0
  -22.4134  -11.9858   22.4721 H   0  0  0  0  0  0
  -21.1135  -13.1242   22.2578 H   0  0  0  0  0  0
  -24.6758  -15.8484   20.5280 H   0  0  0  0  0  0
  -26.2987  -15.6250   20.1138 H   0  0  0  0  0  0
  -26.7118  -32.5547   23.1162 H   0  0  0  0  0  0
  -25.0059  -33.9793   25.0477 H   0  0  0  0  0  0
  -22.6897  -31.3051   21.4078 H   0  0  0  0  0  0
  -23.3774  -35.9602   23.3258 H   0  0  0  0  0  0
  -24.3586  -36.8969   22.2066 H   0  0  0  0  0  0
  -23.7182  -37.6472   23.6682 H   0  0  0  0  0  0
  -26.0394  -31.5926   20.5885 H   0  0  0  0  0  0
  -26.8191  -30.8913   21.9782 H   0  0  0  0  0  0
  -28.1030  -29.1068   21.1620 H   0  0  0  0  0  0
  -26.0744  -25.9589   19.0295 H   0  0  0  0  0  0
  -23.9810  -27.2787   19.0483 H   0  0  0  0  0  0
  -23.7189  -30.5882   19.4034 H   0  0  0  0  0  0
  -22.7351  -29.2353   19.8735 H   0  0  0  0  0  0
  -25.1275  -36.1985   25.0836 H   0  0  0  0  0  0
  -20.9959  -28.3222   24.1449 H   0  0  0  0  0  0
  -20.5659  -26.2261   23.3620 H   0  0  0  0  0  0
  -21.6630  -26.7427   22.1238 H   0  0  0  0  0  0
  -19.6905  -25.6298   21.1231 H   0  0  0  0  0  0
  -19.6692  -27.3209   20.6768 H   0  0  0  0  0  0
  -17.4205  -26.6737   21.3985 H   0  0  0  0  0  0
  -18.0261  -26.0041   22.8968 H   0  0  0  0  0  0
  -19.7924  -30.7256   24.2293 H   0  0  0  0  0  0
  -17.5004  -31.6266   24.5169 H   0  0  0  0  0  0
  -15.5345  -30.2994   23.7628 H   0  0  0  0  0  0
  -15.8668  -28.0820   22.7061 H   0  0  0  0  0  0
  -24.5918  -30.7012   25.7792 H   0  0  0  0  0  0
  -24.8869  -32.2840   26.4889 H   0  0  0  0  0  0
  -25.8071  -30.8887   27.0229 H   0  0  0  0  0  0
  -26.2837  -29.6812   24.1146 H   0  0  0  0  0  0
  -27.4070  -29.7288   25.4549 H   0  0  0  0  0  0
  -27.8663  -30.4381   23.9232 H   0  0  0  0  0  0
  -27.2707  -33.3629   26.2042 H   0  0  0  0  0  0
  -28.3865  -32.6817   25.0299 H   0  0  0  0  0  0
  -28.0692  -31.8423   26.5402 H   0  0  0  0  0  0
  -28.2573  -38.0129   24.7578 H   0  0  0  0  0  0
  -28.1118  -36.2670   24.6179 H   0  0  0  0  0  0
  -27.2327  -37.1347   25.8860 H   0  0  0  0  0  0
  -20.9290  -29.8749   21.6970 H   0  0  0  0  0  0
  -26.0178  -38.2875   24.1468 H   0  0  0  0  0  0
  -29.7094  -18.1883   23.5834 H   0  0  0  0  0  0
  -27.1516  -20.1353   25.7336 H   0  0  0  0  0  0
  -28.2844  -18.8858   25.2536 H   0  0  0  0  0  0
  -26.7406  -19.0470   24.4127 H   0  0  0  0  0  0
  -27.4360  -21.3319   23.6170 H   0  0  0  0  0  0
  -28.9868  -21.1393   24.3766 H   0  0  0  0  0  0
  -31.5989  -17.0297   21.6911 H   0  0  0  0  0  0
  -31.0345  -17.1285   20.0556 H   0  0  0  0  0  0
  -26.8548  -21.6911   21.3118 H   0  0  0  0  0  0
  -27.7277  -21.6206   19.8196 H   0  0  0  0  0  0
  -28.9758  -15.7540   20.8182 H   0  0  0  0  0  0
  -29.8179  -15.4628   22.3232 H   0  0  0  0  0  0
  -29.6205  -22.9510   20.9534 H   0  0  0  0  0  0
  -28.5494  -23.1808   22.3078 H   0  0  0  0  0  0
  -26.8738  -24.2654   20.6439 H   0  0  0  0  0  0
  -28.1280  -24.1530   19.4365 H   0  0  0  0  0  0
  -29.6051  -25.4948   21.1529 H   0  0  0  0  0  0
  -28.1138  -25.8836   21.9600 H   0  0  0  0  0  0
  1 25  1  0  0  0
  1 30  2  0  0  0
  1 79  1  0  0  0
  2  3  1  0  0  0
  2 25  1  0  0  0
  2 84  1  0  0  0
  2 85  1  0  0  0
  3  4  1  0  0  0
  3 86  1  0  0  0
  3 87  1  0  0  0
  4  5  1  0  0  0
  4 88  1  0  0  0
  4 89  1  0  0  0
  5  6  1  0  0  0
  5 26  1  0  0  0
  5 90  1  0  0  0
  6 25  1  0  0  0
  6 91  1  0  0  0
  6 92  1  0  0  0
  7  8  2  0  0  0
  7 26  1  0  0  0
  7 29  1  0  0  0
  8  9  1  0  0  0
  8 22  1  0  0  0
  9 10  1  0  0  0
  9 27  2  0  0  0
 10 11  2  0  0  0
 10 15  1  0  0  0
 11 12  1  0  0  0
 11 93  1  0  0  0
 12 13  2  0  0  0
 12 94  1  0  0  0
 13 14  1  0  0  0
 13 31  1  0  0  0
 14 15  2  0  0  0
 14 95  1  0  0  0
 15 96  1  0  0  0
 16 17  2  0  0  0
 16 21  1  0  0  0
 16 31  1  0  0  0
 17 18  1  0  0  0
 17 97  1  0  0  0
 18 19  2  0  0  0
 18 98  1  0  0  0
 19 20  1  0  0  0
 19 24  1  0  0  0
 20 21  2  0  0  0
 20 99  1  0  0  0
 21 23  1  0  0  0
 22 28  1  0  0  0
 22 32  2  0  0  0
 26 27  1  0  0  0
 28100  1  0  0  0
 28101  1  0  0  0
 29102  1  0  0  0
 29103  1  0  0  0
 33 34  1  0  0  0
 33 66  1  0  0  0
 33 70  2  0  0  0
 34 36  1  0  0  0
 34 59  1  0  0  0
 34104  1  0  0  0
 35 44  2  0  0  0
 35 45  1  0  0  0
 35 68  1  0  0  0
 36 56  1  0  0  0
 36105  1  0  0  0
 37 39  1  0  0  0
 37 47  1  0  0  0
 37 66  1  0  0  0
 37106  1  0  0  0
 38 43  2  0  0  0
 38 46  1  0  0  0
 38 47  1  0  0  0
 39 64  1  0  0  0
 39 67  2  0  0  0
 40 52  1  0  0  0
 40 53  2  0  0  0
 40 58  1  0  0  0
 41107  1  0  0  0
 41108  1  0  0  0
 41109  1  0  0  0
 41 48  1  0  0  0
 42 43  1  0  0  0
 42 66  1  0  0  0
 42110  1  0  0  0
 42111  1  0  0  0
 43 44  1  0  0  0
 44112  1  0  0  0
 45 46  2  0  0  0
 45113  1  0  0  0
 46114  1  0  0  0
 47115  1  0  0  0
 47116  1  0  0  0
 48 56  1  0  0  0
 48 65  1  0  0  0
 48117  1  0  0  0
 49 50  1  0  0  0
 49 53  1  0  0  0
 49 64  1  0  0  0
 49118  1  0  0  0
 50 51  1  0  0  0
 50119  1  0  0  0
 50120  1  0  0  0
 51 52  1  0  0  0
 51121  1  0  0  0
 51122  1  0  0  0
 52123  1  0  0  0
 52124  1  0  0  0
 53 54  1  0  0  0
 54 55  2  0  0  0
 54125  1  0  0  0
 55 57  1  0  0  0
 55126  1  0  0  0
 56 69  2  0  0  0
 57 58  2  0  0  0
 57127  1  0  0  0
 58128  1  0  0  0
 59 60  1  0  0  0
 59 61  1  0  0  0
 59 62  1  0  0  0
 60129  1  0  0  0
 60130  1  0  0  0
 60131  1  0  0  0
 61132  1  0  0  0
 61133  1  0  0  0
 61134  1  0  0  0
 62135  1  0  0  0
 62136  1  0  0  0
 62137  1  0  0  0
 63 65  1  0  0  0
 63138  1  0  0  0
 63139  1  0  0  0
 63140  1  0  0  0
 64141  1  0  0  0
 65142  1  0  0  0
 68 82  1  0  0  0
 71 72  1  0  0  0
 71 73  2  0  0  0
 71143  1  0  0  0
 72 74  2  0  0  0
 72 76  1  0  0  0
 73 77  1  0  0  0
 73 83  1  0  0  0
 74 78  1  0  0  0
 74 83  1  0  0  0
 75 76  1  0  0  0
 75144  1  0  0  0
 75145  1  0  0  0
 75146  1  0  0  0
 76147  1  0  0  0
 76148  1  0  0  0
 77 79  1  0  0  0
 77149  1  0  0  0
 77150  1  0  0  0
 78 80  1  0  0  0
 78151  1  0  0  0
 78152  1  0  0  0
 79153  1  0  0  0
 79154  1  0  0  0
 80 81  1  0  0  0
 80155  1  0  0  0
 80156  1  0  0  0
 81 82  1  0  0  0
 81157  1  0  0  0
 81158  1  0  0  0
 82159  1  0  0  0
 82160  1  0  0  0
M  ISO  4   1 100  68 101  79 100  82 101
M  END
> <chiral flag>
0

> <version>
0

> <s_m_source_file>
/data/baiqing/PycharmProjects/Reinvent-master-3.2/result/LINK_invent/BTK/process_docking_weight1_custom_product_contain_oxygen_bond_distance_aromatic_linkinvent_7_9_3/rearranged_h_0132.sdf

> <i_m_source_file_index>
61

> <r_mmod_Potential_Energy-OPLS-2005>
-84.7810363769531

> <r_mmod_Stretch_Energy-OPLS-2005>
35.7979278564453

> <r_mmod_Bend_Energy-OPLS-2005>
95.2757873535156

> <r_mmod_Torsional_Energy-OPLS-2005>
177.176315307617

> <r_mmod_Improper_Torsional_Energy-OPLS-2005>
2.93589878082275

> <r_mmod_Van_der_Waal_Energy-OPLS-2005>
116.912696838379

> <r_mmod_Electrostatic_Energy-OPLS-2005>
-340.168090820312

> <r_mmod_Solvation_Energy-OPLS-2005>
-184.211471557617

> <b_mmod_Minimization_Converged-OPLS-2005>
0

> <r_mmod_RMS_Derivative-OPLS-2005>
1.20164453983307

$$$$
61
                    3D
 Structure written by MMmdl.
161169  0  0  1  0            999 V2000
  -30.7658  -14.4197   20.5587 C   0  0  0  0  0  0
  -30.3921  -12.2633   19.4489 C   0  0  0  0  0  0
  -29.4982  -12.5030   18.2162 C   0  0  0  0  0  0
  -28.0141  -12.3791   18.6120 C   0  0  0  0  0  0
  -27.6583  -13.2194   19.8715 C   0  0  2  0  0  0
  -28.6924  -13.0134   21.0016 C   0  0  0  0  0  0
  -25.2569  -13.8191   20.5682 C   0  0  0  0  0  0
  -24.1831  -13.0447   20.9166 C   0  0  0  0  0  0
  -24.6410  -11.6920   20.8722 C   0  0  0  0  0  0
  -23.9084  -10.4297   21.0386 C   0  0  0  0  0  0
  -24.3631   -9.4216   21.9166 C   0  0  0  0  0  0
  -23.6310   -8.2247   22.0749 C   0  0  0  0  0  0
  -22.4286   -8.0283   21.3551 C   0  0  0  0  0  0
  -21.9924   -9.0249   20.4639 C   0  0  0  0  0  0
  -22.7256  -10.2128   20.3036 C   0  0  0  0  0  0
  -21.6856   -6.0751   22.5292 C   0  0  0  0  0  0
  -21.4019   -6.5650   23.8229 C   0  0  0  0  0  0
  -21.3657   -5.6797   24.9179 C   0  0  0  0  0  0
  -21.6035   -4.3057   24.7219 C   0  0  0  0  0  0
  -21.8818   -3.8157   23.4346 C   0  0  0  0  0  0
  -21.9193   -4.6983   22.3413 C   0  0  0  0  0  0
  -22.7845  -13.5229   21.1818 C   0  0  0  0  0  0
  -22.1654   -4.2168   21.0987 F   0  0  0  0  0  0
  -21.5629   -3.4541   25.7733 F   0  0  0  0  0  0
  -30.0315  -13.2754   20.4575 N   0  0  0  0  0  0
  -26.3008  -12.9391   20.3323 N   0  0  0  0  0  0
  -25.9336  -11.6535   20.5731 N   0  0  0  0  0  0
  -22.0481  -12.8233   22.0381 N   0  0  0  0  0  0
  -25.4306  -15.1907   20.4121 N   0  0  0  0  0  0
  -31.8937  -14.4913   20.0649 O   0  0  0  0  0  0
  -21.6643   -6.8889   21.4249 O   0  0  0  0  0  0
  -22.3535  -14.5534   20.6664 O   0  0  0  0  0  0
  -24.6128  -31.8683   23.2151 C   0  0  0  0  0  0
  -25.9047  -32.4813   23.8422 C   0  0  1  0  0  0
  -27.2194  -27.4497   20.1095 C   0  0  0  0  0  0
  -25.5924  -33.8612   24.2360 N   0  0  0  0  0  0
  -23.3974  -30.4980   21.5520 C   0  0  2  0  0  0
  -24.8436  -28.9763   20.1067 C   0  0  0  0  0  0
  -22.7396  -29.4659   22.4968 C   0  0  0  0  0  0
  -18.0268  -28.1389   22.8485 C   0  0  0  0  0  0
  -24.1495  -36.7331   23.2630 C   0  0  0  0  0  0
  -25.9242  -30.8481   21.3597 C   0  0  0  0  0  0
  -26.0037  -29.4856   20.7048 C   0  0  0  0  0  0
  -27.1983  -28.7319   20.6995 C   0  0  0  0  0  0
  -26.0477  -26.9642   19.4813 C   0  0  0  0  0  0
  -24.8613  -27.7160   19.4879 C   0  0  0  0  0  0
  -23.6037  -29.8383   20.1622 C   0  0  0  0  0  0
  -25.4109  -36.3105   24.0332 C   0  0  1  0  0  0
  -20.5860  -28.3658   23.1326 C   0  0  2  0  0  0
  -20.6756  -26.9387   22.5426 C   0  0  0  0  0  0
  -19.5736  -26.6370   21.5221 C   0  0  0  0  0  0
  -18.1908  -26.7938   22.1614 C   0  0  0  0  0  0
  -19.1519  -28.8841   23.2904 C   0  0  0  0  0  0
  -18.9447  -30.1458   23.8894 C   0  0  0  0  0  0
  -17.6449  -30.6587   24.0560 C   0  0  0  0  0  0
  -25.9025  -34.9462   23.5131 C   0  0  0  0  0  0
  -16.5340  -29.9092   23.6321 C   0  0  0  0  0  0
  -16.7259  -28.6523   23.0323 C   0  0  0  0  0  0
  -26.4497  -31.6580   25.0732 C   0  0  0  0  0  0
  -25.3808  -31.3672   26.1518 C   0  0  0  0  0  0
  -27.0320  -30.3032   24.6066 C   0  0  0  0  0  0
  -27.6082  -32.4275   25.7507 C   0  0  0  0  0  0
  -27.5583  -37.1828   24.8451 C   0  0  0  0  0  0
  -21.4122  -29.3051   22.3750 N   0  0  0  0  0  0
  -26.4294  -37.3795   23.9394 N   0  0  0  0  0  0
  -24.6635  -31.0836   22.1019 N   0  0  0  0  0  0
  -23.4200  -28.8151   23.2941 O   0  0  0  0  0  0
  -28.3607  -26.6824   20.1895 O   0  0  0  0  0  0
  -26.5548  -34.8903   22.4668 O   0  0  0  0  0  0
  -23.5336  -32.1405   23.7588 O   0  0  0  0  0  0
  -29.3984  -18.5245   22.1443 C   0  0  0  0  0  0
  -29.2567  -19.8753   22.5304 C   0  0  0  0  0  0
  -31.0233  -19.2020   20.4716 C   0  0  0  0  0  0
  -30.2953  -18.1785   21.1131 C   0  0  0  0  0  0
  -30.0124  -20.8946   21.9002 C   0  0  0  0  0  0
  -30.9010  -20.5500   20.8525 C   0  0  0  0  0  0
  -30.5912  -16.8009   20.6880 C   0  0  0  0  0  0
  -30.1521  -15.6073   21.1552 C   0  0  0  0  0  0
  -33.1706  -21.6834   20.7008 C   0  0  0  0  0  0
  -29.8518  -22.3433   22.3434 C   0  0  0  0  0  0
  -31.7551  -21.5791   20.1189 C   0  0  0  0  0  0
  -28.8728  -23.1086   21.4362 C   0  0  0  0  0  0
  -29.1702  -24.6143   21.2904 C   0  0  0  0  0  0
  -28.1187  -25.2836   20.3947 C   0  0  0  0  0  0
  -31.4468  -12.2837   19.1693 H   0  0  0  0  0  0
  -30.2224  -11.2614   19.8470 H   0  0  0  0  0  0
  -29.7413  -11.7862   17.4295 H   0  0  0  0  0  0
  -29.6924  -13.4929   17.8002 H   0  0  0  0  0  0
  -27.8137  -11.3253   18.7997 H   0  0  0  0  0  0
  -27.3755  -12.6633   17.7750 H   0  0  0  0  0  0
  -27.6996  -14.2668   19.5746 H   0  0  0  0  0  0
  -28.6472  -11.9855   21.3653 H   0  0  0  0  0  0
  -28.4572  -13.6351   21.8640 H   0  0  0  0  0  0
  -25.2774   -9.5704   22.4740 H   0  0  0  0  0  0
  -24.0024   -7.4651   22.7471 H   0  0  0  0  0  0
  -21.0857   -8.8753   19.8952 H   0  0  0  0  0  0
  -22.3701  -10.9655   19.6140 H   0  0  0  0  0  0
  -21.2011   -7.6160   23.9748 H   0  0  0  0  0  0
  -21.1476   -6.0516   25.9087 H   0  0  0  0  0  0
  -22.0603   -2.7624   23.2838 H   0  0  0  0  0  0
  -22.4063  -11.9892   22.4796 H   0  0  0  0  0  0
  -21.1101  -13.1273   22.2551 H   0  0  0  0  0  0
  -24.6741  -15.8557   20.5294 H   0  0  0  0  0  0
  -26.2988  -15.6266   20.1260 H   0  0  0  0  0  0
  -26.7116  -32.5546   23.1192 H   0  0  0  0  0  0
  -25.0192  -33.9770   25.0585 H   0  0  0  0  0  0
  -22.6862  -31.3161   21.4191 H   0  0  0  0  0  0
  -23.3736  -35.9685   23.3280 H   0  0  0  0  0  0
  -24.3600  -36.8957   22.2046 H   0  0  0  0  0  0
  -23.7269  -37.6543   23.6653 H   0  0  0  0  0  0
  -26.0268  -31.6189   20.5944 H   0  0  0  0  0  0
  -26.8163  -30.9046   21.9715 H   0  0  0  0  0  0
  -28.0907  -29.1132   21.1777 H   0  0  0  0  0  0
  -26.0331  -25.9972   18.9978 H   0  0  0  0  0  0
  -23.9732  -27.3219   19.0146 H   0  0  0  0  0  0
  -23.7067  -30.6175   19.4057 H   0  0  0  0  0  0
  -22.7284  -29.2590   19.8628 H   0  0  0  0  0  0
  -25.1288  -36.1969   25.0829 H   0  0  0  0  0  0
  -20.9955  -28.3209   24.1442 H   0  0  0  0  0  0
  -20.5654  -26.2245   23.3603 H   0  0  0  0  0  0
  -21.6622  -26.7429   22.1201 H   0  0  0  0  0  0
  -19.6863  -25.6274   21.1254 H   0  0  0  0  0  0
  -19.6692  -27.3173   20.6749 H   0  0  0  0  0  0
  -17.4181  -26.6712   21.4008 H   0  0  0  0  0  0
  -18.0279  -26.0091   22.9012 H   0  0  0  0  0  0
  -19.7931  -30.7290   24.2228 H   0  0  0  0  0  0
  -17.5007  -31.6268   24.5169 H   0  0  0  0  0  0
  -15.5341  -30.2993   23.7660 H   0  0  0  0  0  0
  -15.8660  -28.0866   22.6994 H   0  0  0  0  0  0
  -24.5945  -30.7041   25.7890 H   0  0  0  0  0  0
  -24.9059  -32.2832   26.5051 H   0  0  0  0  0  0
  -25.8224  -30.8794   27.0223 H   0  0  0  0  0  0
  -26.2837  -29.6775   24.1184 H   0  0  0  0  0  0
  -27.4181  -29.7280   25.4496 H   0  0  0  0  0  0
  -27.8639  -30.4360   23.9141 H   0  0  0  0  0  0
  -27.2718  -33.3577   26.2103 H   0  0  0  0  0  0
  -28.3931  -32.6811   25.0365 H   0  0  0  0  0  0
  -28.0705  -31.8363   26.5429 H   0  0  0  0  0  0
  -28.2583  -38.0140   24.7501 H   0  0  0  0  0  0
  -28.1100  -36.2672   24.6279 H   0  0  0  0  0  0
  -27.2292  -37.1459   25.8850 H   0  0  0  0  0  0
  -20.9227  -29.8904   21.7125 H   0  0  0  0  0  0
  -26.0173  -38.2862   24.1422 H   0  0  0  0  0  0
  -28.8282  -17.7595   22.6531 H   0  0  0  0  0  0
  -28.5698  -20.1243   23.3279 H   0  0  0  0  0  0
  -31.7202  -18.9509   19.6840 H   0  0  0  0  0  0
  -31.2985  -16.7792   19.8690 H   0  0  0  0  0  0
  -29.4219  -15.5475   21.9466 H   0  0  0  0  0  0
  -33.7671  -22.4072   20.1447 H   0  0  0  0  0  0
  -33.6866  -20.7244   20.6503 H   0  0  0  0  0  0
  -33.1520  -21.9975   21.7448 H   0  0  0  0  0  0
  -30.8312  -22.8223   22.3501 H   0  0  0  0  0  0
  -29.5112  -22.3801   23.3786 H   0  0  0  0  0  0
  -31.2828  -22.5605   20.1127 H   0  0  0  0  0  0
  -31.8196  -21.2943   19.0686 H   0  0  0  0  0  0
  -27.8546  -22.9448   21.7932 H   0  0  0  0  0  0
  -28.9027  -22.6772   20.4350 H   0  0  0  0  0  0
  -30.1626  -24.7572   20.8617 H   0  0  0  0  0  0
  -29.1783  -25.0905   22.2715 H   0  0  0  0  0  0
  -27.1558  -25.1184   20.8850 H   0  0  0  0  0  0
  -28.0741  -24.7852   19.4271 H   0  0  0  0  0  0
  1 25  1  0  0  0
  1 30  2  0  0  0
  1 78  1  0  0  0
  2  3  1  0  0  0
  2 25  1  0  0  0
  2 85  1  0  0  0
  2 86  1  0  0  0
  3  4  1  0  0  0
  3 87  1  0  0  0
  3 88  1  0  0  0
  4  5  1  0  0  0
  4 89  1  0  0  0
  4 90  1  0  0  0
  5  6  1  0  0  0
  5 26  1  0  0  0
  5 91  1  0  0  0
  6 25  1  0  0  0
  6 92  1  0  0  0
  6 93  1  0  0  0
  7  8  2  0  0  0
  7 26  1  0  0  0
  7 29  1  0  0  0
  8  9  1  0  0  0
  8 22  1  0  0  0
  9 10  1  0  0  0
  9 27  2  0  0  0
 10 11  2  0  0  0
 10 15  1  0  0  0
 11 12  1  0  0  0
 11 94  1  0  0  0
 12 13  2  0  0  0
 12 95  1  0  0  0
 13 14  1  0  0  0
 13 31  1  0  0  0
 14 15  2  0  0  0
 14 96  1  0  0  0
 15 97  1  0  0  0
 16 17  2  0  0  0
 16 21  1  0  0  0
 16 31  1  0  0  0
 17 18  1  0  0  0
 17 98  1  0  0  0
 18 19  2  0  0  0
 18 99  1  0  0  0
 19 20  1  0  0  0
 19 24  1  0  0  0
 20 21  2  0  0  0
 20100  1  0  0  0
 21 23  1  0  0  0
 22 28  1  0  0  0
 22 32  2  0  0  0
 26 27  1  0  0  0
 28101  1  0  0  0
 28102  1  0  0  0
 29103  1  0  0  0
 29104  1  0  0  0
 33 34  1  0  0  0
 33 66  1  0  0  0
 33 70  2  0  0  0
 34 36  1  0  0  0
 34 59  1  0  0  0
 34105  1  0  0  0
 35 44  2  0  0  0
 35 45  1  0  0  0
 35 68  1  0  0  0
 36 56  1  0  0  0
 36106  1  0  0  0
 37 39  1  0  0  0
 37 47  1  0  0  0
 37 66  1  0  0  0
 37107  1  0  0  0
 38 43  2  0  0  0
 38 46  1  0  0  0
 38 47  1  0  0  0
 39 64  1  0  0  0
 39 67  2  0  0  0
 40 52  1  0  0  0
 40 53  2  0  0  0
 40 58  1  0  0  0
 41108  1  0  0  0
 41109  1  0  0  0
 41110  1  0  0  0
 41 48  1  0  0  0
 42 43  1  0  0  0
 42 66  1  0  0  0
 42111  1  0  0  0
 42112  1  0  0  0
 43 44  1  0  0  0
 44113  1  0  0  0
 45 46  2  0  0  0
 45114  1  0  0  0
 46115  1  0  0  0
 47116  1  0  0  0
 47117  1  0  0  0
 48 56  1  0  0  0
 48 65  1  0  0  0
 48118  1  0  0  0
 49 50  1  0  0  0
 49 53  1  0  0  0
 49 64  1  0  0  0
 49119  1  0  0  0
 50 51  1  0  0  0
 50120  1  0  0  0
 50121  1  0  0  0
 51 52  1  0  0  0
 51122  1  0  0  0
 51123  1  0  0  0
 52124  1  0  0  0
 52125  1  0  0  0
 53 54  1  0  0  0
 54 55  2  0  0  0
 54126  1  0  0  0
 55 57  1  0  0  0
 55127  1  0  0  0
 56 69  2  0  0  0
 57 58  2  0  0  0
 57128  1  0  0  0
 58129  1  0  0  0
 59 60  1  0  0  0
 59 61  1  0  0  0
 59 62  1  0  0  0
 60130  1  0  0  0
 60131  1  0  0  0
 60132  1  0  0  0
 61133  1  0  0  0
 61134  1  0  0  0
 61135  1  0  0  0
 62136  1  0  0  0
 62137  1  0  0  0
 62138  1  0  0  0
 63 65  1  0  0  0
 63139  1  0  0  0
 63140  1  0  0  0
 63141  1  0  0  0
 64142  1  0  0  0
 65143  1  0  0  0
 68 84  1  0  0  0
 71 72  2  0  0  0
 71 74  1  0  0  0
 71144  1  0  0  0
 72 75  1  0  0  0
 72145  1  0  0  0
 73 74  2  0  0  0
 73 76  1  0  0  0
 73146  1  0  0  0
 74 77  1  0  0  0
 75 76  2  0  0  0
 75 80  1  0  0  0
 76 81  1  0  0  0
 77 78  2  0  0  0
 77147  1  0  0  0
 78148  1  0  0  0
 79 81  1  0  0  0
 79149  1  0  0  0
 79150  1  0  0  0
 79151  1  0  0  0
 80 82  1  0  0  0
 80152  1  0  0  0
 80153  1  0  0  0
 81154  1  0  0  0
 81155  1  0  0  0
 82 83  1  0  0  0
 82156  1  0  0  0
 82157  1  0  0  0
 83 84  1  0  0  0
 83158  1  0  0  0
 83159  1  0  0  0
 84160  1  0  0  0
 84161  1  0  0  0
M  ISO  4   1 100  68 101  78 100  84 101
M  END
> <chiral flag>
0

> <version>
0

> <s_m_source_file>
/data/baiqing/PycharmProjects/Reinvent-master-3.2/result/LINK_invent/BTK/process_docking_weight1_custom_product_contain_oxygen_bond_distance_aromatic_linkinvent_7_9_3/rearranged_h_0132.sdf

> <i_m_source_file_index>
62

> <r_mmod_Potential_Energy-OPLS-2005>
-14.8150329589844

> <r_mmod_Stretch_Energy-OPLS-2005>
34.5725135803223

> <r_mmod_Bend_Energy-OPLS-2005>
105.347259521484

> <r_mmod_Torsional_Energy-OPLS-2005>
190.213989257812

> <r_mmod_Improper_Torsional_Energy-OPLS-2005>
3.05623650550842

> <r_mmod_Van_der_Waal_Energy-OPLS-2005>
167.387115478516

> <r_mmod_Electrostatic_Energy-OPLS-2005>
-347.4501953125

> <r_mmod_Solvation_Energy-OPLS-2005>
-185.630081176758

> <b_mmod_Minimization_Converged-OPLS-2005>
0

> <r_mmod_RMS_Derivative-OPLS-2005>
2.44661474227905

$$$$
62
                    3D
 Structure written by MMmdl.
151159  0  0  1  0            999 V2000
  -30.6604  -14.4927   20.4770 C   0  0  0  0  0  0
  -30.3979  -12.2897   19.4294 C   0  0  0  0  0  0
  -29.4961  -12.5304   18.1993 C   0  0  0  0  0  0
  -28.0011  -12.4370   18.5800 C   0  0  0  0  0  0
  -27.6488  -13.2300   19.8699 C   0  0  2  0  0  0
  -28.6922  -13.0012   20.9867 C   0  0  0  0  0  0
  -25.2456  -13.8137   20.5737 C   0  0  0  0  0  0
  -24.1729  -13.0409   20.9164 C   0  0  0  0  0  0
  -24.6324  -11.6907   20.8661 C   0  0  0  0  0  0
  -23.9023  -10.4277   21.0337 C   0  0  0  0  0  0
  -24.3605   -9.4223   21.9136 C   0  0  0  0  0  0
  -23.6285   -8.2241   22.0713 C   0  0  0  0  0  0
  -22.4230   -8.0271   21.3558 C   0  0  0  0  0  0
  -21.9854   -9.0245   20.4691 C   0  0  0  0  0  0
  -22.7164  -10.2129   20.3045 C   0  0  0  0  0  0
  -21.6859   -6.0733   22.5259 C   0  0  0  0  0  0
  -21.4046   -6.5635   23.8203 C   0  0  0  0  0  0
  -21.3687   -5.6800   24.9161 C   0  0  0  0  0  0
  -21.6011   -4.3051   24.7206 C   0  0  0  0  0  0
  -21.8828   -3.8149   23.4339 C   0  0  0  0  0  0
  -21.9186   -4.6979   22.3411 C   0  0  0  0  0  0
  -22.7767  -13.5221   21.1841 C   0  0  0  0  0  0
  -22.1660   -4.2178   21.0973 F   0  0  0  0  0  0
  -21.5611   -3.4531   25.7730 F   0  0  0  0  0  0
  -30.0246  -13.2851   20.4424 N   0  0  0  0  0  0
  -26.2922  -12.9404   20.3323 N   0  0  0  0  0  0
  -25.9248  -11.6541   20.5620 N   0  0  0  0  0  0
  -22.0430  -12.8281   22.0472 N   0  0  0  0  0  0
  -25.4157  -15.1845   20.4310 N   0  0  0  0  0  0
  -31.8434  -14.6234   20.1482 O   0  0  0  0  0  0
  -21.6621   -6.8863   21.4216 O   0  0  0  0  0  0
  -22.3484  -14.5486   20.6669 O   0  0  0  0  0  0
  -24.6228  -31.8656   23.2060 C   0  0  0  0  0  0
  -25.9112  -32.4793   23.8369 C   0  0  1  0  0  0
  -27.2073  -27.3772   20.0741 C   0  0  0  0  0  0
  -25.5940  -33.8593   24.2285 N   0  0  0  0  0  0
  -23.4088  -30.4946   21.5500 C   0  0  2  0  0  0
  -24.8456  -28.9571   20.1157 C   0  0  0  0  0  0
  -22.7444  -29.4667   22.4953 C   0  0  0  0  0  0
  -18.0303  -28.1392   22.8475 C   0  0  0  0  0  0
  -24.1475  -36.7273   23.2636 C   0  0  0  0  0  0
  -25.9481  -30.8058   21.3757 C   0  0  0  0  0  0
  -26.0158  -29.4412   20.7135 C   0  0  0  0  0  0
  -27.2030  -28.6604   20.6889 C   0  0  0  0  0  0
  -26.0212  -26.9448   19.4407 C   0  0  0  0  0  0
  -24.8430  -27.7067   19.4812 C   0  0  0  0  0  0
  -23.6152  -29.8351   20.1653 C   0  0  0  0  0  0
  -25.4105  -36.3067   24.0317 C   0  0  1  0  0  0
  -20.5895  -28.3684   23.1298 C   0  0  2  0  0  0
  -20.6774  -26.9406   22.5455 C   0  0  0  0  0  0
  -19.5759  -26.6353   21.5239 C   0  0  0  0  0  0
  -18.1926  -26.7928   22.1618 C   0  0  0  0  0  0
  -19.1549  -28.8852   23.2873 C   0  0  0  0  0  0
  -18.9472  -30.1453   23.8884 C   0  0  0  0  0  0
  -17.6470  -30.6599   24.0552 C   0  0  0  0  0  0
  -25.9050  -34.9456   23.5083 C   0  0  0  0  0  0
  -16.5364  -29.9092   23.6344 C   0  0  0  0  0  0
  -16.7273  -28.6525   23.0340 C   0  0  0  0  0  0
  -26.4488  -31.6623   25.0723 C   0  0  0  0  0  0
  -25.3741  -31.3836   26.1488 C   0  0  0  0  0  0
  -27.0304  -30.3020   24.6230 C   0  0  0  0  0  0
  -27.6057  -32.4344   25.7490 C   0  0  0  0  0  0
  -27.5571  -37.1780   24.8451 C   0  0  0  0  0  0
  -21.4175  -29.3040   22.3693 N   0  0  0  0  0  0
  -26.4274  -37.3771   23.9408 N   0  0  0  0  0  0
  -24.6771  -31.0739   22.0980 N   0  0  0  0  0  0
  -23.4215  -28.8228   23.3024 O   0  0  0  0  0  0
  -28.3294  -26.5556   20.0764 O   0  0  0  0  0  0
  -26.5634  -34.8921   22.4663 O   0  0  0  0  0  0
  -23.5406  -32.1444   23.7450 O   0  0  0  0  0  0
  -27.7531  -18.1409   20.0228 C   0  0  0  0  0  0
  -27.5792  -19.5576   19.9099 C   0  0  0  0  0  0
  -29.0844  -17.8979   19.7824 C   0  0  0  0  0  0
  -28.8198  -20.1065   19.6716 C   0  0  0  0  0  0
  -29.8944  -16.7177   19.8397 C   0  0  0  0  0  0
  -29.7753  -15.6427   20.6576 C   0  0  0  0  0  0
  -28.9827  -24.1442   19.5663 C   0  0  0  0  0  0
  -29.4109  -21.5179   19.6385 C   0  0  0  0  0  0
  -28.4443  -22.7048   19.3060 C   0  0  0  0  0  0
  -28.0654  -25.1365   20.3365 C   0  0  0  0  0  0
  -30.0914  -24.4923   19.1470 O   0  0  0  0  0  0
  -29.7297  -19.0882   19.5558 O   0  0  0  0  0  0
  -31.4536  -12.3428   19.1628 H   0  0  0  0  0  0
  -30.2366  -11.2845   19.8161 H   0  0  0  0  0  0
  -29.7325  -11.8224   17.4065 H   0  0  0  0  0  0
  -29.7054  -13.5183   17.7826 H   0  0  0  0  0  0
  -27.7349  -11.3862   18.7004 H   0  0  0  0  0  0
  -27.3933  -12.8145   17.7555 H   0  0  0  0  0  0
  -27.6878  -14.2845   19.5952 H   0  0  0  0  0  0
  -28.6526  -11.9702   21.3448 H   0  0  0  0  0  0
  -28.4776  -13.6161   21.8597 H   0  0  0  0  0  0
  -25.2791   -9.5726   22.4673 H   0  0  0  0  0  0
  -24.0084   -7.4605   22.7381 H   0  0  0  0  0  0
  -21.0788   -8.8728   19.8999 H   0  0  0  0  0  0
  -22.3581  -10.9660   19.6152 H   0  0  0  0  0  0
  -21.2072   -7.6160   23.9732 H   0  0  0  0  0  0
  -21.1486   -6.0518   25.9084 H   0  0  0  0  0  0
  -22.0582   -2.7622   23.2793 H   0  0  0  0  0  0
  -22.4103  -12.0068   22.5035 H   0  0  0  0  0  0
  -21.1041  -13.1287   22.2636 H   0  0  0  0  0  0
  -24.6526  -15.8438   20.5473 H   0  0  0  0  0  0
  -26.2964  -15.6258   20.2022 H   0  0  0  0  0  0
  -26.7188  -32.5445   23.1111 H   0  0  0  0  0  0
  -25.0063  -33.9736   25.0408 H   0  0  0  0  0  0
  -22.6999  -31.3122   21.4144 H   0  0  0  0  0  0
  -23.3744  -35.9599   23.3308 H   0  0  0  0  0  0
  -24.3570  -36.8901   22.2052 H   0  0  0  0  0  0
  -23.7229  -37.6469   23.6673 H   0  0  0  0  0  0
  -26.0958  -31.5747   20.6167 H   0  0  0  0  0  0
  -26.8256  -30.8362   22.0096 H   0  0  0  0  0  0
  -28.1039  -29.0251   21.1632 H   0  0  0  0  0  0
  -25.9837  -26.0149   18.8939 H   0  0  0  0  0  0
  -23.9447  -27.3332   19.0084 H   0  0  0  0  0  0
  -23.7368  -30.6103   19.4079 H   0  0  0  0  0  0
  -22.7341  -29.2652   19.8628 H   0  0  0  0  0  0
  -25.1282  -36.1897   25.0808 H   0  0  0  0  0  0
  -20.9983  -28.3285   24.1403 H   0  0  0  0  0  0
  -20.5652  -26.2300   23.3656 H   0  0  0  0  0  0
  -21.6649  -26.7399   22.1268 H   0  0  0  0  0  0
  -19.6909  -25.6247   21.1288 H   0  0  0  0  0  0
  -19.6729  -27.3138   20.6748 H   0  0  0  0  0  0
  -17.4208  -26.6684   21.4007 H   0  0  0  0  0  0
  -18.0310  -26.0095   22.9030 H   0  0  0  0  0  0
  -19.7951  -30.7269   24.2249 H   0  0  0  0  0  0
  -17.5036  -31.6272   24.5140 H   0  0  0  0  0  0
  -15.5371  -30.2972   23.7672 H   0  0  0  0  0  0
  -15.8669  -28.0812   22.7055 H   0  0  0  0  0  0
  -24.5804  -30.7302   25.7842 H   0  0  0  0  0  0
  -24.9061  -32.3064   26.4942 H   0  0  0  0  0  0
  -25.8038  -30.8964   27.0247 H   0  0  0  0  0  0
  -26.2887  -29.6818   24.1176 H   0  0  0  0  0  0
  -27.3893  -29.7241   25.4757 H   0  0  0  0  0  0
  -27.8815  -30.4278   23.9524 H   0  0  0  0  0  0
  -27.2668  -33.3641   26.2092 H   0  0  0  0  0  0
  -28.3845  -32.6951   25.0298 H   0  0  0  0  0  0
  -28.0766  -31.8474   26.5385 H   0  0  0  0  0  0
  -28.2585  -38.0076   24.7482 H   0  0  0  0  0  0
  -28.1056  -36.2602   24.6259 H   0  0  0  0  0  0
  -27.2306  -37.1435   25.8863 H   0  0  0  0  0  0
  -20.9343  -29.8779   21.6910 H   0  0  0  0  0  0
  -26.0136  -38.2830   24.1467 H   0  0  0  0  0  0
  -26.9958  -17.3969   20.2604 H   0  0  0  0  0  0
  -26.6458  -20.0873   20.0486 H   0  0  0  0  0  0
  -30.6737  -16.6891   19.0866 H   0  0  0  0  0  0
  -29.0150  -15.6550   21.4242 H   0  0  0  0  0  0
  -30.2568  -21.5220   18.9471 H   0  0  0  0  0  0
  -29.8465  -21.7050   20.6219 H   0  0  0  0  0  0
  -28.1547  -22.6621   18.2562 H   0  0  0  0  0  0
  -27.5290  -22.5902   19.8832 H   0  0  0  0  0  0
  -28.1710  -24.9670   21.4086 H   0  0  0  0  0  0
  -27.0480  -24.8340   20.1026 H   0  0  0  0  0  0
  1 25  1  0  0  0
  1 30  2  0  0  0
  1 76  1  0  0  0
  2  3  1  0  0  0
  2 25  1  0  0  0
  2 83  1  0  0  0
  2 84  1  0  0  0
  3  4  1  0  0  0
  3 85  1  0  0  0
  3 86  1  0  0  0
  4  5  1  0  0  0
  4 87  1  0  0  0
  4 88  1  0  0  0
  5  6  1  0  0  0
  5 26  1  0  0  0
  5 89  1  0  0  0
  6 25  1  0  0  0
  6 90  1  0  0  0
  6 91  1  0  0  0
  7  8  2  0  0  0
  7 26  1  0  0  0
  7 29  1  0  0  0
  8  9  1  0  0  0
  8 22  1  0  0  0
  9 10  1  0  0  0
  9 27  2  0  0  0
 10 11  2  0  0  0
 10 15  1  0  0  0
 11 12  1  0  0  0
 11 92  1  0  0  0
 12 13  2  0  0  0
 12 93  1  0  0  0
 13 14  1  0  0  0
 13 31  1  0  0  0
 14 15  2  0  0  0
 14 94  1  0  0  0
 15 95  1  0  0  0
 16 17  2  0  0  0
 16 21  1  0  0  0
 16 31  1  0  0  0
 17 18  1  0  0  0
 17 96  1  0  0  0
 18 19  2  0  0  0
 18 97  1  0  0  0
 19 20  1  0  0  0
 19 24  1  0  0  0
 20 21  2  0  0  0
 20 98  1  0  0  0
 21 23  1  0  0  0
 22 28  1  0  0  0
 22 32  2  0  0  0
 26 27  1  0  0  0
 28 99  1  0  0  0
 28100  1  0  0  0
 29101  1  0  0  0
 29102  1  0  0  0
 33 34  1  0  0  0
 33 66  1  0  0  0
 33 70  2  0  0  0
 34 36  1  0  0  0
 34 59  1  0  0  0
 34103  1  0  0  0
 35 44  2  0  0  0
 35 45  1  0  0  0
 35 68  1  0  0  0
 36 56  1  0  0  0
 36104  1  0  0  0
 37 39  1  0  0  0
 37 47  1  0  0  0
 37 66  1  0  0  0
 37105  1  0  0  0
 38 43  2  0  0  0
 38 46  1  0  0  0
 38 47  1  0  0  0
 39 64  1  0  0  0
 39 67  2  0  0  0
 40 52  1  0  0  0
 40 53  2  0  0  0
 40 58  1  0  0  0
 41106  1  0  0  0
 41107  1  0  0  0
 41108  1  0  0  0
 41 48  1  0  0  0
 42 43  1  0  0  0
 42 66  1  0  0  0
 42109  1  0  0  0
 42110  1  0  0  0
 43 44  1  0  0  0
 44111  1  0  0  0
 45 46  2  0  0  0
 45112  1  0  0  0
 46113  1  0  0  0
 47114  1  0  0  0
 47115  1  0  0  0
 48 56  1  0  0  0
 48 65  1  0  0  0
 48116  1  0  0  0
 49 50  1  0  0  0
 49 53  1  0  0  0
 49 64  1  0  0  0
 49117  1  0  0  0
 50 51  1  0  0  0
 50118  1  0  0  0
 50119  1  0  0  0
 51 52  1  0  0  0
 51120  1  0  0  0
 51121  1  0  0  0
 52122  1  0  0  0
 52123  1  0  0  0
 53 54  1  0  0  0
 54 55  2  0  0  0
 54124  1  0  0  0
 55 57  1  0  0  0
 55125  1  0  0  0
 56 69  2  0  0  0
 57 58  2  0  0  0
 57126  1  0  0  0
 58127  1  0  0  0
 59 60  1  0  0  0
 59 61  1  0  0  0
 59 62  1  0  0  0
 60128  1  0  0  0
 60129  1  0  0  0
 60130  1  0  0  0
 61131  1  0  0  0
 61132  1  0  0  0
 61133  1  0  0  0
 62134  1  0  0  0
 62135  1  0  0  0
 62136  1  0  0  0
 63 65  1  0  0  0
 63137  1  0  0  0
 63138  1  0  0  0
 63139  1  0  0  0
 64140  1  0  0  0
 65141  1  0  0  0
 68 80  1  0  0  0
 71 72  1  0  0  0
 71 73  2  0  0  0
 71142  1  0  0  0
 72 74  2  0  0  0
 72143  1  0  0  0
 73 75  1  0  0  0
 73 82  1  0  0  0
 74 78  1  0  0  0
 74 82  1  0  0  0
 75 76  2  0  0  0
 75144  1  0  0  0
 76145  1  0  0  0
 77 79  1  0  0  0
 77 80  1  0  0  0
 77 81  2  0  0  0
 78 79  1  0  0  0
 78146  1  0  0  0
 78147  1  0  0  0
 79148  1  0  0  0
 79149  1  0  0  0
 80150  1  0  0  0
 80151  1  0  0  0
M  ISO  4   1 100  68 101  76 100  80 101
M  END
> <chiral flag>
0

> <version>
0

> <s_m_source_file>
/data/baiqing/PycharmProjects/Reinvent-master-3.2/result/LINK_invent/BTK/process_docking_weight1_custom_product_contain_oxygen_bond_distance_aromatic_linkinvent_7_9_3/rearranged_h_0132.sdf

> <i_m_source_file_index>
63

> <r_mmod_Potential_Energy-OPLS-2005>
-37.4646034240723

> <r_mmod_Stretch_Energy-OPLS-2005>
45.2319107055664

> <r_mmod_Bend_Energy-OPLS-2005>
96.653923034668

> <r_mmod_Torsional_Energy-OPLS-2005>
224.829223632812

> <r_mmod_Improper_Torsional_Energy-OPLS-2005>
7.1965184211731

> <r_mmod_Van_der_Waal_Energy-OPLS-2005>
130.938461303711

> <r_mmod_Electrostatic_Energy-OPLS-2005>
-345.483703613281

> <r_mmod_Solvation_Energy-OPLS-2005>
-222.824676513672

> <b_mmod_Minimization_Converged-OPLS-2005>
0

> <r_mmod_RMS_Derivative-OPLS-2005>
8.69717597961426

$$$$
63
                    3D
 Structure written by MMmdl.
163171  0  0  1  0            999 V2000
  -30.6729  -14.4142   20.6416 C   0  0  0  0  0  0
  -30.4342  -12.2992   19.3886 C   0  0  0  0  0  0
  -29.4944  -12.5433   18.1905 C   0  0  0  0  0  0
  -28.0106  -12.4122   18.6020 C   0  0  0  0  0  0
  -27.6755  -13.1950   19.9009 C   0  0  2  0  0  0
  -28.7195  -12.8682   20.9922 C   0  0  0  0  0  0
  -25.2627  -13.8134   20.5706 C   0  0  0  0  0  0
  -24.1874  -13.0414   20.9160 C   0  0  0  0  0  0
  -24.6408  -11.6885   20.8719 C   0  0  0  0  0  0
  -23.9070  -10.4280   21.0427 C   0  0  0  0  0  0
  -24.3617   -9.4203   21.9207 C   0  0  0  0  0  0
  -23.6295   -8.2230   22.0755 C   0  0  0  0  0  0
  -22.4277   -8.0289   21.3524 C   0  0  0  0  0  0
  -21.9913   -9.0263   20.4648 C   0  0  0  0  0  0
  -22.7239  -10.2156   20.3071 C   0  0  0  0  0  0
  -21.6851   -6.0738   22.5270 C   0  0  0  0  0  0
  -21.4025   -6.5646   23.8220 C   0  0  0  0  0  0
  -21.3652   -5.6803   24.9173 C   0  0  0  0  0  0
  -21.6036   -4.3055   24.7227 C   0  0  0  0  0  0
  -21.8816   -3.8151   23.4348 C   0  0  0  0  0  0
  -21.9194   -4.6959   22.3412 C   0  0  0  0  0  0
  -22.7877  -13.5251   21.1804 C   0  0  0  0  0  0
  -22.1659   -4.2155   21.0975 F   0  0  0  0  0  0
  -21.5621   -3.4540   25.7735 F   0  0  0  0  0  0
  -30.0431  -13.2224   20.4592 N   0  0  0  0  0  0
  -26.3107  -12.9295   20.3512 N   0  0  0  0  0  0
  -25.9352  -11.6447   20.5808 N   0  0  0  0  0  0
  -22.0515  -12.8248   22.0374 N   0  0  0  0  0  0
  -25.4355  -15.1849   20.4168 N   0  0  0  0  0  0
  -31.7652  -14.6651   20.1184 O   0  0  0  0  0  0
  -21.6625   -6.8884   21.4249 O   0  0  0  0  0  0
  -22.3573  -14.5505   20.6644 O   0  0  0  0  0  0
  -24.6182  -31.8661   23.2106 C   0  0  0  0  0  0
  -25.9067  -32.4780   23.8388 C   0  0  1  0  0  0
  -27.2179  -27.4361   20.1028 C   0  0  0  0  0  0
  -25.5908  -33.8561   24.2321 N   0  0  0  0  0  0
  -23.4002  -30.4910   21.5627 C   0  0  2  0  0  0
  -24.8485  -28.9821   20.1001 C   0  0  0  0  0  0
  -22.7494  -29.4520   22.5082 C   0  0  0  0  0  0
  -18.0316  -28.1397   22.8467 C   0  0  0  0  0  0
  -24.1502  -36.7273   23.2624 C   0  0  0  0  0  0
  -25.9316  -30.8573   21.3502 C   0  0  0  0  0  0
  -26.0167  -29.5009   20.6703 C   0  0  0  0  0  0
  -27.2082  -28.7416   20.6463 C   0  0  0  0  0  0
  -26.0287  -26.9424   19.5273 C   0  0  0  0  0  0
  -24.8475  -27.7037   19.5239 C   0  0  0  0  0  0
  -23.6053  -29.8397   20.1700 C   0  0  0  0  0  0
  -25.4127  -36.3080   24.0330 C   0  0  1  0  0  0
  -20.5926  -28.3490   23.1435 C   0  0  2  0  0  0
  -20.6665  -26.9249   22.5543 C   0  0  0  0  0  0
  -19.5788  -26.6562   21.5112 C   0  0  0  0  0  0
  -18.1845  -26.8046   22.1277 C   0  0  0  0  0  0
  -19.1616  -28.8783   23.2969 C   0  0  0  0  0  0
  -18.9626  -30.1382   23.9017 C   0  0  0  0  0  0
  -17.6681  -30.6606   24.0679 C   0  0  0  0  0  0
  -25.9054  -34.9433   23.5110 C   0  0  0  0  0  0
  -16.5507  -29.9137   23.6468 C   0  0  0  0  0  0
  -16.7322  -28.6554   23.0466 C   0  0  0  0  0  0
  -26.4480  -31.6567   25.0735 C   0  0  0  0  0  0
  -25.3739  -31.3658   26.1474 C   0  0  0  0  0  0
  -27.0320  -30.2982   24.6178 C   0  0  0  0  0  0
  -27.6038  -32.4291   25.7524 C   0  0  0  0  0  0
  -27.5586  -37.1798   24.8460 C   0  0  0  0  0  0
  -21.4232  -29.2897   22.3866 N   0  0  0  0  0  0
  -26.4312  -37.3767   23.9392 N   0  0  0  0  0  0
  -24.6696  -31.0832   22.0972 N   0  0  0  0  0  0
  -23.4288  -28.8010   23.3033 O   0  0  0  0  0  0
  -28.3653  -26.6657   20.1738 O   0  0  0  0  0  0
  -26.5585  -34.8851   22.4662 O   0  0  0  0  0  0
  -23.5348  -32.1362   23.7515 O   0  0  0  0  0  0
  -27.9565  -19.4352   22.7030 C   0  0  0  0  0  0
  -28.8756  -18.4163   22.3876 C   0  0  0  0  0  0
  -27.7398  -18.0832   20.2540 C   0  0  0  0  0  0
  -26.9892  -19.8550   21.7614 C   0  0  0  0  0  0
  -28.8138  -17.7901   21.1249 C   0  0  0  0  0  0
  -26.8134  -19.1044   20.5669 C   0  0  0  0  0  0
  -26.3226  -21.1516   22.0277 C   0  0  0  0  0  0
  -25.7098  -19.4011   19.5639 C   0  0  0  0  0  0
  -29.9331  -16.8681   20.6701 C   0  0  0  0  0  0
  -27.2620  -22.3608   21.9175 C   0  0  0  0  0  0
  -29.9635  -15.5324   21.4329 C   0  0  0  0  0  0
  -26.5655  -23.7310   21.7869 C   0  0  0  0  0  0
  -27.4972  -24.9575   21.7806 C   0  0  0  0  0  0
  -28.1948  -25.2535   20.4240 C   0  0  0  0  0  0
  -25.0939  -21.2778   22.3049 N   0  0  0  0  0  0
  -31.4748  -12.4250   19.0878 H   0  0  0  0  0  0
  -30.3573  -11.2655   19.7313 H   0  0  0  0  0  0
  -29.7245  -11.8511   17.3797 H   0  0  0  0  0  0
  -29.6723  -13.5426   17.7932 H   0  0  0  0  0  0
  -27.7992  -11.3490   18.7444 H   0  0  0  0  0  0
  -27.3688  -12.7471   17.7909 H   0  0  0  0  0  0
  -27.7465  -14.2606   19.6719 H   0  0  0  0  0  0
  -28.6978  -11.7994   21.2150 H   0  0  0  0  0  0
  -28.4891  -13.3302   21.9492 H   0  0  0  0  0  0
  -25.2781   -9.5656   22.4769 H   0  0  0  0  0  0
  -23.9999   -7.4618   22.7473 H   0  0  0  0  0  0
  -21.0841   -8.8804   19.8956 H   0  0  0  0  0  0
  -22.3725  -10.9693   19.6169 H   0  0  0  0  0  0
  -21.2030   -7.6159   23.9723 H   0  0  0  0  0  0
  -21.1473   -6.0523   25.9073 H   0  0  0  0  0  0
  -22.0603   -2.7616   23.2842 H   0  0  0  0  0  0
  -22.4144  -11.9950   22.4807 H   0  0  0  0  0  0
  -21.1129  -13.1290   22.2558 H   0  0  0  0  0  0
  -24.6730  -15.8384   20.5549 H   0  0  0  0  0  0
  -26.3090  -15.6401   20.1862 H   0  0  0  0  0  0
  -26.7187  -32.5526   23.1177 H   0  0  0  0  0  0
  -25.0124  -33.9764   25.0500 H   0  0  0  0  0  0
  -22.6716  -31.2990   21.4357 H   0  0  0  0  0  0
  -23.3780  -35.9598   23.3326 H   0  0  0  0  0  0
  -24.3550  -36.8863   22.2033 H   0  0  0  0  0  0
  -23.7280  -37.6462   23.6640 H   0  0  0  0  0  0
  -26.0670  -31.6643   20.6307 H   0  0  0  0  0  0
  -26.8031  -30.8799   21.9905 H   0  0  0  0  0  0
  -28.1122  -29.1356   21.0815 H   0  0  0  0  0  0
  -25.9750  -25.9505   19.1103 H   0  0  0  0  0  0
  -23.9400  -27.2796   19.1106 H   0  0  0  0  0  0
  -23.6725  -30.6160   19.4040 H   0  0  0  0  0  0
  -22.7404  -29.2338   19.8926 H   0  0  0  0  0  0
  -25.1344  -36.1923   25.0836 H   0  0  0  0  0  0
  -20.9995  -28.2880   24.1558 H   0  0  0  0  0  0
  -20.5209  -26.2099   23.3648 H   0  0  0  0  0  0
  -21.6663  -26.7126   22.1615 H   0  0  0  0  0  0
  -19.6890  -25.6664   21.0680 H   0  0  0  0  0  0
  -19.6973  -27.3563   20.6858 H   0  0  0  0  0  0
  -17.4259  -26.7103   21.3502 H   0  0  0  0  0  0
  -17.9766  -26.0020   22.8388 H   0  0  0  0  0  0
  -19.8120  -30.7201   24.2351 H   0  0  0  0  0  0
  -17.5335  -31.6380   24.5167 H   0  0  0  0  0  0
  -15.5595  -30.3087   23.7974 H   0  0  0  0  0  0
  -15.8663  -28.0932   22.7250 H   0  0  0  0  0  0
  -24.5913  -30.7020   25.7778 H   0  0  0  0  0  0
  -24.8925  -32.2800   26.4950 H   0  0  0  0  0  0
  -25.8065  -30.8766   27.0221 H   0  0  0  0  0  0
  -26.2864  -29.6763   24.1184 H   0  0  0  0  0  0
  -27.3988  -29.7210   25.4704 H   0  0  0  0  0  0
  -27.8773  -30.4266   23.9397 H   0  0  0  0  0  0
  -27.2634  -33.3577   26.2107 H   0  0  0  0  0  0
  -28.3821  -32.6884   25.0344 H   0  0  0  0  0  0
  -28.0715  -31.8409   26.5428 H   0  0  0  0  0  0
  -28.2631  -38.0065   24.7506 H   0  0  0  0  0  0
  -28.1071  -36.2615   24.6346 H   0  0  0  0  0  0
  -27.2260  -37.1481   25.8836 H   0  0  0  0  0  0
  -20.9344  -29.8797   21.7255 H   0  0  0  0  0  0
  -26.0209  -38.2848   24.1329 H   0  0  0  0  0  0
  -28.0380  -19.9691   23.6404 H   0  0  0  0  0  0
  -29.6614  -18.1743   23.0915 H   0  0  0  0  0  0
  -27.6597  -17.5494   19.3123 H   0  0  0  0  0  0
  -25.8733  -18.8544   18.6310 H   0  0  0  0  0  0
  -25.6571  -20.4608   19.3210 H   0  0  0  0  0  0
  -24.7433  -19.0821   19.9491 H   0  0  0  0  0  0
  -30.8873  -17.3843   20.7940 H   0  0  0  0  0  0
  -29.8293  -16.6980   19.5996 H   0  0  0  0  0  0
  -27.8884  -22.2257   21.0372 H   0  0  0  0  0  0
  -27.9497  -22.3507   22.7660 H   0  0  0  0  0  0
  -28.9272  -15.3012   21.6265 H   0  0  0  0  0  0
  -30.4386  -15.6535   22.4066 H   0  0  0  0  0  0
  -25.8751  -23.8195   22.6302 H   0  0  0  0  0  0
  -25.9454  -23.7666   20.8883 H   0  0  0  0  0  0
  -28.2308  -24.8573   22.5891 H   0  0  0  0  0  0
  -26.8673  -25.8110   22.0114 H   0  0  0  0  0  0
  -29.1764  -24.7823   20.4046 H   0  0  0  0  0  0
  -27.6492  -24.7671   19.6202 H   0  0  0  0  0  0
  -24.6073  -20.3910   22.3032 H   0  0  0  0  0  0
  1 25  1  0  0  0
  1 30  2  0  0  0
  1 81  1  0  0  0
  2  3  1  0  0  0
  2 25  1  0  0  0
  2 86  1  0  0  0
  2 87  1  0  0  0
  3  4  1  0  0  0
  3 88  1  0  0  0
  3 89  1  0  0  0
  4  5  1  0  0  0
  4 90  1  0  0  0
  4 91  1  0  0  0
  5  6  1  0  0  0
  5 26  1  0  0  0
  5 92  1  0  0  0
  6 25  1  0  0  0
  6 93  1  0  0  0
  6 94  1  0  0  0
  7  8  2  0  0  0
  7 26  1  0  0  0
  7 29  1  0  0  0
  8  9  1  0  0  0
  8 22  1  0  0  0
  9 10  1  0  0  0
  9 27  2  0  0  0
 10 11  2  0  0  0
 10 15  1  0  0  0
 11 12  1  0  0  0
 11 95  1  0  0  0
 12 13  2  0  0  0
 12 96  1  0  0  0
 13 14  1  0  0  0
 13 31  1  0  0  0
 14 15  2  0  0  0
 14 97  1  0  0  0
 15 98  1  0  0  0
 16 17  2  0  0  0
 16 21  1  0  0  0
 16 31  1  0  0  0
 17 18  1  0  0  0
 17 99  1  0  0  0
 18 19  2  0  0  0
 18100  1  0  0  0
 19 20  1  0  0  0
 19 24  1  0  0  0
 20 21  2  0  0  0
 20101  1  0  0  0
 21 23  1  0  0  0
 22 28  1  0  0  0
 22 32  2  0  0  0
 26 27  1  0  0  0
 28102  1  0  0  0
 28103  1  0  0  0
 29104  1  0  0  0
 29105  1  0  0  0
 33 34  1  0  0  0
 33 66  1  0  0  0
 33 70  2  0  0  0
 34 36  1  0  0  0
 34 59  1  0  0  0
 34106  1  0  0  0
 35 44  2  0  0  0
 35 45  1  0  0  0
 35 68  1  0  0  0
 36 56  1  0  0  0
 36107  1  0  0  0
 37 39  1  0  0  0
 37 47  1  0  0  0
 37 66  1  0  0  0
 37108  1  0  0  0
 38 43  2  0  0  0
 38 46  1  0  0  0
 38 47  1  0  0  0
 39 64  1  0  0  0
 39 67  2  0  0  0
 40 52  1  0  0  0
 40 53  2  0  0  0
 40 58  1  0  0  0
 41109  1  0  0  0
 41110  1  0  0  0
 41111  1  0  0  0
 41 48  1  0  0  0
 42 43  1  0  0  0
 42 66  1  0  0  0
 42112  1  0  0  0
 42113  1  0  0  0
 43 44  1  0  0  0
 44114  1  0  0  0
 45 46  2  0  0  0
 45115  1  0  0  0
 46116  1  0  0  0
 47117  1  0  0  0
 47118  1  0  0  0
 48 56  1  0  0  0
 48 65  1  0  0  0
 48119  1  0  0  0
 49 50  1  0  0  0
 49 53  1  0  0  0
 49 64  1  0  0  0
 49120  1  0  0  0
 50 51  1  0  0  0
 50121  1  0  0  0
 50122  1  0  0  0
 51 52  1  0  0  0
 51123  1  0  0  0
 51124  1  0  0  0
 52125  1  0  0  0
 52126  1  0  0  0
 53 54  1  0  0  0
 54 55  2  0  0  0
 54127  1  0  0  0
 55 57  1  0  0  0
 55128  1  0  0  0
 56 69  2  0  0  0
 57 58  2  0  0  0
 57129  1  0  0  0
 58130  1  0  0  0
 59 60  1  0  0  0
 59 61  1  0  0  0
 59 62  1  0  0  0
 60131  1  0  0  0
 60132  1  0  0  0
 60133  1  0  0  0
 61134  1  0  0  0
 61135  1  0  0  0
 61136  1  0  0  0
 62137  1  0  0  0
 62138  1  0  0  0
 62139  1  0  0  0
 63 65  1  0  0  0
 63140  1  0  0  0
 63141  1  0  0  0
 63142  1  0  0  0
 64143  1  0  0  0
 65144  1  0  0  0
 68 84  1  0  0  0
 71 72  2  0  0  0
 71 74  1  0  0  0
 71145  1  0  0  0
 72 75  1  0  0  0
 72146  1  0  0  0
 73 75  2  0  0  0
 73 76  1  0  0  0
 73147  1  0  0  0
 74 76  2  0  0  0
 74 77  1  0  0  0
 75 79  1  0  0  0
 76 78  1  0  0  0
 77 80  1  0  0  0
 77 85  2  0  0  0
 78148  1  0  0  0
 78149  1  0  0  0
 78150  1  0  0  0
 79 81  1  0  0  0
 79151  1  0  0  0
 79152  1  0  0  0
 80 82  1  0  0  0
 80153  1  0  0  0
 80154  1  0  0  0
 81155  1  0  0  0
 81156  1  0  0  0
 82 83  1  0  0  0
 82157  1  0  0  0
 82158  1  0  0  0
 83 84  1  0  0  0
 83159  1  0  0  0
 83160  1  0  0  0
 84161  1  0  0  0
 84162  1  0  0  0
 85163  1  0  0  0
M  ISO  4   1 100  68 101  81 100  84 101
M  END
> <chiral flag>
0

> <version>
0

> <s_m_source_file>
/data/baiqing/PycharmProjects/Reinvent-master-3.2/result/LINK_invent/BTK/process_docking_weight1_custom_product_contain_oxygen_bond_distance_aromatic_linkinvent_7_9_3/rearranged_h_0132.sdf

> <i_m_source_file_index>
64

> <r_mmod_Potential_Energy-OPLS-2005>
5.75229215621948

> <r_mmod_Stretch_Energy-OPLS-2005>
38.0273628234863

> <r_mmod_Bend_Energy-OPLS-2005>
98.3488235473633

> <r_mmod_Torsional_Energy-OPLS-2005>
218.754699707031

> <r_mmod_Improper_Torsional_Energy-OPLS-2005>
3.48818588256836

> <r_mmod_Van_der_Waal_Energy-OPLS-2005>
155.715957641602

> <r_mmod_Electrostatic_Energy-OPLS-2005>
-334.229675292969

> <r_mmod_Solvation_Energy-OPLS-2005>
-189.360504150391

> <b_mmod_Minimization_Converged-OPLS-2005>
0

> <r_mmod_RMS_Derivative-OPLS-2005>
10.8596925735474

$$$$
64
                    3D
 Structure written by MMmdl.
157165  0  0  1  0            999 V2000
  -30.6743  -14.6206   20.5953 C   0  0  0  0  0  0
  -30.4348  -12.4079   19.4647 C   0  0  0  0  0  0
  -29.5106  -12.5393   18.2334 C   0  0  0  0  0  0
  -28.0323  -12.3669   18.6323 C   0  0  0  0  0  0
  -27.6562  -13.2184   19.8716 C   0  0  2  0  0  0
  -28.6917  -13.0371   21.0010 C   0  0  0  0  0  0
  -25.2509  -13.8136   20.5578 C   0  0  0  0  0  0
  -24.1812  -13.0413   20.9178 C   0  0  0  0  0  0
  -24.6396  -11.6891   20.8748 C   0  0  0  0  0  0
  -23.9064  -10.4278   21.0412 C   0  0  0  0  0  0
  -24.3616   -9.4195   21.9189 C   0  0  0  0  0  0
  -23.6289   -8.2233   22.0756 C   0  0  0  0  0  0
  -22.4272   -8.0276   21.3544 C   0  0  0  0  0  0
  -21.9906   -9.0248   20.4644 C   0  0  0  0  0  0
  -22.7236  -10.2125   20.3056 C   0  0  0  0  0  0
  -21.6848   -6.0729   22.5275 C   0  0  0  0  0  0
  -21.4011   -6.5632   23.8210 C   0  0  0  0  0  0
  -21.3663   -5.6788   24.9174 C   0  0  0  0  0  0
  -21.6043   -4.3052   24.7225 C   0  0  0  0  0  0
  -21.8823   -3.8140   23.4347 C   0  0  0  0  0  0
  -21.9193   -4.6956   22.3401 C   0  0  0  0  0  0
  -22.7837  -13.5211   21.1848 C   0  0  0  0  0  0
  -22.1662   -4.2139   21.0981 F   0  0  0  0  0  0
  -21.5632   -3.4538   25.7742 F   0  0  0  0  0  0
  -30.0185  -13.4107   20.4737 N   0  0  0  0  0  0
  -26.2982  -12.9349   20.3307 N   0  0  0  0  0  0
  -25.9329  -11.6499   20.5761 N   0  0  0  0  0  0
  -22.0492  -12.8208   22.0418 N   0  0  0  0  0  0
  -25.4095  -15.1828   20.3779 N   0  0  0  0  0  0
  -31.7486  -14.8137   20.0149 O   0  0  0  0  0  0
  -21.6635   -6.8872   21.4239 O   0  0  0  0  0  0
  -22.3517  -14.5517   20.6696 O   0  0  0  0  0  0
  -24.6266  -31.8601   23.2043 C   0  0  0  0  0  0
  -25.9113  -32.4778   23.8369 C   0  0  1  0  0  0
  -27.2219  -27.3183   20.1133 C   0  0  0  0  0  0
  -25.5921  -33.8577   24.2289 N   0  0  0  0  0  0
  -23.4201  -30.4857   21.5484 C   0  0  2  0  0  0
  -24.8654  -28.9440   20.1122 C   0  0  0  0  0  0
  -22.7471  -29.4630   22.4950 C   0  0  0  0  0  0
  -18.0282  -28.1385   22.8486 C   0  0  0  0  0  0
  -24.1484  -36.7298   23.2640 C   0  0  0  0  0  0
  -25.9621  -30.7911   21.3755 C   0  0  0  0  0  0
  -26.0365  -29.4194   20.7159 C   0  0  0  0  0  0
  -27.2185  -28.6187   20.7072 C   0  0  0  0  0  0
  -26.0253  -26.9016   19.4814 C   0  0  0  0  0  0
  -24.8621  -27.6900   19.4867 C   0  0  0  0  0  0
  -23.6330  -29.8229   20.1637 C   0  0  0  0  0  0
  -25.4109  -36.3085   24.0328 C   0  0  1  0  0  0
  -20.5881  -28.3690   23.1285 C   0  0  2  0  0  0
  -20.6774  -26.9415   22.5413 C   0  0  0  0  0  0
  -19.5750  -26.6387   21.5216 C   0  0  0  0  0  0
  -18.1928  -26.7930   22.1625 C   0  0  0  0  0  0
  -19.1533  -28.8857   23.2876 C   0  0  0  0  0  0
  -18.9454  -30.1461   23.8889 C   0  0  0  0  0  0
  -17.6455  -30.6592   24.0565 C   0  0  0  0  0  0
  -25.9042  -34.9450   23.5109 C   0  0  0  0  0  0
  -16.5343  -29.9086   23.6342 C   0  0  0  0  0  0
  -16.7269  -28.6507   23.0353 C   0  0  0  0  0  0
  -26.4496  -31.6585   25.0738 C   0  0  0  0  0  0
  -25.3726  -31.3714   26.1461 C   0  0  0  0  0  0
  -27.0354  -30.3011   24.6203 C   0  0  0  0  0  0
  -27.6059  -32.4325   25.7495 C   0  0  0  0  0  0
  -27.5579  -37.1793   24.8463 C   0  0  0  0  0  0
  -21.4183  -29.3045   22.3685 N   0  0  0  0  0  0
  -26.4288  -37.3780   23.9413 N   0  0  0  0  0  0
  -24.6890  -31.0613   22.0999 N   0  0  0  0  0  0
  -23.4194  -28.8158   23.3022 O   0  0  0  0  0  0
  -28.3297  -26.4543   20.1675 O   0  0  0  0  0  0
  -26.5614  -34.8917   22.4676 O   0  0  0  0  0  0
  -23.5430  -32.1400   23.7373 O   0  0  0  0  0  0
  -31.0803  -17.9432   20.5453 C   0  0  0  0  0  0
  -31.0498  -19.3475   20.2968 C   0  0  0  0  0  0
  -28.7677  -19.4431   21.0010 C   0  0  0  0  0  0
  -29.9647  -17.2272   21.0582 C   0  0  0  0  0  0
  -28.7874  -18.0341   21.2641 C   0  0  0  0  0  0
  -29.9037  -20.1487   20.5334 C   0  0  0  0  0  0
  -30.0832  -15.7507   21.5223 C   0  0  0  0  0  0
  -29.1910  -23.9794   20.3486 C   0  0  0  0  0  0
  -27.2187  -17.8009   23.2600 C   0  0  0  0  0  0
  -27.4835  -17.4424   21.7916 C   0  0  0  0  0  0
  -28.0377  -25.0040   20.0313 C   0  0  0  0  0  0
  -28.8381  -22.4405   20.4905 C   0  0  0  0  0  0
  -29.7439  -15.4784   22.7142 N   0  0  0  0  0  0
  -30.3563  -24.3718   20.4832 O   0  0  0  0  0  0
  -29.9820  -21.5405   20.3114 O   0  0  0  0  0  0
  -31.4767  -12.5275   19.1639 H   0  0  0  0  0  0
  -30.3707  -11.4027   19.8846 H   0  0  0  0  0  0
  -29.7822  -11.8034   17.4753 H   0  0  0  0  0  0
  -29.6534  -13.5190   17.7748 H   0  0  0  0  0  0
  -27.8654  -11.3103   18.8454 H   0  0  0  0  0  0
  -27.3821  -12.6143   17.7925 H   0  0  0  0  0  0
  -27.6875  -14.2627   19.5608 H   0  0  0  0  0  0
  -28.7071  -11.9984   21.3341 H   0  0  0  0  0  0
  -28.3827  -13.6021   21.8755 H   0  0  0  0  0  0
  -25.2761   -9.5670   22.4761 H   0  0  0  0  0  0
  -23.9994   -7.4625   22.7477 H   0  0  0  0  0  0
  -21.0836   -8.8767   19.8951 H   0  0  0  0  0  0
  -22.3697  -10.9664   19.6164 H   0  0  0  0  0  0
  -21.1999   -7.6141   23.9707 H   0  0  0  0  0  0
  -21.1484   -6.0520   25.9076 H   0  0  0  0  0  0
  -22.0600   -2.7600   23.2850 H   0  0  0  0  0  0
  -22.4115  -11.9875   22.4802 H   0  0  0  0  0  0
  -21.1110  -13.1230   22.2638 H   0  0  0  0  0  0
  -24.6270  -15.8233   20.4525 H   0  0  0  0  0  0
  -26.2369  -15.6089   19.9828 H   0  0  0  0  0  0
  -26.7175  -32.5448   23.1112 H   0  0  0  0  0  0
  -25.0051  -33.9719   25.0424 H   0  0  0  0  0  0
  -22.7141  -31.3067   21.4080 H   0  0  0  0  0  0
  -23.3751  -35.9622   23.3286 H   0  0  0  0  0  0
  -24.3575  -36.8947   22.2059 H   0  0  0  0  0  0
  -23.7227  -37.6487   23.6678 H   0  0  0  0  0  0
  -26.0925  -31.5542   20.6072 H   0  0  0  0  0  0
  -26.8423  -30.8397   22.0049 H   0  0  0  0  0  0
  -28.1154  -28.9781   21.1924 H   0  0  0  0  0  0
  -25.9507  -25.9485   18.9806 H   0  0  0  0  0  0
  -23.9653  -27.3212   19.0080 H   0  0  0  0  0  0
  -23.7483  -30.5996   19.4072 H   0  0  0  0  0  0
  -22.7532  -29.2504   19.8655 H   0  0  0  0  0  0
  -25.1288  -36.1934   25.0821 H   0  0  0  0  0  0
  -20.9962  -28.3266   24.1410 H   0  0  0  0  0  0
  -20.5691  -26.2291   23.3609 H   0  0  0  0  0  0
  -21.6638  -26.7460   22.1195 H   0  0  0  0  0  0
  -19.6910  -25.6301   21.1242 H   0  0  0  0  0  0
  -19.6684  -27.3196   20.6745 H   0  0  0  0  0  0
  -17.4199  -26.6674   21.4028 H   0  0  0  0  0  0
  -18.0320  -26.0076   22.9021 H   0  0  0  0  0  0
  -19.7930  -30.7280   24.2244 H   0  0  0  0  0  0
  -17.5013  -31.6273   24.5172 H   0  0  0  0  0  0
  -15.5340  -30.2984   23.7687 H   0  0  0  0  0  0
  -15.8664  -28.0835   22.7066 H   0  0  0  0  0  0
  -24.5898  -30.7073   25.7780 H   0  0  0  0  0  0
  -24.8914  -32.2874   26.4898 H   0  0  0  0  0  0
  -25.8045  -30.8875   27.0230 H   0  0  0  0  0  0
  -26.2940  -29.6727   24.1253 H   0  0  0  0  0  0
  -27.4087  -29.7300   25.4713 H   0  0  0  0  0  0
  -27.8788  -30.4311   23.9415 H   0  0  0  0  0  0
  -27.2700  -33.3659   26.2022 H   0  0  0  0  0  0
  -28.3881  -32.6824   25.0316 H   0  0  0  0  0  0
  -28.0703  -31.8476   26.5445 H   0  0  0  0  0  0
  -28.2580  -38.0107   24.7543 H   0  0  0  0  0  0
  -28.1096  -36.2642   24.6257 H   0  0  0  0  0  0
  -27.2299  -37.1405   25.8865 H   0  0  0  0  0  0
  -20.9355  -29.8766   21.6895 H   0  0  0  0  0  0
  -26.0171  -38.2851   24.1434 H   0  0  0  0  0  0
  -32.0114  -17.4192   20.3823 H   0  0  0  0  0  0
  -31.9493  -19.8254   19.9359 H   0  0  0  0  0  0
  -27.8544  -19.9882   21.1933 H   0  0  0  0  0  0
  -26.2825  -17.3569   23.5995 H   0  0  0  0  0  0
  -27.1401  -18.8796   23.4000 H   0  0  0  0  0  0
  -28.0119  -17.4376   23.9129 H   0  0  0  0  0  0
  -27.4565  -16.3619   21.6667 H   0  0  0  0  0  0
  -26.6635  -17.8190   21.1791 H   0  0  0  0  0  0
  -27.1905  -24.7478   20.6692 H   0  0  0  0  0  0
  -27.7348  -24.8051   19.0032 H   0  0  0  0  0  0
  -28.0626  -22.1877   19.7668 H   0  0  0  0  0  0
  -28.4144  -22.2849   21.4824 H   0  0  0  0  0  0
  -29.4078  -16.3101   23.1837 H   0  0  0  0  0  0
  1 25  1  0  0  0
  1 30  2  0  0  0
  1 77  1  0  0  0
  2  3  1  0  0  0
  2 25  1  0  0  0
  2 86  1  0  0  0
  2 87  1  0  0  0
  3  4  1  0  0  0
  3 88  1  0  0  0
  3 89  1  0  0  0
  4  5  1  0  0  0
  4 90  1  0  0  0
  4 91  1  0  0  0
  5  6  1  0  0  0
  5 26  1  0  0  0
  5 92  1  0  0  0
  6 25  1  0  0  0
  6 93  1  0  0  0
  6 94  1  0  0  0
  7  8  2  0  0  0
  7 26  1  0  0  0
  7 29  1  0  0  0
  8  9  1  0  0  0
  8 22  1  0  0  0
  9 10  1  0  0  0
  9 27  2  0  0  0
 10 11  2  0  0  0
 10 15  1  0  0  0
 11 12  1  0  0  0
 11 95  1  0  0  0
 12 13  2  0  0  0
 12 96  1  0  0  0
 13 14  1  0  0  0
 13 31  1  0  0  0
 14 15  2  0  0  0
 14 97  1  0  0  0
 15 98  1  0  0  0
 16 17  2  0  0  0
 16 21  1  0  0  0
 16 31  1  0  0  0
 17 18  1  0  0  0
 17 99  1  0  0  0
 18 19  2  0  0  0
 18100  1  0  0  0
 19 20  1  0  0  0
 19 24  1  0  0  0
 20 21  2  0  0  0
 20101  1  0  0  0
 21 23  1  0  0  0
 22 28  1  0  0  0
 22 32  2  0  0  0
 26 27  1  0  0  0
 28102  1  0  0  0
 28103  1  0  0  0
 29104  1  0  0  0
 29105  1  0  0  0
 33 34  1  0  0  0
 33 66  1  0  0  0
 33 70  2  0  0  0
 34 36  1  0  0  0
 34 59  1  0  0  0
 34106  1  0  0  0
 35 44  2  0  0  0
 35 45  1  0  0  0
 35 68  1  0  0  0
 36 56  1  0  0  0
 36107  1  0  0  0
 37 39  1  0  0  0
 37 47  1  0  0  0
 37 66  1  0  0  0
 37108  1  0  0  0
 38 43  2  0  0  0
 38 46  1  0  0  0
 38 47  1  0  0  0
 39 64  1  0  0  0
 39 67  2  0  0  0
 40 52  1  0  0  0
 40 53  2  0  0  0
 40 58  1  0  0  0
 41109  1  0  0  0
 41110  1  0  0  0
 41111  1  0  0  0
 41 48  1  0  0  0
 42 43  1  0  0  0
 42 66  1  0  0  0
 42112  1  0  0  0
 42113  1  0  0  0
 43 44  1  0  0  0
 44114  1  0  0  0
 45 46  2  0  0  0
 45115  1  0  0  0
 46116  1  0  0  0
 47117  1  0  0  0
 47118  1  0  0  0
 48 56  1  0  0  0
 48 65  1  0  0  0
 48119  1  0  0  0
 49 50  1  0  0  0
 49 53  1  0  0  0
 49 64  1  0  0  0
 49120  1  0  0  0
 50 51  1  0  0  0
 50121  1  0  0  0
 50122  1  0  0  0
 51 52  1  0  0  0
 51123  1  0  0  0
 51124  1  0  0  0
 52125  1  0  0  0
 52126  1  0  0  0
 53 54  1  0  0  0
 54 55  2  0  0  0
 54127  1  0  0  0
 55 57  1  0  0  0
 55128  1  0  0  0
 56 69  2  0  0  0
 57 58  2  0  0  0
 57129  1  0  0  0
 58130  1  0  0  0
 59 60  1  0  0  0
 59 61  1  0  0  0
 59 62  1  0  0  0
 60131  1  0  0  0
 60132  1  0  0  0
 60133  1  0  0  0
 61134  1  0  0  0
 61135  1  0  0  0
 61136  1  0  0  0
 62137  1  0  0  0
 62138  1  0  0  0
 62139  1  0  0  0
 63 65  1  0  0  0
 63140  1  0  0  0
 63141  1  0  0  0
 63142  1  0  0  0
 64143  1  0  0  0
 65144  1  0  0  0
 68 81  1  0  0  0
 71 72  2  0  0  0
 71 74  1  0  0  0
 71145  1  0  0  0
 72 76  1  0  0  0
 72146  1  0  0  0
 73 75  1  0  0  0
 73 76  2  0  0  0
 73147  1  0  0  0
 74 75  2  0  0  0
 74 77  1  0  0  0
 75 80  1  0  0  0
 76 85  1  0  0  0
 77 83  2  0  0  0
 78 81  1  0  0  0
 78 82  1  0  0  0
 78 84  2  0  0  0
 79 80  1  0  0  0
 79148  1  0  0  0
 79149  1  0  0  0
 79150  1  0  0  0
 80151  1  0  0  0
 80152  1  0  0  0
 81153  1  0  0  0
 81154  1  0  0  0
 82 85  1  0  0  0
 82155  1  0  0  0
 82156  1  0  0  0
 83157  1  0  0  0
M  ISO  4   1 100  68 101  77 100  81 101
M  END
> <chiral flag>
0

> <version>
0

> <s_m_source_file>
/data/baiqing/PycharmProjects/Reinvent-master-3.2/result/LINK_invent/BTK/process_docking_weight1_custom_product_contain_oxygen_bond_distance_aromatic_linkinvent_7_9_3/rearranged_h_0132.sdf

> <i_m_source_file_index>
65

> <r_mmod_Potential_Energy-OPLS-2005>
244.023254394531

> <r_mmod_Stretch_Energy-OPLS-2005>
94.0038452148438

> <r_mmod_Bend_Energy-OPLS-2005>
148.892669677734

> <r_mmod_Torsional_Energy-OPLS-2005>
206.775039672852

> <r_mmod_Improper_Torsional_Energy-OPLS-2005>
3.46957778930664

> <r_mmod_Van_der_Waal_Energy-OPLS-2005>
149.595687866211

> <r_mmod_Electrostatic_Energy-OPLS-2005>
-175.764907836914

> <r_mmod_Solvation_Energy-OPLS-2005>
-228.199920654297

> <b_mmod_Minimization_Converged-OPLS-2005>
0

> <r_mmod_RMS_Derivative-OPLS-2005>
0.999885261058807

$$$$
65
                    3D
 Structure written by MMmdl.
169177  0  0  1  0            999 V2000
  -30.7305  -14.4129   20.5587 C   0  0  0  0  0  0
  -30.4103  -12.2539   19.4324 C   0  0  0  0  0  0
  -29.4919  -12.4553   18.2108 C   0  0  0  0  0  0
  -28.0126  -12.3370   18.6216 C   0  0  0  0  0  0
  -27.6575  -13.2010   19.8605 C   0  0  2  0  0  0
  -28.6947  -13.0102   20.9885 C   0  0  0  0  0  0
  -25.2606  -13.8160   20.5641 C   0  0  0  0  0  0
  -24.1846  -13.0431   20.9166 C   0  0  0  0  0  0
  -24.6386  -11.6898   20.8719 C   0  0  0  0  0  0
  -23.9041  -10.4283   21.0389 C   0  0  0  0  0  0
  -24.3592   -9.4212   21.9182 C   0  0  0  0  0  0
  -23.6276   -8.2247   22.0767 C   0  0  0  0  0  0
  -22.4271   -8.0271   21.3543 C   0  0  0  0  0  0
  -21.9900   -9.0229   20.4636 C   0  0  0  0  0  0
  -22.7219  -10.2115   20.3035 C   0  0  0  0  0  0
  -21.6844   -6.0726   22.5270 C   0  0  0  0  0  0
  -21.4019   -6.5634   23.8207 C   0  0  0  0  0  0
  -21.3657   -5.6786   24.9168 C   0  0  0  0  0  0
  -21.6037   -4.3044   24.7218 C   0  0  0  0  0  0
  -21.8831   -3.8136   23.4339 C   0  0  0  0  0  0
  -21.9210   -4.6957   22.3395 C   0  0  0  0  0  0
  -22.7879  -13.5249   21.1801 C   0  0  0  0  0  0
  -22.1672   -4.2139   21.0978 F   0  0  0  0  0  0
  -21.5618   -3.4536   25.7736 F   0  0  0  0  0  0
  -30.0343  -13.2561   20.4377 N   0  0  0  0  0  0
  -26.2999  -12.9302   20.3284 N   0  0  0  0  0  0
  -25.9306  -11.6464   20.5725 N   0  0  0  0  0  0
  -22.0500  -12.8225   22.0340 N   0  0  0  0  0  0
  -25.4402  -15.1862   20.4077 N   0  0  0  0  0  0
  -31.8656  -14.5381   20.0896 O   0  0  0  0  0  0
  -21.6636   -6.8866   21.4231 O   0  0  0  0  0  0
  -22.3563  -14.5544   20.6647 O   0  0  0  0  0  0
  -24.6155  -31.8664   23.2111 C   0  0  0  0  0  0
  -25.9055  -32.4806   23.8371 C   0  0  1  0  0  0
  -27.2218  -27.4488   20.0535 C   0  0  0  0  0  0
  -25.5901  -33.8601   24.2296 N   0  0  0  0  0  0
  -23.3996  -30.4893   21.5581 C   0  0  2  0  0  0
  -24.8330  -28.9554   20.1242 C   0  0  0  0  0  0
  -22.7428  -29.4607   22.5062 C   0  0  0  0  0  0
  -18.0240  -28.1354   22.8480 C   0  0  0  0  0  0
  -24.1480  -36.7293   23.2634 C   0  0  0  0  0  0
  -25.9310  -30.8270   21.3681 C   0  0  0  0  0  0
  -25.9987  -29.4682   20.7045 C   0  0  0  0  0  0
  -27.1946  -28.7207   20.6642 C   0  0  0  0  0  0
  -26.0303  -26.9399   19.4839 C   0  0  0  0  0  0
  -24.8406  -27.6867   19.5219 C   0  0  0  0  0  0
  -23.6027  -29.8263   20.1730 C   0  0  0  0  0  0
  -25.4108  -36.3085   24.0313 C   0  0  1  0  0  0
  -20.5849  -28.3613   23.1336 C   0  0  2  0  0  0
  -20.6753  -26.9358   22.5394 C   0  0  0  0  0  0
  -19.5726  -26.6376   21.5186 C   0  0  0  0  0  0
  -18.1896  -26.7899   22.1609 C   0  0  0  0  0  0
  -19.1503  -28.8807   23.2902 C   0  0  0  0  0  0
  -18.9452  -30.1422   23.8890 C   0  0  0  0  0  0
  -17.6471  -30.6577   24.0530 C   0  0  0  0  0  0
  -25.9058  -34.9460   23.5107 C   0  0  0  0  0  0
  -16.5346  -29.9054   23.6349 C   0  0  0  0  0  0
  -16.7242  -28.6477   23.0362 C   0  0  0  0  0  0
  -26.4455  -31.6611   25.0728 C   0  0  0  0  0  0
  -25.3714  -31.3729   26.1483 C   0  0  0  0  0  0
  -27.0326  -30.3047   24.6140 C   0  0  0  0  0  0
  -27.5981  -32.4367   25.7528 C   0  0  0  0  0  0
  -27.5560  -37.1818   24.8456 C   0  0  0  0  0  0
  -21.4157  -29.2972   22.3788 N   0  0  0  0  0  0
  -26.4279  -37.3784   23.9381 N   0  0  0  0  0  0
  -24.6667  -31.0771   22.1018 N   0  0  0  0  0  0
  -23.4219  -28.8161   23.3089 O   0  0  0  0  0  0
  -28.4254  -26.7866   20.0091 O   0  0  0  0  0  0
  -26.5638  -34.8921   22.4688 O   0  0  0  0  0  0
  -23.5366  -32.1395   23.7562 O   0  0  0  0  0  0
  -29.3866  -18.9331   20.3797 C   0  0  0  0  0  0
  -30.6082  -18.7818   22.4848 C   0  0  0  0  0  0
  -28.9328  -20.2167   20.7365 C   0  0  0  0  0  0
  -30.1598  -20.0676   22.8375 C   0  0  0  0  0  0
  -30.2527  -18.2305   21.2398 C   0  0  0  0  0  0
  -29.3518  -20.8100   21.9507 C   0  0  0  0  0  0
  -30.3287  -26.7787   22.1262 C   0  0  0  0  0  0
  -28.0118  -25.0114   23.9059 C   0  0  0  0  0  0
  -30.8740  -16.9281   20.7908 C   0  0  0  0  0  0
  -28.9727  -22.2414   22.3154 C   0  0  0  0  0  0
  -30.0599  -15.6661   21.1473 C   0  0  0  0  0  0
  -30.2150  -25.2642   21.8607 C   0  0  0  0  0  0
  -27.6772  -25.0443   22.3987 C   0  0  0  0  0  0
  -28.9389  -23.2028   21.1081 C   0  0  0  0  0  0
  -28.4792  -25.3584   19.9957 C   0  0  0  0  0  0
  -28.8277  -24.7358   21.3826 C   0  0  0  0  0  0
  -31.4575  -12.3242   19.1308 H   0  0  0  0  0  0
  -30.2903  -11.2516   19.8479 H   0  0  0  0  0  0
  -29.7233  -11.7104   17.4472 H   0  0  0  0  0  0
  -29.6787  -13.4302   17.7606 H   0  0  0  0  0  0
  -27.8194  -11.2853   18.8383 H   0  0  0  0  0  0
  -27.3654  -12.5924   17.7805 H   0  0  0  0  0  0
  -27.6980  -14.2404   19.5348 H   0  0  0  0  0  0
  -28.6419  -11.9937   21.3824 H   0  0  0  0  0  0
  -28.4674  -13.6673   21.8280 H   0  0  0  0  0  0
  -25.2729   -9.5693   22.4764 H   0  0  0  0  0  0
  -23.9968   -7.4655   22.7498 H   0  0  0  0  0  0
  -21.0845   -8.8734   19.8928 H   0  0  0  0  0  0
  -22.3676  -10.9645   19.6136 H   0  0  0  0  0  0
  -21.2012   -7.6148   23.9702 H   0  0  0  0  0  0
  -21.1460   -6.0523   25.9074 H   0  0  0  0  0  0
  -22.0617   -2.7604   23.2847 H   0  0  0  0  0  0
  -22.4111  -11.9888   22.4715 H   0  0  0  0  0  0
  -21.1106  -13.1249   22.2488 H   0  0  0  0  0  0
  -24.6868  -15.8547   20.5257 H   0  0  0  0  0  0
  -26.3042  -15.6142   20.0967 H   0  0  0  0  0  0
  -26.7143  -32.5480   23.1139 H   0  0  0  0  0  0
  -25.0007  -33.9753   25.0416 H   0  0  0  0  0  0
  -22.6860  -31.3065   21.4228 H   0  0  0  0  0  0
  -23.3746  -35.9637   23.3327 H   0  0  0  0  0  0
  -24.3557  -36.8891   22.2044 H   0  0  0  0  0  0
  -23.7266  -37.6504   23.6682 H   0  0  0  0  0  0
  -26.0686  -31.6026   20.6160 H   0  0  0  0  0  0
  -26.8076  -30.8568   22.0015 H   0  0  0  0  0  0
  -28.1022  -29.1113   21.1048 H   0  0  0  0  0  0
  -25.9850  -25.9889   18.9780 H   0  0  0  0  0  0
  -23.9395  -27.2828   19.0784 H   0  0  0  0  0  0
  -23.7287  -30.6010   19.4160 H   0  0  0  0  0  0
  -22.7227  -29.2537   19.8713 H   0  0  0  0  0  0
  -25.1305  -36.1926   25.0813 H   0  0  0  0  0  0
  -20.9906  -28.3146   24.1475 H   0  0  0  0  0  0
  -20.5681  -26.2185   23.3566 H   0  0  0  0  0  0
  -21.6606  -26.7422   22.1147 H   0  0  0  0  0  0
  -19.6882  -25.6300   21.1167 H   0  0  0  0  0  0
  -19.6656  -27.3224   20.6760 H   0  0  0  0  0  0
  -17.4151  -26.6642   21.4012 H   0  0  0  0  0  0
  -18.0274  -26.0032   22.9001 H   0  0  0  0  0  0
  -19.7953  -30.7199   24.2249 H   0  0  0  0  0  0
  -17.5044  -31.6261   24.5132 H   0  0  0  0  0  0
  -15.5360  -30.2953   23.7719 H   0  0  0  0  0  0
  -15.8631  -28.0815   22.7090 H   0  0  0  0  0  0
  -24.5861  -30.7108   25.7820 H   0  0  0  0  0  0
  -24.8957  -32.2910   26.4947 H   0  0  0  0  0  0
  -25.8050  -30.8885   27.0236 H   0  0  0  0  0  0
  -26.2901  -29.6800   24.1172 H   0  0  0  0  0  0
  -27.4043  -29.7290   25.4620 H   0  0  0  0  0  0
  -27.8750  -30.4327   23.9340 H   0  0  0  0  0  0
  -27.2498  -33.3622   26.2127 H   0  0  0  0  0  0
  -28.3794  -32.7002   25.0394 H   0  0  0  0  0  0
  -28.0654  -31.8505   26.5448 H   0  0  0  0  0  0
  -28.2566  -38.0130   24.7514 H   0  0  0  0  0  0
  -28.1074  -36.2646   24.6300 H   0  0  0  0  0  0
  -27.2270  -37.1468   25.8862 H   0  0  0  0  0  0
  -20.9357  -29.8702   21.7006 H   0  0  0  0  0  0
  -26.0164  -38.2852   24.1431 H   0  0  0  0  0  0
  -29.1048  -18.5076   19.4246 H   0  0  0  0  0  0
  -31.2612  -18.2389   23.1555 H   0  0  0  0  0  0
  -28.2912  -20.7463   20.0460 H   0  0  0  0  0  0
  -30.4728  -20.4952   23.7806 H   0  0  0  0  0  0
  -31.1673  -27.0055   22.7812 H   0  0  0  0  0  0
  -29.4322  -27.1839   22.5928 H   0  0  0  0  0  0
  -30.4881  -27.3390   21.2046 H   0  0  0  0  0  0
  -27.1567  -25.3663   24.4825 H   0  0  0  0  0  0
  -28.8394  -25.6702   24.1636 H   0  0  0  0  0  0
  -28.2559  -24.0158   24.2665 H   0  0  0  0  0  0
  -31.8730  -16.8632   21.2275 H   0  0  0  0  0  0
  -31.0265  -16.9826   19.7111 H   0  0  0  0  0  0
  -29.6965  -22.6026   23.0459 H   0  0  0  0  0  0
  -28.0053  -22.2196   22.8152 H   0  0  0  0  0  0
  -29.0562  -15.7692   20.7342 H   0  0  0  0  0  0
  -29.9573  -15.5668   22.2261 H   0  0  0  0  0  0
  -30.5000  -24.7394   22.7712 H   0  0  0  0  0  0
  -30.9797  -24.9961   21.1300 H   0  0  0  0  0  0
  -27.2807  -26.0386   22.2117 H   0  0  0  0  0  0
  -26.8332  -24.3765   22.2088 H   0  0  0  0  0  0
  -28.1098  -22.9006   20.4681 H   0  0  0  0  0  0
  -29.8387  -23.0301   20.5167 H   0  0  0  0  0  0
  -27.5790  -24.8938   19.6050 H   0  0  0  0  0  0
  -29.2507  -25.0900   19.2733 H   0  0  0  0  0  0
  1 25  1  0  0  0
  1 30  2  0  0  0
  1 81  1  0  0  0
  2  3  1  0  0  0
  2 25  1  0  0  0
  2 87  1  0  0  0
  2 88  1  0  0  0
  3  4  1  0  0  0
  3 89  1  0  0  0
  3 90  1  0  0  0
  4  5  1  0  0  0
  4 91  1  0  0  0
  4 92  1  0  0  0
  5  6  1  0  0  0
  5 26  1  0  0  0
  5 93  1  0  0  0
  6 25  1  0  0  0
  6 94  1  0  0  0
  6 95  1  0  0  0
  7  8  2  0  0  0
  7 26  1  0  0  0
  7 29  1  0  0  0
  8  9  1  0  0  0
  8 22  1  0  0  0
  9 10  1  0  0  0
  9 27  2  0  0  0
 10 11  2  0  0  0
 10 15  1  0  0  0
 11 12  1  0  0  0
 11 96  1  0  0  0
 12 13  2  0  0  0
 12 97  1  0  0  0
 13 14  1  0  0  0
 13 31  1  0  0  0
 14 15  2  0  0  0
 14 98  1  0  0  0
 15 99  1  0  0  0
 16 17  2  0  0  0
 16 21  1  0  0  0
 16 31  1  0  0  0
 17 18  1  0  0  0
 17100  1  0  0  0
 18 19  2  0  0  0
 18101  1  0  0  0
 19 20  1  0  0  0
 19 24  1  0  0  0
 20 21  2  0  0  0
 20102  1  0  0  0
 21 23  1  0  0  0
 22 28  1  0  0  0
 22 32  2  0  0  0
 26 27  1  0  0  0
 28103  1  0  0  0
 28104  1  0  0  0
 29105  1  0  0  0
 29106  1  0  0  0
 33 34  1  0  0  0
 33 66  1  0  0  0
 33 70  2  0  0  0
 34 36  1  0  0  0
 34 59  1  0  0  0
 34107  1  0  0  0
 35 44  2  0  0  0
 35 45  1  0  0  0
 35 68  1  0  0  0
 36 56  1  0  0  0
 36108  1  0  0  0
 37 39  1  0  0  0
 37 47  1  0  0  0
 37 66  1  0  0  0
 37109  1  0  0  0
 38 43  2  0  0  0
 38 46  1  0  0  0
 38 47  1  0  0  0
 39 64  1  0  0  0
 39 67  2  0  0  0
 40 52  1  0  0  0
 40 53  2  0  0  0
 40 58  1  0  0  0
 41110  1  0  0  0
 41111  1  0  0  0
 41112  1  0  0  0
 41 48  1  0  0  0
 42 43  1  0  0  0
 42 66  1  0  0  0
 42113  1  0  0  0
 42114  1  0  0  0
 43 44  1  0  0  0
 44115  1  0  0  0
 45 46  2  0  0  0
 45116  1  0  0  0
 46117  1  0  0  0
 47118  1  0  0  0
 47119  1  0  0  0
 48 56  1  0  0  0
 48 65  1  0  0  0
 48120  1  0  0  0
 49 50  1  0  0  0
 49 53  1  0  0  0
 49 64  1  0  0  0
 49121  1  0  0  0
 50 51  1  0  0  0
 50122  1  0  0  0
 50123  1  0  0  0
 51 52  1  0  0  0
 51124  1  0  0  0
 51125  1  0  0  0
 52126  1  0  0  0
 52127  1  0  0  0
 53 54  1  0  0  0
 54 55  2  0  0  0
 54128  1  0  0  0
 55 57  1  0  0  0
 55129  1  0  0  0
 56 69  2  0  0  0
 57 58  2  0  0  0
 57130  1  0  0  0
 58131  1  0  0  0
 59 60  1  0  0  0
 59 61  1  0  0  0
 59 62  1  0  0  0
 60132  1  0  0  0
 60133  1  0  0  0
 60134  1  0  0  0
 61135  1  0  0  0
 61136  1  0  0  0
 61137  1  0  0  0
 62138  1  0  0  0
 62139  1  0  0  0
 62140  1  0  0  0
 63 65  1  0  0  0
 63141  1  0  0  0
 63142  1  0  0  0
 63143  1  0  0  0
 64144  1  0  0  0
 65145  1  0  0  0
 68 85  1  0  0  0
 71 73  2  0  0  0
 71 75  1  0  0  0
 71146  1  0  0  0
 72 74  1  0  0  0
 72 75  2  0  0  0
 72147  1  0  0  0
 73 76  1  0  0  0
 73148  1  0  0  0
 74 76  2  0  0  0
 74149  1  0  0  0
 75 79  1  0  0  0
 76 80  1  0  0  0
 77 82  1  0  0  0
 77150  1  0  0  0
 77151  1  0  0  0
 77152  1  0  0  0
 78 83  1  0  0  0
 78153  1  0  0  0
 78154  1  0  0  0
 78155  1  0  0  0
 79 81  1  0  0  0
 79156  1  0  0  0
 79157  1  0  0  0
 80 84  1  0  0  0
 80158  1  0  0  0
 80159  1  0  0  0
 81160  1  0  0  0
 81161  1  0  0  0
 82162  1  0  0  0
 82163  1  0  0  0
 82 86  1  0  0  0
 83 86  1  0  0  0
 83164  1  0  0  0
 83165  1  0  0  0
 84 86  1  0  0  0
 84166  1  0  0  0
 84167  1  0  0  0
 85 86  1  0  0  0
 85168  1  0  0  0
 85169  1  0  0  0
M  ISO  4   1 100  68 101  81 100  85 101
M  END
> <chiral flag>
0

> <version>
0

> <s_m_source_file>
/data/baiqing/PycharmProjects/Reinvent-master-3.2/result/LINK_invent/BTK/process_docking_weight1_custom_product_contain_oxygen_bond_distance_aromatic_linkinvent_7_9_3/rearranged_h_0132.sdf

> <i_m_source_file_index>
66

> <r_mmod_Potential_Energy-OPLS-2005>
21.4195690155029

> <r_mmod_Stretch_Energy-OPLS-2005>
35.9565277099609

> <r_mmod_Bend_Energy-OPLS-2005>
111.799652099609

> <r_mmod_Torsional_Energy-OPLS-2005>
203.334854125977

> <r_mmod_Improper_Torsional_Energy-OPLS-2005>
3.34671926498413

> <r_mmod_Van_der_Waal_Energy-OPLS-2005>
167.638931274414

> <r_mmod_Electrostatic_Energy-OPLS-2005>
-338.07421875

> <r_mmod_Solvation_Energy-OPLS-2005>
-177.002700805664

> <b_mmod_Minimization_Converged-OPLS-2005>
0

> <r_mmod_RMS_Derivative-OPLS-2005>
4.27978277206421

$$$$
66
                    3D
 Structure written by MMmdl.
161169  0  0  1  0            999 V2000
  -30.6976  -14.5733   20.4560 C   0  0  0  0  0  0
  -30.4232  -12.3392   19.4580 C   0  0  0  0  0  0
  -29.5061  -12.4712   18.2231 C   0  0  0  0  0  0
  -28.0295  -12.3072   18.6283 C   0  0  0  0  0  0
  -27.6428  -13.2054   19.8324 C   0  0  2  0  0  0
  -28.6893  -13.1241   20.9692 C   0  0  0  0  0  0
  -25.2585  -13.8124   20.5680 C   0  0  0  0  0  0
  -24.1843  -13.0426   20.9190 C   0  0  0  0  0  0
  -24.6391  -11.6882   20.8727 C   0  0  0  0  0  0
  -23.9040  -10.4295   21.0420 C   0  0  0  0  0  0
  -24.3604   -9.4225   21.9207 C   0  0  0  0  0  0
  -23.6291   -8.2257   22.0781 C   0  0  0  0  0  0
  -22.4270   -8.0287   21.3570 C   0  0  0  0  0  0
  -21.9887   -9.0255   20.4680 C   0  0  0  0  0  0
  -22.7199  -10.2140   20.3084 C   0  0  0  0  0  0
  -21.6861   -6.0742   22.5286 C   0  0  0  0  0  0
  -21.4019   -6.5655   23.8213 C   0  0  0  0  0  0
  -21.3644   -5.6811   24.9175 C   0  0  0  0  0  0
  -21.6043   -4.3077   24.7230 C   0  0  0  0  0  0
  -21.8815   -3.8152   23.4360 C   0  0  0  0  0  0
  -21.9203   -4.6970   22.3412 C   0  0  0  0  0  0
  -22.7869  -13.5247   21.1864 C   0  0  0  0  0  0
  -22.1684   -4.2157   21.0988 F   0  0  0  0  0  0
  -21.5625   -3.4566   25.7746 F   0  0  0  0  0  0
  -30.0207  -13.3884   20.4090 N   0  0  0  0  0  0
  -26.2955  -12.9273   20.3167 N   0  0  0  0  0  0
  -25.9299  -11.6447   20.5668 N   0  0  0  0  0  0
  -22.0495  -12.8261   22.0417 N   0  0  0  0  0  0
  -25.4353  -15.1855   20.4207 N   0  0  0  0  0  0
  -31.9091  -14.6226   20.2394 O   0  0  0  0  0  0
  -21.6652   -6.8880   21.4245 O   0  0  0  0  0  0
  -22.3570  -14.5563   20.6704 O   0  0  0  0  0  0
  -24.6168  -31.8647   23.2057 C   0  0  0  0  0  0
  -25.9074  -32.4781   23.8347 C   0  0  1  0  0  0
  -27.2346  -27.4002   20.1465 C   0  0  0  0  0  0
  -25.5931  -33.8585   24.2291 N   0  0  0  0  0  0
  -23.4047  -30.4851   21.5429 C   0  0  2  0  0  0
  -24.8571  -28.9436   20.1122 C   0  0  0  0  0  0
  -22.7407  -29.4650   22.4950 C   0  0  0  0  0  0
  -18.0282  -28.1366   22.8420 C   0  0  0  0  0  0
  -24.1500  -36.7298   23.2636 C   0  0  0  0  0  0
  -25.9364  -30.8174   21.3697 C   0  0  0  0  0  0
  -26.0124  -29.4502   20.7210 C   0  0  0  0  0  0
  -27.2056  -28.6880   20.7303 C   0  0  0  0  0  0
  -26.0655  -26.9118   19.5227 C   0  0  0  0  0  0
  -24.8808  -27.6757   19.5043 C   0  0  0  0  0  0
  -23.6189  -29.8132   20.1582 C   0  0  0  0  0  0
  -25.4118  -36.3065   24.0318 C   0  0  1  0  0  0
  -20.5860  -28.3670   23.1289 C   0  0  2  0  0  0
  -20.6770  -26.9399   22.5432 C   0  0  0  0  0  0
  -19.5818  -26.6414   21.5129 C   0  0  0  0  0  0
  -18.1954  -26.7962   22.1458 C   0  0  0  0  0  0
  -19.1520  -28.8826   23.2868 C   0  0  0  0  0  0
  -18.9451  -30.1408   23.8925 C   0  0  0  0  0  0
  -17.6462  -30.6561   24.0580 C   0  0  0  0  0  0
  -25.9048  -34.9445   23.5100 C   0  0  0  0  0  0
  -16.5361  -29.9071   23.6319 C   0  0  0  0  0  0
  -16.7264  -28.6486   23.0317 C   0  0  0  0  0  0
  -26.4504  -31.6586   25.0709 C   0  0  0  0  0  0
  -25.3764  -31.3756   26.1458 C   0  0  0  0  0  0
  -27.0392  -30.3007   24.6198 C   0  0  0  0  0  0
  -27.6055  -32.4325   25.7503 C   0  0  0  0  0  0
  -27.5569  -37.1814   24.8461 C   0  0  0  0  0  0
  -21.4129  -29.3029   22.3679 N   0  0  0  0  0  0
  -26.4298  -37.3753   23.9386 N   0  0  0  0  0  0
  -24.6686  -31.0735   22.0963 N   0  0  0  0  0  0
  -23.4156  -28.8208   23.3022 O   0  0  0  0  0  0
  -28.3890  -26.6411   20.1622 O   0  0  0  0  0  0
  -26.5613  -34.8908   22.4662 O   0  0  0  0  0  0
  -23.5367  -32.1454   23.7434 O   0  0  0  0  0  0
  -28.8156  -19.5033   18.1220 C   0  0  0  0  0  0
  -29.3483  -18.3413   18.7024 C   0  0  0  0  0  0
  -28.6406  -20.6608   18.8973 C   0  0  0  0  0  0
  -29.7531  -18.3146   20.0560 C   0  0  0  0  0  0
  -28.9916  -20.6780   20.2633 C   0  0  0  0  0  0
  -29.5812  -19.5024   20.8438 C   0  0  0  0  0  0
  -30.4110  -17.0466   20.4968 C   0  0  0  0  0  0
  -29.8814  -15.7997   20.3613 C   0  0  0  0  0  0
  -28.8905  -19.0850   23.2593 C   0  0  0  0  0  0
  -28.6279  -21.9597   21.0495 C   0  0  0  0  0  0
  -30.0146  -19.5109   22.3058 C   0  0  0  0  0  0
  -29.7085  -23.0764   21.1086 C   0  0  0  0  0  0
  -29.4624  -24.4223   20.3492 C   0  0  0  0  0  0
  -28.2968  -25.3439   20.8004 C   0  0  0  0  0  0
  -31.4729  -12.4178   19.1685 H   0  0  0  0  0  0
  -30.3122  -11.3553   19.9136 H   0  0  0  0  0  0
  -29.7729  -11.7227   17.4754 H   0  0  0  0  0  0
  -29.6538  -13.4425   17.7492 H   0  0  0  0  0  0
  -27.8688  -11.2577   18.8781 H   0  0  0  0  0  0
  -27.3838  -12.5194   17.7761 H   0  0  0  0  0  0
  -27.6253  -14.2135   19.4298 H   0  0  0  0  0  0
  -28.6765  -12.1374   21.4348 H   0  0  0  0  0  0
  -28.4567  -13.8408   21.7585 H   0  0  0  0  0  0
  -25.2774   -9.5736   22.4743 H   0  0  0  0  0  0
  -24.0024   -7.4667   22.7506 H   0  0  0  0  0  0
  -21.0821   -8.8752   19.9005 H   0  0  0  0  0  0
  -22.3648  -10.9669   19.6182 H   0  0  0  0  0  0
  -21.2015   -7.6165   23.9713 H   0  0  0  0  0  0
  -21.1465   -6.0560   25.9075 H   0  0  0  0  0  0
  -22.0600   -2.7619   23.2859 H   0  0  0  0  0  0
  -22.4062  -11.9881   22.4785 H   0  0  0  0  0  0
  -21.1121  -13.1317   22.2595 H   0  0  0  0  0  0
  -24.6832  -15.8476   20.5781 H   0  0  0  0  0  0
  -26.3091  -15.6324   20.1737 H   0  0  0  0  0  0
  -26.7138  -32.5464   23.1093 H   0  0  0  0  0  0
  -25.0110  -33.9740   25.0451 H   0  0  0  0  0  0
  -22.6935  -31.3001   21.3992 H   0  0  0  0  0  0
  -23.3729  -35.9666   23.3338 H   0  0  0  0  0  0
  -24.3583  -36.8892   22.2042 H   0  0  0  0  0  0
  -23.7317  -37.6540   23.6647 H   0  0  0  0  0  0
  -26.0722  -31.5781   20.6009 H   0  0  0  0  0  0
  -26.8155  -30.8589   22.0010 H   0  0  0  0  0  0
  -28.0907  -29.0746   21.2161 H   0  0  0  0  0  0
  -26.0665  -25.9392   19.0524 H   0  0  0  0  0  0
  -23.9961  -27.2796   19.0233 H   0  0  0  0  0  0
  -23.7324  -30.5875   19.3988 H   0  0  0  0  0  0
  -22.7434  -29.2347   19.8561 H   0  0  0  0  0  0
  -25.1304  -36.1909   25.0811 H   0  0  0  0  0  0
  -20.9934  -28.3252   24.1405 H   0  0  0  0  0  0
  -20.5550  -26.2294   23.3628 H   0  0  0  0  0  0
  -21.6686  -26.7400   22.1344 H   0  0  0  0  0  0
  -19.6994  -25.6332   21.1148 H   0  0  0  0  0  0
  -19.6837  -27.3206   20.6653 H   0  0  0  0  0  0
  -17.4279  -26.6780   21.3780 H   0  0  0  0  0  0
  -18.0271  -26.0038   22.8748 H   0  0  0  0  0  0
  -19.7946  -30.7175   24.2322 H   0  0  0  0  0  0
  -17.5042  -31.6228   24.5205 H   0  0  0  0  0  0
  -15.5364  -30.2973   23.7661 H   0  0  0  0  0  0
  -15.8644  -28.0822   22.7033 H   0  0  0  0  0  0
  -24.5819  -30.7253   25.7778 H   0  0  0  0  0  0
  -24.9117  -32.2979   26.4962 H   0  0  0  0  0  0
  -25.8063  -30.8827   27.0186 H   0  0  0  0  0  0
  -26.3013  -29.6712   24.1210 H   0  0  0  0  0  0
  -27.4088  -29.7285   25.4726 H   0  0  0  0  0  0
  -27.8862  -30.4293   23.9453 H   0  0  0  0  0  0
  -27.2609  -33.3533   26.2214 H   0  0  0  0  0  0
  -28.3816  -32.7042   25.0336 H   0  0  0  0  0  0
  -28.0809  -31.8401   26.5339 H   0  0  0  0  0  0
  -28.2611  -38.0080   24.7434 H   0  0  0  0  0  0
  -28.1038  -36.2609   24.6362 H   0  0  0  0  0  0
  -27.2289  -37.1553   25.8868 H   0  0  0  0  0  0
  -20.9305  -29.8714   21.6869 H   0  0  0  0  0  0
  -26.0172  -38.2840   24.1332 H   0  0  0  0  0  0
  -28.5343  -19.5064   17.0773 H   0  0  0  0  0  0
  -29.4842  -17.4663   18.0808 H   0  0  0  0  0  0
  -28.2064  -21.5379   18.4378 H   0  0  0  0  0  0
  -31.4337  -17.1461   20.8384 H   0  0  0  0  0  0
  -28.8481  -15.7412   20.0760 H   0  0  0  0  0  0
  -29.2441  -19.0829   24.2905 H   0  0  0  0  0  0
  -28.5345  -18.0807   23.0260 H   0  0  0  0  0  0
  -28.0338  -19.7571   23.2095 H   0  0  0  0  0  0
  -28.3532  -21.6815   22.0662 H   0  0  0  0  0  0
  -27.7041  -22.3692   20.6403 H   0  0  0  0  0  0
  -30.3760  -20.5035   22.5738 H   0  0  0  0  0  0
  -30.8749  -18.8563   22.4443 H   0  0  0  0  0  0
  -30.6479  -22.6565   20.7464 H   0  0  0  0  0  0
  -29.8944  -23.3049   22.1592 H   0  0  0  0  0  0
  -29.3595  -24.2269   19.2815 H   0  0  0  0  0  0
  -30.3788  -25.0049   20.4605 H   0  0  0  0  0  0
  -28.3323  -25.4982   21.8812 H   0  0  0  0  0  0
  -27.3521  -24.8443   20.5879 H   0  0  0  0  0  0
  1 25  1  0  0  0
  1 30  2  0  0  0
  1 78  1  0  0  0
  2  3  1  0  0  0
  2 25  1  0  0  0
  2 85  1  0  0  0
  2 86  1  0  0  0
  3  4  1  0  0  0
  3 87  1  0  0  0
  3 88  1  0  0  0
  4  5  1  0  0  0
  4 89  1  0  0  0
  4 90  1  0  0  0
  5  6  1  0  0  0
  5 26  1  0  0  0
  5 91  1  0  0  0
  6 25  1  0  0  0
  6 92  1  0  0  0
  6 93  1  0  0  0
  7  8  2  0  0  0
  7 26  1  0  0  0
  7 29  1  0  0  0
  8  9  1  0  0  0
  8 22  1  0  0  0
  9 10  1  0  0  0
  9 27  2  0  0  0
 10 11  2  0  0  0
 10 15  1  0  0  0
 11 12  1  0  0  0
 11 94  1  0  0  0
 12 13  2  0  0  0
 12 95  1  0  0  0
 13 14  1  0  0  0
 13 31  1  0  0  0
 14 15  2  0  0  0
 14 96  1  0  0  0
 15 97  1  0  0  0
 16 17  2  0  0  0
 16 21  1  0  0  0
 16 31  1  0  0  0
 17 18  1  0  0  0
 17 98  1  0  0  0
 18 19  2  0  0  0
 18 99  1  0  0  0
 19 20  1  0  0  0
 19 24  1  0  0  0
 20 21  2  0  0  0
 20100  1  0  0  0
 21 23  1  0  0  0
 22 28  1  0  0  0
 22 32  2  0  0  0
 26 27  1  0  0  0
 28101  1  0  0  0
 28102  1  0  0  0
 29103  1  0  0  0
 29104  1  0  0  0
 33 34  1  0  0  0
 33 66  1  0  0  0
 33 70  2  0  0  0
 34 36  1  0  0  0
 34 59  1  0  0  0
 34105  1  0  0  0
 35 44  2  0  0  0
 35 45  1  0  0  0
 35 68  1  0  0  0
 36 56  1  0  0  0
 36106  1  0  0  0
 37 39  1  0  0  0
 37 47  1  0  0  0
 37 66  1  0  0  0
 37107  1  0  0  0
 38 43  2  0  0  0
 38 46  1  0  0  0
 38 47  1  0  0  0
 39 64  1  0  0  0
 39 67  2  0  0  0
 40 52  1  0  0  0
 40 53  2  0  0  0
 40 58  1  0  0  0
 41108  1  0  0  0
 41109  1  0  0  0
 41110  1  0  0  0
 41 48  1  0  0  0
 42 43  1  0  0  0
 42 66  1  0  0  0
 42111  1  0  0  0
 42112  1  0  0  0
 43 44  1  0  0  0
 44113  1  0  0  0
 45 46  2  0  0  0
 45114  1  0  0  0
 46115  1  0  0  0
 47116  1  0  0  0
 47117  1  0  0  0
 48 56  1  0  0  0
 48 65  1  0  0  0
 48118  1  0  0  0
 49 50  1  0  0  0
 49 53  1  0  0  0
 49 64  1  0  0  0
 49119  1  0  0  0
 50 51  1  0  0  0
 50120  1  0  0  0
 50121  1  0  0  0
 51 52  1  0  0  0
 51122  1  0  0  0
 51123  1  0  0  0
 52124  1  0  0  0
 52125  1  0  0  0
 53 54  1  0  0  0
 54 55  2  0  0  0
 54126  1  0  0  0
 55 57  1  0  0  0
 55127  1  0  0  0
 56 69  2  0  0  0
 57 58  2  0  0  0
 57128  1  0  0  0
 58129  1  0  0  0
 59 60  1  0  0  0
 59 61  1  0  0  0
 59 62  1  0  0  0
 60130  1  0  0  0
 60131  1  0  0  0
 60132  1  0  0  0
 61133  1  0  0  0
 61134  1  0  0  0
 61135  1  0  0  0
 62136  1  0  0  0
 62137  1  0  0  0
 62138  1  0  0  0
 63 65  1  0  0  0
 63139  1  0  0  0
 63140  1  0  0  0
 63141  1  0  0  0
 64142  1  0  0  0
 65143  1  0  0  0
 68 84  1  0  0  0
 71 72  2  0  0  0
 71 73  1  0  0  0
 71144  1  0  0  0
 72 74  1  0  0  0
 72145  1  0  0  0
 73 75  2  0  0  0
 73146  1  0  0  0
 74 76  2  0  0  0
 74 77  1  0  0  0
 75 76  1  0  0  0
 75 80  1  0  0  0
 76 81  1  0  0  0
 77 78  2  0  0  0
 77147  1  0  0  0
 78148  1  0  0  0
 79 81  1  0  0  0
 79149  1  0  0  0
 79150  1  0  0  0
 79151  1  0  0  0
 80 82  1  0  0  0
 80152  1  0  0  0
 80153  1  0  0  0
 81154  1  0  0  0
 81155  1  0  0  0
 82 83  1  0  0  0
 82156  1  0  0  0
 82157  1  0  0  0
 83 84  1  0  0  0
 83158  1  0  0  0
 83159  1  0  0  0
 84160  1  0  0  0
 84161  1  0  0  0
M  ISO  4   1 100  68 101  78 100  84 101
M  END
> <chiral flag>
0

> <version>
0

> <s_m_source_file>
/data/baiqing/PycharmProjects/Reinvent-master-3.2/result/LINK_invent/BTK/process_docking_weight1_custom_product_contain_oxygen_bond_distance_aromatic_linkinvent_7_9_3/rearranged_h_0132.sdf

> <i_m_source_file_index>
67

> <r_mmod_Potential_Energy-OPLS-2005>
76.2927093505859

> <r_mmod_Stretch_Energy-OPLS-2005>
48.0307655334473

> <r_mmod_Bend_Energy-OPLS-2005>
109.062171936035

> <r_mmod_Torsional_Energy-OPLS-2005>
255.489562988281

> <r_mmod_Improper_Torsional_Energy-OPLS-2005>
13.8616371154785

> <r_mmod_Van_der_Waal_Energy-OPLS-2005>
142.629043579102

> <r_mmod_Electrostatic_Energy-OPLS-2005>
-343.946411132812

> <r_mmod_Solvation_Energy-OPLS-2005>
-185.221786499023

> <b_mmod_Minimization_Converged-OPLS-2005>
0

> <r_mmod_RMS_Derivative-OPLS-2005>
3.30563259124756

$$$$
67
                    3D
 Structure written by MMmdl.
167175  0  0  1  0            999 V2000
  -29.4043  -15.6296   20.7581 C   0  0  0  0  0  0
  -30.2932  -13.2217   19.7178 C   0  0  0  0  0  0
  -29.5339  -12.7463   18.4270 C   0  0  0  0  0  0
  -28.0956  -12.2967   18.7483 C   0  0  0  0  0  0
  -27.5020  -13.2257   19.8268 C   0  0  2  0  0  0
  -28.3837  -13.3356   21.0613 C   0  0  0  0  0  0
  -25.1681  -13.7920   20.5423 C   0  0  0  0  0  0
  -24.1215  -13.0174   20.9246 C   0  0  0  0  0  0
  -24.5922  -11.6698   20.8757 C   0  0  0  0  0  0
  -23.8772  -10.4125   21.0471 C   0  0  0  0  0  0
  -24.3455   -9.4102   21.9224 C   0  0  0  0  0  0
  -23.6199   -8.2116   22.0762 C   0  0  0  0  0  0
  -22.4186   -8.0149   21.3541 C   0  0  0  0  0  0
  -21.9750   -9.0082   20.4646 C   0  0  0  0  0  0
  -22.7001  -10.1978   20.3076 C   0  0  0  0  0  0
  -21.6809   -6.0663   22.5289 C   0  0  0  0  0  0
  -21.3980   -6.5598   23.8211 C   0  0  0  0  0  0
  -21.3648   -5.6768   24.9184 C   0  0  0  0  0  0
  -21.6046   -4.3031   24.7245 C   0  0  0  0  0  0
  -21.8826   -3.8105   23.4373 C   0  0  0  0  0  0
  -21.9183   -4.6905   22.3421 C   0  0  0  0  0  0
  -22.7348  -13.5035   21.2022 C   0  0  0  0  0  0
  -22.1663   -4.2097   21.0999 F   0  0  0  0  0  0
  -21.5635   -3.4526   25.7765 F   0  0  0  0  0  0
  -29.4350  -14.1781   20.5889 N   0  0  0  0  0  0
  -26.1867  -12.9063   20.2641 N   0  0  0  0  0  0
  -25.8716  -11.6259   20.5438 N   0  0  0  0  0  0
  -22.0081  -12.8064   22.0650 N   0  0  0  0  0  0
  -25.3157  -15.1623   20.3783 N   0  0  0  0  0  0
  -30.6060  -15.9299   20.4712 O   0  0  0  0  0  0
  -21.6574   -6.8756   21.4232 O   0  0  0  0  0  0
  -22.3093  -14.5380   20.6888 O   0  0  0  0  0  0
  -24.6480  -31.9251   23.2457 C   0  0  0  0  0  0
  -25.9396  -32.5059   23.8741 C   0  0  1  0  0  0
  -26.6153  -27.3106   20.1286 C   0  0  0  0  0  0
  -25.6263  -33.8833   24.2629 N   0  0  0  0  0  0
  -23.4619  -30.5696   21.6038 C   0  0  2  0  0  0
  -24.9100  -29.3387   19.8440 C   0  0  0  0  0  0
  -23.0447  -29.4457   22.5921 C   0  0  0  0  0  0
  -18.5267  -27.5341   22.6166 C   0  0  0  0  0  0
  -24.1512  -36.7357   23.2594 C   0  0  0  0  0  0
  -25.9979  -30.8344   21.4697 C   0  0  0  0  0  0
  -25.9828  -29.5370   20.7042 C   0  0  0  0  0  0
  -26.9555  -28.5203   20.7983 C   0  0  0  0  0  0
  -26.1077  -27.4448   18.8678 C   0  0  0  0  0  0
  -25.0738  -28.3981   18.8001 C   0  0  0  0  0  0
  -23.6560  -30.1484   20.1100 C   0  0  0  0  0  0
  -25.4124  -36.3210   24.0334 C   0  0  1  0  0  0
  -21.3105  -27.9420   23.4506 C   0  0  2  0  0  0
  -22.2238  -26.3751   22.5555 C   0  0  0  0  0  0
  -20.6528  -25.2298   21.1932 C   0  0  0  0  0  0
  -18.8019  -26.0806   21.5797 C   0  0  0  0  0  0
  -19.5972  -28.3016   23.3810 C   0  0  0  0  0  0
  -19.2030  -29.5951   23.9453 C   0  0  0  0  0  0
  -17.8984  -30.1562   23.9434 C   0  0  0  0  0  0
  -25.9112  -34.9591   23.5198 C   0  0  0  0  0  0
  -16.8720  -29.3992   23.3673 C   0  0  0  0  0  0
  -17.1932  -28.1507   22.7316 C   0  0  0  0  0  0
  -26.4594  -31.6688   25.1047 C   0  0  0  0  0  0
  -25.3731  -31.3818   26.1659 C   0  0  0  0  0  0
  -27.0406  -30.3061   24.6590 C   0  0  0  0  0  0
  -27.6154  -32.4339   25.7870 C   0  0  0  0  0  0
  -27.5606  -37.1861   24.8454 C   0  0  0  0  0  0
  -21.7831  -29.2317   22.8718 N   0  0  0  0  0  0
  -26.4305  -37.3890   23.9421 N   0  0  0  0  0  0
  -24.7138  -31.1640   22.1275 N   0  0  0  0  0  0
  -23.8723  -28.7977   23.2176 O   0  0  0  0  0  0
  -25.5777  -26.6017   20.7405 O   0  0  0  0  0  0
  -26.5511  -34.8964   22.4663 O   0  0  0  0  0  0
  -23.5639  -32.1932   23.7839 O   0  0  0  0  0  0
  -24.0261  -20.0034   21.8953 C   0  0  0  0  0  0
  -22.9423  -21.1032   22.2250 C   0  0  0  0  0  0
  -25.5508  -21.3868   22.4757 C   0  0  0  0  0  0
  -25.5490  -19.9414   21.9725 C   0  0  0  0  0  0
  -22.9551  -22.5503   22.7315 C   0  0  0  0  0  0
  -24.4799  -22.4982   22.8098 C   0  0  0  0  0  0
  -22.0066  -27.5389   18.8846 C   0  0  0  0  0  0
  -22.2919  -27.2106   20.1653 C   0  0  0  0  0  0
  -25.1021  -23.8373   24.8743 C   0  0  0  0  0  0
  -27.0772  -18.7173   21.5789 C   0  0  0  0  0  0
  -21.5059  -23.7664   23.3718 C   0  0  0  0  0  0
  -25.0935  -23.7821   23.3421 C   0  0  0  0  0  0
  -20.7830  -27.4388   21.2106 C   0  0  0  0  0  0
  -23.9223  -26.4218   20.3291 C   0  0  0  0  0  0
  -27.8625  -16.8404   21.1686 C   0  0  0  0  0  0
  -20.3451  -25.5776   23.3672 C   0  0  0  0  0  0
  -31.2189  -13.7184   19.4237 H   0  0  0  0  0  0
  -30.6112  -12.3595   20.3072 H   0  0  0  0  0  0
  -30.0853  -11.9541   17.9193 H   0  0  0  0  0  0
  -29.4878  -13.5830   17.7284 H   0  0  0  0  0  0
  -28.1215  -11.2708   19.1194 H   0  0  0  0  0  0
  -27.4778  -12.2903   17.8493 H   0  0  0  0  0  0
  -27.4150  -14.1960   19.3343 H   0  0  0  0  0  0
  -28.7119  -12.3634   21.4341 H   0  0  0  0  0  0
  -27.8636  -13.8251   21.8869 H   0  0  0  0  0  0
  -25.2599   -9.5640   22.4782 H   0  0  0  0  0  0
  -23.9939   -7.4504   22.7459 H   0  0  0  0  0  0
  -21.0689   -8.8548   19.8954 H   0  0  0  0  0  0
  -22.3440  -10.9517   19.6196 H   0  0  0  0  0  0
  -21.1958   -7.6107   23.9693 H   0  0  0  0  0  0
  -21.1471   -6.0509   25.9084 H   0  0  0  0  0  0
  -22.0623   -2.7569   23.2888 H   0  0  0  0  0  0
  -22.3717  -11.9713   22.4997 H   0  0  0  0  0  0
  -21.0735  -13.1117   22.2961 H   0  0  0  0  0  0
  -24.5292  -15.7916   20.4933 H   0  0  0  0  0  0
  -26.1084  -15.5980   19.9297 H   0  0  0  0  0  0
  -26.7512  -32.5640   23.1518 H   0  0  0  0  0  0
  -25.0566  -34.0054   25.0872 H   0  0  0  0  0  0
  -22.6712  -31.3223   21.6101 H   0  0  0  0  0  0
  -23.3803  -35.9660   23.3245 H   0  0  0  0  0  0
  -24.3634  -36.8970   22.2014 H   0  0  0  0  0  0
  -23.7222  -37.6551   23.6588 H   0  0  0  0  0  0
  -26.2431  -31.6409   20.7772 H   0  0  0  0  0  0
  -26.8401  -30.7527   22.1428 H   0  0  0  0  0  0
  -27.7252  -28.5560   21.5569 H   0  0  0  0  0  0
  -26.1111  -26.6283   18.1590 H   0  0  0  0  0  0
  -24.4025  -28.3948   17.9586 H   0  0  0  0  0  0
  -23.7664  -31.0606   19.5230 H   0  0  0  0  0  0
  -22.7485  -29.7121   19.7226 H   0  0  0  0  0  0
  -25.1262  -36.2109   25.0822 H   0  0  0  0  0  0
  -21.6031  -27.9506   24.5025 H   0  0  0  0  0  0
  -22.6142  -25.7964   23.3938 H   0  0  0  0  0  0
  -23.2587  -26.5582   22.4040 H   0  0  0  0  0  0
  -20.5912  -24.1469   21.2654 H   0  0  0  0  0  0
  -20.8588  -25.2534   20.1207 H   0  0  0  0  0  0
  -18.3272  -26.2995   20.6212 H   0  0  0  0  0  0
  -18.1305  -25.2981   21.9385 H   0  0  0  0  0  0
  -19.9677  -30.1791   24.4389 H   0  0  0  0  0  0
  -17.6995  -31.1139   24.4048 H   0  0  0  0  0  0
  -15.8561  -29.7693   23.3633 H   0  0  0  0  0  0
  -16.3789  -27.6366   22.2400 H   0  0  0  0  0  0
  -24.5949  -30.7158   25.7909 H   0  0  0  0  0  0
  -24.8885  -32.2980   26.5040 H   0  0  0  0  0  0
  -25.7970  -30.8998   27.0476 H   0  0  0  0  0  0
  -26.3047  -29.6883   24.1440 H   0  0  0  0  0  0
  -27.3796  -29.7255   25.5179 H   0  0  0  0  0  0
  -27.9092  -30.4249   24.0110 H   0  0  0  0  0  0
  -27.2788  -33.3630   26.2483 H   0  0  0  0  0  0
  -28.4007  -32.6901   25.0746 H   0  0  0  0  0  0
  -28.0765  -31.8416   26.5782 H   0  0  0  0  0  0
  -28.2572  -38.0210   24.7592 H   0  0  0  0  0  0
  -28.1160  -36.2752   24.6168 H   0  0  0  0  0  0
  -27.2334  -37.1370   25.8854 H   0  0  0  0  0  0
  -21.0806  -29.8242   22.4534 H   0  0  0  0  0  0
  -26.0198  -38.2959   24.1477 H   0  0  0  0  0  0
  -23.5885  -19.0792   21.5427 H   0  0  0  0  0  0
  -21.9358  -20.7357   22.0791 H   0  0  0  0  0  0
  -26.5630  -21.7218   22.6550 H   0  0  0  0  0  0
  -21.0662  -27.9857   18.5969 H   0  0  0  0  0  0
  -22.6876  -27.3581   18.0722 H   0  0  0  0  0  0
  -25.5475  -24.7687   25.2253 H   0  0  0  0  0  0
  -25.6780  -23.0138   25.2975 H   0  0  0  0  0  0
  -24.0919  -23.7818   25.2798 H   0  0  0  0  0  0
  -27.7244  -19.0090   22.4058 H   0  0  0  0  0  0
  -27.4928  -19.2706   20.7364 H   0  0  0  0  0  0
  -21.7389  -23.7129   24.4353 H   0  0  0  0  0  0
  -20.6914  -23.0470   23.2827 H   0  0  0  0  0  0
  -24.5440  -24.6316   22.9414 H   0  0  0  0  0  0
  -26.1095  -23.8958   22.9633 H   0  0  0  0  0  0
  -20.1198  -27.3666   20.3443 H   0  0  0  0  0  0
  -20.4640  -28.4798   21.1954 H   0  0  0  0  0  0
  -23.9774  -27.4171   20.7186 H   0  0  0  0  0  0
  -24.0351  -26.1519   19.2815 H   0  0  0  0  0  0
  -27.3315  -16.6545   20.2407 H   0  0  0  0  0  0
  -27.3657  -16.2347   21.9257 H   0  0  0  0  0  0
  -19.3348  -25.2791   23.6563 H   0  0  0  0  0  0
  -20.5623  -25.9599   24.3680 H   0  0  0  0  0  0
  1 25  1  0  0  0
  1 30  2  0  0  0
  1 85  1  0  0  0
  2  3  1  0  0  0
  2 25  1  0  0  0
  2 87  1  0  0  0
  2 88  1  0  0  0
  3  4  1  0  0  0
  3 89  1  0  0  0
  3 90  1  0  0  0
  4  5  1  0  0  0
  4 91  1  0  0  0
  4 92  1  0  0  0
  5  6  1  0  0  0
  5 26  1  0  0  0
  5 93  1  0  0  0
  6 25  1  0  0  0
  6 94  1  0  0  0
  6 95  1  0  0  0
  7  8  2  0  0  0
  7 26  1  0  0  0
  7 29  1  0  0  0
  8  9  1  0  0  0
  8 22  1  0  0  0
  9 10  1  0  0  0
  9 27  2  0  0  0
 10 11  2  0  0  0
 10 15  1  0  0  0
 11 12  1  0  0  0
 11 96  1  0  0  0
 12 13  2  0  0  0
 12 97  1  0  0  0
 13 14  1  0  0  0
 13 31  1  0  0  0
 14 15  2  0  0  0
 14 98  1  0  0  0
 15 99  1  0  0  0
 16 17  2  0  0  0
 16 21  1  0  0  0
 16 31  1  0  0  0
 17 18  1  0  0  0
 17100  1  0  0  0
 18 19  2  0  0  0
 18101  1  0  0  0
 19 20  1  0  0  0
 19 24  1  0  0  0
 20 21  2  0  0  0
 20102  1  0  0  0
 21 23  1  0  0  0
 22 28  1  0  0  0
 22 32  2  0  0  0
 26 27  1  0  0  0
 28103  1  0  0  0
 28104  1  0  0  0
 29105  1  0  0  0
 29106  1  0  0  0
 33 34  1  0  0  0
 33 66  1  0  0  0
 33 70  2  0  0  0
 34 36  1  0  0  0
 34 59  1  0  0  0
 34107  1  0  0  0
 35 44  2  0  0  0
 35 45  1  0  0  0
 35 68  1  0  0  0
 36 56  1  0  0  0
 36108  1  0  0  0
 37 39  1  0  0  0
 37 47  1  0  0  0
 37 66  1  0  0  0
 37109  1  0  0  0
 38 43  2  0  0  0
 38 46  1  0  0  0
 38 47  1  0  0  0
 39 64  1  0  0  0
 39 67  2  0  0  0
 40 52  1  0  0  0
 40 53  2  0  0  0
 40 58  1  0  0  0
 41110  1  0  0  0
 41111  1  0  0  0
 41112  1  0  0  0
 41 48  1  0  0  0
 42 43  1  0  0  0
 42 66  1  0  0  0
 42113  1  0  0  0
 42114  1  0  0  0
 43 44  1  0  0  0
 44115  1  0  0  0
 45 46  2  0  0  0
 45116  1  0  0  0
 46117  1  0  0  0
 47118  1  0  0  0
 47119  1  0  0  0
 48 56  1  0  0  0
 48 65  1  0  0  0
 48120  1  0  0  0
 49 50  1  0  0  0
 49 53  1  0  0  0
 49 64  1  0  0  0
 49121  1  0  0  0
 50 51  1  0  0  0
 50122  1  0  0  0
 50123  1  0  0  0
 51 52  1  0  0  0
 51124  1  0  0  0
 51125  1  0  0  0
 52126  1  0  0  0
 52127  1  0  0  0
 53 54  1  0  0  0
 54 55  2  0  0  0
 54128  1  0  0  0
 55 57  1  0  0  0
 55129  1  0  0  0
 56 69  2  0  0  0
 57 58  2  0  0  0
 57130  1  0  0  0
 58131  1  0  0  0
 59 60  1  0  0  0
 59 61  1  0  0  0
 59 62  1  0  0  0
 60132  1  0  0  0
 60133  1  0  0  0
 60134  1  0  0  0
 61135  1  0  0  0
 61136  1  0  0  0
 61137  1  0  0  0
 62138  1  0  0  0
 62139  1  0  0  0
 62140  1  0  0  0
 63 65  1  0  0  0
 63141  1  0  0  0
 63142  1  0  0  0
 63143  1  0  0  0
 64144  1  0  0  0
 65145  1  0  0  0
 68 84  1  0  0  0
 71 72  2  0  0  0
 71 74  1  0  0  0
 71146  1  0  0  0
 72 75  1  0  0  0
 72147  1  0  0  0
 73 74  2  0  0  0
 73 76  1  0  0  0
 73148  1  0  0  0
 74 80  1  0  0  0
 75 76  2  0  0  0
 75 81  1  0  0  0
 76 82  1  0  0  0
 77 78  2  0  0  0
 77149  1  0  0  0
 77150  1  0  0  0
 78 83  1  0  0  0
 78 84  1  0  0  0
 79 82  1  0  0  0
 79151  1  0  0  0
 79152  1  0  0  0
 79153  1  0  0  0
 80 85  1  0  0  0
 80154  1  0  0  0
 80155  1  0  0  0
 81 86  1  0  0  0
 81156  1  0  0  0
 81157  1  0  0  0
 82158  1  0  0  0
 82159  1  0  0  0
 83 86  1  0  0  0
 83160  1  0  0  0
 83161  1  0  0  0
 84162  1  0  0  0
 84163  1  0  0  0
 85164  1  0  0  0
 85165  1  0  0  0
 86166  1  0  0  0
 86167  1  0  0  0
M  ISO  4   1 100  68 101  84 101  85 100
M  END
> <chiral flag>
0

> <version>
0

> <s_m_source_file>
/data/baiqing/PycharmProjects/Reinvent-master-3.2/result/LINK_invent/BTK/process_docking_weight1_custom_product_contain_oxygen_bond_distance_aromatic_linkinvent_7_9_3/rearranged_h_0132.sdf

> <i_m_source_file_index>
68

> <r_mmod_Potential_Energy-OPLS-2005>
13001.3544921875

> <r_mmod_Stretch_Energy-OPLS-2005>
6157.2880859375

> <r_mmod_Bend_Energy-OPLS-2005>
1700.986328125

> <r_mmod_Torsional_Energy-OPLS-2005>
441.016998291016

> <r_mmod_Improper_Torsional_Energy-OPLS-2005>
41.8769912719727

> <r_mmod_Van_der_Waal_Energy-OPLS-2005>
1931.93054199219

> <r_mmod_Electrostatic_Energy-OPLS-2005>
-340.778381347656

> <r_mmod_Solvation_Energy-OPLS-2005>
-179.782577514648

> <b_mmod_Minimization_Converged-OPLS-2005>
0

> <r_mmod_RMS_Derivative-OPLS-2005>
1.35278105735779

$$$$
68
                    3D
 Structure written by MMmdl.
159167  0  0  1  0            999 V2000
  -30.7362  -14.4654   20.5680 C   0  0  0  0  0  0
  -30.4176  -12.2949   19.4354 C   0  0  0  0  0  0
  -29.4997  -12.4987   18.2133 C   0  0  0  0  0  0
  -28.0200  -12.3666   18.6225 C   0  0  0  0  0  0
  -27.6620  -13.2187   19.8703 C   0  0  2  0  0  0
  -28.7065  -13.0371   20.9976 C   0  0  0  0  0  0
  -25.2592  -13.8187   20.5690 C   0  0  0  0  0  0
  -24.1860  -13.0430   20.9207 C   0  0  0  0  0  0
  -24.6442  -11.6912   20.8761 C   0  0  0  0  0  0
  -23.9122  -10.4278   21.0403 C   0  0  0  0  0  0
  -24.3653   -9.4191   21.9181 C   0  0  0  0  0  0
  -23.6305   -8.2240   22.0746 C   0  0  0  0  0  0
  -22.4286   -8.0294   21.3536 C   0  0  0  0  0  0
  -21.9945   -9.0281   20.4639 C   0  0  0  0  0  0
  -22.7300  -10.2147   20.3047 C   0  0  0  0  0  0
  -21.6856   -6.0762   22.5291 C   0  0  0  0  0  0
  -21.4009   -6.5653   23.8231 C   0  0  0  0  0  0
  -21.3656   -5.6793   24.9185 C   0  0  0  0  0  0
  -21.6053   -4.3058   24.7230 C   0  0  0  0  0  0
  -21.8812   -3.8168   23.4339 C   0  0  0  0  0  0
  -21.9181   -4.6990   22.3404 C   0  0  0  0  0  0
  -22.7873  -13.5224   21.1870 C   0  0  0  0  0  0
  -22.1648   -4.2185   21.0973 F   0  0  0  0  0  0
  -21.5633   -3.4529   25.7730 F   0  0  0  0  0  0
  -30.0414  -13.3012   20.4426 N   0  0  0  0  0  0
  -26.3038  -12.9376   20.3361 N   0  0  0  0  0  0
  -25.9374  -11.6529   20.5793 N   0  0  0  0  0  0
  -22.0507  -12.8199   22.0412 N   0  0  0  0  0  0
  -25.4284  -15.1897   20.4088 N   0  0  0  0  0  0
  -31.8675  -14.5914   20.0921 O   0  0  0  0  0  0
  -21.6629   -6.8908   21.4253 O   0  0  0  0  0  0
  -22.3549  -14.5528   20.6737 O   0  0  0  0  0  0
  -24.6130  -31.8688   23.2089 C   0  0  0  0  0  0
  -25.9041  -32.4818   23.8369 C   0  0  1  0  0  0
  -27.2323  -27.4461   20.1039 C   0  0  0  0  0  0
  -25.5916  -33.8626   24.2322 N   0  0  0  0  0  0
  -23.3982  -30.4929   21.5487 C   0  0  2  0  0  0
  -24.8456  -28.9623   20.1110 C   0  0  0  0  0  0
  -22.7400  -29.4661   22.4991 C   0  0  0  0  0  0
  -18.0301  -28.1359   22.8499 C   0  0  0  0  0  0
  -24.1480  -36.7331   23.2640 C   0  0  0  0  0  0
  -25.9253  -30.8429   21.3554 C   0  0  0  0  0  0
  -26.0054  -29.4767   20.7052 C   0  0  0  0  0  0
  -27.2022  -28.7282   20.6954 C   0  0  0  0  0  0
  -26.0573  -26.9463   19.4960 C   0  0  0  0  0  0
  -24.8670  -27.6961   19.5034 C   0  0  0  0  0  0
  -23.6051  -29.8250   20.1620 C   0  0  0  0  0  0
  -25.4100  -36.3127   24.0340 C   0  0  1  0  0  0
  -20.5895  -28.3614   23.1398 C   0  0  2  0  0  0
  -20.6798  -26.9347   22.5490 C   0  0  0  0  0  0
  -19.5812  -26.6348   21.5257 C   0  0  0  0  0  0
  -18.1951  -26.7926   22.1588 C   0  0  0  0  0  0
  -19.1549  -28.8789   23.2957 C   0  0  0  0  0  0
  -18.9482  -30.1392   23.8970 C   0  0  0  0  0  0
  -17.6493  -30.6549   24.0600 C   0  0  0  0  0  0
  -25.9038  -34.9485   23.5132 C   0  0  0  0  0  0
  -16.5389  -29.9084   23.6311 C   0  0  0  0  0  0
  -16.7295  -28.6504   23.0328 C   0  0  0  0  0  0
  -26.4473  -31.6579   25.0686 C   0  0  0  0  0  0
  -25.3769  -31.3679   26.1443 C   0  0  0  0  0  0
  -27.0305  -30.3029   24.6061 C   0  0  0  0  0  0
  -27.6044  -32.4288   25.7458 C   0  0  0  0  0  0
  -27.5574  -37.1798   24.8463 C   0  0  0  0  0  0
  -21.4128  -29.3013   22.3783 N   0  0  0  0  0  0
  -26.4286  -37.3806   23.9417 N   0  0  0  0  0  0
  -24.6633  -31.0820   22.0964 N   0  0  0  0  0  0
  -23.4195  -28.8216   23.3016 O   0  0  0  0  0  0
  -28.3949  -26.7073   20.1420 O   0  0  0  0  0  0
  -26.5584  -34.8941   22.4693 O   0  0  0  0  0  0
  -23.5333  -32.1412   23.7512 O   0  0  0  0  0  0
  -29.6940  -18.7679   22.4332 C   0  0  0  0  0  0
  -29.2667  -20.1381   22.4204 C   0  0  0  0  0  0
  -29.5457  -20.7617   21.2156 C   0  0  0  0  0  0
  -30.2918  -18.3468   21.2752 C   0  0  0  0  0  0
  -29.3274  -22.1344   20.7056 C   0  0  0  0  0  0
  -29.6029  -21.1759   24.7055 C   0  0  0  0  0  0
  -28.5981  -20.7387   23.6292 C   0  0  0  0  0  0
  -30.9293  -17.0161   20.9607 C   0  0  0  0  0  0
  -29.2141  -23.3054   21.6968 C   0  0  0  0  0  0
  -30.0746  -15.7293   21.1751 C   0  0  0  0  0  0
  -29.4343  -24.7277   21.1138 C   0  0  0  0  0  0
  -28.2239  -25.2991   20.3495 C   0  0  0  0  0  0
  -29.2945  -22.3690   19.4927 O   0  0  0  0  0  0
  -30.2838  -19.6325   20.0952 S   0  0  0  0  0  0
  -31.4658  -12.3551   19.1405 H   0  0  0  0  0  0
  -30.2857  -11.2918   19.8462 H   0  0  0  0  0  0
  -29.7414  -11.7704   17.4381 H   0  0  0  0  0  0
  -29.6790  -13.4798   17.7718 H   0  0  0  0  0  0
  -27.8287  -11.3142   18.8300 H   0  0  0  0  0  0
  -27.3727  -12.6301   17.7855 H   0  0  0  0  0  0
  -27.6925  -14.2618   19.5553 H   0  0  0  0  0  0
  -28.6688  -12.0188   21.3887 H   0  0  0  0  0  0
  -28.4814  -13.6892   21.8427 H   0  0  0  0  0  0
  -25.2799   -9.5660   22.4761 H   0  0  0  0  0  0
  -24.0035   -7.4617   22.7427 H   0  0  0  0  0  0
  -21.0900   -8.8821   19.8915 H   0  0  0  0  0  0
  -22.3786  -10.9701   19.6160 H   0  0  0  0  0  0
  -21.1994   -7.6159   23.9765 H   0  0  0  0  0  0
  -21.1493   -6.0506   25.9098 H   0  0  0  0  0  0
  -22.0595   -2.7634   23.2820 H   0  0  0  0  0  0
  -22.4110  -11.9865   22.4830 H   0  0  0  0  0  0
  -21.1116  -13.1222   22.2577 H   0  0  0  0  0  0
  -24.6640  -15.8470   20.5190 H   0  0  0  0  0  0
  -26.2841  -15.6317   20.0983 H   0  0  0  0  0  0
  -26.7122  -32.5521   23.1138 H   0  0  0  0  0  0
  -25.0089  -33.9776   25.0486 H   0  0  0  0  0  0
  -22.6866  -31.3091   21.4075 H   0  0  0  0  0  0
  -23.3745  -35.9658   23.3308 H   0  0  0  0  0  0
  -24.3590  -36.8934   22.2056 H   0  0  0  0  0  0
  -23.7212  -37.6541   23.6638 H   0  0  0  0  0  0
  -26.0274  -31.6068   20.5824 H   0  0  0  0  0  0
  -26.8189  -30.9055   21.9644 H   0  0  0  0  0  0
  -28.0960  -29.1214   21.1581 H   0  0  0  0  0  0
  -26.0509  -25.9797   19.0131 H   0  0  0  0  0  0
  -23.9762  -27.2977   19.0378 H   0  0  0  0  0  0
  -23.7070  -30.5991   19.4016 H   0  0  0  0  0  0
  -22.7285  -29.2448   19.8691 H   0  0  0  0  0  0
  -25.1258  -36.1979   25.0827 H   0  0  0  0  0  0
  -21.0030  -28.3187   24.1506 H   0  0  0  0  0  0
  -20.5680  -26.2203   23.3661 H   0  0  0  0  0  0
  -21.6701  -26.7379   22.1339 H   0  0  0  0  0  0
  -19.6970  -25.6253   21.1301 H   0  0  0  0  0  0
  -19.6845  -27.3170   20.6825 H   0  0  0  0  0  0
  -17.4286  -26.6766   21.3924 H   0  0  0  0  0  0
  -18.0264  -26.0005   22.8910 H   0  0  0  0  0  0
  -19.7964  -30.7167   24.2413 H   0  0  0  0  0  0
  -17.5068  -31.6218   24.5246 H   0  0  0  0  0  0
  -15.5404  -30.3017   23.7599 H   0  0  0  0  0  0
  -15.8701  -28.0851   22.6979 H   0  0  0  0  0  0
  -24.5935  -30.7028   25.7795 H   0  0  0  0  0  0
  -24.8979  -32.2846   26.4879 H   0  0  0  0  0  0
  -25.8138  -30.8843   27.0192 H   0  0  0  0  0  0
  -26.2857  -29.6766   24.1153 H   0  0  0  0  0  0
  -27.4149  -29.7242   25.4471 H   0  0  0  0  0  0
  -27.8633  -30.4356   23.9163 H   0  0  0  0  0  0
  -27.2656  -33.3565   26.2068 H   0  0  0  0  0  0
  -28.3836  -32.6880   25.0287 H   0  0  0  0  0  0
  -28.0748  -31.8400   26.5332 H   0  0  0  0  0  0
  -28.2585  -38.0099   24.7505 H   0  0  0  0  0  0
  -28.1063  -36.2624   24.6274 H   0  0  0  0  0  0
  -27.2296  -37.1452   25.8867 H   0  0  0  0  0  0
  -20.9275  -29.8748   21.7038 H   0  0  0  0  0  0
  -26.0178  -38.2888   24.1420 H   0  0  0  0  0  0
  -29.5555  -18.1405   23.3029 H   0  0  0  0  0  0
  -30.2444  -20.3483   25.0057 H   0  0  0  0  0  0
  -29.0848  -21.5234   25.5997 H   0  0  0  0  0  0
  -30.2474  -21.9849   24.3641 H   0  0  0  0  0  0
  -27.9232  -20.0023   24.0701 H   0  0  0  0  0  0
  -27.9494  -21.5694   23.3626 H   0  0  0  0  0  0
  -31.8482  -16.9276   21.5443 H   0  0  0  0  0  0
  -31.2526  -17.0518   19.9178 H   0  0  0  0  0  0
  -29.9488  -23.1285   22.4823 H   0  0  0  0  0  0
  -28.2352  -23.2771   22.1706 H   0  0  0  0  0  0
  -29.1047  -15.8675   20.6991 H   0  0  0  0  0  0
  -29.8922  -15.5705   22.2379 H   0  0  0  0  0  0
  -30.3249  -24.7555   20.4851 H   0  0  0  0  0  0
  -29.6497  -25.3970   21.9478 H   0  0  0  0  0  0
  -27.3296  -25.1135   20.9487 H   0  0  0  0  0  0
  -28.0804  -24.7943   19.3925 H   0  0  0  0  0  0
  1 25  1  0  0  0
  1 30  2  0  0  0
  1 80  1  0  0  0
  2  3  1  0  0  0
  2 25  1  0  0  0
  2 85  1  0  0  0
  2 86  1  0  0  0
  3  4  1  0  0  0
  3 87  1  0  0  0
  3 88  1  0  0  0
  4  5  1  0  0  0
  4 89  1  0  0  0
  4 90  1  0  0  0
  5  6  1  0  0  0
  5 26  1  0  0  0
  5 91  1  0  0  0
  6 25  1  0  0  0
  6 92  1  0  0  0
  6 93  1  0  0  0
  7  8  2  0  0  0
  7 26  1  0  0  0
  7 29  1  0  0  0
  8  9  1  0  0  0
  8 22  1  0  0  0
  9 10  1  0  0  0
  9 27  2  0  0  0
 10 11  2  0  0  0
 10 15  1  0  0  0
 11 12  1  0  0  0
 11 94  1  0  0  0
 12 13  2  0  0  0
 12 95  1  0  0  0
 13 14  1  0  0  0
 13 31  1  0  0  0
 14 15  2  0  0  0
 14 96  1  0  0  0
 15 97  1  0  0  0
 16 17  2  0  0  0
 16 21  1  0  0  0
 16 31  1  0  0  0
 17 18  1  0  0  0
 17 98  1  0  0  0
 18 19  2  0  0  0
 18 99  1  0  0  0
 19 20  1  0  0  0
 19 24  1  0  0  0
 20 21  2  0  0  0
 20100  1  0  0  0
 21 23  1  0  0  0
 22 28  1  0  0  0
 22 32  2  0  0  0
 26 27  1  0  0  0
 28101  1  0  0  0
 28102  1  0  0  0
 29103  1  0  0  0
 29104  1  0  0  0
 33 34  1  0  0  0
 33 66  1  0  0  0
 33 70  2  0  0  0
 34 36  1  0  0  0
 34 59  1  0  0  0
 34105  1  0  0  0
 35 44  2  0  0  0
 35 45  1  0  0  0
 35 68  1  0  0  0
 36 56  1  0  0  0
 36106  1  0  0  0
 37 39  1  0  0  0
 37 47  1  0  0  0
 37 66  1  0  0  0
 37107  1  0  0  0
 38 43  2  0  0  0
 38 46  1  0  0  0
 38 47  1  0  0  0
 39 64  1  0  0  0
 39 67  2  0  0  0
 40 52  1  0  0  0
 40 53  2  0  0  0
 40 58  1  0  0  0
 41108  1  0  0  0
 41109  1  0  0  0
 41110  1  0  0  0
 41 48  1  0  0  0
 42 43  1  0  0  0
 42 66  1  0  0  0
 42111  1  0  0  0
 42112  1  0  0  0
 43 44  1  0  0  0
 44113  1  0  0  0
 45 46  2  0  0  0
 45114  1  0  0  0
 46115  1  0  0  0
 47116  1  0  0  0
 47117  1  0  0  0
 48 56  1  0  0  0
 48 65  1  0  0  0
 48118  1  0  0  0
 49 50  1  0  0  0
 49 53  1  0  0  0
 49 64  1  0  0  0
 49119  1  0  0  0
 50 51  1  0  0  0
 50120  1  0  0  0
 50121  1  0  0  0
 51 52  1  0  0  0
 51122  1  0  0  0
 51123  1  0  0  0
 52124  1  0  0  0
 52125  1  0  0  0
 53 54  1  0  0  0
 54 55  2  0  0  0
 54126  1  0  0  0
 55 57  1  0  0  0
 55127  1  0  0  0
 56 69  2  0  0  0
 57 58  2  0  0  0
 57128  1  0  0  0
 58129  1  0  0  0
 59 60  1  0  0  0
 59 61  1  0  0  0
 59 62  1  0  0  0
 60130  1  0  0  0
 60131  1  0  0  0
 60132  1  0  0  0
 61133  1  0  0  0
 61134  1  0  0  0
 61135  1  0  0  0
 62136  1  0  0  0
 62137  1  0  0  0
 62138  1  0  0  0
 63 65  1  0  0  0
 63139  1  0  0  0
 63140  1  0  0  0
 63141  1  0  0  0
 64142  1  0  0  0
 65143  1  0  0  0
 68 82  1  0  0  0
 71 72  1  0  0  0
 71 74  2  0  0  0
 71144  1  0  0  0
 72 73  2  0  0  0
 72 77  1  0  0  0
 73 75  1  0  0  0
 73 84  1  0  0  0
 74 78  1  0  0  0
 74 84  1  0  0  0
 75 79  1  0  0  0
 75 83  2  0  0  0
 76 77  1  0  0  0
 76145  1  0  0  0
 76146  1  0  0  0
 76147  1  0  0  0
 77148  1  0  0  0
 77149  1  0  0  0
 78 80  1  0  0  0
 78150  1  0  0  0
 78151  1  0  0  0
 79 81  1  0  0  0
 79152  1  0  0  0
 79153  1  0  0  0
 80154  1  0  0  0
 80155  1  0  0  0
 81 82  1  0  0  0
 81156  1  0  0  0
 81157  1  0  0  0
 82158  1  0  0  0
 82159  1  0  0  0
M  ISO  4   1 100  68 101  80 100  82 101
M  END
> <chiral flag>
0

> <version>
0

> <s_m_source_file>
/data/baiqing/PycharmProjects/Reinvent-master-3.2/result/LINK_invent/BTK/process_docking_weight1_custom_product_contain_oxygen_bond_distance_aromatic_linkinvent_7_9_3/rearranged_h_0132.sdf

> <i_m_source_file_index>
69

> <r_mmod_Potential_Energy-OPLS-2005>
-64.4039306640625

> <r_mmod_Stretch_Energy-OPLS-2005>
36.5509796142578

> <r_mmod_Bend_Energy-OPLS-2005>
98.7472610473633

> <r_mmod_Torsional_Energy-OPLS-2005>
190.866256713867

> <r_mmod_Improper_Torsional_Energy-OPLS-2005>
3.29283213615417

> <r_mmod_Van_der_Waal_Energy-OPLS-2005>
131.617218017578

> <r_mmod_Electrostatic_Energy-OPLS-2005>
-339.302825927734

> <r_mmod_Solvation_Energy-OPLS-2005>
-200.533569335938

> <b_mmod_Minimization_Converged-OPLS-2005>
0

> <r_mmod_RMS_Derivative-OPLS-2005>
3.32928085327148

$$$$
69
                    3D
 Structure written by MMmdl.
163171  0  0  1  0            999 V2000
  -30.7941  -14.3644   20.6527 C   0  0  0  0  0  0
  -30.4081  -12.2818   19.3926 C   0  0  0  0  0  0
  -29.4782  -12.5147   18.1878 C   0  0  0  0  0  0
  -28.0042  -12.3833   18.6098 C   0  0  0  0  0  0
  -27.6660  -13.2104   19.8778 C   0  0  2  0  0  0
  -28.7097  -12.9713   20.9936 C   0  0  0  0  0  0
  -25.2605  -13.8176   20.5687 C   0  0  0  0  0  0
  -24.1861  -13.0450   20.9166 C   0  0  0  0  0  0
  -24.6427  -11.6918   20.8744 C   0  0  0  0  0  0
  -23.9095  -10.4302   21.0419 C   0  0  0  0  0  0
  -24.3643   -9.4207   21.9198 C   0  0  0  0  0  0
  -23.6305   -8.2249   22.0760 C   0  0  0  0  0  0
  -22.4284   -8.0295   21.3552 C   0  0  0  0  0  0
  -21.9933   -9.0277   20.4652 C   0  0  0  0  0  0
  -22.7271  -10.2151   20.3063 C   0  0  0  0  0  0
  -21.6845   -6.0748   22.5288 C   0  0  0  0  0  0
  -21.4008   -6.5654   23.8225 C   0  0  0  0  0  0
  -21.3655   -5.6801   24.9186 C   0  0  0  0  0  0
  -21.6035   -4.3061   24.7229 C   0  0  0  0  0  0
  -21.8821   -3.8157   23.4349 C   0  0  0  0  0  0
  -21.9195   -4.6978   22.3408 C   0  0  0  0  0  0
  -22.7878  -13.5237   21.1833 C   0  0  0  0  0  0
  -22.1658   -4.2165   21.0980 F   0  0  0  0  0  0
  -21.5633   -3.4546   25.7739 F   0  0  0  0  0  0
  -30.0510  -13.2458   20.4465 N   0  0  0  0  0  0
  -26.3062  -12.9372   20.3395 N   0  0  0  0  0  0
  -25.9357  -11.6519   20.5785 N   0  0  0  0  0  0
  -22.0507  -12.8241   22.0379 N   0  0  0  0  0  0
  -25.4320  -15.1899   20.4085 N   0  0  0  0  0  0
  -31.8214  -14.6107   20.0156 O   0  0  0  0  0  0
  -21.6632   -6.8900   21.4253 O   0  0  0  0  0  0
  -22.3574  -14.5548   20.6670 O   0  0  0  0  0  0
  -24.6132  -31.8682   23.2096 C   0  0  0  0  0  0
  -25.9022  -32.4834   23.8402 C   0  0  1  0  0  0
  -27.2500  -27.4509   20.0832 C   0  0  0  0  0  0
  -25.5869  -33.8623   24.2338 N   0  0  0  0  0  0
  -23.4011  -30.4894   21.5520 C   0  0  2  0  0  0
  -24.8502  -28.9527   20.1198 C   0  0  0  0  0  0
  -22.7405  -29.4657   22.5030 C   0  0  0  0  0  0
  -18.0259  -28.1351   22.8512 C   0  0  0  0  0  0
  -24.1493  -36.7314   23.2639 C   0  0  0  0  0  0
  -25.9289  -30.8385   21.3629 C   0  0  0  0  0  0
  -26.0070  -29.4714   20.7115 C   0  0  0  0  0  0
  -27.2046  -28.7247   20.6943 C   0  0  0  0  0  0
  -26.0691  -26.9336   19.5027 C   0  0  0  0  0  0
  -24.8737  -27.6810   19.5176 C   0  0  0  0  0  0
  -23.6076  -29.8150   20.1706 C   0  0  0  0  0  0
  -25.4111  -36.3119   24.0346 C   0  0  1  0  0  0
  -20.5861  -28.3642   23.1355 C   0  0  2  0  0  0
  -20.6755  -26.9388   22.5446 C   0  0  0  0  0  0
  -19.5743  -26.6372   21.5223 C   0  0  0  0  0  0
  -18.1904  -26.7900   22.1618 C   0  0  0  0  0  0
  -19.1516  -28.8806   23.2921 C   0  0  0  0  0  0
  -18.9434  -30.1405   23.8945 C   0  0  0  0  0  0
  -17.6444  -30.6582   24.0559 C   0  0  0  0  0  0
  -25.9030  -34.9481   23.5157 C   0  0  0  0  0  0
  -16.5332  -29.9090   23.6319 C   0  0  0  0  0  0
  -16.7251  -28.6484   23.0379 C   0  0  0  0  0  0
  -26.4447  -31.6610   25.0729 C   0  0  0  0  0  0
  -25.3679  -31.3708   26.1456 C   0  0  0  0  0  0
  -27.0282  -30.3057   24.6098 C   0  0  0  0  0  0
  -27.6037  -32.4318   25.7469 C   0  0  0  0  0  0
  -27.5584  -37.1816   24.8461 C   0  0  0  0  0  0
  -21.4136  -29.3012   22.3761 N   0  0  0  0  0  0
  -26.4300  -37.3805   23.9402 N   0  0  0  0  0  0
  -24.6658  -31.0810   22.0986 N   0  0  0  0  0  0
  -23.4196  -28.8196   23.3071 O   0  0  0  0  0  0
  -28.4642  -26.7936   20.0820 O   0  0  0  0  0  0
  -26.5622  -34.8922   22.4729 O   0  0  0  0  0  0
  -23.5333  -32.1391   23.7515 O   0  0  0  0  0  0
  -29.0433  -18.8248   24.1315 C   0  0  0  0  0  0
  -28.8322  -19.8418   23.1806 C   0  0  0  0  0  0
  -30.0783  -18.5539   21.5425 C   0  0  0  0  0  0
  -29.7777  -17.6664   23.8036 C   0  0  0  0  0  0
  -30.3062  -17.5311   22.4947 C   0  0  0  0  0  0
  -29.3608  -19.7259   21.8721 C   0  0  0  0  0  0
  -31.2506  -16.8832   25.7246 C   0  0  0  0  0  0
  -29.9976  -16.6110   24.8813 C   0  0  0  0  0  0
  -31.1612  -16.3334   22.0963 C   0  0  0  0  0  0
  -28.2727  -24.3865   20.5199 C   0  0  0  0  0  0
  -28.8821  -23.0129   20.1651 C   0  0  0  0  0  0
  -28.6124  -25.4942   19.5034 C   0  0  0  0  0  0
  -28.6675  -21.9612   21.2714 C   0  0  0  0  0  0
  -30.3855  -15.1823   21.6295 N   0  0  0  0  0  0
  -29.2313  -20.7007   20.8981 O   0  0  0  0  0  0
  -31.4521  -12.3597   19.0813 H   0  0  0  0  0  0
  -30.2935  -11.2646   19.7679 H   0  0  0  0  0  0
  -29.7008  -11.7976   17.3958 H   0  0  0  0  0  0
  -29.6580  -13.5034   17.7638 H   0  0  0  0  0  0
  -27.8065  -11.3264   18.7907 H   0  0  0  0  0  0
  -27.3516  -12.6770   17.7864 H   0  0  0  0  0  0
  -27.7194  -14.2621   19.5970 H   0  0  0  0  0  0
  -28.6695  -11.9351   21.3323 H   0  0  0  0  0  0
  -28.4699  -13.5747   21.8690 H   0  0  0  0  0  0
  -25.2795   -9.5666   22.4768 H   0  0  0  0  0  0
  -24.0007   -7.4634   22.7485 H   0  0  0  0  0  0
  -21.0865   -8.8821   19.8954 H   0  0  0  0  0  0
  -22.3764  -10.9699   19.6170 H   0  0  0  0  0  0
  -21.1994   -7.6164   23.9738 H   0  0  0  0  0  0
  -21.1471   -6.0527   25.9089 H   0  0  0  0  0  0
  -22.0600   -2.7621   23.2848 H   0  0  0  0  0  0
  -22.4121  -11.9914   22.4782 H   0  0  0  0  0  0
  -21.1116  -13.1284   22.2553 H   0  0  0  0  0  0
  -24.6702  -15.8490   20.5241 H   0  0  0  0  0  0
  -26.2957  -15.6300   20.1143 H   0  0  0  0  0  0
  -26.7104  -32.5615   23.1188 H   0  0  0  0  0  0
  -24.9952  -33.9757   25.0441 H   0  0  0  0  0  0
  -22.6871  -31.3026   21.4140 H   0  0  0  0  0  0
  -23.3761  -35.9644   23.3299 H   0  0  0  0  0  0
  -24.3563  -36.8921   22.2046 H   0  0  0  0  0  0
  -23.7239  -37.6514   23.6660 H   0  0  0  0  0  0
  -26.0379  -31.6082   20.5977 H   0  0  0  0  0  0
  -26.8175  -30.8951   21.9816 H   0  0  0  0  0  0
  -28.1003  -29.1264   21.1498 H   0  0  0  0  0  0
  -26.0519  -25.9618   19.0324 H   0  0  0  0  0  0
  -23.9825  -27.2721   19.0637 H   0  0  0  0  0  0
  -23.7017  -30.5867   19.4061 H   0  0  0  0  0  0
  -22.7327  -29.2258   19.8891 H   0  0  0  0  0  0
  -25.1297  -36.1976   25.0845 H   0  0  0  0  0  0
  -20.9967  -28.3243   24.1477 H   0  0  0  0  0  0
  -20.5683  -26.2244   23.3625 H   0  0  0  0  0  0
  -21.6612  -26.7447   22.1214 H   0  0  0  0  0  0
  -19.6918  -25.6303   21.1220 H   0  0  0  0  0  0
  -19.6678  -27.3205   20.6780 H   0  0  0  0  0  0
  -17.4171  -26.6652   21.4019 H   0  0  0  0  0  0
  -18.0272  -26.0040   22.9005 H   0  0  0  0  0  0
  -19.7915  -30.7173   24.2373 H   0  0  0  0  0  0
  -17.5011  -31.6287   24.5111 H   0  0  0  0  0  0
  -15.5335  -30.3015   23.7621 H   0  0  0  0  0  0
  -15.8630  -28.0820   22.7123 H   0  0  0  0  0  0
  -24.5923  -30.6974   25.7788 H   0  0  0  0  0  0
  -24.8757  -32.2833   26.4847 H   0  0  0  0  0  0
  -25.8006  -30.8948   27.0260 H   0  0  0  0  0  0
  -26.2845  -29.6822   24.1125 H   0  0  0  0  0  0
  -27.4013  -29.7301   25.4576 H   0  0  0  0  0  0
  -27.8695  -30.4368   23.9281 H   0  0  0  0  0  0
  -27.2714  -33.3658   26.2014 H   0  0  0  0  0  0
  -28.3864  -32.6784   25.0284 H   0  0  0  0  0  0
  -28.0667  -31.8422   26.5388 H   0  0  0  0  0  0
  -28.2630  -38.0094   24.7528 H   0  0  0  0  0  0
  -28.1065  -36.2630   24.6301 H   0  0  0  0  0  0
  -27.2287  -37.1475   25.8860 H   0  0  0  0  0  0
  -20.9269  -29.8693   21.6973 H   0  0  0  0  0  0
  -26.0205  -38.2902   24.1383 H   0  0  0  0  0  0
  -28.6433  -18.9465   25.1285 H   0  0  0  0  0  0
  -28.2631  -20.7071   23.4869 H   0  0  0  0  0  0
  -30.4896  -18.4511   20.5472 H   0  0  0  0  0  0
  -31.4339  -16.0652   26.4220 H   0  0  0  0  0  0
  -31.1361  -17.7979   26.3069 H   0  0  0  0  0  0
  -32.1389  -16.9912   25.1013 H   0  0  0  0  0  0
  -30.0536  -15.6165   24.4389 H   0  0  0  0  0  0
  -29.1248  -16.5832   25.5354 H   0  0  0  0  0  0
  -31.7870  -16.0150   22.9303 H   0  0  0  0  0  0
  -31.8684  -16.6728   21.3365 H   0  0  0  0  0  0
  -28.6427  -24.6858   21.5001 H   0  0  0  0  0  0
  -27.1905  -24.2983   20.6190 H   0  0  0  0  0  0
  -29.9542  -23.1272   19.9994 H   0  0  0  0  0  0
  -28.4686  -22.6596   19.2196 H   0  0  0  0  0  0
  -28.0708  -25.3775   18.5649 H   0  0  0  0  0  0
  -29.6670  -25.4123   19.2348 H   0  0  0  0  0  0
  -27.6013  -21.8441   21.4720 H   0  0  0  0  0  0
  -29.1442  -22.3235   22.1845 H   0  0  0  0  0  0
  -29.5387  -14.9439   22.1219 H   0  0  0  0  0  0
  1 25  1  0  0  0
  1 30  2  0  0  0
  1 84  1  0  0  0
  2  3  1  0  0  0
  2 25  1  0  0  0
  2 86  1  0  0  0
  2 87  1  0  0  0
  3  4  1  0  0  0
  3 88  1  0  0  0
  3 89  1  0  0  0
  4  5  1  0  0  0
  4 90  1  0  0  0
  4 91  1  0  0  0
  5  6  1  0  0  0
  5 26  1  0  0  0
  5 92  1  0  0  0
  6 25  1  0  0  0
  6 93  1  0  0  0
  6 94  1  0  0  0
  7  8  2  0  0  0
  7 26  1  0  0  0
  7 29  1  0  0  0
  8  9  1  0  0  0
  8 22  1  0  0  0
  9 10  1  0  0  0
  9 27  2  0  0  0
 10 11  2  0  0  0
 10 15  1  0  0  0
 11 12  1  0  0  0
 11 95  1  0  0  0
 12 13  2  0  0  0
 12 96  1  0  0  0
 13 14  1  0  0  0
 13 31  1  0  0  0
 14 15  2  0  0  0
 14 97  1  0  0  0
 15 98  1  0  0  0
 16 17  2  0  0  0
 16 21  1  0  0  0
 16 31  1  0  0  0
 17 18  1  0  0  0
 17 99  1  0  0  0
 18 19  2  0  0  0
 18100  1  0  0  0
 19 20  1  0  0  0
 19 24  1  0  0  0
 20 21  2  0  0  0
 20101  1  0  0  0
 21 23  1  0  0  0
 22 28  1  0  0  0
 22 32  2  0  0  0
 26 27  1  0  0  0
 28102  1  0  0  0
 28103  1  0  0  0
 29104  1  0  0  0
 29105  1  0  0  0
 33 34  1  0  0  0
 33 66  1  0  0  0
 33 70  2  0  0  0
 34 36  1  0  0  0
 34 59  1  0  0  0
 34106  1  0  0  0
 35 44  2  0  0  0
 35 45  1  0  0  0
 35 68  1  0  0  0
 36 56  1  0  0  0
 36107  1  0  0  0
 37 39  1  0  0  0
 37 47  1  0  0  0
 37 66  1  0  0  0
 37108  1  0  0  0
 38 43  2  0  0  0
 38 46  1  0  0  0
 38 47  1  0  0  0
 39 64  1  0  0  0
 39 67  2  0  0  0
 40 52  1  0  0  0
 40 53  2  0  0  0
 40 58  1  0  0  0
 41109  1  0  0  0
 41110  1  0  0  0
 41111  1  0  0  0
 41 48  1  0  0  0
 42 43  1  0  0  0
 42 66  1  0  0  0
 42112  1  0  0  0
 42113  1  0  0  0
 43 44  1  0  0  0
 44114  1  0  0  0
 45 46  2  0  0  0
 45115  1  0  0  0
 46116  1  0  0  0
 47117  1  0  0  0
 47118  1  0  0  0
 48 56  1  0  0  0
 48 65  1  0  0  0
 48119  1  0  0  0
 49 50  1  0  0  0
 49 53  1  0  0  0
 49 64  1  0  0  0
 49120  1  0  0  0
 50 51  1  0  0  0
 50121  1  0  0  0
 50122  1  0  0  0
 51 52  1  0  0  0
 51123  1  0  0  0
 51124  1  0  0  0
 52125  1  0  0  0
 52126  1  0  0  0
 53 54  1  0  0  0
 54 55  2  0  0  0
 54127  1  0  0  0
 55 57  1  0  0  0
 55128  1  0  0  0
 56 69  2  0  0  0
 57 58  2  0  0  0
 57129  1  0  0  0
 58130  1  0  0  0
 59 60  1  0  0  0
 59 61  1  0  0  0
 59 62  1  0  0  0
 60131  1  0  0  0
 60132  1  0  0  0
 60133  1  0  0  0
 61134  1  0  0  0
 61135  1  0  0  0
 61136  1  0  0  0
 62137  1  0  0  0
 62138  1  0  0  0
 62139  1  0  0  0
 63 65  1  0  0  0
 63140  1  0  0  0
 63141  1  0  0  0
 63142  1  0  0  0
 64143  1  0  0  0
 65144  1  0  0  0
 68 82  1  0  0  0
 71 72  2  0  0  0
 71 74  1  0  0  0
 71145  1  0  0  0
 72 76  1  0  0  0
 72146  1  0  0  0
 73 75  1  0  0  0
 73 76  2  0  0  0
 73147  1  0  0  0
 74 75  2  0  0  0
 74 78  1  0  0  0
 75 79  1  0  0  0
 76 85  1  0  0  0
 77 78  1  0  0  0
 77148  1  0  0  0
 77149  1  0  0  0
 77150  1  0  0  0
 78151  1  0  0  0
 78152  1  0  0  0
 79 84  1  0  0  0
 79153  1  0  0  0
 79154  1  0  0  0
 80 81  1  0  0  0
 80 82  1  0  0  0
 80155  1  0  0  0
 80156  1  0  0  0
 81 83  1  0  0  0
 81157  1  0  0  0
 81158  1  0  0  0
 82159  1  0  0  0
 82160  1  0  0  0
 83 85  1  0  0  0
 83161  1  0  0  0
 83162  1  0  0  0
 84163  1  0  0  0
M  ISO  4   1 100  68 101  82 101  84 100
M  END
> <chiral flag>
0

> <version>
0

> <s_m_source_file>
/data/baiqing/PycharmProjects/Reinvent-master-3.2/result/LINK_invent/BTK/process_docking_weight1_custom_product_contain_oxygen_bond_distance_aromatic_linkinvent_7_9_3/rearranged_h_0132.sdf

> <i_m_source_file_index>
70

> <r_mmod_Potential_Energy-OPLS-2005>
-139.13639831543

> <r_mmod_Stretch_Energy-OPLS-2005>
35.3434562683105

> <r_mmod_Bend_Energy-OPLS-2005>
105.196258544922

> <r_mmod_Torsional_Energy-OPLS-2005>
189.706787109375

> <r_mmod_Improper_Torsional_Energy-OPLS-2005>
1.87252402305603

> <r_mmod_Van_der_Waal_Energy-OPLS-2005>
159.224639892578

> <r_mmod_Electrostatic_Energy-OPLS-2005>
-435.899108886719

> <r_mmod_Solvation_Energy-OPLS-2005>
-203.37873840332

> <b_mmod_Minimization_Converged-OPLS-2005>
0

> <r_mmod_RMS_Derivative-OPLS-2005>
2.85281443595886

$$$$
70
                    3D
 Structure written by MMmdl.
164172  0  0  1  0            999 V2000
  -30.7211  -14.4010   20.6383 C   0  0  0  0  0  0
  -30.4251  -12.2878   19.4023 C   0  0  0  0  0  0
  -29.4912  -12.5171   18.1973 C   0  0  0  0  0  0
  -28.0122  -12.3780   18.6105 C   0  0  0  0  0  0
  -27.6675  -13.1984   19.8818 C   0  0  2  0  0  0
  -28.7051  -12.9297   20.9941 C   0  0  0  0  0  0
  -25.2612  -13.8148   20.5664 C   0  0  0  0  0  0
  -24.1848  -13.0438   20.9164 C   0  0  0  0  0  0
  -24.6386  -11.6900   20.8721 C   0  0  0  0  0  0
  -23.9051  -10.4291   21.0397 C   0  0  0  0  0  0
  -24.3604   -9.4204   21.9174 C   0  0  0  0  0  0
  -23.6281   -8.2242   22.0751 C   0  0  0  0  0  0
  -22.4261   -8.0280   21.3546 C   0  0  0  0  0  0
  -21.9888   -9.0254   20.4653 C   0  0  0  0  0  0
  -22.7219  -10.2131   20.3050 C   0  0  0  0  0  0
  -21.6855   -6.0724   22.5277 C   0  0  0  0  0  0
  -21.4016   -6.5628   23.8208 C   0  0  0  0  0  0
  -21.3658   -5.6783   24.9171 C   0  0  0  0  0  0
  -21.6042   -4.3045   24.7226 C   0  0  0  0  0  0
  -21.8822   -3.8136   23.4348 C   0  0  0  0  0  0
  -21.9194   -4.6951   22.3399 C   0  0  0  0  0  0
  -22.7870  -13.5242   21.1825 C   0  0  0  0  0  0
  -22.1662   -4.2139   21.0979 F   0  0  0  0  0  0
  -21.5629   -3.4533   25.7739 F   0  0  0  0  0  0
  -30.0440  -13.2374   20.4572 N   0  0  0  0  0  0
  -26.3047  -12.9303   20.3381 N   0  0  0  0  0  0
  -25.9310  -11.6469   20.5754 N   0  0  0  0  0  0
  -22.0511  -12.8250   22.0399 N   0  0  0  0  0  0
  -25.4348  -15.1862   20.4031 N   0  0  0  0  0  0
  -31.8066  -14.6424   20.1000 O   0  0  0  0  0  0
  -21.6637   -6.8868   21.4239 O   0  0  0  0  0  0
  -22.3551  -14.5539   20.6666 O   0  0  0  0  0  0
  -24.6108  -31.8701   23.2123 C   0  0  0  0  0  0
  -25.9017  -32.4832   23.8405 C   0  0  1  0  0  0
  -27.2420  -27.4702   20.0718 C   0  0  0  0  0  0
  -25.5883  -33.8633   24.2340 N   0  0  0  0  0  0
  -23.3981  -30.4923   21.5520 C   0  0  2  0  0  0
  -24.8452  -28.9602   20.1176 C   0  0  0  0  0  0
  -22.7386  -29.4659   22.5005 C   0  0  0  0  0  0
  -18.0262  -28.1372   22.8489 C   0  0  0  0  0  0
  -24.1482  -36.7317   23.2637 C   0  0  0  0  0  0
  -25.9242  -30.8395   21.3659 C   0  0  0  0  0  0
  -26.0015  -29.4745   20.7176 C   0  0  0  0  0  0
  -27.1994  -28.7284   20.7077 C   0  0  0  0  0  0
  -26.0642  -26.9525   19.4889 C   0  0  0  0  0  0
  -24.8679  -27.6929   19.5089 C   0  0  0  0  0  0
  -23.6064  -29.8238   20.1665 C   0  0  0  0  0  0
  -25.4098  -36.3117   24.0344 C   0  0  1  0  0  0
  -20.5851  -28.3650   23.1332 C   0  0  2  0  0  0
  -20.6754  -26.9389   22.5427 C   0  0  0  0  0  0
  -19.5741  -26.6382   21.5209 C   0  0  0  0  0  0
  -18.1914  -26.7920   22.1613 C   0  0  0  0  0  0
  -19.1513  -28.8827   23.2910 C   0  0  0  0  0  0
  -18.9446  -30.1432   23.8921 C   0  0  0  0  0  0
  -17.6453  -30.6579   24.0566 C   0  0  0  0  0  0
  -25.9025  -34.9479   23.5138 C   0  0  0  0  0  0
  -16.5341  -29.9084   23.6324 C   0  0  0  0  0  0
  -16.7253  -28.6501   23.0345 C   0  0  0  0  0  0
  -26.4461  -31.6608   25.0724 C   0  0  0  0  0  0
  -25.3745  -31.3724   26.1491 C   0  0  0  0  0  0
  -27.0277  -30.3046   24.6094 C   0  0  0  0  0  0
  -27.6055  -32.4316   25.7466 C   0  0  0  0  0  0
  -27.5580  -37.1802   24.8456 C   0  0  0  0  0  0
  -21.4118  -29.3021   22.3741 N   0  0  0  0  0  0
  -26.4286  -37.3796   23.9411 N   0  0  0  0  0  0
  -24.6619  -31.0817   22.1018 N   0  0  0  0  0  0
  -23.4168  -28.8203   23.3046 O   0  0  0  0  0  0
  -28.4197  -26.7631   20.0511 O   0  0  0  0  0  0
  -26.5589  -34.8932   22.4702 O   0  0  0  0  0  0
  -23.5306  -32.1444   23.7530 O   0  0  0  0  0  0
  -31.6941  -18.6694   21.5980 C   0  0  0  0  0  0
  -31.5072  -17.2820   21.7290 C   0  0  0  0  0  0
  -29.2450  -17.5215   20.8566 C   0  0  0  0  0  0
  -30.6815  -19.4924   21.0591 C   0  0  0  0  0  0
  -30.2888  -16.7005   21.3295 C   0  0  0  0  0  0
  -29.4353  -18.9171   20.6895 C   0  0  0  0  0  0
  -31.0241  -20.9089   20.8203 C   0  0  0  0  0  0
  -30.6000  -21.6561   19.7844 C   0  0  0  0  0  0
  -26.5262  -20.2788   18.8812 C   0  0  0  0  0  0
  -30.9729  -23.1040   19.5422 C   0  0  0  0  0  0
  -29.7366  -24.0107   19.4376 C   0  0  0  0  0  0
  -30.0806  -25.4168   18.9167 C   0  0  0  0  0  0
  -27.2985  -19.1684   19.5951 C   0  0  0  0  0  0
  -28.8508  -26.3227   18.7662 C   0  0  0  0  0  0
  -30.0841  -15.3022   21.4019 N   0  0  0  0  0  0
  -28.4497  -19.7478   20.1943 O   0  0  0  0  0  0
  -31.4682  -12.3967   19.0975 H   0  0  0  0  0  0
  -30.3311  -11.2657   19.7719 H   0  0  0  0  0  0
  -29.7244  -11.8087   17.4012 H   0  0  0  0  0  0
  -29.6648  -13.5111   17.7829 H   0  0  0  0  0  0
  -27.8148  -11.3200   18.7881 H   0  0  0  0  0  0
  -27.3623  -12.6736   17.7863 H   0  0  0  0  0  0
  -27.7285  -14.2531   19.6116 H   0  0  0  0  0  0
  -28.6733  -11.8807   21.2913 H   0  0  0  0  0  0
  -28.4578  -13.4846   21.9001 H   0  0  0  0  0  0
  -25.2756   -9.5681   22.4738 H   0  0  0  0  0  0
  -23.9999   -7.4632   22.7461 H   0  0  0  0  0  0
  -21.0819   -8.8773   19.8960 H   0  0  0  0  0  0
  -22.3681  -10.9665   19.6152 H   0  0  0  0  0  0
  -21.2010   -7.6137   23.9706 H   0  0  0  0  0  0
  -21.1474   -6.0514   25.9074 H   0  0  0  0  0  0
  -22.0603   -2.7598   23.2856 H   0  0  0  0  0  0
  -22.4110  -11.9912   22.4801 H   0  0  0  0  0  0
  -21.1133  -13.1293   22.2602 H   0  0  0  0  0  0
  -24.6671  -15.8421   20.4966 H   0  0  0  0  0  0
  -26.2814  -15.6132   20.0535 H   0  0  0  0  0  0
  -26.7088  -32.5560   23.1172 H   0  0  0  0  0  0
  -25.0035  -33.9798   25.0485 H   0  0  0  0  0  0
  -22.6852  -31.3075   21.4127 H   0  0  0  0  0  0
  -23.3743  -35.9651   23.3306 H   0  0  0  0  0  0
  -24.3586  -36.8923   22.2051 H   0  0  0  0  0  0
  -23.7240  -37.6527   23.6648 H   0  0  0  0  0  0
  -26.0352  -31.6047   20.5966 H   0  0  0  0  0  0
  -26.8131  -30.8945   21.9821 H   0  0  0  0  0  0
  -28.0945  -29.1221   21.1695 H   0  0  0  0  0  0
  -26.0593  -25.9757   19.0273 H   0  0  0  0  0  0
  -23.9759  -27.2841   19.0545 H   0  0  0  0  0  0
  -23.7129  -30.5972   19.4048 H   0  0  0  0  0  0
  -22.7321  -29.2401   19.8728 H   0  0  0  0  0  0
  -25.1273  -36.1983   25.0837 H   0  0  0  0  0  0
  -20.9941  -28.3210   24.1453 H   0  0  0  0  0  0
  -20.5639  -26.2252   23.3603 H   0  0  0  0  0  0
  -21.6629  -26.7424   22.1234 H   0  0  0  0  0  0
  -19.6902  -25.6297   21.1227 H   0  0  0  0  0  0
  -19.6690  -27.3198   20.6746 H   0  0  0  0  0  0
  -17.4188  -26.6671   21.4008 H   0  0  0  0  0  0
  -18.0308  -26.0053   22.8998 H   0  0  0  0  0  0
  -19.7926  -30.7235   24.2303 H   0  0  0  0  0  0
  -17.5013  -31.6264   24.5159 H   0  0  0  0  0  0
  -15.5345  -30.2998   23.7634 H   0  0  0  0  0  0
  -15.8648  -28.0825   22.7057 H   0  0  0  0  0  0
  -24.5903  -30.7077   25.7849 H   0  0  0  0  0  0
  -24.8954  -32.2888   26.4950 H   0  0  0  0  0  0
  -25.8112  -30.8891   27.0240 H   0  0  0  0  0  0
  -26.2804  -29.6814   24.1168 H   0  0  0  0  0  0
  -27.4067  -29.7280   25.4543 H   0  0  0  0  0  0
  -27.8638  -30.4357   23.9219 H   0  0  0  0  0  0
  -27.2694  -33.3607   26.2084 H   0  0  0  0  0  0
  -28.3833  -32.6891   25.0264 H   0  0  0  0  0  0
  -28.0762  -31.8421   26.5344 H   0  0  0  0  0  0
  -28.2599  -38.0098   24.7518 H   0  0  0  0  0  0
  -28.1076  -36.2639   24.6251 H   0  0  0  0  0  0
  -27.2314  -37.1425   25.8864 H   0  0  0  0  0  0
  -20.9265  -29.8747   21.6975 H   0  0  0  0  0  0
  -26.0181  -38.2872   24.1434 H   0  0  0  0  0  0
  -32.6462  -19.0974   21.8791 H   0  0  0  0  0  0
  -32.3087  -16.6664   22.1145 H   0  0  0  0  0  0
  -28.3088  -17.0536   20.5932 H   0  0  0  0  0  0
  -31.6702  -21.3665   21.5563 H   0  0  0  0  0  0
  -29.9575  -21.2173   19.0347 H   0  0  0  0  0  0
  -25.6216  -19.8861   18.4156 H   0  0  0  0  0  0
  -27.1332  -20.7345   18.0987 H   0  0  0  0  0  0
  -26.2315  -21.0647   19.5767 H   0  0  0  0  0  0
  -31.5368  -23.1389   18.6088 H   0  0  0  0  0  0
  -31.6440  -23.4613   20.3253 H   0  0  0  0  0  0
  -29.2467  -24.0807   20.4099 H   0  0  0  0  0  0
  -29.0104  -23.5558   18.7618 H   0  0  0  0  0  0
  -30.5542  -25.3184   17.9389 H   0  0  0  0  0  0
  -30.8170  -25.8978   19.5616 H   0  0  0  0  0  0
  -27.5785  -18.4050   18.8673 H   0  0  0  0  0  0
  -26.6683  -18.7037   20.3545 H   0  0  0  0  0  0
  -28.0764  -25.7905   18.2138 H   0  0  0  0  0  0
  -29.1154  -27.2001   18.1739 H   0  0  0  0  0  0
  -29.1874  -14.9904   21.7440 H   0  0  0  0  0  0
  1 25  1  0  0  0
  1 30  2  0  0  0
  1 85  1  0  0  0
  2  3  1  0  0  0
  2 25  1  0  0  0
  2 87  1  0  0  0
  2 88  1  0  0  0
  3  4  1  0  0  0
  3 89  1  0  0  0
  3 90  1  0  0  0
  4  5  1  0  0  0
  4 91  1  0  0  0
  4 92  1  0  0  0
  5  6  1  0  0  0
  5 26  1  0  0  0
  5 93  1  0  0  0
  6 25  1  0  0  0
  6 94  1  0  0  0
  6 95  1  0  0  0
  7  8  2  0  0  0
  7 26  1  0  0  0
  7 29  1  0  0  0
  8  9  1  0  0  0
  8 22  1  0  0  0
  9 10  1  0  0  0
  9 27  2  0  0  0
 10 11  2  0  0  0
 10 15  1  0  0  0
 11 12  1  0  0  0
 11 96  1  0  0  0
 12 13  2  0  0  0
 12 97  1  0  0  0
 13 14  1  0  0  0
 13 31  1  0  0  0
 14 15  2  0  0  0
 14 98  1  0  0  0
 15 99  1  0  0  0
 16 17  2  0  0  0
 16 21  1  0  0  0
 16 31  1  0  0  0
 17 18  1  0  0  0
 17100  1  0  0  0
 18 19  2  0  0  0
 18101  1  0  0  0
 19 20  1  0  0  0
 19 24  1  0  0  0
 20 21  2  0  0  0
 20102  1  0  0  0
 21 23  1  0  0  0
 22 28  1  0  0  0
 22 32  2  0  0  0
 26 27  1  0  0  0
 28103  1  0  0  0
 28104  1  0  0  0
 29105  1  0  0  0
 29106  1  0  0  0
 33 34  1  0  0  0
 33 66  1  0  0  0
 33 70  2  0  0  0
 34 36  1  0  0  0
 34 59  1  0  0  0
 34107  1  0  0  0
 35 44  2  0  0  0
 35 45  1  0  0  0
 35 68  1  0  0  0
 36 56  1  0  0  0
 36108  1  0  0  0
 37 39  1  0  0  0
 37 47  1  0  0  0
 37 66  1  0  0  0
 37109  1  0  0  0
 38 43  2  0  0  0
 38 46  1  0  0  0
 38 47  1  0  0  0
 39 64  1  0  0  0
 39 67  2  0  0  0
 40 52  1  0  0  0
 40 53  2  0  0  0
 40 58  1  0  0  0
 41110  1  0  0  0
 41111  1  0  0  0
 41112  1  0  0  0
 41 48  1  0  0  0
 42 43  1  0  0  0
 42 66  1  0  0  0
 42113  1  0  0  0
 42114  1  0  0  0
 43 44  1  0  0  0
 44115  1  0  0  0
 45 46  2  0  0  0
 45116  1  0  0  0
 46117  1  0  0  0
 47118  1  0  0  0
 47119  1  0  0  0
 48 56  1  0  0  0
 48 65  1  0  0  0
 48120  1  0  0  0
 49 50  1  0  0  0
 49 53  1  0  0  0
 49 64  1  0  0  0
 49121  1  0  0  0
 50 51  1  0  0  0
 50122  1  0  0  0
 50123  1  0  0  0
 51 52  1  0  0  0
 51124  1  0  0  0
 51125  1  0  0  0
 52126  1  0  0  0
 52127  1  0  0  0
 53 54  1  0  0  0
 54 55  2  0  0  0
 54128  1  0  0  0
 55 57  1  0  0  0
 55129  1  0  0  0
 56 69  2  0  0  0
 57 58  2  0  0  0
 57130  1  0  0  0
 58131  1  0  0  0
 59 60  1  0  0  0
 59 61  1  0  0  0
 59 62  1  0  0  0
 60132  1  0  0  0
 60133  1  0  0  0
 60134  1  0  0  0
 61135  1  0  0  0
 61136  1  0  0  0
 61137  1  0  0  0
 62138  1  0  0  0
 62139  1  0  0  0
 62140  1  0  0  0
 63 65  1  0  0  0
 63141  1  0  0  0
 63142  1  0  0  0
 63143  1  0  0  0
 64144  1  0  0  0
 65145  1  0  0  0
 68 84  1  0  0  0
 71 72  2  0  0  0
 71 74  1  0  0  0
 71146  1  0  0  0
 72 75  1  0  0  0
 72147  1  0  0  0
 73 75  2  0  0  0
 73 76  1  0  0  0
 73148  1  0  0  0
 74 76  2  0  0  0
 74 77  1  0  0  0
 75 85  1  0  0  0
 76 86  1  0  0  0
 77 78  2  0  0  0
 77149  1  0  0  0
 78 80  1  0  0  0
 78150  1  0  0  0
 79 83  1  0  0  0
 79151  1  0  0  0
 79152  1  0  0  0
 79153  1  0  0  0
 80 81  1  0  0  0
 80154  1  0  0  0
 80155  1  0  0  0
 81 82  1  0  0  0
 81156  1  0  0  0
 81157  1  0  0  0
 82 84  1  0  0  0
 82158  1  0  0  0
 82159  1  0  0  0
 83 86  1  0  0  0
 83160  1  0  0  0
 83161  1  0  0  0
 84162  1  0  0  0
 84163  1  0  0  0
 85164  1  0  0  0
M  ISO  4   1 100  68 101  84 101  85 100
M  END
> <chiral flag>
0

> <version>
0

> <s_m_source_file>
/data/baiqing/PycharmProjects/Reinvent-master-3.2/result/LINK_invent/BTK/process_docking_weight1_custom_product_contain_oxygen_bond_distance_aromatic_linkinvent_7_9_3/rearranged_h_0132.sdf

> <i_m_source_file_index>
71

> <r_mmod_Potential_Energy-OPLS-2005>
-20.2272281646729

> <r_mmod_Stretch_Energy-OPLS-2005>
32.7370109558105

> <r_mmod_Bend_Energy-OPLS-2005>
92.3586044311523

> <r_mmod_Torsional_Energy-OPLS-2005>
248.706146240234

> <r_mmod_Improper_Torsional_Energy-OPLS-2005>
4.08634567260742

> <r_mmod_Van_der_Waal_Energy-OPLS-2005>
157.081619262695

> <r_mmod_Electrostatic_Energy-OPLS-2005>
-355.456207275391

> <r_mmod_Solvation_Energy-OPLS-2005>
-207.405120849609

> <b_mmod_Minimization_Converged-OPLS-2005>
0

> <r_mmod_RMS_Derivative-OPLS-2005>
1.14248991012573

$$$$
71
                    3D
 Structure written by MMmdl.
166174  0  0  1  0            999 V2000
  -30.8027  -14.3553   20.6397 C   0  0  0  0  0  0
  -30.4066  -12.2698   19.3948 C   0  0  0  0  0  0
  -29.4793  -12.5052   18.1892 C   0  0  0  0  0  0
  -28.0051  -12.3797   18.6110 C   0  0  0  0  0  0
  -27.6678  -13.2091   19.8782 C   0  0  2  0  0  0
  -28.7117  -12.9746   20.9950 C   0  0  0  0  0  0
  -25.2622  -13.8186   20.5688 C   0  0  0  0  0  0
  -24.1866  -13.0447   20.9167 C   0  0  0  0  0  0
  -24.6428  -11.6928   20.8753 C   0  0  0  0  0  0
  -23.9099  -10.4301   21.0427 C   0  0  0  0  0  0
  -24.3646   -9.4208   21.9203 C   0  0  0  0  0  0
  -23.6304   -8.2253   22.0767 C   0  0  0  0  0  0
  -22.4286   -8.0298   21.3557 C   0  0  0  0  0  0
  -21.9936   -9.0283   20.4660 C   0  0  0  0  0  0
  -22.7279  -10.2154   20.3069 C   0  0  0  0  0  0
  -21.6848   -6.0752   22.5287 C   0  0  0  0  0  0
  -21.4009   -6.5657   23.8220 C   0  0  0  0  0  0
  -21.3650   -5.6805   24.9184 C   0  0  0  0  0  0
  -21.6040   -4.3067   24.7231 C   0  0  0  0  0  0
  -21.8820   -3.8159   23.4347 C   0  0  0  0  0  0
  -21.9192   -4.6978   22.3407 C   0  0  0  0  0  0
  -22.7888  -13.5248   21.1821 C   0  0  0  0  0  0
  -22.1659   -4.2168   21.0979 F   0  0  0  0  0  0
  -21.5629   -3.4546   25.7735 F   0  0  0  0  0  0
  -30.0531  -13.2397   20.4442 N   0  0  0  0  0  0
  -26.3070  -12.9368   20.3404 N   0  0  0  0  0  0
  -25.9357  -11.6520   20.5802 N   0  0  0  0  0  0
  -22.0509  -12.8252   22.0369 N   0  0  0  0  0  0
  -25.4339  -15.1892   20.4071 N   0  0  0  0  0  0
  -31.8320  -14.5895   20.0025 O   0  0  0  0  0  0
  -21.6633   -6.8902   21.4252 O   0  0  0  0  0  0
  -22.3589  -14.5555   20.6660 O   0  0  0  0  0  0
  -24.6139  -31.8682   23.2086 C   0  0  0  0  0  0
  -25.9039  -32.4822   23.8385 C   0  0  1  0  0  0
  -27.2484  -27.4533   20.0786 C   0  0  0  0  0  0
  -25.5888  -33.8611   24.2320 N   0  0  0  0  0  0
  -23.3997  -30.4912   21.5511 C   0  0  2  0  0  0
  -24.8474  -28.9530   20.1196 C   0  0  0  0  0  0
  -22.7396  -29.4676   22.5023 C   0  0  0  0  0  0
  -18.0261  -28.1371   22.8509 C   0  0  0  0  0  0
  -24.1503  -36.7313   23.2630 C   0  0  0  0  0  0
  -25.9288  -30.8378   21.3631 C   0  0  0  0  0  0
  -26.0070  -29.4732   20.7085 C   0  0  0  0  0  0
  -27.2038  -28.7280   20.6866 C   0  0  0  0  0  0
  -26.0650  -26.9335   19.5031 C   0  0  0  0  0  0
  -24.8699  -27.6811   19.5200 C   0  0  0  0  0  0
  -23.6051  -29.8163   20.1707 C   0  0  0  0  0  0
  -25.4122  -36.3104   24.0328 C   0  0  1  0  0  0
  -20.5865  -28.3664   23.1350 C   0  0  2  0  0  0
  -20.6767  -26.9411   22.5448 C   0  0  0  0  0  0
  -19.5754  -26.6384   21.5229 C   0  0  0  0  0  0
  -18.1911  -26.7927   22.1615 C   0  0  0  0  0  0
  -19.1516  -28.8824   23.2917 C   0  0  0  0  0  0
  -18.9437  -30.1426   23.8941 C   0  0  0  0  0  0
  -17.6445  -30.6594   24.0572 C   0  0  0  0  0  0
  -25.9045  -34.9472   23.5133 C   0  0  0  0  0  0
  -16.5328  -29.9108   23.6328 C   0  0  0  0  0  0
  -16.7251  -28.6506   23.0374 C   0  0  0  0  0  0
  -26.4459  -31.6606   25.0719 C   0  0  0  0  0  0
  -25.3675  -31.3723   26.1431 C   0  0  0  0  0  0
  -27.0294  -30.3039   24.6123 C   0  0  0  0  0  0
  -27.6046  -32.4313   25.7462 C   0  0  0  0  0  0
  -27.5589  -37.1813   24.8455 C   0  0  0  0  0  0
  -21.4126  -29.3029   22.3746 N   0  0  0  0  0  0
  -26.4314  -37.3795   23.9389 N   0  0  0  0  0  0
  -24.6648  -31.0824   22.0975 N   0  0  0  0  0  0
  -23.4187  -28.8218   23.3063 O   0  0  0  0  0  0
  -28.4612  -26.7953   20.0721 O   0  0  0  0  0  0
  -26.5633  -34.8917   22.4704 O   0  0  0  0  0  0
  -23.5336  -32.1394   23.7521 O   0  0  0  0  0  0
  -29.1189  -18.7955   24.1649 C   0  0  0  0  0  0
  -28.8692  -19.8249   23.2345 C   0  0  0  0  0  0
  -30.0598  -18.5613   21.5385 C   0  0  0  0  0  0
  -29.8526  -17.6469   23.7992 C   0  0  0  0  0  0
  -30.3322  -17.5323   22.4709 C   0  0  0  0  0  0
  -29.3531  -19.7272   21.9070 C   0  0  0  0  0  0
  -31.7222  -15.6750   26.6220 C   0  0  0  0  0  0
  -30.1181  -16.5755   24.8528 C   0  0  0  0  0  0
  -31.1807  -16.3499   22.0242 C   0  0  0  0  0  0
  -31.4282  -16.8044   25.6245 C   0  0  0  0  0  0
  -28.2522  -24.3953   20.5350 C   0  0  0  0  0  0
  -28.8643  -23.0150   20.2119 C   0  0  0  0  0  0
  -28.6022  -25.4899   19.5059 C   0  0  0  0  0  0
  -28.6460  -21.9730   21.3299 C   0  0  0  0  0  0
  -30.3959  -15.1917   21.5993 N   0  0  0  0  0  0
  -29.1939  -20.7097   20.9447 O   0  0  0  0  0  0
  -31.4512  -12.3400   19.0840 H   0  0  0  0  0  0
  -30.2857  -11.2542   19.7748 H   0  0  0  0  0  0
  -29.6985  -11.7843   17.4007 H   0  0  0  0  0  0
  -29.6634  -13.4920   17.7631 H   0  0  0  0  0  0
  -27.8035  -11.3237   18.7940 H   0  0  0  0  0  0
  -27.3532  -12.6736   17.7874 H   0  0  0  0  0  0
  -27.7212  -14.2602   19.5956 H   0  0  0  0  0  0
  -28.6680  -11.9415   21.3427 H   0  0  0  0  0  0
  -28.4766  -13.5858   21.8661 H   0  0  0  0  0  0
  -25.2796   -9.5664   22.4783 H   0  0  0  0  0  0
  -24.0004   -7.4636   22.7489 H   0  0  0  0  0  0
  -21.0871   -8.8834   19.8957 H   0  0  0  0  0  0
  -22.3775  -10.9711   19.6180 H   0  0  0  0  0  0
  -21.2000   -7.6166   23.9738 H   0  0  0  0  0  0
  -21.1468   -6.0528   25.9089 H   0  0  0  0  0  0
  -22.0602   -2.7620   23.2845 H   0  0  0  0  0  0
  -22.4115  -11.9917   22.4765 H   0  0  0  0  0  0
  -21.1119  -13.1310   22.2544 H   0  0  0  0  0  0
  -24.6738  -15.8504   20.5239 H   0  0  0  0  0  0
  -26.2963  -15.6269   20.1052 H   0  0  0  0  0  0
  -26.7117  -32.5605   23.1160 H   0  0  0  0  0  0
  -24.9972  -33.9738   25.0418 H   0  0  0  0  0  0
  -22.6856  -31.3050   21.4135 H   0  0  0  0  0  0
  -23.3767  -35.9651   23.3289 H   0  0  0  0  0  0
  -24.3571  -36.8929   22.2039 H   0  0  0  0  0  0
  -23.7269  -37.6514   23.6669 H   0  0  0  0  0  0
  -26.0477  -31.6121   20.6045 H   0  0  0  0  0  0
  -26.8130  -30.8848   21.9890 H   0  0  0  0  0  0
  -28.1020  -29.1317   21.1345 H   0  0  0  0  0  0
  -26.0456  -25.9602   19.0353 H   0  0  0  0  0  0
  -23.9765  -27.2695   19.0712 H   0  0  0  0  0  0
  -23.6975  -30.5880   19.4054 H   0  0  0  0  0  0
  -22.7292  -29.2280   19.8919 H   0  0  0  0  0  0
  -25.1316  -36.1945   25.0831 H   0  0  0  0  0  0
  -20.9972  -28.3284   24.1474 H   0  0  0  0  0  0
  -20.5715  -26.2266   23.3627 H   0  0  0  0  0  0
  -21.6616  -26.7488   22.1204 H   0  0  0  0  0  0
  -19.6935  -25.6310   21.1235 H   0  0  0  0  0  0
  -19.6700  -27.3208   20.6777 H   0  0  0  0  0  0
  -17.4182  -26.6677   21.4015 H   0  0  0  0  0  0
  -18.0276  -26.0069   22.9007 H   0  0  0  0  0  0
  -19.7918  -30.7202   24.2363 H   0  0  0  0  0  0
  -17.5014  -31.6304   24.5129 H   0  0  0  0  0  0
  -15.5344  -30.3029   23.7639 H   0  0  0  0  0  0
  -15.8632  -28.0851   22.7105 H   0  0  0  0  0  0
  -24.5934  -30.6968   25.7766 H   0  0  0  0  0  0
  -24.8729  -32.2851   26.4781 H   0  0  0  0  0  0
  -25.7978  -30.8995   27.0262 H   0  0  0  0  0  0
  -26.2867  -29.6792   24.1143 H   0  0  0  0  0  0
  -27.3988  -29.7302   25.4633 H   0  0  0  0  0  0
  -27.8739  -30.4319   23.9338 H   0  0  0  0  0  0
  -27.2728  -33.3661   26.1998 H   0  0  0  0  0  0
  -28.3885  -32.6763   25.0284 H   0  0  0  0  0  0
  -28.0666  -31.8419   26.5389 H   0  0  0  0  0  0
  -28.2628  -38.0093   24.7516 H   0  0  0  0  0  0
  -28.1075  -36.2627   24.6309 H   0  0  0  0  0  0
  -27.2284  -37.1483   25.8850 H   0  0  0  0  0  0
  -20.9257  -29.8681   21.6935 H   0  0  0  0  0  0
  -26.0206  -38.2890   24.1364 H   0  0  0  0  0  0
  -28.7528  -18.9000   25.1766 H   0  0  0  0  0  0
  -28.3069  -20.6855   23.5665 H   0  0  0  0  0  0
  -30.4305  -18.4682   20.5260 H   0  0  0  0  0  0
  -32.6390  -15.8740   27.1781 H   0  0  0  0  0  0
  -31.8464  -14.7195   26.1094 H   0  0  0  0  0  0
  -30.9132  -15.5635   27.3455 H   0  0  0  0  0  0
  -30.1213  -15.5872   24.3923 H   0  0  0  0  0  0
  -29.2846  -16.5581   25.5561 H   0  0  0  0  0  0
  -31.8614  -16.0389   22.8161 H   0  0  0  0  0  0
  -31.8337  -16.7035   21.2228 H   0  0  0  0  0  0
  -32.2644  -16.8849   24.9284 H   0  0  0  0  0  0
  -31.3777  -17.7568   26.1540 H   0  0  0  0  0  0
  -28.6098  -24.7107   21.5145 H   0  0  0  0  0  0
  -27.1688  -24.3091   20.6234 H   0  0  0  0  0  0
  -29.9379  -23.1284   20.0526 H   0  0  0  0  0  0
  -28.4597  -22.6447   19.2681 H   0  0  0  0  0  0
  -28.0619  -25.3676   18.5667 H   0  0  0  0  0  0
  -29.6565  -25.4039   19.2371 H   0  0  0  0  0  0
  -27.5803  -21.8640   21.5386 H   0  0  0  0  0  0
  -29.1313  -22.3343   22.2392 H   0  0  0  0  0  0
  -29.5472  -14.9752   22.0973 H   0  0  0  0  0  0
  1 25  1  0  0  0
  1 30  2  0  0  0
  1 85  1  0  0  0
  2  3  1  0  0  0
  2 25  1  0  0  0
  2 87  1  0  0  0
  2 88  1  0  0  0
  3  4  1  0  0  0
  3 89  1  0  0  0
  3 90  1  0  0  0
  4  5  1  0  0  0
  4 91  1  0  0  0
  4 92  1  0  0  0
  5  6  1  0  0  0
  5 26  1  0  0  0
  5 93  1  0  0  0
  6 25  1  0  0  0
  6 94  1  0  0  0
  6 95  1  0  0  0
  7  8  2  0  0  0
  7 26  1  0  0  0
  7 29  1  0  0  0
  8  9  1  0  0  0
  8 22  1  0  0  0
  9 10  1  0  0  0
  9 27  2  0  0  0
 10 11  2  0  0  0
 10 15  1  0  0  0
 11 12  1  0  0  0
 11 96  1  0  0  0
 12 13  2  0  0  0
 12 97  1  0  0  0
 13 14  1  0  0  0
 13 31  1  0  0  0
 14 15  2  0  0  0
 14 98  1  0  0  0
 15 99  1  0  0  0
 16 17  2  0  0  0
 16 21  1  0  0  0
 16 31  1  0  0  0
 17 18  1  0  0  0
 17100  1  0  0  0
 18 19  2  0  0  0
 18101  1  0  0  0
 19 20  1  0  0  0
 19 24  1  0  0  0
 20 21  2  0  0  0
 20102  1  0  0  0
 21 23  1  0  0  0
 22 28  1  0  0  0
 22 32  2  0  0  0
 26 27  1  0  0  0
 28103  1  0  0  0
 28104  1  0  0  0
 29105  1  0  0  0
 29106  1  0  0  0
 33 34  1  0  0  0
 33 66  1  0  0  0
 33 70  2  0  0  0
 34 36  1  0  0  0
 34 59  1  0  0  0
 34107  1  0  0  0
 35 44  2  0  0  0
 35 45  1  0  0  0
 35 68  1  0  0  0
 36 56  1  0  0  0
 36108  1  0  0  0
 37 39  1  0  0  0
 37 47  1  0  0  0
 37 66  1  0  0  0
 37109  1  0  0  0
 38 43  2  0  0  0
 38 46  1  0  0  0
 38 47  1  0  0  0
 39 64  1  0  0  0
 39 67  2  0  0  0
 40 52  1  0  0  0
 40 53  2  0  0  0
 40 58  1  0  0  0
 41110  1  0  0  0
 41111  1  0  0  0
 41112  1  0  0  0
 41 48  1  0  0  0
 42 43  1  0  0  0
 42 66  1  0  0  0
 42113  1  0  0  0
 42114  1  0  0  0
 43 44  1  0  0  0
 44115  1  0  0  0
 45 46  2  0  0  0
 45116  1  0  0  0
 46117  1  0  0  0
 47118  1  0  0  0
 47119  1  0  0  0
 48 56  1  0  0  0
 48 65  1  0  0  0
 48120  1  0  0  0
 49 50  1  0  0  0
 49 53  1  0  0  0
 49 64  1  0  0  0
 49121  1  0  0  0
 50 51  1  0  0  0
 50122  1  0  0  0
 50123  1  0  0  0
 51 52  1  0  0  0
 51124  1  0  0  0
 51125  1  0  0  0
 52126  1  0  0  0
 52127  1  0  0  0
 53 54  1  0  0  0
 54 55  2  0  0  0
 54128  1  0  0  0
 55 57  1  0  0  0
 55129  1  0  0  0
 56 69  2  0  0  0
 57 58  2  0  0  0
 57130  1  0  0  0
 58131  1  0  0  0
 59 60  1  0  0  0
 59 61  1  0  0  0
 59 62  1  0  0  0
 60132  1  0  0  0
 60133  1  0  0  0
 60134  1  0  0  0
 61135  1  0  0  0
 61136  1  0  0  0
 61137  1  0  0  0
 62138  1  0  0  0
 62139  1  0  0  0
 62140  1  0  0  0
 63 65  1  0  0  0
 63141  1  0  0  0
 63142  1  0  0  0
 63143  1  0  0  0
 64144  1  0  0  0
 65145  1  0  0  0
 68 83  1  0  0  0
 71 72  2  0  0  0
 71 74  1  0  0  0
 71146  1  0  0  0
 72 76  1  0  0  0
 72147  1  0  0  0
 73 75  1  0  0  0
 73 76  2  0  0  0
 73148  1  0  0  0
 74 75  2  0  0  0
 74 78  1  0  0  0
 75 79  1  0  0  0
 76 86  1  0  0  0
 77 80  1  0  0  0
 77149  1  0  0  0
 77150  1  0  0  0
 77151  1  0  0  0
 78 80  1  0  0  0
 78152  1  0  0  0
 78153  1  0  0  0
 79 85  1  0  0  0
 79154  1  0  0  0
 79155  1  0  0  0
 80156  1  0  0  0
 80157  1  0  0  0
 81 82  1  0  0  0
 81 83  1  0  0  0
 81158  1  0  0  0
 81159  1  0  0  0
 82 84  1  0  0  0
 82160  1  0  0  0
 82161  1  0  0  0
 83162  1  0  0  0
 83163  1  0  0  0
 84 86  1  0  0  0
 84164  1  0  0  0
 84165  1  0  0  0
 85166  1  0  0  0
M  ISO  4   1 100  68 101  83 101  85 100
M  END
> <chiral flag>
0

> <version>
0

> <s_m_source_file>
/data/baiqing/PycharmProjects/Reinvent-master-3.2/result/LINK_invent/BTK/process_docking_weight1_custom_product_contain_oxygen_bond_distance_aromatic_linkinvent_7_9_3/rearranged_h_0132.sdf

> <i_m_source_file_index>
72

> <r_mmod_Potential_Energy-OPLS-2005>
-128.087295532227

> <r_mmod_Stretch_Energy-OPLS-2005>
35.1229476928711

> <r_mmod_Bend_Energy-OPLS-2005>
106.889312744141

> <r_mmod_Torsional_Energy-OPLS-2005>
189.887466430664

> <r_mmod_Improper_Torsional_Energy-OPLS-2005>
1.8121749162674

> <r_mmod_Van_der_Waal_Energy-OPLS-2005>
157.847747802734

> <r_mmod_Electrostatic_Energy-OPLS-2005>
-427.998992919922

> <r_mmod_Solvation_Energy-OPLS-2005>
-201.006439208984

> <b_mmod_Minimization_Converged-OPLS-2005>
0

> <r_mmod_RMS_Derivative-OPLS-2005>
2.97353196144104

$$$$
72
                    3D
 Structure written by MMmdl.
162170  0  0  1  0            999 V2000
  -30.6917  -14.4844   20.5957 C   0  0  0  0  0  0
  -30.4222  -12.3214   19.4276 C   0  0  0  0  0  0
  -29.5028  -12.5131   18.2053 C   0  0  0  0  0  0
  -28.0196  -12.3698   18.6084 C   0  0  0  0  0  0
  -27.6579  -13.2102   19.8636 C   0  0  2  0  0  0
  -28.6929  -12.9944   20.9878 C   0  0  0  0  0  0
  -25.2576  -13.8170   20.5652 C   0  0  0  0  0  0
  -24.1834  -13.0448   20.9154 C   0  0  0  0  0  0
  -24.6384  -11.6914   20.8716 C   0  0  0  0  0  0
  -23.9044  -10.4304   21.0403 C   0  0  0  0  0  0
  -24.3604   -9.4216   21.9166 C   0  0  0  0  0  0
  -23.6300   -8.2246   22.0739 C   0  0  0  0  0  0
  -22.4269   -8.0290   21.3549 C   0  0  0  0  0  0
  -21.9905   -9.0259   20.4654 C   0  0  0  0  0  0
  -22.7221  -10.2145   20.3041 C   0  0  0  0  0  0
  -21.6853   -6.0743   22.5286 C   0  0  0  0  0  0
  -21.4015   -6.5638   23.8221 C   0  0  0  0  0  0
  -21.3653   -5.6791   24.9187 C   0  0  0  0  0  0
  -21.6045   -4.3053   24.7233 C   0  0  0  0  0  0
  -21.8816   -3.8157   23.4351 C   0  0  0  0  0  0
  -21.9197   -4.6973   22.3410 C   0  0  0  0  0  0
  -22.7854  -13.5244   21.1832 C   0  0  0  0  0  0
  -22.1659   -4.2155   21.0984 F   0  0  0  0  0  0
  -21.5633   -3.4536   25.7748 F   0  0  0  0  0  0
  -30.0211  -13.3114   20.4404 N   0  0  0  0  0  0
  -26.3006  -12.9330   20.3275 N   0  0  0  0  0  0
  -25.9299  -11.6485   20.5681 N   0  0  0  0  0  0
  -22.0476  -12.8268   22.0409 N   0  0  0  0  0  0
  -25.4369  -15.1876   20.4068 N   0  0  0  0  0  0
  -31.8125  -14.6713   20.1114 O   0  0  0  0  0  0
  -21.6634   -6.8890   21.4241 O   0  0  0  0  0  0
  -22.3531  -14.5543   20.6673 O   0  0  0  0  0  0
  -24.6179  -31.8717   23.2160 C   0  0  0  0  0  0
  -25.9077  -32.4843   23.8433 C   0  0  1  0  0  0
  -27.2178  -27.4137   20.0870 C   0  0  0  0  0  0
  -25.5920  -33.8638   24.2353 N   0  0  0  0  0  0
  -23.4031  -30.4988   21.5599 C   0  0  2  0  0  0
  -24.8434  -28.9743   20.1150 C   0  0  0  0  0  0
  -22.7438  -29.4659   22.5031 C   0  0  0  0  0  0
  -18.0254  -28.1370   22.8481 C   0  0  0  0  0  0
  -24.1472  -36.7310   23.2631 C   0  0  0  0  0  0
  -25.9385  -30.8243   21.3791 C   0  0  0  0  0  0
  -26.0074  -29.4604   20.7230 C   0  0  0  0  0  0
  -27.1941  -28.6844   20.7163 C   0  0  0  0  0  0
  -26.0298  -26.9631   19.4727 C   0  0  0  0  0  0
  -24.8516  -27.7225   19.4879 C   0  0  0  0  0  0
  -23.6108  -29.8462   20.1692 C   0  0  0  0  0  0
  -25.4091  -36.3131   24.0343 C   0  0  1  0  0  0
  -20.5856  -28.3648   23.1329 C   0  0  2  0  0  0
  -20.6738  -26.9370   22.5454 C   0  0  0  0  0  0
  -19.5737  -26.6377   21.5220 C   0  0  0  0  0  0
  -18.1900  -26.7925   22.1601 C   0  0  0  0  0  0
  -19.1509  -28.8828   23.2896 C   0  0  0  0  0  0
  -18.9441  -30.1429   23.8914 C   0  0  0  0  0  0
  -17.6451  -30.6579   24.0552 C   0  0  0  0  0  0
  -25.9034  -34.9493   23.5145 C   0  0  0  0  0  0
  -16.5336  -29.9080   23.6321 C   0  0  0  0  0  0
  -16.7249  -28.6495   23.0344 C   0  0  0  0  0  0
  -26.4464  -31.6624   25.0775 C   0  0  0  0  0  0
  -25.3728  -31.3843   26.1563 C   0  0  0  0  0  0
  -27.0193  -30.3009   24.6203 C   0  0  0  0  0  0
  -27.6092  -32.4299   25.7504 C   0  0  0  0  0  0
  -27.5591  -37.1781   24.8431 C   0  0  0  0  0  0
  -21.4169  -29.3019   22.3768 N   0  0  0  0  0  0
  -26.4267  -37.3827   23.9437 N   0  0  0  0  0  0
  -24.6715  -31.0796   22.1087 N   0  0  0  0  0  0
  -23.4219  -28.8173   23.3051 O   0  0  0  0  0  0
  -28.3749  -26.6480   20.1135 O   0  0  0  0  0  0
  -26.5592  -34.8939   22.4711 O   0  0  0  0  0  0
  -23.5369  -32.1475   23.7537 O   0  0  0  0  0  0
  -28.7231  -19.6624   19.9857 C   0  0  0  0  0  0
  -29.3432  -18.4086   20.2088 C   0  0  0  0  0  0
  -28.9274  -20.1793   22.3426 C   0  0  0  0  0  0
  -28.5302  -20.5715   21.0500 C   0  0  0  0  0  0
  -29.7895  -18.0309   21.4961 C   0  0  0  0  0  0
  -29.5428  -18.9260   22.5758 C   0  0  0  0  0  0
  -29.9430  -18.5878   24.0011 C   0  0  0  0  0  0
  -27.0616  -23.6620   18.2709 C   0  0  0  0  0  0
  -27.8184  -21.9161   20.8330 C   0  0  0  0  0  0
  -30.6295  -16.7461   21.6760 C   0  0  0  0  0  0
  -28.6431  -23.0489   20.1462 C   0  0  0  0  0  0
  -28.5204  -25.5274   19.2119 C   0  0  0  0  0  0
  -27.7603  -24.1928   19.5496 C   0  0  1  0  0  0
  -30.0345  -15.4721   21.2421 N   0  0  0  0  0  0
  -31.4705  -12.4213   19.1390 H   0  0  0  0  0  0
  -30.3203  -11.3128   19.8296 H   0  0  0  0  0  0
  -29.7524  -11.7896   17.4275 H   0  0  0  0  0  0
  -29.6766  -13.4975   17.7717 H   0  0  0  0  0  0
  -27.8314  -11.3149   18.8032 H   0  0  0  0  0  0
  -27.3751  -12.6431   17.7722 H   0  0  0  0  0  0
  -27.7015  -14.2572   19.5607 H   0  0  0  0  0  0
  -28.6748  -11.9559   21.3246 H   0  0  0  0  0  0
  -28.4413  -13.5899   21.8661 H   0  0  0  0  0  0
  -25.2766   -9.5701   22.4708 H   0  0  0  0  0  0
  -24.0037   -7.4631   22.7432 H   0  0  0  0  0  0
  -21.0849   -8.8792   19.8959 H   0  0  0  0  0  0
  -22.3704  -10.9674   19.6142 H   0  0  0  0  0  0
  -21.1996   -7.6145   23.9721 H   0  0  0  0  0  0
  -21.1466   -6.0523   25.9085 H   0  0  0  0  0  0
  -22.0597   -2.7620   23.2846 H   0  0  0  0  0  0
  -22.4064  -11.9962   22.4872 H   0  0  0  0  0  0
  -21.1085  -13.1306   22.2550 H   0  0  0  0  0  0
  -24.6826  -15.8572   20.5184 H   0  0  0  0  0  0
  -26.3041  -15.6193   20.1112 H   0  0  0  0  0  0
  -26.7165  -32.5540   23.1193 H   0  0  0  0  0  0
  -25.0026  -33.9809   25.0468 H   0  0  0  0  0  0
  -22.6902  -31.3164   21.4313 H   0  0  0  0  0  0
  -23.3774  -35.9600   23.3248 H   0  0  0  0  0  0
  -24.3576  -36.8986   22.2060 H   0  0  0  0  0  0
  -23.7168  -37.6476   23.6676 H   0  0  0  0  0  0
  -26.0637  -31.5896   20.6123 H   0  0  0  0  0  0
  -26.8235  -30.8684   22.0019 H   0  0  0  0  0  0
  -28.0882  -29.0544   21.1971 H   0  0  0  0  0  0
  -25.9681  -26.0144   18.9816 H   0  0  0  0  0  0
  -23.9583  -27.3392   19.0135 H   0  0  0  0  0  0
  -23.7298  -30.6297   19.4197 H   0  0  0  0  0  0
  -22.7301  -29.2765   19.8666 H   0  0  0  0  0  0
  -25.1252  -36.1989   25.0835 H   0  0  0  0  0  0
  -20.9911  -28.3205   24.1465 H   0  0  0  0  0  0
  -20.5595  -26.2256   23.3646 H   0  0  0  0  0  0
  -21.6623  -26.7389   22.1286 H   0  0  0  0  0  0
  -19.6896  -25.6297   21.1227 H   0  0  0  0  0  0
  -19.6695  -27.3214   20.6768 H   0  0  0  0  0  0
  -17.4194  -26.6687   21.3971 H   0  0  0  0  0  0
  -18.0247  -26.0058   22.8989 H   0  0  0  0  0  0
  -19.7931  -30.7209   24.2321 H   0  0  0  0  0  0
  -17.5017  -31.6263   24.5150 H   0  0  0  0  0  0
  -15.5332  -30.2976   23.7667 H   0  0  0  0  0  0
  -15.8644  -28.0817   22.7059 H   0  0  0  0  0  0
  -24.5875  -30.7178   25.7974 H   0  0  0  0  0  0
  -24.8940  -32.3050   26.4919 H   0  0  0  0  0  0
  -25.8084  -30.9113   27.0373 H   0  0  0  0  0  0
  -26.2712  -29.6875   24.1167 H   0  0  0  0  0  0
  -27.3761  -29.7175   25.4694 H   0  0  0  0  0  0
  -27.8669  -30.4209   23.9455 H   0  0  0  0  0  0
  -27.2773  -33.3614   26.2094 H   0  0  0  0  0  0
  -28.3888  -32.6830   25.0308 H   0  0  0  0  0  0
  -28.0766  -31.8404   26.5399 H   0  0  0  0  0  0
  -28.2583  -38.0107   24.7570 H   0  0  0  0  0  0
  -28.1115  -36.2657   24.6105 H   0  0  0  0  0  0
  -27.2355  -37.1288   25.8844 H   0  0  0  0  0  0
  -20.9338  -29.8783   21.7017 H   0  0  0  0  0  0
  -26.0159  -38.2897   24.1523 H   0  0  0  0  0  0
  -28.3981  -19.9251   18.9872 H   0  0  0  0  0  0
  -29.5064  -17.7441   19.3717 H   0  0  0  0  0  0
  -28.7544  -20.8540   23.1703 H   0  0  0  0  0  0
  -29.5179  -19.2979   24.7113 H   0  0  0  0  0  0
  -31.0272  -18.6223   24.1040 H   0  0  0  0  0  0
  -29.5887  -17.5970   24.2877 H   0  0  0  0  0  0
  -26.5950  -22.6891   18.4094 H   0  0  0  0  0  0
  -27.7742  -23.5601   17.4522 H   0  0  0  0  0  0
  -26.2680  -24.3123   17.9109 H   0  0  0  0  0  0
  -27.4504  -22.2922   21.7890 H   0  0  0  0  0  0
  -26.9165  -21.6905   20.2669 H   0  0  0  0  0  0
  -30.9279  -16.6041   22.7121 H   0  0  0  0  0  0
  -31.5669  -16.9277   21.1475 H   0  0  0  0  0  0
  -29.2415  -22.6181   19.3421 H   0  0  0  0  0  0
  -29.3595  -23.4585   20.8610 H   0  0  0  0  0  0
  -28.2457  -25.8800   18.2157 H   0  0  0  0  0  0
  -29.5875  -25.3167   19.1336 H   0  0  0  0  0  0
  -26.9941  -24.4248   20.2901 H   0  0  0  0  0  0
  -29.1034  -15.2683   21.5750 H   0  0  0  0  0  0
  1 25  1  0  0  0
  1 30  2  0  0  0
  1 84  1  0  0  0
  2  3  1  0  0  0
  2 25  1  0  0  0
  2 85  1  0  0  0
  2 86  1  0  0  0
  3  4  1  0  0  0
  3 87  1  0  0  0
  3 88  1  0  0  0
  4  5  1  0  0  0
  4 89  1  0  0  0
  4 90  1  0  0  0
  5  6  1  0  0  0
  5 26  1  0  0  0
  5 91  1  0  0  0
  6 25  1  0  0  0
  6 92  1  0  0  0
  6 93  1  0  0  0
  7  8  2  0  0  0
  7 26  1  0  0  0
  7 29  1  0  0  0
  8  9  1  0  0  0
  8 22  1  0  0  0
  9 10  1  0  0  0
  9 27  2  0  0  0
 10 11  2  0  0  0
 10 15  1  0  0  0
 11 12  1  0  0  0
 11 94  1  0  0  0
 12 13  2  0  0  0
 12 95  1  0  0  0
 13 14  1  0  0  0
 13 31  1  0  0  0
 14 15  2  0  0  0
 14 96  1  0  0  0
 15 97  1  0  0  0
 16 17  2  0  0  0
 16 21  1  0  0  0
 16 31  1  0  0  0
 17 18  1  0  0  0
 17 98  1  0  0  0
 18 19  2  0  0  0
 18 99  1  0  0  0
 19 20  1  0  0  0
 19 24  1  0  0  0
 20 21  2  0  0  0
 20100  1  0  0  0
 21 23  1  0  0  0
 22 28  1  0  0  0
 22 32  2  0  0  0
 26 27  1  0  0  0
 28101  1  0  0  0
 28102  1  0  0  0
 29103  1  0  0  0
 29104  1  0  0  0
 33 34  1  0  0  0
 33 66  1  0  0  0
 33 70  2  0  0  0
 34 36  1  0  0  0
 34 59  1  0  0  0
 34105  1  0  0  0
 35 44  2  0  0  0
 35 45  1  0  0  0
 35 68  1  0  0  0
 36 56  1  0  0  0
 36106  1  0  0  0
 37 39  1  0  0  0
 37 47  1  0  0  0
 37 66  1  0  0  0
 37107  1  0  0  0
 38 43  2  0  0  0
 38 46  1  0  0  0
 38 47  1  0  0  0
 39 64  1  0  0  0
 39 67  2  0  0  0
 40 52  1  0  0  0
 40 53  2  0  0  0
 40 58  1  0  0  0
 41108  1  0  0  0
 41109  1  0  0  0
 41110  1  0  0  0
 41 48  1  0  0  0
 42 43  1  0  0  0
 42 66  1  0  0  0
 42111  1  0  0  0
 42112  1  0  0  0
 43 44  1  0  0  0
 44113  1  0  0  0
 45 46  2  0  0  0
 45114  1  0  0  0
 46115  1  0  0  0
 47116  1  0  0  0
 47117  1  0  0  0
 48 56  1  0  0  0
 48 65  1  0  0  0
 48118  1  0  0  0
 49 50  1  0  0  0
 49 53  1  0  0  0
 49 64  1  0  0  0
 49119  1  0  0  0
 50 51  1  0  0  0
 50120  1  0  0  0
 50121  1  0  0  0
 51 52  1  0  0  0
 51122  1  0  0  0
 51123  1  0  0  0
 52124  1  0  0  0
 52125  1  0  0  0
 53 54  1  0  0  0
 54 55  2  0  0  0
 54126  1  0  0  0
 55 57  1  0  0  0
 55127  1  0  0  0
 56 69  2  0  0  0
 57 58  2  0  0  0
 57128  1  0  0  0
 58129  1  0  0  0
 59 60  1  0  0  0
 59 61  1  0  0  0
 59 62  1  0  0  0
 60130  1  0  0  0
 60131  1  0  0  0
 60132  1  0  0  0
 61133  1  0  0  0
 61134  1  0  0  0
 61135  1  0  0  0
 62136  1  0  0  0
 62137  1  0  0  0
 62138  1  0  0  0
 63 65  1  0  0  0
 63139  1  0  0  0
 63140  1  0  0  0
 63141  1  0  0  0
 64142  1  0  0  0
 65143  1  0  0  0
 68 82  1  0  0  0
 71 72  2  0  0  0
 71 74  1  0  0  0
 71144  1  0  0  0
 72 75  1  0  0  0
 72145  1  0  0  0
 73 74  2  0  0  0
 73 76  1  0  0  0
 73146  1  0  0  0
 74 79  1  0  0  0
 75 76  2  0  0  0
 75 80  1  0  0  0
 76 77  1  0  0  0
 77147  1  0  0  0
 77148  1  0  0  0
 77149  1  0  0  0
 78150  1  0  0  0
 78151  1  0  0  0
 78152  1  0  0  0
 78 83  1  0  0  0
 79 81  1  0  0  0
 79153  1  0  0  0
 79154  1  0  0  0
 80 84  1  0  0  0
 80155  1  0  0  0
 80156  1  0  0  0
 81 83  1  0  0  0
 81157  1  0  0  0
 81158  1  0  0  0
 82 83  1  0  0  0
 82159  1  0  0  0
 82160  1  0  0  0
 83161  1  0  0  0
 84162  1  0  0  0
M  ISO  4   1 100  68 101  82 101  84 100
M  END
> <chiral flag>
0

> <version>
0

> <s_m_source_file>
/data/baiqing/PycharmProjects/Reinvent-master-3.2/result/LINK_invent/BTK/process_docking_weight1_custom_product_contain_oxygen_bond_distance_aromatic_linkinvent_7_9_3/rearranged_h_0132.sdf

> <i_m_source_file_index>
73

> <r_mmod_Potential_Energy-OPLS-2005>
-68.9548110961914

> <r_mmod_Stretch_Energy-OPLS-2005>
44.2633094787598

> <r_mmod_Bend_Energy-OPLS-2005>
111.242530822754

> <r_mmod_Torsional_Energy-OPLS-2005>
207.108947753906

> <r_mmod_Improper_Torsional_Energy-OPLS-2005>
2.86230659484863

> <r_mmod_Van_der_Waal_Energy-OPLS-2005>
160.435989379883

> <r_mmod_Electrostatic_Energy-OPLS-2005>
-413.356689453125

> <r_mmod_Solvation_Energy-OPLS-2005>
-197.99967956543

> <b_mmod_Minimization_Converged-OPLS-2005>
0

> <r_mmod_RMS_Derivative-OPLS-2005>
3.40825390815735

$$$$
73
                    3D
 Structure written by MMmdl.
159167  0  0  1  0            999 V2000
  -30.7359  -14.3745   20.5323 C   0  0  0  0  0  0
  -30.3867  -12.2296   19.4207 C   0  0  0  0  0  0
  -29.4930  -12.5214   18.1984 C   0  0  0  0  0  0
  -28.0025  -12.4157   18.5820 C   0  0  0  0  0  0
  -27.6588  -13.2123   19.8714 C   0  0  2  0  0  0
  -28.6897  -12.9541   20.9900 C   0  0  0  0  0  0
  -25.2606  -13.8194   20.5672 C   0  0  0  0  0  0
  -24.1873  -13.0461   20.9165 C   0  0  0  0  0  0
  -24.6440  -11.6938   20.8735 C   0  0  0  0  0  0
  -23.9141  -10.4308   21.0410 C   0  0  0  0  0  0
  -24.3686   -9.4241   21.9212 C   0  0  0  0  0  0
  -23.6339   -8.2280   22.0797 C   0  0  0  0  0  0
  -22.4333   -8.0317   21.3558 C   0  0  0  0  0  0
  -21.9989   -9.0290   20.4645 C   0  0  0  0  0  0
  -22.7324  -10.2153   20.3046 C   0  0  0  0  0  0
  -21.6876   -6.0781   22.5314 C   0  0  0  0  0  0
  -21.3995   -6.5669   23.8230 C   0  0  0  0  0  0
  -21.3660   -5.6817   24.9187 C   0  0  0  0  0  0
  -21.6054   -4.3086   24.7233 C   0  0  0  0  0  0
  -21.8811   -3.8197   23.4346 C   0  0  0  0  0  0
  -21.9198   -4.7014   22.3412 C   0  0  0  0  0  0
  -22.7884  -13.5276   21.1782 C   0  0  0  0  0  0
  -22.1661   -4.2216   21.0969 F   0  0  0  0  0  0
  -21.5637   -3.4546   25.7734 F   0  0  0  0  0  0
  -30.0302  -13.2176   20.4502 N   0  0  0  0  0  0
  -26.3020  -12.9353   20.3294 N   0  0  0  0  0  0
  -25.9353  -11.6524   20.5721 N   0  0  0  0  0  0
  -22.0484  -12.8281   22.0307 N   0  0  0  0  0  0
  -25.4384  -15.1900   20.4100 N   0  0  0  0  0  0
  -31.9031  -14.4475   20.1326 O   0  0  0  0  0  0
  -21.6669   -6.8936   21.4278 O   0  0  0  0  0  0
  -22.3595  -14.5582   20.6621 O   0  0  0  0  0  0
  -24.6103  -31.8684   23.2068 C   0  0  0  0  0  0
  -25.9014  -32.4807   23.8362 C   0  0  1  0  0  0
  -27.2337  -27.4488   20.0983 C   0  0  0  0  0  0
  -25.5899  -33.8608   24.2301 N   0  0  0  0  0  0
  -23.3920  -30.4861   21.5538 C   0  0  2  0  0  0
  -24.8372  -28.9472   20.1176 C   0  0  0  0  0  0
  -22.7352  -29.4660   22.5083 C   0  0  0  0  0  0
  -18.0249  -28.1387   22.8521 C   0  0  0  0  0  0
  -24.1465  -36.7284   23.2641 C   0  0  0  0  0  0
  -25.9145  -30.8354   21.3538 C   0  0  0  0  0  0
  -25.9917  -29.4650   20.7181 C   0  0  0  0  0  0
  -27.1864  -28.7162   20.7161 C   0  0  0  0  0  0
  -26.0643  -26.9471   19.4808 C   0  0  0  0  0  0
  -24.8667  -27.6850   19.5027 C   0  0  0  0  0  0
  -23.5909  -29.8011   20.1740 C   0  0  0  0  0  0
  -25.4093  -36.3087   24.0327 C   0  0  1  0  0  0
  -20.5830  -28.3645   23.1381 C   0  0  2  0  0  0
  -20.6752  -26.9402   22.5438 C   0  0  0  0  0  0
  -19.5709  -26.6363   21.5266 C   0  0  0  0  0  0
  -18.1887  -26.7931   22.1660 C   0  0  0  0  0  0
  -19.1499  -28.8838   23.2939 C   0  0  0  0  0  0
  -18.9430  -30.1472   23.8898 C   0  0  0  0  0  0
  -17.6434  -30.6613   24.0550 C   0  0  0  0  0  0
  -25.9027  -34.9460   23.5106 C   0  0  0  0  0  0
  -16.5325  -29.9098   23.6352 C   0  0  0  0  0  0
  -16.7246  -28.6519   23.0371 C   0  0  0  0  0  0
  -26.4429  -31.6568   25.0684 C   0  0  0  0  0  0
  -25.3656  -31.3632   26.1381 C   0  0  0  0  0  0
  -27.0280  -30.3029   24.6026 C   0  0  0  0  0  0
  -27.5980  -32.4263   25.7516 C   0  0  0  0  0  0
  -27.5552  -37.1795   24.8483 C   0  0  0  0  0  0
  -21.4086  -29.3016   22.3821 N   0  0  0  0  0  0
  -26.4269  -37.3781   23.9415 N   0  0  0  0  0  0
  -24.6578  -31.0777   22.0979 N   0  0  0  0  0  0
  -23.4144  -28.8227   23.3127 O   0  0  0  0  0  0
  -28.4298  -26.7687   20.1143 O   0  0  0  0  0  0
  -26.5594  -34.8918   22.4670 O   0  0  0  0  0  0
  -23.5313  -32.1454   23.7492 O   0  0  0  0  0  0
  -30.6472  -19.0891   19.8264 C   0  0  0  0  0  0
  -30.3377  -20.4410   20.0020 C   0  0  0  0  0  0
  -28.9573  -18.4691   21.4531 C   0  0  0  0  0  0
  -29.9888  -18.0967   20.5692 C   0  0  0  0  0  0
  -29.3505  -20.8425   20.9285 C   0  0  0  0  0  0
  -28.6272  -19.8333   21.6280 C   0  0  0  0  0  0
  -30.4534  -16.7263   20.3800 C   0  0  0  0  0  0
  -29.1188  -22.2840   21.1662 C   0  0  0  0  0  0
  -29.9966  -15.5722   20.9091 C   0  0  0  0  0  0
  -29.7492  -23.3021   20.5493 C   0  0  0  0  0  0
  -28.0038  -20.5917   23.9693 C   0  0  0  0  0  0
  -27.4950  -20.1713   22.5854 C   0  0  0  0  0  0
  -29.4962  -24.7616   20.8439 C   0  0  0  0  0  0
  -28.4288  -25.3567   19.9173 C   0  0  0  0  0  0
  -31.4404  -12.2593   19.1402 H   0  0  0  0  0  0
  -30.2130  -11.2159   19.7831 H   0  0  0  0  0  0
  -29.7225  -11.8360   17.3813 H   0  0  0  0  0  0
  -29.7044  -13.5215   17.8195 H   0  0  0  0  0  0
  -27.7610  -11.3594   18.7045 H   0  0  0  0  0  0
  -27.3841  -12.7695   17.7558 H   0  0  0  0  0  0
  -27.7103  -14.2697   19.6139 H   0  0  0  0  0  0
  -28.6247  -11.9127   21.3137 H   0  0  0  0  0  0
  -28.4713  -13.5452   21.8779 H   0  0  0  0  0  0
  -25.2821   -9.5733   22.4813 H   0  0  0  0  0  0
  -24.0051   -7.4703   22.7534 H   0  0  0  0  0  0
  -21.0943   -8.8822   19.8918 H   0  0  0  0  0  0
  -22.3839  -10.9713   19.6137 H   0  0  0  0  0  0
  -21.1967   -7.6185   23.9775 H   0  0  0  0  0  0
  -21.1469   -6.0525   25.9096 H   0  0  0  0  0  0
  -22.0593   -2.7669   23.2831 H   0  0  0  0  0  0
  -22.4051  -11.9939   22.4725 H   0  0  0  0  0  0
  -21.1086  -13.1330   22.2410 H   0  0  0  0  0  0
  -24.6868  -15.8590   20.5356 H   0  0  0  0  0  0
  -26.3054  -15.6206   20.1127 H   0  0  0  0  0  0
  -26.7096  -32.5520   23.1151 H   0  0  0  0  0  0
  -25.0055  -33.9771   25.0447 H   0  0  0  0  0  0
  -22.6798  -31.3010   21.4121 H   0  0  0  0  0  0
  -23.3737  -35.9609   23.3303 H   0  0  0  0  0  0
  -24.3562  -36.8906   22.2058 H   0  0  0  0  0  0
  -23.7201  -37.6468   23.6678 H   0  0  0  0  0  0
  -26.0035  -31.5886   20.5692 H   0  0  0  0  0  0
  -26.8118  -30.9101   21.9561 H   0  0  0  0  0  0
  -28.0725  -29.1001   21.2007 H   0  0  0  0  0  0
  -26.0626  -25.9978   18.9669 H   0  0  0  0  0  0
  -23.9784  -27.2786   19.0380 H   0  0  0  0  0  0
  -23.6650  -30.5585   19.3940 H   0  0  0  0  0  0
  -22.7199  -29.1963   19.9113 H   0  0  0  0  0  0
  -25.1284  -36.1931   25.0819 H   0  0  0  0  0  0
  -20.9908  -28.3187   24.1502 H   0  0  0  0  0  0
  -20.5755  -26.2232   23.3605 H   0  0  0  0  0  0
  -21.6612  -26.7522   22.1157 H   0  0  0  0  0  0
  -19.6853  -25.6261   21.1317 H   0  0  0  0  0  0
  -19.6647  -27.3163   20.6789 H   0  0  0  0  0  0
  -17.4174  -26.6743   21.4041 H   0  0  0  0  0  0
  -18.0229  -26.0074   22.9041 H   0  0  0  0  0  0
  -19.7903  -30.7329   24.2210 H   0  0  0  0  0  0
  -17.4982  -31.6314   24.5109 H   0  0  0  0  0  0
  -15.5323  -30.3004   23.7670 H   0  0  0  0  0  0
  -15.8644  -28.0856   22.7057 H   0  0  0  0  0  0
  -24.5894  -30.6931   25.7665 H   0  0  0  0  0  0
  -24.8760  -32.2755   26.4787 H   0  0  0  0  0  0
  -25.7951  -30.8815   27.0166 H   0  0  0  0  0  0
  -26.2853  -29.6806   24.1017 H   0  0  0  0  0  0
  -27.4016  -29.7229   25.4473 H   0  0  0  0  0  0
  -27.8676  -30.4382   23.9203 H   0  0  0  0  0  0
  -27.2608  -33.3584   26.2059 H   0  0  0  0  0  0
  -28.3863  -32.6752   25.0405 H   0  0  0  0  0  0
  -28.0543  -31.8369   26.5478 H   0  0  0  0  0  0
  -28.2575  -38.0093   24.7557 H   0  0  0  0  0  0
  -28.1050  -36.2622   24.6309 H   0  0  0  0  0  0
  -27.2261  -37.1425   25.8884 H   0  0  0  0  0  0
  -20.9241  -29.8710   21.7030 H   0  0  0  0  0  0
  -26.0141  -38.2847   24.1441 H   0  0  0  0  0  0
  -31.4292  -18.8237   19.1290 H   0  0  0  0  0  0
  -30.9040  -21.1493   19.4171 H   0  0  0  0  0  0
  -28.4302  -17.7126   22.0178 H   0  0  0  0  0  0
  -31.3030  -16.6729   19.7105 H   0  0  0  0  0  0
  -28.3848  -22.5452   21.9141 H   0  0  0  0  0  0
  -29.1433  -15.5522   21.5703 H   0  0  0  0  0  0
  -30.4942  -23.1312   19.7870 H   0  0  0  0  0  0
  -27.1701  -20.8833   24.6077 H   0  0  0  0  0  0
  -28.6847  -21.4396   23.9098 H   0  0  0  0  0  0
  -28.5360  -19.7752   24.4602 H   0  0  0  0  0  0
  -26.8462  -19.3015   22.6921 H   0  0  0  0  0  0
  -26.8578  -20.9421   22.1528 H   0  0  0  0  0  0
  -30.4404  -25.2994   20.7511 H   0  0  0  0  0  0
  -29.1822  -24.8655   21.8827 H   0  0  0  0  0  0
  -27.4812  -24.8827   20.1785 H   0  0  0  0  0  0
  -28.6331  -25.1307   18.8685 H   0  0  0  0  0  0
  1 25  1  0  0  0
  1 30  2  0  0  0
  1 79  1  0  0  0
  2  3  1  0  0  0
  2 25  1  0  0  0
  2 85  1  0  0  0
  2 86  1  0  0  0
  3  4  1  0  0  0
  3 87  1  0  0  0
  3 88  1  0  0  0
  4  5  1  0  0  0
  4 89  1  0  0  0
  4 90  1  0  0  0
  5  6  1  0  0  0
  5 26  1  0  0  0
  5 91  1  0  0  0
  6 25  1  0  0  0
  6 92  1  0  0  0
  6 93  1  0  0  0
  7  8  2  0  0  0
  7 26  1  0  0  0
  7 29  1  0  0  0
  8  9  1  0  0  0
  8 22  1  0  0  0
  9 10  1  0  0  0
  9 27  2  0  0  0
 10 11  2  0  0  0
 10 15  1  0  0  0
 11 12  1  0  0  0
 11 94  1  0  0  0
 12 13  2  0  0  0
 12 95  1  0  0  0
 13 14  1  0  0  0
 13 31  1  0  0  0
 14 15  2  0  0  0
 14 96  1  0  0  0
 15 97  1  0  0  0
 16 17  2  0  0  0
 16 21  1  0  0  0
 16 31  1  0  0  0
 17 18  1  0  0  0
 17 98  1  0  0  0
 18 19  2  0  0  0
 18 99  1  0  0  0
 19 20  1  0  0  0
 19 24  1  0  0  0
 20 21  2  0  0  0
 20100  1  0  0  0
 21 23  1  0  0  0
 22 28  1  0  0  0
 22 32  2  0  0  0
 26 27  1  0  0  0
 28101  1  0  0  0
 28102  1  0  0  0
 29103  1  0  0  0
 29104  1  0  0  0
 33 34  1  0  0  0
 33 66  1  0  0  0
 33 70  2  0  0  0
 34 36  1  0  0  0
 34 59  1  0  0  0
 34105  1  0  0  0
 35 44  2  0  0  0
 35 45  1  0  0  0
 35 68  1  0  0  0
 36 56  1  0  0  0
 36106  1  0  0  0
 37 39  1  0  0  0
 37 47  1  0  0  0
 37 66  1  0  0  0
 37107  1  0  0  0
 38 43  2  0  0  0
 38 46  1  0  0  0
 38 47  1  0  0  0
 39 64  1  0  0  0
 39 67  2  0  0  0
 40 52  1  0  0  0
 40 53  2  0  0  0
 40 58  1  0  0  0
 41108  1  0  0  0
 41109  1  0  0  0
 41110  1  0  0  0
 41 48  1  0  0  0
 42 43  1  0  0  0
 42 66  1  0  0  0
 42111  1  0  0  0
 42112  1  0  0  0
 43 44  1  0  0  0
 44113  1  0  0  0
 45 46  2  0  0  0
 45114  1  0  0  0
 46115  1  0  0  0
 47116  1  0  0  0
 47117  1  0  0  0
 48 56  1  0  0  0
 48 65  1  0  0  0
 48118  1  0  0  0
 49 50  1  0  0  0
 49 53  1  0  0  0
 49 64  1  0  0  0
 49119  1  0  0  0
 50 51  1  0  0  0
 50120  1  0  0  0
 50121  1  0  0  0
 51 52  1  0  0  0
 51122  1  0  0  0
 51123  1  0  0  0
 52124  1  0  0  0
 52125  1  0  0  0
 53 54  1  0  0  0
 54 55  2  0  0  0
 54126  1  0  0  0
 55 57  1  0  0  0
 55127  1  0  0  0
 56 69  2  0  0  0
 57 58  2  0  0  0
 57128  1  0  0  0
 58129  1  0  0  0
 59 60  1  0  0  0
 59 61  1  0  0  0
 59 62  1  0  0  0
 60130  1  0  0  0
 60131  1  0  0  0
 60132  1  0  0  0
 61133  1  0  0  0
 61134  1  0  0  0
 61135  1  0  0  0
 62136  1  0  0  0
 62137  1  0  0  0
 62138  1  0  0  0
 63 65  1  0  0  0
 63139  1  0  0  0
 63140  1  0  0  0
 63141  1  0  0  0
 64142  1  0  0  0
 65143  1  0  0  0
 68 84  1  0  0  0
 71 72  2  0  0  0
 71 74  1  0  0  0
 71144  1  0  0  0
 72 75  1  0  0  0
 72145  1  0  0  0
 73 74  2  0  0  0
 73 76  1  0  0  0
 73146  1  0  0  0
 74 77  1  0  0  0
 75 76  2  0  0  0
 75 78  1  0  0  0
 76 82  1  0  0  0
 77 79  2  0  0  0
 77147  1  0  0  0
 78 80  2  0  0  0
 78148  1  0  0  0
 79149  1  0  0  0
 80 83  1  0  0  0
 80150  1  0  0  0
 81 82  1  0  0  0
 81151  1  0  0  0
 81152  1  0  0  0
 81153  1  0  0  0
 82154  1  0  0  0
 82155  1  0  0  0
 83 84  1  0  0  0
 83156  1  0  0  0
 83157  1  0  0  0
 84158  1  0  0  0
 84159  1  0  0  0
M  ISO  4   1 100  68 101  79 100  84 101
M  END
> <chiral flag>
0

> <version>
0

> <s_m_source_file>
/data/baiqing/PycharmProjects/Reinvent-master-3.2/result/LINK_invent/BTK/process_docking_weight1_custom_product_contain_oxygen_bond_distance_aromatic_linkinvent_7_9_3/rearranged_h_0132.sdf

> <i_m_source_file_index>
74

> <r_mmod_Potential_Energy-OPLS-2005>
-8.32524490356445

> <r_mmod_Stretch_Energy-OPLS-2005>
31.7214946746826

> <r_mmod_Bend_Energy-OPLS-2005>
105.462799072266

> <r_mmod_Torsional_Energy-OPLS-2005>
186.834014892578

> <r_mmod_Improper_Torsional_Energy-OPLS-2005>
4.63397073745728

> <r_mmod_Van_der_Waal_Energy-OPLS-2005>
175.090316772461

> <r_mmod_Electrostatic_Energy-OPLS-2005>
-341.108795166016

> <r_mmod_Solvation_Energy-OPLS-2005>
-187.841659545898

> <b_mmod_Minimization_Converged-OPLS-2005>
0

> <r_mmod_RMS_Derivative-OPLS-2005>
4.09355306625366

$$$$
74
                    3D
 Structure written by MMmdl.
169177  0  0  1  0            999 V2000
  -30.7284  -14.4311   20.6251 C   0  0  0  0  0  0
  -30.4283  -12.3045   19.4083 C   0  0  0  0  0  0
  -29.4931  -12.5084   18.1993 C   0  0  0  0  0  0
  -28.0159  -12.3658   18.6169 C   0  0  0  0  0  0
  -27.6684  -13.2006   19.8787 C   0  0  2  0  0  0
  -28.7087  -12.9562   20.9944 C   0  0  0  0  0  0
  -25.2599  -13.8144   20.5558 C   0  0  0  0  0  0
  -24.1856  -13.0457   20.9148 C   0  0  0  0  0  0
  -24.6406  -11.6920   20.8748 C   0  0  0  0  0  0
  -23.9071  -10.4309   21.0422 C   0  0  0  0  0  0
  -24.3617   -9.4214   21.9197 C   0  0  0  0  0  0
  -23.6289   -8.2252   22.0764 C   0  0  0  0  0  0
  -22.4271   -8.0290   21.3556 C   0  0  0  0  0  0
  -21.9914   -9.0261   20.4651 C   0  0  0  0  0  0
  -22.7248  -10.2144   20.3063 C   0  0  0  0  0  0
  -21.6852   -6.0745   22.5284 C   0  0  0  0  0  0
  -21.4006   -6.5648   23.8218 C   0  0  0  0  0  0
  -21.3655   -5.6798   24.9176 C   0  0  0  0  0  0
  -21.6040   -4.3063   24.7218 C   0  0  0  0  0  0
  -21.8824   -3.8155   23.4342 C   0  0  0  0  0  0
  -21.9188   -4.6972   22.3395 C   0  0  0  0  0  0
  -22.7879  -13.5266   21.1795 C   0  0  0  0  0  0
  -22.1664   -4.2165   21.0973 F   0  0  0  0  0  0
  -21.5620   -3.4537   25.7728 F   0  0  0  0  0  0
  -30.0435  -13.2698   20.4504 N   0  0  0  0  0  0
  -26.3062  -12.9320   20.3379 N   0  0  0  0  0  0
  -25.9341  -11.6493   20.5802 N   0  0  0  0  0  0
  -22.0498  -12.8282   22.0360 N   0  0  0  0  0  0
  -25.4277  -15.1826   20.3708 N   0  0  0  0  0  0
  -31.8099  -14.6615   20.0759 O   0  0  0  0  0  0
  -21.6639   -6.8879   21.4251 O   0  0  0  0  0  0
  -22.3583  -14.5575   20.6646 O   0  0  0  0  0  0
  -24.6170  -31.8666   23.2106 C   0  0  0  0  0  0
  -25.9053  -32.4818   23.8395 C   0  0  1  0  0  0
  -27.2240  -27.4153   20.0847 C   0  0  0  0  0  0
  -25.5931  -33.8607   24.2328 N   0  0  0  0  0  0
  -23.4044  -30.4959   21.5507 C   0  0  2  0  0  0
  -24.8440  -28.9624   20.1134 C   0  0  0  0  0  0
  -22.7427  -29.4656   22.4955 C   0  0  0  0  0  0
  -18.0286  -28.1380   22.8503 C   0  0  0  0  0  0
  -24.1494  -36.7288   23.2649 C   0  0  0  0  0  0
  -25.9351  -30.8282   21.3622 C   0  0  0  0  0  0
  -26.0057  -29.4611   20.7084 C   0  0  0  0  0  0
  -27.1970  -28.6974   20.6882 C   0  0  0  0  0  0
  -26.0361  -26.9375   19.4815 C   0  0  0  0  0  0
  -24.8546  -27.7024   19.4936 C   0  0  0  0  0  0
  -23.6118  -29.8340   20.1633 C   0  0  0  0  0  0
  -25.4111  -36.3096   24.0360 C   0  0  1  0  0  0
  -20.5876  -28.3664   23.1292 C   0  0  2  0  0  0
  -20.6762  -26.9390   22.5395 C   0  0  0  0  0  0
  -19.5732  -26.6367   21.5208 C   0  0  0  0  0  0
  -18.1910  -26.7918   22.1620 C   0  0  0  0  0  0
  -19.1542  -28.8820   23.2905 C   0  0  0  0  0  0
  -18.9472  -30.1420   23.8929 C   0  0  0  0  0  0
  -17.6480  -30.6576   24.0564 C   0  0  0  0  0  0
  -25.9038  -34.9472   23.5129 C   0  0  0  0  0  0
  -16.5364  -29.9103   23.6314 C   0  0  0  0  0  0
  -16.7273  -28.6510   23.0345 C   0  0  0  0  0  0
  -26.4488  -31.6591   25.0710 C   0  0  0  0  0  0
  -25.3767  -31.3701   26.1467 C   0  0  0  0  0  0
  -27.0304  -30.3049   24.6026 C   0  0  0  0  0  0
  -27.6068  -32.4305   25.7484 C   0  0  0  0  0  0
  -27.5583  -37.1811   24.8481 C   0  0  0  0  0  0
  -21.4155  -29.3071   22.3732 N   0  0  0  0  0  0
  -26.4297  -37.3775   23.9440 N   0  0  0  0  0  0
  -24.6720  -31.0773   22.0999 N   0  0  0  0  0  0
  -23.4210  -28.8136   23.2933 O   0  0  0  0  0  0
  -28.4153  -26.7071   20.0791 O   0  0  0  0  0  0
  -26.5557  -34.8928   22.4672 O   0  0  0  0  0  0
  -23.5345  -32.1389   23.7500 O   0  0  0  0  0  0
  -27.4317  -18.9095   21.4571 C   0  0  0  0  0  0
  -30.0611  -18.9002   20.5045 C   0  0  0  0  0  0
  -27.8695  -19.9652   20.6317 C   0  0  0  0  0  0
  -28.2903  -17.8520   21.8176 C   0  0  0  0  0  0
  -29.2068  -19.9781   20.1606 C   0  0  0  0  0  0
  -29.6196  -17.8263   21.3197 C   0  0  0  0  0  0
  -29.5975  -24.8241   19.0857 C   0  0  0  0  0  0
  -30.2807  -23.6542   19.0969 C   0  0  0  0  0  0
  -26.8684  -21.0564   20.2804 C   0  0  0  0  0  0
  -27.7512  -16.7825   22.7547 C   0  0  0  0  0  0
  -32.8093  -23.4406   18.8632 C   0  0  0  0  0  0
  -29.7327  -21.1130   19.2682 C   0  0  0  0  0  0
  -30.6029  -16.7047   21.6881 C   0  0  0  0  0  0
  -28.4250  -25.2689   19.9461 C   0  0  0  0  0  0
  -31.4574  -23.4873   18.1410 C   0  0  0  0  0  0
  -29.9864  -22.4534   20.0135 C   0  0  0  0  0  0
  -30.1241  -15.3480   21.3968 N   0  0  0  0  0  0
  -31.4712  -12.4123   19.1040 H   0  0  0  0  0  0
  -30.3388  -11.2880   19.7941 H   0  0  0  0  0  0
  -29.7315  -11.7842   17.4188 H   0  0  0  0  0  0
  -29.6589  -13.4946   17.7616 H   0  0  0  0  0  0
  -27.8303  -11.3081   18.8120 H   0  0  0  0  0  0
  -27.3611  -12.6408   17.7889 H   0  0  0  0  0  0
  -27.7234  -14.2528   19.5968 H   0  0  0  0  0  0
  -28.6850  -11.9110   21.3052 H   0  0  0  0  0  0
  -28.4629  -13.5240   21.8918 H   0  0  0  0  0  0
  -25.2765   -9.5695   22.4772 H   0  0  0  0  0  0
  -23.9992   -7.4653   22.7502 H   0  0  0  0  0  0
  -21.0842   -8.8795   19.8954 H   0  0  0  0  0  0
  -22.3719  -10.9684   19.6162 H   0  0  0  0  0  0
  -21.2010   -7.6159   23.9729 H   0  0  0  0  0  0
  -21.1461   -6.0520   25.9080 H   0  0  0  0  0  0
  -22.0601   -2.7620   23.2831 H   0  0  0  0  0  0
  -22.4086  -11.9937   22.4763 H   0  0  0  0  0  0
  -21.1112  -13.1337   22.2522 H   0  0  0  0  0  0
  -24.6470  -15.8263   20.4070 H   0  0  0  0  0  0
  -26.2654  -15.6022   19.9883 H   0  0  0  0  0  0
  -26.7116  -32.5531   23.1147 H   0  0  0  0  0  0
  -25.0214  -33.9759   25.0558 H   0  0  0  0  0  0
  -22.6957  -31.3143   21.4118 H   0  0  0  0  0  0
  -23.3757  -35.9615   23.3308 H   0  0  0  0  0  0
  -24.3585  -36.8831   22.2051 H   0  0  0  0  0  0
  -23.7226  -37.6508   23.6620 H   0  0  0  0  0  0
  -26.0449  -31.5919   20.5912 H   0  0  0  0  0  0
  -26.8254  -30.8782   21.9774 H   0  0  0  0  0  0
  -28.0963  -29.0882   21.1408 H   0  0  0  0  0  0
  -25.9797  -25.9913   18.9706 H   0  0  0  0  0  0
  -23.9629  -27.3244   19.0151 H   0  0  0  0  0  0
  -23.7266  -30.6096   19.4067 H   0  0  0  0  0  0
  -22.7354  -29.2574   19.8651 H   0  0  0  0  0  0
  -25.1275  -36.1949   25.0843 H   0  0  0  0  0  0
  -20.9981  -28.3196   24.1401 H   0  0  0  0  0  0
  -20.5608  -26.2283   23.3584 H   0  0  0  0  0  0
  -21.6641  -26.7379   22.1220 H   0  0  0  0  0  0
  -19.6906  -25.6282   21.1220 H   0  0  0  0  0  0
  -19.6683  -27.3183   20.6744 H   0  0  0  0  0  0
  -17.4188  -26.6664   21.4010 H   0  0  0  0  0  0
  -18.0325  -26.0051   22.9008 H   0  0  0  0  0  0
  -19.7954  -30.7211   24.2321 H   0  0  0  0  0  0
  -17.5053  -31.6262   24.5152 H   0  0  0  0  0  0
  -15.5370  -30.3023   23.7618 H   0  0  0  0  0  0
  -15.8672  -28.0830   22.7068 H   0  0  0  0  0  0
  -24.6022  -30.6921   25.7869 H   0  0  0  0  0  0
  -24.8881  -32.2845   26.4848 H   0  0  0  0  0  0
  -25.8160  -30.9005   27.0263 H   0  0  0  0  0  0
  -26.2824  -29.6829   24.1098 H   0  0  0  0  0  0
  -27.4135  -29.7249   25.4423 H   0  0  0  0  0  0
  -27.8628  -30.4398   23.9113 H   0  0  0  0  0  0
  -27.2709  -33.3630   26.2035 H   0  0  0  0  0  0
  -28.3930  -32.6774   25.0346 H   0  0  0  0  0  0
  -28.0676  -31.8422   26.5428 H   0  0  0  0  0  0
  -28.2604  -38.0108   24.7516 H   0  0  0  0  0  0
  -28.1060  -36.2630   24.6300 H   0  0  0  0  0  0
  -27.2303  -37.1425   25.8885 H   0  0  0  0  0  0
  -20.9285  -29.8886   21.7061 H   0  0  0  0  0  0
  -26.0169  -38.2844   24.1445 H   0  0  0  0  0  0
  -26.4159  -18.9123   21.8279 H   0  0  0  0  0  0
  -31.0798  -18.8992   20.1408 H   0  0  0  0  0  0
  -29.8971  -25.5736   18.3694 H   0  0  0  0  0  0
  -25.8451  -20.6966   20.3892 H   0  0  0  0  0  0
  -26.9734  -21.3957   19.2508 H   0  0  0  0  0  0
  -26.9861  -21.9154   20.9402 H   0  0  0  0  0  0
  -26.8845  -17.1498   23.3053 H   0  0  0  0  0  0
  -28.4949  -16.4831   23.4936 H   0  0  0  0  0  0
  -27.4366  -15.9008   22.1974 H   0  0  0  0  0  0
  -32.9000  -24.2491   19.5886 H   0  0  0  0  0  0
  -33.6294  -23.5443   18.1502 H   0  0  0  0  0  0
  -32.9482  -22.4982   19.3904 H   0  0  0  0  0  0
  -29.0325  -21.2687   18.4477 H   0  0  0  0  0  0
  -30.6526  -20.7748   18.7896 H   0  0  0  0  0  0
  -30.7958  -16.7672   22.7599 H   0  0  0  0  0  0
  -31.5663  -16.8905   21.2087 H   0  0  0  0  0  0
  -28.5075  -24.8335   20.9399 H   0  0  0  0  0  0
  -27.5395  -24.8315   19.4976 H   0  0  0  0  0  0
  -31.4754  -24.3247   17.4418 H   0  0  0  0  0  0
  -31.3225  -22.6028   17.5199 H   0  0  0  0  0  0
  -29.1246  -22.6877   20.6333 H   0  0  0  0  0  0
  -30.8216  -22.3265   20.7013 H   0  0  0  0  0  0
  -29.2529  -15.0725   21.8202 H   0  0  0  0  0  0
  1 25  1  0  0  0
  1 30  2  0  0  0
  1 87  1  0  0  0
  2  3  1  0  0  0
  2 25  1  0  0  0
  2 88  1  0  0  0
  2 89  1  0  0  0
  3  4  1  0  0  0
  3 90  1  0  0  0
  3 91  1  0  0  0
  4  5  1  0  0  0
  4 92  1  0  0  0
  4 93  1  0  0  0
  5  6  1  0  0  0
  5 26  1  0  0  0
  5 94  1  0  0  0
  6 25  1  0  0  0
  6 95  1  0  0  0
  6 96  1  0  0  0
  7  8  2  0  0  0
  7 26  1  0  0  0
  7 29  1  0  0  0
  8  9  1  0  0  0
  8 22  1  0  0  0
  9 10  1  0  0  0
  9 27  2  0  0  0
 10 11  2  0  0  0
 10 15  1  0  0  0
 11 12  1  0  0  0
 11 97  1  0  0  0
 12 13  2  0  0  0
 12 98  1  0  0  0
 13 14  1  0  0  0
 13 31  1  0  0  0
 14 15  2  0  0  0
 14 99  1  0  0  0
 15100  1  0  0  0
 16 17  2  0  0  0
 16 21  1  0  0  0
 16 31  1  0  0  0
 17 18  1  0  0  0
 17101  1  0  0  0
 18 19  2  0  0  0
 18102  1  0  0  0
 19 20  1  0  0  0
 19 24  1  0  0  0
 20 21  2  0  0  0
 20103  1  0  0  0
 21 23  1  0  0  0
 22 28  1  0  0  0
 22 32  2  0  0  0
 26 27  1  0  0  0
 28104  1  0  0  0
 28105  1  0  0  0
 29106  1  0  0  0
 29107  1  0  0  0
 33 34  1  0  0  0
 33 66  1  0  0  0
 33 70  2  0  0  0
 34 36  1  0  0  0
 34 59  1  0  0  0
 34108  1  0  0  0
 35 44  2  0  0  0
 35 45  1  0  0  0
 35 68  1  0  0  0
 36 56  1  0  0  0
 36109  1  0  0  0
 37 39  1  0  0  0
 37 47  1  0  0  0
 37 66  1  0  0  0
 37110  1  0  0  0
 38 43  2  0  0  0
 38 46  1  0  0  0
 38 47  1  0  0  0
 39 64  1  0  0  0
 39 67  2  0  0  0
 40 52  1  0  0  0
 40 53  2  0  0  0
 40 58  1  0  0  0
 41111  1  0  0  0
 41112  1  0  0  0
 41113  1  0  0  0
 41 48  1  0  0  0
 42 43  1  0  0  0
 42 66  1  0  0  0
 42114  1  0  0  0
 42115  1  0  0  0
 43 44  1  0  0  0
 44116  1  0  0  0
 45 46  2  0  0  0
 45117  1  0  0  0
 46118  1  0  0  0
 47119  1  0  0  0
 47120  1  0  0  0
 48 56  1  0  0  0
 48 65  1  0  0  0
 48121  1  0  0  0
 49 50  1  0  0  0
 49 53  1  0  0  0
 49 64  1  0  0  0
 49122  1  0  0  0
 50 51  1  0  0  0
 50123  1  0  0  0
 50124  1  0  0  0
 51 52  1  0  0  0
 51125  1  0  0  0
 51126  1  0  0  0
 52127  1  0  0  0
 52128  1  0  0  0
 53 54  1  0  0  0
 54 55  2  0  0  0
 54129  1  0  0  0
 55 57  1  0  0  0
 55130  1  0  0  0
 56 69  2  0  0  0
 57 58  2  0  0  0
 57131  1  0  0  0
 58132  1  0  0  0
 59 60  1  0  0  0
 59 61  1  0  0  0
 59 62  1  0  0  0
 60133  1  0  0  0
 60134  1  0  0  0
 60135  1  0  0  0
 61136  1  0  0  0
 61137  1  0  0  0
 61138  1  0  0  0
 62139  1  0  0  0
 62140  1  0  0  0
 62141  1  0  0  0
 63 65  1  0  0  0
 63142  1  0  0  0
 63143  1  0  0  0
 63144  1  0  0  0
 64145  1  0  0  0
 65146  1  0  0  0
 68 84  1  0  0  0
 71 73  2  0  0  0
 71 74  1  0  0  0
 71147  1  0  0  0
 72 75  2  0  0  0
 72 76  1  0  0  0
 72148  1  0  0  0
 73 75  1  0  0  0
 73 79  1  0  0  0
 74 76  2  0  0  0
 74 80  1  0  0  0
 75 82  1  0  0  0
 76 83  1  0  0  0
 77 78  2  0  0  0
 77 84  1  0  0  0
 77149  1  0  0  0
 78 85  1  0  0  0
 78 86  1  0  0  0
 79150  1  0  0  0
 79151  1  0  0  0
 79152  1  0  0  0
 80153  1  0  0  0
 80154  1  0  0  0
 80155  1  0  0  0
 81 85  1  0  0  0
 81156  1  0  0  0
 81157  1  0  0  0
 81158  1  0  0  0
 82 86  1  0  0  0
 82159  1  0  0  0
 82160  1  0  0  0
 83 87  1  0  0  0
 83161  1  0  0  0
 83162  1  0  0  0
 84163  1  0  0  0
 84164  1  0  0  0
 85165  1  0  0  0
 85166  1  0  0  0
 86167  1  0  0  0
 86168  1  0  0  0
 87169  1  0  0  0
M  ISO  4   1 100  68 101  84 101  87 100
M  END
> <chiral flag>
0

> <version>
0

> <s_m_source_file>
/data/baiqing/PycharmProjects/Reinvent-master-3.2/result/LINK_invent/BTK/process_docking_weight1_custom_product_contain_oxygen_bond_distance_aromatic_linkinvent_7_9_3/rearranged_h_0132.sdf

> <i_m_source_file_index>
75

> <r_mmod_Potential_Energy-OPLS-2005>
-114.823165893555

> <r_mmod_Stretch_Energy-OPLS-2005>
40.7090339660645

> <r_mmod_Bend_Energy-OPLS-2005>
107.76025390625

> <r_mmod_Torsional_Energy-OPLS-2005>
195.965286254883

> <r_mmod_Improper_Torsional_Energy-OPLS-2005>
2.61167454719543

> <r_mmod_Van_der_Waal_Energy-OPLS-2005>
152.66242980957

> <r_mmod_Electrostatic_Energy-OPLS-2005>
-432.842437744141

> <r_mmod_Solvation_Energy-OPLS-2005>
-192.536209106445

> <b_mmod_Minimization_Converged-OPLS-2005>
0

> <r_mmod_RMS_Derivative-OPLS-2005>
3.52724003791809

$$$$
75
                    3D
 Structure written by MMmdl.
166174  0  0  1  0            999 V2000
  -30.7159  -14.4818   20.5854 C   0  0  0  0  0  0
  -30.4252  -12.3138   19.4246 C   0  0  0  0  0  0
  -29.4967  -12.4998   18.2059 C   0  0  0  0  0  0
  -28.0178  -12.3639   18.6189 C   0  0  0  0  0  0
  -27.6624  -13.2105   19.8717 C   0  0  2  0  0  0
  -28.7043  -12.9972   20.9931 C   0  0  0  0  0  0
  -25.2594  -13.8160   20.5669 C   0  0  0  0  0  0
  -24.1846  -13.0457   20.9202 C   0  0  0  0  0  0
  -24.6398  -11.6922   20.8763 C   0  0  0  0  0  0
  -23.9055  -10.4316   21.0424 C   0  0  0  0  0  0
  -24.3613   -9.4226   21.9203 C   0  0  0  0  0  0
  -23.6309   -8.2252   22.0759 C   0  0  0  0  0  0
  -22.4289   -8.0285   21.3553 C   0  0  0  0  0  0
  -21.9918   -9.0245   20.4647 C   0  0  0  0  0  0
  -22.7240  -10.2142   20.3064 C   0  0  0  0  0  0
  -21.6850   -6.0744   22.5280 C   0  0  0  0  0  0
  -21.4016   -6.5651   23.8221 C   0  0  0  0  0  0
  -21.3662   -5.6796   24.9177 C   0  0  0  0  0  0
  -21.6050   -4.3056   24.7217 C   0  0  0  0  0  0
  -21.8814   -3.8158   23.4339 C   0  0  0  0  0  0
  -21.9194   -4.6979   22.3403 C   0  0  0  0  0  0
  -22.7878  -13.5273   21.1867 C   0  0  0  0  0  0
  -22.1654   -4.2175   21.0978 F   0  0  0  0  0  0
  -21.5631   -3.4531   25.7720 F   0  0  0  0  0  0
  -30.0391  -13.3053   20.4442 N   0  0  0  0  0  0
  -26.3031  -12.9336   20.3352 N   0  0  0  0  0  0
  -25.9333  -11.6504   20.5788 N   0  0  0  0  0  0
  -22.0470  -12.8258   22.0368 N   0  0  0  0  0  0
  -25.4323  -15.1856   20.4000 N   0  0  0  0  0  0
  -31.8355  -14.6536   20.0952 O   0  0  0  0  0  0
  -21.6653   -6.8893   21.4250 O   0  0  0  0  0  0
  -22.3589  -14.5590   20.6723 O   0  0  0  0  0  0
  -24.6157  -31.8685   23.2111 C   0  0  0  0  0  0
  -25.9039  -32.4846   23.8411 C   0  0  1  0  0  0
  -27.2327  -27.4232   20.1083 C   0  0  0  0  0  0
  -25.5904  -33.8648   24.2355 N   0  0  0  0  0  0
  -23.4026  -30.4930   21.5533 C   0  0  2  0  0  0
  -24.8468  -28.9586   20.1157 C   0  0  0  0  0  0
  -22.7428  -29.4644   22.4993 C   0  0  0  0  0  0
  -18.0276  -28.1390   22.8546 C   0  0  0  0  0  0
  -24.1466  -36.7289   23.2641 C   0  0  0  0  0  0
  -25.9324  -30.8341   21.3607 C   0  0  0  0  0  0
  -26.0104  -29.4663   20.7109 C   0  0  0  0  0  0
  -27.2055  -28.7086   20.6998 C   0  0  0  0  0  0
  -26.0510  -26.9334   19.5028 C   0  0  0  0  0  0
  -24.8653  -27.6924   19.5071 C   0  0  0  0  0  0
  -23.6085  -29.8282   20.1667 C   0  0  0  0  0  0
  -25.4091  -36.3122   24.0348 C   0  0  1  0  0  0
  -20.5891  -28.3636   23.1360 C   0  0  2  0  0  0
  -20.6776  -26.9368   22.5444 C   0  0  0  0  0  0
  -19.5747  -26.6392   21.5257 C   0  0  0  0  0  0
  -18.1921  -26.7959   22.1644 C   0  0  0  0  0  0
  -19.1539  -28.8827   23.2957 C   0  0  0  0  0  0
  -18.9459  -30.1462   23.8917 C   0  0  0  0  0  0
  -17.6468  -30.6608   24.0578 C   0  0  0  0  0  0
  -25.9030  -34.9504   23.5140 C   0  0  0  0  0  0
  -16.5358  -29.9104   23.6364 C   0  0  0  0  0  0
  -16.7271  -28.6525   23.0377 C   0  0  0  0  0  0
  -26.4456  -31.6620   25.0735 C   0  0  0  0  0  0
  -25.3693  -31.3744   26.1466 C   0  0  0  0  0  0
  -27.0295  -30.3083   24.6079 C   0  0  0  0  0  0
  -27.6051  -32.4293   25.7494 C   0  0  0  0  0  0
  -27.5569  -37.1800   24.8468 C   0  0  0  0  0  0
  -21.4144  -29.3021   22.3762 N   0  0  0  0  0  0
  -26.4272  -37.3804   23.9427 N   0  0  0  0  0  0
  -24.6694  -31.0772   22.1009 N   0  0  0  0  0  0
  -23.4197  -28.8188   23.3030 O   0  0  0  0  0  0
  -28.4062  -26.6924   20.1051 O   0  0  0  0  0  0
  -26.5589  -34.8951   22.4703 O   0  0  0  0  0  0
  -23.5346  -32.1448   23.7511 O   0  0  0  0  0  0
  -31.6548  -18.9146   21.0933 C   0  0  0  0  0  0
  -31.4663  -17.5235   20.9221 C   0  0  0  0  0  0
  -29.4374  -19.0952   22.0373 C   0  0  0  0  0  0
  -30.6443  -19.7176   21.6594 C   0  0  0  0  0  0
  -29.2267  -17.7001   21.8643 C   0  0  0  0  0  0
  -30.2584  -16.8883   21.3131 C   0  0  0  0  0  0
  -29.8761  -23.3581   21.2331 C   0  0  0  0  0  0
  -30.7087  -22.3123   20.9913 C   0  0  0  0  0  0
  -26.6743  -17.9965   22.1703 C   0  0  0  0  0  0
  -32.9350  -22.9533   19.9172 C   0  0  0  0  0  0
  -30.9004  -21.1913   22.0258 C   0  0  0  0  0  0
  -27.9009  -17.0833   22.3194 C   0  0  0  0  0  0
  -29.7104  -24.6359   20.3985 C   0  0  0  0  0  0
  -31.5871  -22.2315   19.7457 C   0  0  0  0  0  0
  -28.3142  -25.2987   20.4572 C   0  0  0  0  0  0
  -30.0317  -15.4667   21.2104 N   0  0  0  0  0  0
  -31.4710  -12.4058   19.1247 H   0  0  0  0  0  0
  -30.3231  -11.3053   19.8298 H   0  0  0  0  0  0
  -29.7380  -11.7665   17.4359 H   0  0  0  0  0  0
  -29.6636  -13.4795   17.7562 H   0  0  0  0  0  0
  -27.8259  -11.3101   18.8238 H   0  0  0  0  0  0
  -27.3696  -12.6315   17.7827 H   0  0  0  0  0  0
  -27.7057  -14.2578   19.5700 H   0  0  0  0  0  0
  -28.6785  -11.9610   21.3312 H   0  0  0  0  0  0
  -28.4594  -13.5933   21.8719 H   0  0  0  0  0  0
  -25.2744   -9.5725   22.4785 H   0  0  0  0  0  0
  -24.0023   -7.4652   22.7472 H   0  0  0  0  0  0
  -21.0857   -8.8774   19.8937 H   0  0  0  0  0  0
  -22.3700  -10.9686   19.6172 H   0  0  0  0  0  0
  -21.1995   -7.6153   23.9732 H   0  0  0  0  0  0
  -21.1494   -6.0519   25.9089 H   0  0  0  0  0  0
  -22.0585   -2.7620   23.2819 H   0  0  0  0  0  0
  -22.4025  -11.9893   22.4755 H   0  0  0  0  0  0
  -21.1091  -13.1328   22.2533 H   0  0  0  0  0  0
  -24.6760  -15.8480   20.5256 H   0  0  0  0  0  0
  -26.2789  -15.6122   20.0471 H   0  0  0  0  0  0
  -26.7114  -32.5522   23.1176 H   0  0  0  0  0  0
  -25.0098  -33.9812   25.0535 H   0  0  0  0  0  0
  -22.6945  -31.3144   21.4211 H   0  0  0  0  0  0
  -23.3767  -35.9571   23.3307 H   0  0  0  0  0  0
  -24.3597  -36.8895   22.2054 H   0  0  0  0  0  0
  -23.7188  -37.6481   23.6653 H   0  0  0  0  0  0
  -26.0429  -31.5997   20.5900 H   0  0  0  0  0  0
  -26.8222  -30.8909   21.9762 H   0  0  0  0  0  0
  -28.1019  -29.1032   21.1591 H   0  0  0  0  0  0
  -26.0381  -25.9762   19.0028 H   0  0  0  0  0  0
  -23.9711  -27.3008   19.0400 H   0  0  0  0  0  0
  -23.7094  -30.6095   19.4128 H   0  0  0  0  0  0
  -22.7291  -29.2501   19.8720 H   0  0  0  0  0  0
  -25.1275  -36.1967   25.0840 H   0  0  0  0  0  0
  -20.9993  -28.3167   24.1479 H   0  0  0  0  0  0
  -20.5729  -26.2219   23.3621 H   0  0  0  0  0  0
  -21.6630  -26.7446   22.1193 H   0  0  0  0  0  0
  -19.6896  -25.6308   21.1261 H   0  0  0  0  0  0
  -19.6712  -27.3241   20.6825 H   0  0  0  0  0  0
  -17.4221  -26.6800   21.3994 H   0  0  0  0  0  0
  -18.0235  -26.0085   22.9010 H   0  0  0  0  0  0
  -19.7924  -30.7320   24.2242 H   0  0  0  0  0  0
  -17.5011  -31.6280   24.5192 H   0  0  0  0  0  0
  -15.5352  -30.3010   23.7673 H   0  0  0  0  0  0
  -15.8691  -28.0872   22.7016 H   0  0  0  0  0  0
  -24.5891  -30.7060   25.7828 H   0  0  0  0  0  0
  -24.8830  -32.2894   26.4839 H   0  0  0  0  0  0
  -25.8016  -30.8993   27.0279 H   0  0  0  0  0  0
  -26.2853  -29.6862   24.1093 H   0  0  0  0  0  0
  -27.4095  -29.7297   25.4509 H   0  0  0  0  0  0
  -27.8667  -30.4483   23.9237 H   0  0  0  0  0  0
  -27.2741  -33.3636   26.2030 H   0  0  0  0  0  0
  -28.3884  -32.6750   25.0320 H   0  0  0  0  0  0
  -28.0676  -31.8418   26.5428 H   0  0  0  0  0  0
  -28.2582  -38.0104   24.7536 H   0  0  0  0  0  0
  -28.1076  -36.2647   24.6246 H   0  0  0  0  0  0
  -27.2318  -37.1366   25.8882 H   0  0  0  0  0  0
  -20.9291  -29.8769   21.7026 H   0  0  0  0  0  0
  -26.0167  -38.2875   24.1478 H   0  0  0  0  0  0
  -32.6050  -19.3542   20.8238 H   0  0  0  0  0  0
  -32.2898  -16.9644   20.5101 H   0  0  0  0  0  0
  -28.6825  -19.7018   22.5131 H   0  0  0  0  0  0
  -29.2907  -23.3481   22.1452 H   0  0  0  0  0  0
  -25.7615  -17.4475   22.4000 H   0  0  0  0  0  0
  -26.5845  -18.3712   21.1500 H   0  0  0  0  0  0
  -26.7056  -18.8498   22.8476 H   0  0  0  0  0  0
  -33.4811  -22.9859   18.9745 H   0  0  0  0  0  0
  -33.5753  -22.4552   20.6480 H   0  0  0  0  0  0
  -32.7953  -23.9865   20.2422 H   0  0  0  0  0  0
  -31.9337  -21.2622   22.3689 H   0  0  0  0  0  0
  -30.3031  -21.4240   22.9076 H   0  0  0  0  0  0
  -27.9987  -16.7659   23.3577 H   0  0  0  0  0  0
  -27.6935  -16.1816   21.7456 H   0  0  0  0  0  0
  -29.9890  -24.4731   19.3587 H   0  0  0  0  0  0
  -30.4350  -25.3473   20.7959 H   0  0  0  0  0  0
  -31.0582  -22.6590   18.8954 H   0  0  0  0  0  0
  -31.7563  -21.1903   19.4732 H   0  0  0  0  0  0
  -27.9027  -25.2271   21.4663 H   0  0  0  0  0  0
  -27.6443  -24.7559   19.7906 H   0  0  0  0  0  0
  -29.1405  -15.1577   21.5664 H   0  0  0  0  0  0
  1 25  1  0  0  0
  1 30  2  0  0  0
  1 86  1  0  0  0
  2  3  1  0  0  0
  2 25  1  0  0  0
  2 87  1  0  0  0
  2 88  1  0  0  0
  3  4  1  0  0  0
  3 89  1  0  0  0
  3 90  1  0  0  0
  4  5  1  0  0  0
  4 91  1  0  0  0
  4 92  1  0  0  0
  5  6  1  0  0  0
  5 26  1  0  0  0
  5 93  1  0  0  0
  6 25  1  0  0  0
  6 94  1  0  0  0
  6 95  1  0  0  0
  7  8  2  0  0  0
  7 26  1  0  0  0
  7 29  1  0  0  0
  8  9  1  0  0  0
  8 22  1  0  0  0
  9 10  1  0  0  0
  9 27  2  0  0  0
 10 11  2  0  0  0
 10 15  1  0  0  0
 11 12  1  0  0  0
 11 96  1  0  0  0
 12 13  2  0  0  0
 12 97  1  0  0  0
 13 14  1  0  0  0
 13 31  1  0  0  0
 14 15  2  0  0  0
 14 98  1  0  0  0
 15 99  1  0  0  0
 16 17  2  0  0  0
 16 21  1  0  0  0
 16 31  1  0  0  0
 17 18  1  0  0  0
 17100  1  0  0  0
 18 19  2  0  0  0
 18101  1  0  0  0
 19 20  1  0  0  0
 19 24  1  0  0  0
 20 21  2  0  0  0
 20102  1  0  0  0
 21 23  1  0  0  0
 22 28  1  0  0  0
 22 32  2  0  0  0
 26 27  1  0  0  0
 28103  1  0  0  0
 28104  1  0  0  0
 29105  1  0  0  0
 29106  1  0  0  0
 33 34  1  0  0  0
 33 66  1  0  0  0
 33 70  2  0  0  0
 34 36  1  0  0  0
 34 59  1  0  0  0
 34107  1  0  0  0
 35 44  2  0  0  0
 35 45  1  0  0  0
 35 68  1  0  0  0
 36 56  1  0  0  0
 36108  1  0  0  0
 37 39  1  0  0  0
 37 47  1  0  0  0
 37 66  1  0  0  0
 37109  1  0  0  0
 38 43  2  0  0  0
 38 46  1  0  0  0
 38 47  1  0  0  0
 39 64  1  0  0  0
 39 67  2  0  0  0
 40 52  1  0  0  0
 40 53  2  0  0  0
 40 58  1  0  0  0
 41110  1  0  0  0
 41111  1  0  0  0
 41112  1  0  0  0
 41 48  1  0  0  0
 42 43  1  0  0  0
 42 66  1  0  0  0
 42113  1  0  0  0
 42114  1  0  0  0
 43 44  1  0  0  0
 44115  1  0  0  0
 45 46  2  0  0  0
 45116  1  0  0  0
 46117  1  0  0  0
 47118  1  0  0  0
 47119  1  0  0  0
 48 56  1  0  0  0
 48 65  1  0  0  0
 48120  1  0  0  0
 49 50  1  0  0  0
 49 53  1  0  0  0
 49 64  1  0  0  0
 49121  1  0  0  0
 50 51  1  0  0  0
 50122  1  0  0  0
 50123  1  0  0  0
 51 52  1  0  0  0
 51124  1  0  0  0
 51125  1  0  0  0
 52126  1  0  0  0
 52127  1  0  0  0
 53 54  1  0  0  0
 54 55  2  0  0  0
 54128  1  0  0  0
 55 57  1  0  0  0
 55129  1  0  0  0
 56 69  2  0  0  0
 57 58  2  0  0  0
 57130  1  0  0  0
 58131  1  0  0  0
 59 60  1  0  0  0
 59 61  1  0  0  0
 59 62  1  0  0  0
 60132  1  0  0  0
 60133  1  0  0  0
 60134  1  0  0  0
 61135  1  0  0  0
 61136  1  0  0  0
 61137  1  0  0  0
 62138  1  0  0  0
 62139  1  0  0  0
 62140  1  0  0  0
 63 65  1  0  0  0
 63141  1  0  0  0
 63142  1  0  0  0
 63143  1  0  0  0
 64144  1  0  0  0
 65145  1  0  0  0
 68 85  1  0  0  0
 71 72  2  0  0  0
 71 74  1  0  0  0
 71146  1  0  0  0
 72 76  1  0  0  0
 72147  1  0  0  0
 73 74  2  0  0  0
 73 75  1  0  0  0
 73148  1  0  0  0
 74 81  1  0  0  0
 75 76  2  0  0  0
 75 82  1  0  0  0
 76 86  1  0  0  0
 77 78  2  0  0  0
 77 83  1  0  0  0
 77149  1  0  0  0
 78 81  1  0  0  0
 78 84  1  0  0  0
 79 82  1  0  0  0
 79150  1  0  0  0
 79151  1  0  0  0
 79152  1  0  0  0
 80 84  1  0  0  0
 80153  1  0  0  0
 80154  1  0  0  0
 80155  1  0  0  0
 81156  1  0  0  0
 81157  1  0  0  0
 82158  1  0  0  0
 82159  1  0  0  0
 83 85  1  0  0  0
 83160  1  0  0  0
 83161  1  0  0  0
 84162  1  0  0  0
 84163  1  0  0  0
 85164  1  0  0  0
 85165  1  0  0  0
 86166  1  0  0  0
M  ISO  4   1 100  68 101  85 101  86 100
M  END
> <chiral flag>
0

> <version>
0

> <s_m_source_file>
/data/baiqing/PycharmProjects/Reinvent-master-3.2/result/LINK_invent/BTK/process_docking_weight1_custom_product_contain_oxygen_bond_distance_aromatic_linkinvent_7_9_3/rearranged_h_0132.sdf

> <i_m_source_file_index>
76

> <r_mmod_Potential_Energy-OPLS-2005>
-9.36693572998047

> <r_mmod_Stretch_Energy-OPLS-2005>
44.1895866394043

> <r_mmod_Bend_Energy-OPLS-2005>
111.423896789551

> <r_mmod_Torsional_Energy-OPLS-2005>
234.745498657227

> <r_mmod_Improper_Torsional_Energy-OPLS-2005>
4.75753307342529

> <r_mmod_Van_der_Waal_Energy-OPLS-2005>
152.781951904297

> <r_mmod_Electrostatic_Energy-OPLS-2005>
-380.279663085938

> <r_mmod_Solvation_Energy-OPLS-2005>
-190.283111572266

> <b_mmod_Minimization_Converged-OPLS-2005>
0

> <r_mmod_RMS_Derivative-OPLS-2005>
3.9725296497345

$$$$
76
                    3D
 Structure written by MMmdl.
163171  0  0  1  0            999 V2000
  -30.7442  -14.4078   20.5746 C   0  0  0  0  0  0
  -30.4094  -12.2581   19.4249 C   0  0  0  0  0  0
  -29.4957  -12.4886   18.2057 C   0  0  0  0  0  0
  -28.0139  -12.3681   18.6133 C   0  0  0  0  0  0
  -27.6658  -13.2072   19.8723 C   0  0  2  0  0  0
  -28.7080  -12.9975   20.9956 C   0  0  0  0  0  0
  -25.2610  -13.8160   20.5667 C   0  0  0  0  0  0
  -24.1863  -13.0440   20.9150 C   0  0  0  0  0  0
  -24.6421  -11.6906   20.8722 C   0  0  0  0  0  0
  -23.9089  -10.4291   21.0388 C   0  0  0  0  0  0
  -24.3628   -9.4203   21.9172 C   0  0  0  0  0  0
  -23.6279   -8.2255   22.0760 C   0  0  0  0  0  0
  -22.4264   -8.0292   21.3548 C   0  0  0  0  0  0
  -21.9905   -9.0274   20.4656 C   0  0  0  0  0  0
  -22.7251  -10.2141   20.3046 C   0  0  0  0  0  0
  -21.6863   -6.0719   22.5280 C   0  0  0  0  0  0
  -21.4035   -6.5622   23.8215 C   0  0  0  0  0  0
  -21.3653   -5.6775   24.9172 C   0  0  0  0  0  0
  -21.6038   -4.3037   24.7231 C   0  0  0  0  0  0
  -21.8821   -3.8127   23.4353 C   0  0  0  0  0  0
  -21.9201   -4.6942   22.3406 C   0  0  0  0  0  0
  -22.7877  -13.5234   21.1797 C   0  0  0  0  0  0
  -22.1653   -4.2117   21.0985 F   0  0  0  0  0  0
  -21.5628   -3.4536   25.7750 F   0  0  0  0  0  0
  -30.0437  -13.2529   20.4418 N   0  0  0  0  0  0
  -26.3066  -12.9341   20.3367 N   0  0  0  0  0  0
  -25.9349  -11.6498   20.5748 N   0  0  0  0  0  0
  -22.0517  -12.8259   22.0368 N   0  0  0  0  0  0
  -25.4312  -15.1884   20.4065 N   0  0  0  0  0  0
  -31.8694  -14.5420   20.0846 O   0  0  0  0  0  0
  -21.6626   -6.8882   21.4251 O   0  0  0  0  0  0
  -22.3554  -14.5522   20.6616 O   0  0  0  0  0  0
  -24.6109  -31.8695   23.2126 C   0  0  0  0  0  0
  -25.9016  -32.4829   23.8404 C   0  0  1  0  0  0
  -27.2362  -27.4646   20.0733 C   0  0  0  0  0  0
  -25.5887  -33.8630   24.2348 N   0  0  0  0  0  0
  -23.3975  -30.4939   21.5531 C   0  0  2  0  0  0
  -24.8422  -28.9637   20.1136 C   0  0  0  0  0  0
  -22.7386  -29.4664   22.5003 C   0  0  0  0  0  0
  -18.0266  -28.1376   22.8499 C   0  0  0  0  0  0
  -24.1485  -36.7323   23.2633 C   0  0  0  0  0  0
  -25.9220  -30.8431   21.3593 C   0  0  0  0  0  0
  -25.9986  -29.4766   20.7129 C   0  0  0  0  0  0
  -27.1948  -28.7271   20.7027 C   0  0  0  0  0  0
  -26.0586  -26.9558   19.4788 C   0  0  0  0  0  0
  -24.8639  -27.6997   19.5003 C   0  0  0  0  0  0
  -23.6031  -29.8280   20.1664 C   0  0  0  0  0  0
  -25.4103  -36.3123   24.0339 C   0  0  1  0  0  0
  -20.5854  -28.3658   23.1333 C   0  0  2  0  0  0
  -20.6754  -26.9400   22.5419 C   0  0  0  0  0  0
  -19.5740  -26.6394   21.5204 C   0  0  0  0  0  0
  -18.1921  -26.7926   22.1621 C   0  0  0  0  0  0
  -19.1512  -28.8829   23.2921 C   0  0  0  0  0  0
  -18.9440  -30.1438   23.8930 C   0  0  0  0  0  0
  -17.6444  -30.6585   24.0572 C   0  0  0  0  0  0
  -25.9026  -34.9482   23.5139 C   0  0  0  0  0  0
  -16.5339  -29.9092   23.6320 C   0  0  0  0  0  0
  -16.7254  -28.6507   23.0343 C   0  0  0  0  0  0
  -26.4464  -31.6584   25.0702 C   0  0  0  0  0  0
  -25.3752  -31.3649   26.1460 C   0  0  0  0  0  0
  -27.0267  -30.3038   24.6003 C   0  0  0  0  0  0
  -27.6069  -32.4263   25.7456 C   0  0  0  0  0  0
  -27.5579  -37.1815   24.8467 C   0  0  0  0  0  0
  -21.4118  -29.3030   22.3740 N   0  0  0  0  0  0
  -26.4296  -37.3800   23.9404 N   0  0  0  0  0  0
  -24.6621  -31.0827   22.1013 N   0  0  0  0  0  0
  -23.4168  -28.8197   23.3028 O   0  0  0  0  0  0
  -28.4231  -26.7700   20.0721 O   0  0  0  0  0  0
  -26.5597  -34.8930   22.4705 O   0  0  0  0  0  0
  -23.5314  -32.1428   23.7546 O   0  0  0  0  0  0
  -28.6312  -19.7157   22.2799 C   0  0  0  0  0  0
  -29.1825  -20.8474   21.6423 C   0  0  0  0  0  0
  -29.1553  -18.4304   22.0346 C   0  0  0  0  0  0
  -30.7791  -19.4140   20.5121 C   0  0  0  0  0  0
  -30.2635  -20.7096   20.7413 C   0  0  0  0  0  0
  -30.2381  -18.2770   21.1458 C   0  0  0  0  0  0
  -30.8873  -21.8709   20.0496 C   0  0  0  0  0  0
  -31.1029  -26.7458   19.1483 C   0  0  0  0  0  0
  -30.8760  -16.9326   20.8345 C   0  0  0  0  0  0
  -30.0039  -23.0145   19.5538 C   0  0  0  0  0  0
  -30.0947  -15.6503   21.2147 C   0  0  0  0  0  0
  -30.4912  -24.4195   19.9936 C   0  0  0  0  0  0
  -28.6976  -25.9451   18.9429 C   0  0  0  0  0  0
  -30.1803  -25.5292   18.9643 C   0  0  1  0  0  0
  -32.1285  -21.9063   19.7942 N   0  0  0  0  0  0
  -31.4590  -12.3108   19.1320 H   0  0  0  0  0  0
  -30.2688  -11.2513   19.8216 H   0  0  0  0  0  0
  -29.7297  -11.7693   17.4196 H   0  0  0  0  0  0
  -29.6844  -13.4775   17.7841 H   0  0  0  0  0  0
  -27.8101  -11.3126   18.7994 H   0  0  0  0  0  0
  -27.3742  -12.6579   17.7804 H   0  0  0  0  0  0
  -27.7103  -14.2534   19.5689 H   0  0  0  0  0  0
  -28.6631  -11.9745   21.3702 H   0  0  0  0  0  0
  -28.4894  -13.6342   21.8547 H   0  0  0  0  0  0
  -25.2780   -9.5662   22.4735 H   0  0  0  0  0  0
  -23.9975   -7.4648   22.7477 H   0  0  0  0  0  0
  -21.0839   -8.8812   19.8961 H   0  0  0  0  0  0
  -22.3726  -10.9677   19.6146 H   0  0  0  0  0  0
  -21.2040   -7.6134   23.9714 H   0  0  0  0  0  0
  -21.1463   -6.0501   25.9072 H   0  0  0  0  0  0
  -22.0605   -2.7592   23.2868 H   0  0  0  0  0  0
  -22.4129  -11.9936   22.4791 H   0  0  0  0  0  0
  -21.1136  -13.1316   22.2540 H   0  0  0  0  0  0
  -24.6672  -15.8436   20.5315 H   0  0  0  0  0  0
  -26.2904  -15.6345   20.1119 H   0  0  0  0  0  0
  -26.7083  -32.5562   23.1178 H   0  0  0  0  0  0
  -25.0034  -33.9797   25.0485 H   0  0  0  0  0  0
  -22.6861  -31.3106   21.4175 H   0  0  0  0  0  0
  -23.3745  -35.9657   23.3309 H   0  0  0  0  0  0
  -24.3587  -36.8918   22.2045 H   0  0  0  0  0  0
  -23.7236  -37.6531   23.6642 H   0  0  0  0  0  0
  -26.0201  -31.6056   20.5851 H   0  0  0  0  0  0
  -26.8159  -30.9076   21.9679 H   0  0  0  0  0  0
  -28.0924  -29.1243   21.1551 H   0  0  0  0  0  0
  -26.0441  -25.9869   19.0022 H   0  0  0  0  0  0
  -23.9719  -27.2967   19.0409 H   0  0  0  0  0  0
  -23.7111  -30.6033   19.4075 H   0  0  0  0  0  0
  -22.7260  -29.2492   19.8710 H   0  0  0  0  0  0
  -25.1282  -36.2000   25.0834 H   0  0  0  0  0  0
  -20.9959  -28.3212   24.1448 H   0  0  0  0  0  0
  -20.5655  -26.2259   23.3596 H   0  0  0  0  0  0
  -21.6625  -26.7448   22.1213 H   0  0  0  0  0  0
  -19.6906  -25.6309   21.1215 H   0  0  0  0  0  0
  -19.6675  -27.3222   20.6747 H   0  0  0  0  0  0
  -17.4187  -26.6672   21.4030 H   0  0  0  0  0  0
  -18.0335  -26.0061   22.9012 H   0  0  0  0  0  0
  -19.7913  -30.7249   24.2313 H   0  0  0  0  0  0
  -17.4997  -31.6267   24.5170 H   0  0  0  0  0  0
  -15.5341  -30.3008   23.7617 H   0  0  0  0  0  0
  -15.8656  -28.0842   22.7034 H   0  0  0  0  0  0
  -24.5956  -30.6959   25.7795 H   0  0  0  0  0  0
  -24.8899  -32.2775   26.4928 H   0  0  0  0  0  0
  -25.8127  -30.8814   27.0203 H   0  0  0  0  0  0
  -26.2757  -29.6816   24.1111 H   0  0  0  0  0  0
  -27.4129  -29.7253   25.4406 H   0  0  0  0  0  0
  -27.8565  -30.4385   23.9057 H   0  0  0  0  0  0
  -27.2737  -33.3573   26.2058 H   0  0  0  0  0  0
  -28.3874  -32.6786   25.0265 H   0  0  0  0  0  0
  -28.0739  -31.8347   26.5343 H   0  0  0  0  0  0
  -28.2615  -38.0098   24.7519 H   0  0  0  0  0  0
  -28.1067  -36.2638   24.6305 H   0  0  0  0  0  0
  -27.2306  -37.1474   25.8872 H   0  0  0  0  0  0
  -20.9264  -29.8760   21.6981 H   0  0  0  0  0  0
  -26.0197  -38.2880   24.1410 H   0  0  0  0  0  0
  -27.8068  -19.8362   22.9694 H   0  0  0  0  0  0
  -28.7735  -21.8247   21.8630 H   0  0  0  0  0  0
  -28.7247  -17.5759   22.5371 H   0  0  0  0  0  0
  -31.6067  -19.2824   19.8278 H   0  0  0  0  0  0
  -32.1545  -26.4601   19.0909 H   0  0  0  0  0  0
  -30.9482  -27.2259   20.1150 H   0  0  0  0  0  0
  -30.9245  -27.4938   18.3753 H   0  0  0  0  0  0
  -31.8578  -16.9159   21.3131 H   0  0  0  0  0  0
  -31.0645  -16.9271   19.7587 H   0  0  0  0  0  0
  -28.9674  -22.8726   19.8576 H   0  0  0  0  0  0
  -29.9911  -22.9467   18.4655 H   0  0  0  0  0  0
  -29.0728  -15.7404   20.8486 H   0  0  0  0  0  0
  -30.0479  -15.5253   22.2951 H   0  0  0  0  0  0
  -31.5733  -24.4007   20.1280 H   0  0  0  0  0  0
  -30.0813  -24.6712   20.9733 H   0  0  0  0  0  0
  -28.0617  -25.0596   18.9354 H   0  0  0  0  0  0
  -28.4941  -26.5010   18.0255 H   0  0  0  0  0  0
  -30.4111  -25.1257   17.9767 H   0  0  0  0  0  0
  -32.6105  -21.0870   20.1459 H   0  0  0  0  0  0
  1 25  1  0  0  0
  1 30  2  0  0  0
  1 81  1  0  0  0
  2  3  1  0  0  0
  2 25  1  0  0  0
  2 86  1  0  0  0
  2 87  1  0  0  0
  3  4  1  0  0  0
  3 88  1  0  0  0
  3 89  1  0  0  0
  4  5  1  0  0  0
  4 90  1  0  0  0
  4 91  1  0  0  0
  5  6  1  0  0  0
  5 26  1  0  0  0
  5 92  1  0  0  0
  6 25  1  0  0  0
  6 93  1  0  0  0
  6 94  1  0  0  0
  7  8  2  0  0  0
  7 26  1  0  0  0
  7 29  1  0  0  0
  8  9  1  0  0  0
  8 22  1  0  0  0
  9 10  1  0  0  0
  9 27  2  0  0  0
 10 11  2  0  0  0
 10 15  1  0  0  0
 11 12  1  0  0  0
 11 95  1  0  0  0
 12 13  2  0  0  0
 12 96  1  0  0  0
 13 14  1  0  0  0
 13 31  1  0  0  0
 14 15  2  0  0  0
 14 97  1  0  0  0
 15 98  1  0  0  0
 16 17  2  0  0  0
 16 21  1  0  0  0
 16 31  1  0  0  0
 17 18  1  0  0  0
 17 99  1  0  0  0
 18 19  2  0  0  0
 18100  1  0  0  0
 19 20  1  0  0  0
 19 24  1  0  0  0
 20 21  2  0  0  0
 20101  1  0  0  0
 21 23  1  0  0  0
 22 28  1  0  0  0
 22 32  2  0  0  0
 26 27  1  0  0  0
 28102  1  0  0  0
 28103  1  0  0  0
 29104  1  0  0  0
 29105  1  0  0  0
 33 34  1  0  0  0
 33 66  1  0  0  0
 33 70  2  0  0  0
 34 36  1  0  0  0
 34 59  1  0  0  0
 34106  1  0  0  0
 35 44  2  0  0  0
 35 45  1  0  0  0
 35 68  1  0  0  0
 36 56  1  0  0  0
 36107  1  0  0  0
 37 39  1  0  0  0
 37 47  1  0  0  0
 37 66  1  0  0  0
 37108  1  0  0  0
 38 43  2  0  0  0
 38 46  1  0  0  0
 38 47  1  0  0  0
 39 64  1  0  0  0
 39 67  2  0  0  0
 40 52  1  0  0  0
 40 53  2  0  0  0
 40 58  1  0  0  0
 41109  1  0  0  0
 41110  1  0  0  0
 41111  1  0  0  0
 41 48  1  0  0  0
 42 43  1  0  0  0
 42 66  1  0  0  0
 42112  1  0  0  0
 42113  1  0  0  0
 43 44  1  0  0  0
 44114  1  0  0  0
 45 46  2  0  0  0
 45115  1  0  0  0
 46116  1  0  0  0
 47117  1  0  0  0
 47118  1  0  0  0
 48 56  1  0  0  0
 48 65  1  0  0  0
 48119  1  0  0  0
 49 50  1  0  0  0
 49 53  1  0  0  0
 49 64  1  0  0  0
 49120  1  0  0  0
 50 51  1  0  0  0
 50121  1  0  0  0
 50122  1  0  0  0
 51 52  1  0  0  0
 51123  1  0  0  0
 51124  1  0  0  0
 52125  1  0  0  0
 52126  1  0  0  0
 53 54  1  0  0  0
 54 55  2  0  0  0
 54127  1  0  0  0
 55 57  1  0  0  0
 55128  1  0  0  0
 56 69  2  0  0  0
 57 58  2  0  0  0
 57129  1  0  0  0
 58130  1  0  0  0
 59 60  1  0  0  0
 59 61  1  0  0  0
 59 62  1  0  0  0
 60131  1  0  0  0
 60132  1  0  0  0
 60133  1  0  0  0
 61134  1  0  0  0
 61135  1  0  0  0
 61136  1  0  0  0
 62137  1  0  0  0
 62138  1  0  0  0
 62139  1  0  0  0
 63 65  1  0  0  0
 63140  1  0  0  0
 63141  1  0  0  0
 63142  1  0  0  0
 64143  1  0  0  0
 65144  1  0  0  0
 68 83  1  0  0  0
 71 72  2  0  0  0
 71 73  1  0  0  0
 71145  1  0  0  0
 72 75  1  0  0  0
 72146  1  0  0  0
 73 76  2  0  0  0
 73147  1  0  0  0
 74 75  2  0  0  0
 74 76  1  0  0  0
 74148  1  0  0  0
 75 77  1  0  0  0
 76 79  1  0  0  0
 77 80  1  0  0  0
 77 85  2  0  0  0
 78149  1  0  0  0
 78150  1  0  0  0
 78151  1  0  0  0
 78 84  1  0  0  0
 79 81  1  0  0  0
 79152  1  0  0  0
 79153  1  0  0  0
 80 82  1  0  0  0
 80154  1  0  0  0
 80155  1  0  0  0
 81156  1  0  0  0
 81157  1  0  0  0
 82 84  1  0  0  0
 82158  1  0  0  0
 82159  1  0  0  0
 83 84  1  0  0  0
 83160  1  0  0  0
 83161  1  0  0  0
 84162  1  0  0  0
 85163  1  0  0  0
M  ISO  4   1 100  68 101  81 100  83 101
M  END
> <chiral flag>
0

> <version>
0

> <s_m_source_file>
/data/baiqing/PycharmProjects/Reinvent-master-3.2/result/LINK_invent/BTK/process_docking_weight1_custom_product_contain_oxygen_bond_distance_aromatic_linkinvent_7_9_3/rearranged_h_0132.sdf

> <i_m_source_file_index>
77

> <r_mmod_Potential_Energy-OPLS-2005>
-42.750617980957

> <r_mmod_Stretch_Energy-OPLS-2005>
33.4360656738281

> <r_mmod_Bend_Energy-OPLS-2005>
95.5696792602539

> <r_mmod_Torsional_Energy-OPLS-2005>
187.472702026367

> <r_mmod_Improper_Torsional_Energy-OPLS-2005>
3.29449224472046

> <r_mmod_Van_der_Waal_Energy-OPLS-2005>
164.850601196289

> <r_mmod_Electrostatic_Energy-OPLS-2005>
-343.064422607422

> <r_mmod_Solvation_Energy-OPLS-2005>
-195.589935302734

> <b_mmod_Minimization_Converged-OPLS-2005>
0

> <r_mmod_RMS_Derivative-OPLS-2005>
2.3772439956665

$$$$
77
                    3D
 Structure written by MMmdl.
186195  0  0  1  0            999 V2000
  -30.6510  -14.5509   20.5591 C   0  0  0  0  0  0
  -30.4385  -12.3430   19.4459 C   0  0  0  0  0  0
  -29.5094  -12.4925   18.2202 C   0  0  0  0  0  0
  -28.0295  -12.3408   18.6322 C   0  0  0  0  0  0
  -27.6598  -13.2022   19.8705 C   0  0  2  0  0  0
  -28.7018  -13.0132   20.9978 C   0  0  0  0  0  0
  -25.2574  -13.8111   20.5682 C   0  0  0  0  0  0
  -24.1810  -13.0427   20.9133 C   0  0  0  0  0  0
  -24.6373  -11.6891   20.8723 C   0  0  0  0  0  0
  -23.9047  -10.4293   21.0393 C   0  0  0  0  0  0
  -24.3608   -9.4225   21.9184 C   0  0  0  0  0  0
  -23.6295   -8.2259   22.0748 C   0  0  0  0  0  0
  -22.4284   -8.0266   21.3538 C   0  0  0  0  0  0
  -21.9924   -9.0231   20.4636 C   0  0  0  0  0  0
  -22.7230  -10.2112   20.3030 C   0  0  0  0  0  0
  -21.6868   -6.0721   22.5265 C   0  0  0  0  0  0
  -21.4027   -6.5631   23.8196 C   0  0  0  0  0  0
  -21.3671   -5.6782   24.9154 C   0  0  0  0  0  0
  -21.6036   -4.3046   24.7204 C   0  0  0  0  0  0
  -21.8821   -3.8136   23.4333 C   0  0  0  0  0  0
  -21.9226   -4.6961   22.3391 C   0  0  0  0  0  0
  -22.7842  -13.5250   21.1769 C   0  0  0  0  0  0
  -22.1719   -4.2137   21.0977 F   0  0  0  0  0  0
  -21.5628   -3.4537   25.7723 F   0  0  0  0  0  0
  -30.0239  -13.3427   20.4463 N   0  0  0  0  0  0
  -26.3011  -12.9290   20.3336 N   0  0  0  0  0  0
  -25.9307  -11.6474   20.5789 N   0  0  0  0  0  0
  -22.0471  -12.8249   22.0318 N   0  0  0  0  0  0
  -25.4288  -15.1819   20.4156 N   0  0  0  0  0  0
  -31.7621  -14.7334   20.0566 O   0  0  0  0  0  0
  -21.6673   -6.8851   21.4215 O   0  0  0  0  0  0
  -22.3546  -14.5558   20.6587 O   0  0  0  0  0  0
  -24.6178  -31.8642   23.2094 C   0  0  0  0  0  0
  -25.9057  -32.4806   23.8387 C   0  0  1  0  0  0
  -27.2382  -27.4016   20.0958 C   0  0  0  0  0  0
  -25.5910  -33.8606   24.2318 N   0  0  0  0  0  0
  -23.4063  -30.4868   21.5504 C   0  0  2  0  0  0
  -24.8522  -28.9496   20.1119 C   0  0  0  0  0  0
  -22.7427  -29.4634   22.4996 C   0  0  0  0  0  0
  -18.0278  -28.1391   22.8489 C   0  0  0  0  0  0
  -24.1483  -36.7304   23.2639 C   0  0  0  0  0  0
  -25.9357  -30.8211   21.3648 C   0  0  0  0  0  0
  -26.0112  -29.4519   20.7130 C   0  0  0  0  0  0
  -27.2010  -28.6849   20.7010 C   0  0  0  0  0  0
  -26.0569  -26.9271   19.4766 C   0  0  0  0  0  0
  -24.8723  -27.6899   19.4882 C   0  0  0  0  0  0
  -23.6154  -29.8197   20.1639 C   0  0  0  0  0  0
  -25.4112  -36.3105   24.0332 C   0  0  1  0  0  0
  -20.5865  -28.3672   23.1328 C   0  0  2  0  0  0
  -20.6766  -26.9413   22.5424 C   0  0  0  0  0  0
  -19.5750  -26.6403   21.5212 C   0  0  0  0  0  0
  -18.1922  -26.7946   22.1609 C   0  0  0  0  0  0
  -19.1524  -28.8851   23.2904 C   0  0  0  0  0  0
  -18.9450  -30.1457   23.8912 C   0  0  0  0  0  0
  -17.6447  -30.6593   24.0573 C   0  0  0  0  0  0
  -25.9039  -34.9467   23.5115 C   0  0  0  0  0  0
  -16.5341  -29.9093   23.6334 C   0  0  0  0  0  0
  -16.7264  -28.6515   23.0348 C   0  0  0  0  0  0
  -26.4487  -31.6592   25.0712 C   0  0  0  0  0  0
  -25.3762  -31.3614   26.1443 C   0  0  0  0  0  0
  -27.0352  -30.3067   24.6053 C   0  0  0  0  0  0
  -27.6046  -32.4315   25.7505 C   0  0  0  0  0  0
  -27.5574  -37.1818   24.8464 C   0  0  0  0  0  0
  -21.4154  -29.3023   22.3732 N   0  0  0  0  0  0
  -26.4289  -37.3796   23.9409 N   0  0  0  0  0  0
  -24.6716  -31.0725   22.1002 N   0  0  0  0  0  0
  -23.4184  -28.8187   23.3056 O   0  0  0  0  0  0
  -28.4316  -26.6932   20.1398 O   0  0  0  0  0  0
  -26.5600  -34.8916   22.4676 O   0  0  0  0  0  0
  -23.5364  -32.1402   23.7470 O   0  0  0  0  0  0
  -28.6508  -21.7906   18.6831 C   0  0  0  0  0  0
  -28.1000  -20.5541   18.3138 C   0  0  0  0  0  0
  -29.7156  -20.7090   20.5858 C   0  0  0  0  0  0
  -29.1349  -19.4431   20.2485 C   0  0  0  0  0  0
  -29.4665  -21.8870   19.8218 C   0  0  0  0  0  0
  -28.3235  -19.3884   19.0789 C   0  0  0  0  0  0
  -30.5629  -18.4156   23.3574 C   0  0  0  0  0  0
  -29.4093  -18.5928   22.6700 C   0  0  0  0  0  0
  -31.7850  -17.7747   22.7129 C   0  0  0  0  0  0
  -31.6479  -17.6175   21.1865 C   0  0  0  0  0  0
  -29.2713  -18.2035   21.1925 C   0  0  2  0  0  0
  -28.1560  -19.2172   23.2720 C   0  0  0  0  0  0
  -26.1273  -18.1456   18.9732 C   0  0  0  0  0  0
  -30.4743  -17.6600   25.7885 C   0  0  0  0  0  0
  -28.2469  -23.8288   21.7823 C   0  0  0  0  0  0
  -30.2724  -25.2738   21.6063 C   0  0  0  0  0  0
  -30.1292  -23.2443   20.1249 C   0  0  0  0  0  0
  -27.6153  -18.1247   18.6069 C   0  0  0  0  0  0
  -30.7553  -18.8118   24.8156 C   0  0  0  0  0  0
  -29.9399  -15.7542   21.2648 C   0  0  0  0  0  0
  -28.5542  -25.3054   19.7352 C   0  0  0  0  0  0
  -29.2859  -24.3998   20.7952 C   0  0  0  0  0  0
  -30.2895  -17.1573   20.7965 N   0  3  2  0  0  0
  -31.4843  -12.4553   19.1506 H   0  0  0  0  0  0
  -30.3542  -11.3406   19.8673 H   0  0  0  0  0  0
  -29.7676  -11.7474   17.4648 H   0  0  0  0  0  0
  -29.6599  -13.4672   17.7553 H   0  0  0  0  0  0
  -27.8617  -11.2876   18.8575 H   0  0  0  0  0  0
  -27.3710  -12.5739   17.7960 H   0  0  0  0  0  0
  -27.6892  -14.2431   19.5483 H   0  0  0  0  0  0
  -28.6994  -11.9786   21.3442 H   0  0  0  0  0  0
  -28.4512  -13.6048   21.8799 H   0  0  0  0  0  0
  -25.2749   -9.5744   22.4757 H   0  0  0  0  0  0
  -23.9990   -7.4680   22.7522 H   0  0  0  0  0  0
  -21.0833   -8.8756   19.8968 H   0  0  0  0  0  0
  -22.3670  -10.9649   19.6138 H   0  0  0  0  0  0
  -21.1994   -7.6136   23.9695 H   0  0  0  0  0  0
  -21.1509   -6.0516   25.9057 H   0  0  0  0  0  0
  -22.0576   -2.7593   23.2843 H   0  0  0  0  0  0
  -22.4077  -11.9882   22.4664 H   0  0  0  0  0  0
  -21.1064  -13.1210   22.2466 H   0  0  0  0  0  0
  -24.6450  -15.8217   20.4770 H   0  0  0  0  0  0
  -26.2655  -15.6079   20.0433 H   0  0  0  0  0  0
  -26.7120  -32.5510   23.1144 H   0  0  0  0  0  0
  -25.0076  -33.9772   25.0472 H   0  0  0  0  0  0
  -22.6949  -31.3033   21.4117 H   0  0  0  0  0  0
  -23.3748  -35.9629   23.3297 H   0  0  0  0  0  0
  -24.3566  -36.8930   22.2050 H   0  0  0  0  0  0
  -23.7222  -37.6499   23.6664 H   0  0  0  0  0  0
  -26.0431  -31.5846   20.5932 H   0  0  0  0  0  0
  -26.8267  -30.8796   21.9782 H   0  0  0  0  0  0
  -28.0963  -29.0689   21.1681 H   0  0  0  0  0  0
  -26.0141  -25.9779   18.9664 H   0  0  0  0  0  0
  -23.9839  -27.3039   19.0069 H   0  0  0  0  0  0
  -23.7257  -30.5957   19.4054 H   0  0  0  0  0  0
  -22.7381  -29.2422   19.8670 H   0  0  0  0  0  0
  -25.1287  -36.1958   25.0823 H   0  0  0  0  0  0
  -20.9939  -28.3226   24.1455 H   0  0  0  0  0  0
  -20.5680  -26.2268   23.3597 H   0  0  0  0  0  0
  -21.6634  -26.7457   22.1211 H   0  0  0  0  0  0
  -19.6907  -25.6317   21.1232 H   0  0  0  0  0  0
  -19.6701  -27.3221   20.6748 H   0  0  0  0  0  0
  -17.4198  -26.6713   21.4000 H   0  0  0  0  0  0
  -18.0304  -26.0082   22.8996 H   0  0  0  0  0  0
  -19.7919  -30.7280   24.2285 H   0  0  0  0  0  0
  -17.4999  -31.6272   24.5178 H   0  0  0  0  0  0
  -15.5341  -30.2997   23.7659 H   0  0  0  0  0  0
  -15.8666  -28.0848   22.7044 H   0  0  0  0  0  0
  -24.6013  -30.6879   25.7756 H   0  0  0  0  0  0
  -24.8855  -32.2715   26.4899 H   0  0  0  0  0  0
  -25.8149  -30.8799   27.0194 H   0  0  0  0  0  0
  -26.2890  -29.6805   24.1144 H   0  0  0  0  0  0
  -27.4212  -29.7305   25.4471 H   0  0  0  0  0  0
  -27.8673  -30.4438   23.9143 H   0  0  0  0  0  0
  -27.2665  -33.3614   26.2084 H   0  0  0  0  0  0
  -28.3875  -32.6868   25.0354 H   0  0  0  0  0  0
  -28.0693  -31.8433   26.5426 H   0  0  0  0  0  0
  -28.2578  -38.0127   24.7527 H   0  0  0  0  0  0
  -28.1083  -36.2655   24.6284 H   0  0  0  0  0  0
  -27.2287  -37.1458   25.8865 H   0  0  0  0  0  0
  -20.9331  -29.8732   21.6935 H   0  0  0  0  0  0
  -26.0165  -38.2863   24.1425 H   0  0  0  0  0  0
  -28.4595  -22.6655   18.0760 H   0  0  0  0  0  0
  -27.4771  -20.5079   17.4314 H   0  0  0  0  0  0
  -30.3463  -20.7948   21.4590 H   0  0  0  0  0  0
  -31.9546  -16.8041   23.1789 H   0  0  0  0  0  0
  -32.6728  -18.3713   22.9233 H   0  0  0  0  0  0
  -32.4334  -16.9699   20.8006 H   0  0  0  0  0  0
  -31.8218  -18.5842   20.7129 H   0  0  0  0  0  0
  -28.2999  -17.7149   21.1517 H   0  0  0  0  0  0
  -28.1440  -19.1826   24.3599 H   0  0  0  0  0  0
  -27.2635  -18.6842   22.9429 H   0  0  0  0  0  0
  -28.0611  -20.2567   22.9563 H   0  0  0  0  0  0
  -25.6217  -17.2548   18.6006 H   0  0  0  0  0  0
  -25.6203  -19.0056   18.5351 H   0  0  0  0  0  0
  -25.9823  -18.1929   20.0531 H   0  0  0  0  0  0
  -30.5773  -18.0063   26.8174 H   0  0  0  0  0  0
  -31.1715  -16.8345   25.6468 H   0  0  0  0  0  0
  -29.4613  -17.2707   25.6725 H   0  0  0  0  0  0
  -28.7225  -23.2021   22.5384 H   0  0  0  0  0  0
  -27.4971  -23.2201   21.2758 H   0  0  0  0  0  0
  -27.7185  -24.6283   22.3043 H   0  0  0  0  0  0
  -30.8180  -24.6895   22.3491 H   0  0  0  0  0  0
  -29.7583  -26.0651   22.1542 H   0  0  0  0  0  0
  -31.0072  -25.7511   20.9569 H   0  0  0  0  0  0
  -30.5864  -23.6123   19.2038 H   0  0  0  0  0  0
  -30.9814  -23.0099   20.7640 H   0  0  0  0  0  0
  -28.0873  -17.2193   18.9853 H   0  0  0  0  0  0
  -27.7203  -18.0616   17.5230 H   0  0  0  0  0  0
  -30.1284  -19.6677   25.0593 H   0  0  0  0  0  0
  -31.7756  -19.1663   24.9607 H   0  0  0  0  0  0
  -28.8701  -15.6336   21.1077 H   0  0  0  0  0  0
  -30.0948  -15.6533   22.3394 H   0  0  0  0  0  0
  -27.6140  -24.8264   19.4771 H   0  0  0  0  0  0
  -29.1288  -25.3233   18.8096 H   0  0  0  0  0  0
  -30.2773  -17.1231   19.7875 H   0  0  0  0  0  0
  1 25  1  0  0  0
  1 30  2  0  0  0
  1 90  1  0  0  0
  2  3  1  0  0  0
  2 25  1  0  0  0
  2 94  1  0  0  0
  2 95  1  0  0  0
  3  4  1  0  0  0
  3 96  1  0  0  0
  3 97  1  0  0  0
  4  5  1  0  0  0
  4 98  1  0  0  0
  4 99  1  0  0  0
  5  6  1  0  0  0
  5 26  1  0  0  0
  5100  1  0  0  0
  6 25  1  0  0  0
  6101  1  0  0  0
  6102  1  0  0  0
  7  8  2  0  0  0
  7 26  1  0  0  0
  7 29  1  0  0  0
  8  9  1  0  0  0
  8 22  1  0  0  0
  9 10  1  0  0  0
  9 27  2  0  0  0
 10 11  2  0  0  0
 10 15  1  0  0  0
 11 12  1  0  0  0
 11103  1  0  0  0
 12 13  2  0  0  0
 12104  1  0  0  0
 13 14  1  0  0  0
 13 31  1  0  0  0
 14 15  2  0  0  0
 14105  1  0  0  0
 15106  1  0  0  0
 16 17  2  0  0  0
 16 21  1  0  0  0
 16 31  1  0  0  0
 17 18  1  0  0  0
 17107  1  0  0  0
 18 19  2  0  0  0
 18108  1  0  0  0
 19 20  1  0  0  0
 19 24  1  0  0  0
 20 21  2  0  0  0
 20109  1  0  0  0
 21 23  1  0  0  0
 22 28  1  0  0  0
 22 32  2  0  0  0
 26 27  1  0  0  0
 28110  1  0  0  0
 28111  1  0  0  0
 29112  1  0  0  0
 29113  1  0  0  0
 33 34  1  0  0  0
 33 66  1  0  0  0
 33 70  2  0  0  0
 34 36  1  0  0  0
 34 59  1  0  0  0
 34114  1  0  0  0
 35 44  2  0  0  0
 35 45  1  0  0  0
 35 68  1  0  0  0
 36 56  1  0  0  0
 36115  1  0  0  0
 37 39  1  0  0  0
 37 47  1  0  0  0
 37 66  1  0  0  0
 37116  1  0  0  0
 38 43  2  0  0  0
 38 46  1  0  0  0
 38 47  1  0  0  0
 39 64  1  0  0  0
 39 67  2  0  0  0
 40 52  1  0  0  0
 40 53  2  0  0  0
 40 58  1  0  0  0
 41117  1  0  0  0
 41118  1  0  0  0
 41119  1  0  0  0
 41 48  1  0  0  0
 42 43  1  0  0  0
 42 66  1  0  0  0
 42120  1  0  0  0
 42121  1  0  0  0
 43 44  1  0  0  0
 44122  1  0  0  0
 45 46  2  0  0  0
 45123  1  0  0  0
 46124  1  0  0  0
 47125  1  0  0  0
 47126  1  0  0  0
 48 56  1  0  0  0
 48 65  1  0  0  0
 48127  1  0  0  0
 49 50  1  0  0  0
 49 53  1  0  0  0
 49 64  1  0  0  0
 49128  1  0  0  0
 50 51  1  0  0  0
 50129  1  0  0  0
 50130  1  0  0  0
 51 52  1  0  0  0
 51131  1  0  0  0
 51132  1  0  0  0
 52133  1  0  0  0
 52134  1  0  0  0
 53 54  1  0  0  0
 54 55  2  0  0  0
 54135  1  0  0  0
 55 57  1  0  0  0
 55136  1  0  0  0
 56 69  2  0  0  0
 57 58  2  0  0  0
 57137  1  0  0  0
 58138  1  0  0  0
 59 60  1  0  0  0
 59 61  1  0  0  0
 59 62  1  0  0  0
 60139  1  0  0  0
 60140  1  0  0  0
 60141  1  0  0  0
 61142  1  0  0  0
 61143  1  0  0  0
 61144  1  0  0  0
 62145  1  0  0  0
 62146  1  0  0  0
 62147  1  0  0  0
 63 65  1  0  0  0
 63148  1  0  0  0
 63149  1  0  0  0
 63150  1  0  0  0
 64151  1  0  0  0
 65152  1  0  0  0
 68 91  1  0  0  0
 71 72  2  0  0  0
 71 75  1  0  0  0
 71153  1  0  0  0
 72 76  1  0  0  0
 72154  1  0  0  0
 73 74  1  0  0  0
 73 75  2  0  0  0
 73155  1  0  0  0
 74 76  2  0  0  0
 74 81  1  0  0  0
 75 87  1  0  0  0
 76 88  1  0  0  0
 77 78  2  0  0  0
 77 79  1  0  0  0
 77 89  1  0  0  0
 78 81  1  0  0  0
 78 82  1  0  0  0
 79 80  1  0  0  0
 79156  1  0  0  0
 79157  1  0  0  0
 80 93  1  0  0  0
 80158  1  0  0  0
 80159  1  0  0  0
 81 93  1  0  0  0
 81160  1  0  0  0
 82161  1  0  0  0
 82162  1  0  0  0
 82163  1  0  0  0
 83 88  1  0  0  0
 83164  1  0  0  0
 83165  1  0  0  0
 83166  1  0  0  0
 84 89  1  0  0  0
 84167  1  0  0  0
 84168  1  0  0  0
 84169  1  0  0  0
 85170  1  0  0  0
 85171  1  0  0  0
 85172  1  0  0  0
 85 92  1  0  0  0
 86 92  1  0  0  0
 86173  1  0  0  0
 86174  1  0  0  0
 86175  1  0  0  0
 87 92  1  0  0  0
 87176  1  0  0  0
 87177  1  0  0  0
 88178  1  0  0  0
 88179  1  0  0  0
 89180  1  0  0  0
 89181  1  0  0  0
 90182  1  0  0  0
 90183  1  0  0  0
 90 93  1  0  0  0
 91 92  1  0  0  0
 91184  1  0  0  0
 91185  1  0  0  0
 93186  1  0  0  0
M  CHG  1  93   1
M  ISO  4   1 100  68 101  90 100  91 101
M  END
> <chiral flag>
0

> <version>
0

> <s_m_source_file>
/data/baiqing/PycharmProjects/Reinvent-master-3.2/result/LINK_invent/BTK/process_docking_weight1_custom_product_contain_oxygen_bond_distance_aromatic_linkinvent_7_9_3/rearranged_h_0132.sdf

> <i_m_source_file_index>
78

> <r_mmod_Potential_Energy-OPLS-2005>
-138.754638671875

> <r_mmod_Stretch_Energy-OPLS-2005>
61.4077491760254

> <r_mmod_Bend_Energy-OPLS-2005>
139.52294921875

> <r_mmod_Torsional_Energy-OPLS-2005>
201.119888305664

> <r_mmod_Improper_Torsional_Energy-OPLS-2005>
3.12445092201233

> <r_mmod_Van_der_Waal_Energy-OPLS-2005>
154.586898803711

> <r_mmod_Electrostatic_Energy-OPLS-2005>
-333.288970947266

> <r_mmod_Solvation_Energy-OPLS-2005>
-386.453918457031

> <b_mmod_Minimization_Converged-OPLS-2005>
0

> <r_mmod_RMS_Derivative-OPLS-2005>
2.95709776878357

$$$$
78
                    3D
 Structure written by MMmdl.
166174  0  0  1  0            999 V2000
  -30.7377  -14.4240   20.6681 C   0  0  0  0  0  0
  -30.4226  -12.3159   19.4072 C   0  0  0  0  0  0
  -29.4921  -12.5297   18.1980 C   0  0  0  0  0  0
  -28.0140  -12.3827   18.6070 C   0  0  0  0  0  0
  -27.6635  -13.2085   19.8735 C   0  0  2  0  0  0
  -28.7007  -12.9649   20.9904 C   0  0  0  0  0  0
  -25.2611  -13.8141   20.5671 C   0  0  0  0  0  0
  -24.1853  -13.0429   20.9150 C   0  0  0  0  0  0
  -24.6404  -11.6891   20.8701 C   0  0  0  0  0  0
  -23.9069  -10.4280   21.0374 C   0  0  0  0  0  0
  -24.3626   -9.4199   21.9152 C   0  0  0  0  0  0
  -23.6296   -8.2240   22.0733 C   0  0  0  0  0  0
  -22.4278   -8.0268   21.3530 C   0  0  0  0  0  0
  -21.9916   -9.0244   20.4637 C   0  0  0  0  0  0
  -22.7243  -10.2120   20.3029 C   0  0  0  0  0  0
  -21.6856   -6.0716   22.5258 C   0  0  0  0  0  0
  -21.4028   -6.5624   23.8189 C   0  0  0  0  0  0
  -21.3674   -5.6778   24.9162 C   0  0  0  0  0  0
  -21.6046   -4.3039   24.7207 C   0  0  0  0  0  0
  -21.8828   -3.8128   23.4334 C   0  0  0  0  0  0
  -21.9208   -4.6949   22.3388 C   0  0  0  0  0  0
  -22.7883  -13.5230   21.1816 C   0  0  0  0  0  0
  -22.1667   -4.2128   21.0964 F   0  0  0  0  0  0
  -21.5643   -3.4524   25.7727 F   0  0  0  0  0  0
  -30.0378  -13.2775   20.4540 N   0  0  0  0  0  0
  -26.3041  -12.9319   20.3342 N   0  0  0  0  0  0
  -25.9322  -11.6468   20.5705 N   0  0  0  0  0  0
  -22.0535  -12.8230   22.0390 N   0  0  0  0  0  0
  -25.4343  -15.1855   20.4115 N   0  0  0  0  0  0
  -31.8142  -14.6658   20.1130 O   0  0  0  0  0  0
  -21.6653   -6.8862   21.4212 O   0  0  0  0  0  0
  -22.3549  -14.5527   20.6650 O   0  0  0  0  0  0
  -24.6152  -31.8669   23.2102 C   0  0  0  0  0  0
  -25.9044  -32.4828   23.8403 C   0  0  1  0  0  0
  -27.2308  -27.4135   20.0925 C   0  0  0  0  0  0
  -25.5918  -33.8636   24.2329 N   0  0  0  0  0  0
  -23.4024  -30.4891   21.5521 C   0  0  2  0  0  0
  -24.8461  -28.9530   20.1119 C   0  0  0  0  0  0
  -22.7419  -29.4645   22.5012 C   0  0  0  0  0  0
  -18.0284  -28.1393   22.8482 C   0  0  0  0  0  0
  -24.1474  -36.7303   23.2640 C   0  0  0  0  0  0
  -25.9318  -30.8249   21.3615 C   0  0  0  0  0  0
  -26.0068  -29.4562   20.7116 C   0  0  0  0  0  0
  -27.1965  -28.6912   20.7031 C   0  0  0  0  0  0
  -26.0502  -26.9325   19.4777 C   0  0  0  0  0  0
  -24.8640  -27.6898   19.4952 C   0  0  0  0  0  0
  -23.6090  -29.8218   20.1645 C   0  0  0  0  0  0
  -25.4107  -36.3105   24.0325 C   0  0  1  0  0  0
  -20.5869  -28.3642   23.1341 C   0  0  2  0  0  0
  -20.6753  -26.9381   22.5426 C   0  0  0  0  0  0
  -19.5744  -26.6382   21.5208 C   0  0  0  0  0  0
  -18.1924  -26.7946   22.1607 C   0  0  0  0  0  0
  -19.1533  -28.8844   23.2910 C   0  0  0  0  0  0
  -18.9454  -30.1466   23.8897 C   0  0  0  0  0  0
  -17.6448  -30.6585   24.0571 C   0  0  0  0  0  0
  -25.9037  -34.9475   23.5113 C   0  0  0  0  0  0
  -16.5342  -29.9075   23.6345 C   0  0  0  0  0  0
  -16.7274  -28.6514   23.0326 C   0  0  0  0  0  0
  -26.4485  -31.6642   25.0750 C   0  0  0  0  0  0
  -25.3780  -31.3713   26.1515 C   0  0  0  0  0  0
  -27.0329  -30.3113   24.6108 C   0  0  0  0  0  0
  -27.6072  -32.4367   25.7495 C   0  0  0  0  0  0
  -27.5580  -37.1796   24.8478 C   0  0  0  0  0  0
  -21.4151  -29.3018   22.3769 N   0  0  0  0  0  0
  -26.4285  -37.3799   23.9425 N   0  0  0  0  0  0
  -24.6696  -31.0740   22.1002 N   0  0  0  0  0  0
  -23.4197  -28.8191   23.3054 O   0  0  0  0  0  0
  -28.4125  -26.6929   20.1337 O   0  0  0  0  0  0
  -26.5590  -34.8919   22.4658 O   0  0  0  0  0  0
  -23.5344  -32.1448   23.7483 O   0  0  0  0  0  0
  -29.7520  -20.2780   20.0011 C   0  0  0  0  0  0
  -30.1628  -17.8671   19.9208 C   0  0  0  0  0  0
  -30.2557  -19.0520   22.0435 C   0  0  0  0  0  0
  -29.8605  -19.0798   19.2668 C   0  0  0  0  0  0
  -29.9650  -20.2796   21.3954 C   0  0  0  0  0  0
  -30.3615  -17.8394   21.3170 C   0  0  0  0  0  0
  -27.6745  -24.3672   20.6503 C   0  0  0  0  0  0
  -28.1169  -23.3408   21.4161 C   0  0  0  0  0  0
  -29.6813  -19.0875   17.7639 C   0  0  0  0  0  0
  -27.1259  -22.9480   23.7375 C   0  0  0  0  0  0
  -29.9331  -21.5662   22.2284 C   0  0  0  0  0  0
  -30.7584  -16.5425   22.0348 C   0  0  0  0  0  0
  -28.4569  -25.3100   19.7305 C   0  0  0  0  0  0
  -27.1036  -22.5600   22.2494 C   0  0  0  0  0  0
  -29.5936  -22.9242   21.5289 C   0  0  0  0  0  0
  -30.1696  -15.3015   21.5118 N   0  0  0  0  0  0
  -31.4658  -12.4235   19.1031 H   0  0  0  0  0  0
  -30.3257  -11.2961   19.7822 H   0  0  0  0  0  0
  -29.7338  -11.8188   17.4075 H   0  0  0  0  0  0
  -29.6581  -13.5235   17.7779 H   0  0  0  0  0  0
  -27.8219  -11.3249   18.7887 H   0  0  0  0  0  0
  -27.3664  -12.6719   17.7780 H   0  0  0  0  0  0
  -27.7154  -14.2616   19.5927 H   0  0  0  0  0  0
  -28.6776  -11.9206   21.3032 H   0  0  0  0  0  0
  -28.4429  -13.5373   21.8823 H   0  0  0  0  0  0
  -25.2770   -9.5684   22.4726 H   0  0  0  0  0  0
  -24.0008   -7.4642   22.7459 H   0  0  0  0  0  0
  -21.0841   -8.8761   19.8955 H   0  0  0  0  0  0
  -22.3682  -10.9660   19.6142 H   0  0  0  0  0  0
  -21.2003   -7.6131   23.9688 H   0  0  0  0  0  0
  -21.1499   -6.0508   25.9066 H   0  0  0  0  0  0
  -22.0599   -2.7585   23.2833 H   0  0  0  0  0  0
  -22.4168  -11.9911   22.4805 H   0  0  0  0  0  0
  -21.1139  -13.1217   22.2562 H   0  0  0  0  0  0
  -24.6724  -15.8460   20.5229 H   0  0  0  0  0  0
  -26.2982  -15.6247   20.1176 H   0  0  0  0  0  0
  -26.7112  -32.5517   23.1165 H   0  0  0  0  0  0
  -25.0117  -33.9826   25.0503 H   0  0  0  0  0  0
  -22.6930  -31.3077   21.4173 H   0  0  0  0  0  0
  -23.3739  -35.9634   23.3310 H   0  0  0  0  0  0
  -24.3592  -36.8920   22.2065 H   0  0  0  0  0  0
  -23.7211  -37.6495   23.6657 H   0  0  0  0  0  0
  -26.0393  -31.5854   20.5860 H   0  0  0  0  0  0
  -26.8225  -30.8875   21.9746 H   0  0  0  0  0  0
  -28.0900  -29.0732   21.1775 H   0  0  0  0  0  0
  -26.0186  -25.9724   18.9831 H   0  0  0  0  0  0
  -23.9705  -27.2966   19.0308 H   0  0  0  0  0  0
  -23.7186  -30.5991   19.4078 H   0  0  0  0  0  0
  -22.7299  -29.2475   19.8650 H   0  0  0  0  0  0
  -25.1277  -36.1949   25.0816 H   0  0  0  0  0  0
  -20.9976  -28.3144   24.1452 H   0  0  0  0  0  0
  -20.5627  -26.2234   23.3595 H   0  0  0  0  0  0
  -21.6620  -26.7403   22.1229 H   0  0  0  0  0  0
  -19.6871  -25.6288   21.1237 H   0  0  0  0  0  0
  -19.6684  -27.3188   20.6736 H   0  0  0  0  0  0
  -17.4196  -26.6722   21.4006 H   0  0  0  0  0  0
  -18.0301  -26.0104   22.9012 H   0  0  0  0  0  0
  -19.7927  -30.7314   24.2225 H   0  0  0  0  0  0
  -17.4992  -31.6261   24.5175 H   0  0  0  0  0  0
  -15.5338  -30.2950   23.7708 H   0  0  0  0  0  0
  -15.8684  -28.0852   22.6986 H   0  0  0  0  0  0
  -24.5911  -30.7127   25.7829 H   0  0  0  0  0  0
  -24.9029  -32.2858   26.5074 H   0  0  0  0  0  0
  -25.8150  -30.8784   27.0211 H   0  0  0  0  0  0
  -26.2846  -29.6861   24.1231 H   0  0  0  0  0  0
  -27.4218  -29.7376   25.4531 H   0  0  0  0  0  0
  -27.8625  -30.4505   23.9176 H   0  0  0  0  0  0
  -27.2706  -33.3636   26.2148 H   0  0  0  0  0  0
  -28.3819  -32.6995   25.0279 H   0  0  0  0  0  0
  -28.0826  -31.8476   26.5351 H   0  0  0  0  0  0
  -28.2585  -38.0103   24.7536 H   0  0  0  0  0  0
  -28.1071  -36.2639   24.6252 H   0  0  0  0  0  0
  -27.2330  -37.1386   25.8890 H   0  0  0  0  0  0
  -20.9306  -29.8766   21.7023 H   0  0  0  0  0  0
  -26.0158  -38.2858   24.1456 H   0  0  0  0  0  0
  -29.5191  -21.1953   19.4801 H   0  0  0  0  0  0
  -30.2662  -16.9623   19.3387 H   0  0  0  0  0  0
  -30.4192  -19.0463   23.1132 H   0  0  0  0  0  0
  -26.6142  -24.5675   20.6687 H   0  0  0  0  0  0
  -29.4076  -20.0761   17.3920 H   0  0  0  0  0  0
  -28.9000  -18.3863   17.4723 H   0  0  0  0  0  0
  -30.6088  -18.7847   17.2771 H   0  0  0  0  0  0
  -26.5282  -22.2498   24.3251 H   0  0  0  0  0  0
  -26.7153  -23.9464   23.8935 H   0  0  0  0  0  0
  -28.1327  -22.9470   24.1546 H   0  0  0  0  0  0
  -30.9419  -21.6669   22.6294 H   0  0  0  0  0  0
  -29.3208  -21.3918   23.1097 H   0  0  0  0  0  0
  -30.4756  -16.6174   23.0860 H   0  0  0  0  0  0
  -31.8487  -16.4693   22.0365 H   0  0  0  0  0  0
  -28.1081  -25.1965   18.7023 H   0  0  0  0  0  0
  -29.5054  -25.0163   19.7182 H   0  0  0  0  0  0
  -27.2685  -21.4906   22.1175 H   0  0  0  0  0  0
  -26.0965  -22.7306   21.8652 H   0  0  0  0  0  0
  -30.0314  -23.7037   22.1545 H   0  0  0  0  0  0
  -30.1128  -23.0166   20.5755 H   0  0  0  0  0  0
  -29.2761  -15.0326   21.8954 H   0  0  0  0  0  0
  1 25  1  0  0  0
  1 30  2  0  0  0
  1 86  1  0  0  0
  2  3  1  0  0  0
  2 25  1  0  0  0
  2 87  1  0  0  0
  2 88  1  0  0  0
  3  4  1  0  0  0
  3 89  1  0  0  0
  3 90  1  0  0  0
  4  5  1  0  0  0
  4 91  1  0  0  0
  4 92  1  0  0  0
  5  6  1  0  0  0
  5 26  1  0  0  0
  5 93  1  0  0  0
  6 25  1  0  0  0
  6 94  1  0  0  0
  6 95  1  0  0  0
  7  8  2  0  0  0
  7 26  1  0  0  0
  7 29  1  0  0  0
  8  9  1  0  0  0
  8 22  1  0  0  0
  9 10  1  0  0  0
  9 27  2  0  0  0
 10 11  2  0  0  0
 10 15  1  0  0  0
 11 12  1  0  0  0
 11 96  1  0  0  0
 12 13  2  0  0  0
 12 97  1  0  0  0
 13 14  1  0  0  0
 13 31  1  0  0  0
 14 15  2  0  0  0
 14 98  1  0  0  0
 15 99  1  0  0  0
 16 17  2  0  0  0
 16 21  1  0  0  0
 16 31  1  0  0  0
 17 18  1  0  0  0
 17100  1  0  0  0
 18 19  2  0  0  0
 18101  1  0  0  0
 19 20  1  0  0  0
 19 24  1  0  0  0
 20 21  2  0  0  0
 20102  1  0  0  0
 21 23  1  0  0  0
 22 28  1  0  0  0
 22 32  2  0  0  0
 26 27  1  0  0  0
 28103  1  0  0  0
 28104  1  0  0  0
 29105  1  0  0  0
 29106  1  0  0  0
 33 34  1  0  0  0
 33 66  1  0  0  0
 33 70  2  0  0  0
 34 36  1  0  0  0
 34 59  1  0  0  0
 34107  1  0  0  0
 35 44  2  0  0  0
 35 45  1  0  0  0
 35 68  1  0  0  0
 36 56  1  0  0  0
 36108  1  0  0  0
 37 39  1  0  0  0
 37 47  1  0  0  0
 37 66  1  0  0  0
 37109  1  0  0  0
 38 43  2  0  0  0
 38 46  1  0  0  0
 38 47  1  0  0  0
 39 64  1  0  0  0
 39 67  2  0  0  0
 40 52  1  0  0  0
 40 53  2  0  0  0
 40 58  1  0  0  0
 41110  1  0  0  0
 41111  1  0  0  0
 41112  1  0  0  0
 41 48  1  0  0  0
 42 43  1  0  0  0
 42 66  1  0  0  0
 42113  1  0  0  0
 42114  1  0  0  0
 43 44  1  0  0  0
 44115  1  0  0  0
 45 46  2  0  0  0
 45116  1  0  0  0
 46117  1  0  0  0
 47118  1  0  0  0
 47119  1  0  0  0
 48 56  1  0  0  0
 48 65  1  0  0  0
 48120  1  0  0  0
 49 50  1  0  0  0
 49 53  1  0  0  0
 49 64  1  0  0  0
 49121  1  0  0  0
 50 51  1  0  0  0
 50122  1  0  0  0
 50123  1  0  0  0
 51 52  1  0  0  0
 51124  1  0  0  0
 51125  1  0  0  0
 52126  1  0  0  0
 52127  1  0  0  0
 53 54  1  0  0  0
 54 55  2  0  0  0
 54128  1  0  0  0
 55 57  1  0  0  0
 55129  1  0  0  0
 56 69  2  0  0  0
 57 58  2  0  0  0
 57130  1  0  0  0
 58131  1  0  0  0
 59 60  1  0  0  0
 59 61  1  0  0  0
 59 62  1  0  0  0
 60132  1  0  0  0
 60133  1  0  0  0
 60134  1  0  0  0
 61135  1  0  0  0
 61136  1  0  0  0
 61137  1  0  0  0
 62138  1  0  0  0
 62139  1  0  0  0
 62140  1  0  0  0
 63 65  1  0  0  0
 63141  1  0  0  0
 63142  1  0  0  0
 63143  1  0  0  0
 64144  1  0  0  0
 65145  1  0  0  0
 68 83  1  0  0  0
 71 74  2  0  0  0
 71 75  1  0  0  0
 71146  1  0  0  0
 72 74  1  0  0  0
 72 76  2  0  0  0
 72147  1  0  0  0
 73 75  2  0  0  0
 73 76  1  0  0  0
 73148  1  0  0  0
 74 79  1  0  0  0
 75 81  1  0  0  0
 76 82  1  0  0  0
 77 78  2  0  0  0
 77 83  1  0  0  0
 77149  1  0  0  0
 78 84  1  0  0  0
 78 85  1  0  0  0
 79150  1  0  0  0
 79151  1  0  0  0
 79152  1  0  0  0
 80 84  1  0  0  0
 80153  1  0  0  0
 80154  1  0  0  0
 80155  1  0  0  0
 81 85  1  0  0  0
 81156  1  0  0  0
 81157  1  0  0  0
 82 86  1  0  0  0
 82158  1  0  0  0
 82159  1  0  0  0
 83160  1  0  0  0
 83161  1  0  0  0
 84162  1  0  0  0
 84163  1  0  0  0
 85164  1  0  0  0
 85165  1  0  0  0
 86166  1  0  0  0
M  ISO  4   1 100  68 101  83 101  86 100
M  END
> <chiral flag>
0

> <version>
0

> <s_m_source_file>
/data/baiqing/PycharmProjects/Reinvent-master-3.2/result/LINK_invent/BTK/process_docking_weight1_custom_product_contain_oxygen_bond_distance_aromatic_linkinvent_7_9_3/rearranged_h_0132.sdf

> <i_m_source_file_index>
79

> <r_mmod_Potential_Energy-OPLS-2005>
-100.690528869629

> <r_mmod_Stretch_Energy-OPLS-2005>
40.5654411315918

> <r_mmod_Bend_Energy-OPLS-2005>
117.805152893066

> <r_mmod_Torsional_Energy-OPLS-2005>
185.644104003906

> <r_mmod_Improper_Torsional_Energy-OPLS-2005>
1.9586523771286

> <r_mmod_Van_der_Waal_Energy-OPLS-2005>
154.782775878906

> <r_mmod_Electrostatic_Energy-OPLS-2005>
-415.042510986328

> <r_mmod_Solvation_Energy-OPLS-2005>
-198.270523071289

> <b_mmod_Minimization_Converged-OPLS-2005>
0

> <r_mmod_RMS_Derivative-OPLS-2005>
2.60877823829651

$$$$
79
                    3D
 Structure written by MMmdl.
155163  0  0  1  0            999 V2000
  -30.7118  -14.5256   20.5071 C   0  0  0  0  0  0
  -30.4347  -12.3414   19.4263 C   0  0  0  0  0  0
  -29.4948  -12.4724   18.2120 C   0  0  0  0  0  0
  -28.0243  -12.3135   18.6429 C   0  0  0  0  0  0
  -27.6525  -13.2090   19.8542 C   0  0  2  0  0  0
  -28.6984  -13.0611   20.9772 C   0  0  0  0  0  0
  -25.2561  -13.8167   20.5683 C   0  0  0  0  0  0
  -24.1800  -13.0453   20.9167 C   0  0  0  0  0  0
  -24.6356  -11.6926   20.8748 C   0  0  0  0  0  0
  -23.9035  -10.4304   21.0417 C   0  0  0  0  0  0
  -24.3586   -9.4204   21.9201 C   0  0  0  0  0  0
  -23.6288   -8.2219   22.0749 C   0  0  0  0  0  0
  -22.4269   -8.0257   21.3528 C   0  0  0  0  0  0
  -21.9891   -9.0219   20.4613 C   0  0  0  0  0  0
  -22.7213  -10.2118   20.3040 C   0  0  0  0  0  0
  -21.6850   -6.0711   22.5276 C   0  0  0  0  0  0
  -21.4006   -6.5619   23.8205 C   0  0  0  0  0  0
  -21.3667   -5.6787   24.9183 C   0  0  0  0  0  0
  -21.6062   -4.3042   24.7241 C   0  0  0  0  0  0
  -21.8831   -3.8119   23.4358 C   0  0  0  0  0  0
  -21.9187   -4.6937   22.3408 C   0  0  0  0  0  0
  -22.7818  -13.5257   21.1835 C   0  0  0  0  0  0
  -22.1670   -4.2121   21.0984 F   0  0  0  0  0  0
  -21.5627   -3.4517   25.7746 F   0  0  0  0  0  0
  -30.0252  -13.3523   20.4160 N   0  0  0  0  0  0
  -26.2984  -12.9335   20.3299 N   0  0  0  0  0  0
  -25.9278  -11.6511   20.5784 N   0  0  0  0  0  0
  -22.0442  -12.8226   22.0364 N   0  0  0  0  0  0
  -25.4331  -15.1896   20.4113 N   0  0  0  0  0  0
  -31.8906  -14.6267   20.1628 O   0  0  0  0  0  0
  -21.6641   -6.8837   21.4233 O   0  0  0  0  0  0
  -22.3508  -14.5575   20.6695 O   0  0  0  0  0  0
  -24.6142  -31.8689   23.2075 C   0  0  0  0  0  0
  -25.9014  -32.4870   23.8368 C   0  0  1  0  0  0
  -27.2413  -27.4591   20.0788 C   0  0  0  0  0  0
  -25.5849  -33.8654   24.2313 N   0  0  0  0  0  0
  -23.4000  -30.4919   21.5508 C   0  0  2  0  0  0
  -24.8450  -28.9553   20.1194 C   0  0  0  0  0  0
  -22.7385  -29.4675   22.5001 C   0  0  0  0  0  0
  -18.0293  -28.1348   22.8517 C   0  0  0  0  0  0
  -24.1496  -36.7405   23.2638 C   0  0  0  0  0  0
  -25.9205  -30.8470   21.3447 C   0  0  0  0  0  0
  -26.0063  -29.4741   20.7079 C   0  0  0  0  0  0
  -27.2089  -28.7326   20.6855 C   0  0  0  0  0  0
  -26.0665  -26.9469   19.4919 C   0  0  0  0  0  0
  -24.8669  -27.6848   19.5165 C   0  0  0  0  0  0
  -23.6077  -29.8208   20.1668 C   0  0  0  0  0  0
  -25.4107  -36.3158   24.0335 C   0  0  1  0  0  0
  -20.5867  -28.3664   23.1333 C   0  0  2  0  0  0
  -20.6773  -26.9428   22.5374 C   0  0  0  0  0  0
  -19.5735  -26.6383   21.5204 C   0  0  0  0  0  0
  -18.1926  -26.7891   22.1637 C   0  0  0  0  0  0
  -19.1531  -28.8818   23.2923 C   0  0  0  0  0  0
  -18.9457  -30.1427   23.8921 C   0  0  0  0  0  0
  -17.6460  -30.6583   24.0552 C   0  0  0  0  0  0
  -25.9019  -34.9521   23.5140 C   0  0  0  0  0  0
  -16.5351  -29.9090   23.6310 C   0  0  0  0  0  0
  -16.7284  -28.6489   23.0373 C   0  0  0  0  0  0
  -26.4433  -31.6629   25.0689 C   0  0  0  0  0  0
  -25.3710  -31.3698   26.1440 C   0  0  0  0  0  0
  -27.0197  -30.3077   24.5966 C   0  0  0  0  0  0
  -27.6003  -32.4304   25.7501 C   0  0  0  0  0  0
  -27.5586  -37.1846   24.8443 C   0  0  0  0  0  0
  -21.4111  -29.3069   22.3747 N   0  0  0  0  0  0
  -26.4298  -37.3833   23.9397 N   0  0  0  0  0  0
  -24.6660  -31.0805   22.0973 N   0  0  0  0  0  0
  -23.4168  -28.8174   23.3002 O   0  0  0  0  0  0
  -28.3904  -26.7051   20.0598 O   0  0  0  0  0  0
  -26.5593  -34.8962   22.4714 O   0  0  0  0  0  0
  -23.5330  -32.1394   23.7489 O   0  0  0  0  0  0
  -29.5809  -16.9351   20.6189 C   0  0  0  0  0  0
  -29.9944  -15.7860   20.7246 C   0  0  0  0  0  0
  -28.5423  -20.9310   19.3570 C   0  0  0  0  0  0
  -27.9515  -19.8185   18.7315 C   0  0  0  0  0  0
  -29.7321  -19.4312   20.8625 C   0  0  0  0  0  0
  -29.1651  -18.2955   20.2225 C   0  0  0  0  0  0
  -29.4253  -20.7517   20.4379 C   0  0  0  0  0  0
  -28.2514  -18.5027   19.1499 C   0  0  0  0  0  0
  -29.2816  -24.4544   20.6011 C   0  0  0  0  0  0
  -27.5589  -17.3565   18.4194 C   0  0  0  0  0  0
  -30.0911  -21.9689   21.0900 C   0  0  0  0  0  0
  -29.1528  -23.1672   21.4378 C   0  0  0  0  0  0
  -28.3385  -25.6127   20.9886 C   0  0  0  0  0  0
  -30.1311  -24.5794   19.7111 O   0  0  0  0  0  0
  -31.4670  -12.4747   19.0945 H   0  0  0  0  0  0
  -30.3873  -11.3426   19.8594 H   0  0  0  0  0  0
  -29.7482  -11.7128   17.4700 H   0  0  0  0  0  0
  -29.6377  -13.4389   17.7243 H   0  0  0  0  0  0
  -27.8785  -11.2654   18.9036 H   0  0  0  0  0  0
  -27.3545  -12.4955   17.8038 H   0  0  0  0  0  0
  -27.6759  -14.2385   19.5021 H   0  0  0  0  0  0
  -28.6897  -12.0413   21.3619 H   0  0  0  0  0  0
  -28.4646  -13.7116   21.8205 H   0  0  0  0  0  0
  -25.2714   -9.5699   22.4793 H   0  0  0  0  0  0
  -23.9997   -7.4600   22.7451 H   0  0  0  0  0  0
  -21.0835   -8.8711   19.8885 H   0  0  0  0  0  0
  -22.3670  -10.9643   19.6116 H   0  0  0  0  0  0
  -21.1990   -7.6124   23.9724 H   0  0  0  0  0  0
  -21.1505   -6.0496   25.9100 H   0  0  0  0  0  0
  -22.0611   -2.7575   23.2866 H   0  0  0  0  0  0
  -22.4050  -11.9872   22.4722 H   0  0  0  0  0  0
  -21.1018  -13.1148   22.2536 H   0  0  0  0  0  0
  -24.6804  -15.8597   20.5297 H   0  0  0  0  0  0
  -26.3109  -15.6171   20.1446 H   0  0  0  0  0  0
  -26.7118  -32.5633   23.1166 H   0  0  0  0  0  0
  -24.9886  -33.9782   25.0373 H   0  0  0  0  0  0
  -22.6916  -31.3105   21.4095 H   0  0  0  0  0  0
  -23.3721  -35.9778   23.3295 H   0  0  0  0  0  0
  -24.3578  -36.9011   22.2046 H   0  0  0  0  0  0
  -23.7285  -37.6628   23.6647 H   0  0  0  0  0  0
  -25.9826  -31.6012   20.5585 H   0  0  0  0  0  0
  -26.8243  -30.9408   21.9318 H   0  0  0  0  0  0
  -28.1057  -29.1311   21.1375 H   0  0  0  0  0  0
  -26.0802  -25.9755   19.0193 H   0  0  0  0  0  0
  -23.9738  -27.2718   19.0699 H   0  0  0  0  0  0
  -23.7207  -30.5920   19.4048 H   0  0  0  0  0  0
  -22.7301  -29.2415   19.8711 H   0  0  0  0  0  0
  -25.1277  -36.2030   25.0824 H   0  0  0  0  0  0
  -20.9975  -28.3235   24.1444 H   0  0  0  0  0  0
  -20.5688  -26.2299   23.3556 H   0  0  0  0  0  0
  -21.6639  -26.7505   22.1114 H   0  0  0  0  0  0
  -19.6926  -25.6315   21.1202 H   0  0  0  0  0  0
  -19.6618  -27.3238   20.6778 H   0  0  0  0  0  0
  -17.4158  -26.6648   21.4078 H   0  0  0  0  0  0
  -18.0377  -25.9991   22.8999 H   0  0  0  0  0  0
  -19.7945  -30.7230   24.2285 H   0  0  0  0  0  0
  -17.5056  -31.6305   24.5085 H   0  0  0  0  0  0
  -15.5352  -30.3014   23.7572 H   0  0  0  0  0  0
  -15.8681  -28.0819   22.7096 H   0  0  0  0  0  0
  -24.5904  -30.7022   25.7780 H   0  0  0  0  0  0
  -24.8894  -32.2845   26.4904 H   0  0  0  0  0  0
  -25.8104  -30.8865   27.0182 H   0  0  0  0  0  0
  -26.2678  -29.6932   24.1009 H   0  0  0  0  0  0
  -27.3938  -29.7220   25.4367 H   0  0  0  0  0  0
  -27.8531  -30.4377   23.9070 H   0  0  0  0  0  0
  -27.2591  -33.3546   26.2178 H   0  0  0  0  0  0
  -28.3823  -32.6946   25.0375 H   0  0  0  0  0  0
  -28.0673  -31.8360   26.5348 H   0  0  0  0  0  0
  -28.2613  -38.0135   24.7484 H   0  0  0  0  0  0
  -28.1066  -36.2661   24.6279 H   0  0  0  0  0  0
  -27.2296  -37.1533   25.8842 H   0  0  0  0  0  0
  -20.9234  -29.8814   21.6997 H   0  0  0  0  0  0
  -26.0206  -38.2923   24.1377 H   0  0  0  0  0  0
  -28.3169  -21.9263   18.9996 H   0  0  0  0  0  0
  -27.2700  -19.9911   17.9086 H   0  0  0  0  0  0
  -30.4332  -19.2871   21.6728 H   0  0  0  0  0  0
  -27.7865  -17.3678   17.3545 H   0  0  0  0  0  0
  -26.4769  -17.4394   18.5375 H   0  0  0  0  0  0
  -27.8410  -16.3751   18.7882 H   0  0  0  0  0  0
  -30.9150  -22.2841   20.4470 H   0  0  0  0  0  0
  -30.5638  -21.6397   22.0186 H   0  0  0  0  0  0
  -28.1071  -22.8635   21.4747 H   0  0  0  0  0  0
  -29.4049  -23.4851   22.4471 H   0  0  0  0  0  0
  -28.6406  -25.9933   21.9631 H   0  0  0  0  0  0
  -27.3192  -25.2418   21.1069 H   0  0  0  0  0  0
  1 25  1  0  0  0
  1 30  2  0  0  0
  1 72  1  0  0  0
  2  3  1  0  0  0
  2 25  1  0  0  0
  2 85  1  0  0  0
  2 86  1  0  0  0
  3  4  1  0  0  0
  3 87  1  0  0  0
  3 88  1  0  0  0
  4  5  1  0  0  0
  4 89  1  0  0  0
  4 90  1  0  0  0
  5  6  1  0  0  0
  5 26  1  0  0  0
  5 91  1  0  0  0
  6 25  1  0  0  0
  6 92  1  0  0  0
  6 93  1  0  0  0
  7  8  2  0  0  0
  7 26  1  0  0  0
  7 29  1  0  0  0
  8  9  1  0  0  0
  8 22  1  0  0  0
  9 10  1  0  0  0
  9 27  2  0  0  0
 10 11  2  0  0  0
 10 15  1  0  0  0
 11 12  1  0  0  0
 11 94  1  0  0  0
 12 13  2  0  0  0
 12 95  1  0  0  0
 13 14  1  0  0  0
 13 31  1  0  0  0
 14 15  2  0  0  0
 14 96  1  0  0  0
 15 97  1  0  0  0
 16 17  2  0  0  0
 16 21  1  0  0  0
 16 31  1  0  0  0
 17 18  1  0  0  0
 17 98  1  0  0  0
 18 19  2  0  0  0
 18 99  1  0  0  0
 19 20  1  0  0  0
 19 24  1  0  0  0
 20 21  2  0  0  0
 20100  1  0  0  0
 21 23  1  0  0  0
 22 28  1  0  0  0
 22 32  2  0  0  0
 26 27  1  0  0  0
 28101  1  0  0  0
 28102  1  0  0  0
 29103  1  0  0  0
 29104  1  0  0  0
 33 34  1  0  0  0
 33 66  1  0  0  0
 33 70  2  0  0  0
 34 36  1  0  0  0
 34 59  1  0  0  0
 34105  1  0  0  0
 35 44  2  0  0  0
 35 45  1  0  0  0
 35 68  1  0  0  0
 36 56  1  0  0  0
 36106  1  0  0  0
 37 39  1  0  0  0
 37 47  1  0  0  0
 37 66  1  0  0  0
 37107  1  0  0  0
 38 43  2  0  0  0
 38 46  1  0  0  0
 38 47  1  0  0  0
 39 64  1  0  0  0
 39 67  2  0  0  0
 40 52  1  0  0  0
 40 53  2  0  0  0
 40 58  1  0  0  0
 41108  1  0  0  0
 41109  1  0  0  0
 41110  1  0  0  0
 41 48  1  0  0  0
 42 43  1  0  0  0
 42 66  1  0  0  0
 42111  1  0  0  0
 42112  1  0  0  0
 43 44  1  0  0  0
 44113  1  0  0  0
 45 46  2  0  0  0
 45114  1  0  0  0
 46115  1  0  0  0
 47116  1  0  0  0
 47117  1  0  0  0
 48 56  1  0  0  0
 48 65  1  0  0  0
 48118  1  0  0  0
 49 50  1  0  0  0
 49 53  1  0  0  0
 49 64  1  0  0  0
 49119  1  0  0  0
 50 51  1  0  0  0
 50120  1  0  0  0
 50121  1  0  0  0
 51 52  1  0  0  0
 51122  1  0  0  0
 51123  1  0  0  0
 52124  1  0  0  0
 52125  1  0  0  0
 53 54  1  0  0  0
 54 55  2  0  0  0
 54126  1  0  0  0
 55 57  1  0  0  0
 55127  1  0  0  0
 56 69  2  0  0  0
 57 58  2  0  0  0
 57128  1  0  0  0
 58129  1  0  0  0
 59 60  1  0  0  0
 59 61  1  0  0  0
 59 62  1  0  0  0
 60130  1  0  0  0
 60131  1  0  0  0
 60132  1  0  0  0
 61133  1  0  0  0
 61134  1  0  0  0
 61135  1  0  0  0
 62136  1  0  0  0
 62137  1  0  0  0
 62138  1  0  0  0
 63 65  1  0  0  0
 63139  1  0  0  0
 63140  1  0  0  0
 63141  1  0  0  0
 64142  1  0  0  0
 65143  1  0  0  0
 68 83  1  0  0  0
 71 72  3  0  0  0
 71 76  1  0  0  0
 73 74  2  0  0  0
 73 77  1  0  0  0
 73144  1  0  0  0
 74 78  1  0  0  0
 74145  1  0  0  0
 75 76  1  0  0  0
 75 77  2  0  0  0
 75146  1  0  0  0
 76 78  2  0  0  0
 77 81  1  0  0  0
 78 80  1  0  0  0
 79 82  1  0  0  0
 79 83  1  0  0  0
 79 84  2  0  0  0
 80147  1  0  0  0
 80148  1  0  0  0
 80149  1  0  0  0
 81 82  1  0  0  0
 81150  1  0  0  0
 81151  1  0  0  0
 82152  1  0  0  0
 82153  1  0  0  0
 83154  1  0  0  0
 83155  1  0  0  0
M  ISO  4   1 100  68 101  72 100  83 101
M  END
> <chiral flag>
0

> <version>
0

> <s_m_source_file>
/data/baiqing/PycharmProjects/Reinvent-master-3.2/result/LINK_invent/BTK/process_docking_weight1_custom_product_contain_oxygen_bond_distance_aromatic_linkinvent_7_9_3/rearranged_h_0132.sdf

> <i_m_source_file_index>
80

> <r_mmod_Potential_Energy-OPLS-2005>
19.7566165924072

> <r_mmod_Stretch_Energy-OPLS-2005>
38.5909957885742

> <r_mmod_Bend_Energy-OPLS-2005>
109.642486572266

> <r_mmod_Torsional_Energy-OPLS-2005>
211.924606323242

> <r_mmod_Improper_Torsional_Energy-OPLS-2005>
6.97900152206421

> <r_mmod_Van_der_Waal_Energy-OPLS-2005>
142.233428955078

> <r_mmod_Electrostatic_Energy-OPLS-2005>
-297.860565185547

> <r_mmod_Solvation_Energy-OPLS-2005>
-212.291656494141

> <b_mmod_Minimization_Converged-OPLS-2005>
0

> <r_mmod_RMS_Derivative-OPLS-2005>
5.66245555877686

$$$$
80
                    3D
 Structure written by MMmdl.
160168  0  0  1  0            999 V2000
  -30.7295  -14.5520   20.4821 C   0  0  0  0  0  0
  -30.3943  -12.3277   19.4771 C   0  0  0  0  0  0
  -29.5019  -12.4795   18.2308 C   0  0  0  0  0  0
  -28.0216  -12.3437   18.6304 C   0  0  0  0  0  0
  -27.6435  -13.2303   19.8497 C   0  0  2  0  0  0
  -28.6791  -13.1328   20.9898 C   0  0  0  0  0  0
  -25.2521  -13.8216   20.5672 C   0  0  0  0  0  0
  -24.1807  -13.0451   20.9174 C   0  0  0  0  0  0
  -24.6391  -11.6927   20.8717 C   0  0  0  0  0  0
  -23.9075  -10.4302   21.0393 C   0  0  0  0  0  0
  -24.3637   -9.4221   21.9169 C   0  0  0  0  0  0
  -23.6318   -8.2254   22.0741 C   0  0  0  0  0  0
  -22.4299   -8.0285   21.3535 C   0  0  0  0  0  0
  -21.9928   -9.0259   20.4639 C   0  0  0  0  0  0
  -22.7248  -10.2142   20.3049 C   0  0  0  0  0  0
  -21.6863   -6.0737   22.5273 C   0  0  0  0  0  0
  -21.4019   -6.5637   23.8206 C   0  0  0  0  0  0
  -21.3656   -5.6793   24.9169 C   0  0  0  0  0  0
  -21.6043   -4.3054   24.7214 C   0  0  0  0  0  0
  -21.8820   -3.8141   23.4335 C   0  0  0  0  0  0
  -21.9192   -4.6962   22.3396 C   0  0  0  0  0  0
  -22.7830  -13.5229   21.1830 C   0  0  0  0  0  0
  -22.1656   -4.2142   21.0973 F   0  0  0  0  0  0
  -21.5636   -3.4539   25.7726 F   0  0  0  0  0  0
  -30.0049  -13.3946   20.4244 N   0  0  0  0  0  0
  -26.2941  -12.9421   20.3259 N   0  0  0  0  0  0
  -25.9320  -11.6559   20.5731 N   0  0  0  0  0  0
  -22.0481  -12.8245   22.0405 N   0  0  0  0  0  0
  -25.4241  -15.1947   20.4128 N   0  0  0  0  0  0
  -31.9174  -14.5158   20.1497 O   0  0  0  0  0  0
  -21.6648   -6.8888   21.4238 O   0  0  0  0  0  0
  -22.3505  -14.5517   20.6655 O   0  0  0  0  0  0
  -24.6182  -31.8657   23.2097 C   0  0  0  0  0  0
  -25.9066  -32.4811   23.8401 C   0  0  1  0  0  0
  -27.2122  -27.3937   20.1139 C   0  0  0  0  0  0
  -25.5905  -33.8614   24.2322 N   0  0  0  0  0  0
  -23.4067  -30.4906   21.5520 C   0  0  2  0  0  0
  -24.8485  -28.9519   20.1154 C   0  0  0  0  0  0
  -22.7425  -29.4662   22.5009 C   0  0  0  0  0  0
  -18.0273  -28.1395   22.8496 C   0  0  0  0  0  0
  -24.1483  -36.7314   23.2639 C   0  0  0  0  0  0
  -25.9393  -30.8217   21.3668 C   0  0  0  0  0  0
  -26.0133  -29.4538   20.7112 C   0  0  0  0  0  0
  -27.2046  -28.6850   20.7005 C   0  0  0  0  0  0
  -26.0336  -26.9152   19.5086 C   0  0  0  0  0  0
  -24.8560  -27.6846   19.5074 C   0  0  0  0  0  0
  -23.6138  -29.8251   20.1666 C   0  0  0  0  0  0
  -25.4104  -36.3100   24.0335 C   0  0  1  0  0  0
  -20.5860  -28.3684   23.1324 C   0  0  2  0  0  0
  -20.6766  -26.9423   22.5421 C   0  0  0  0  0  0
  -19.5745  -26.6392   21.5223 C   0  0  0  0  0  0
  -18.1925  -26.7940   22.1634 C   0  0  0  0  0  0
  -19.1518  -28.8852   23.2904 C   0  0  0  0  0  0
  -18.9442  -30.1456   23.8914 C   0  0  0  0  0  0
  -17.6443  -30.6595   24.0560 C   0  0  0  0  0  0
  -25.9036  -34.9465   23.5123 C   0  0  0  0  0  0
  -16.5340  -29.9094   23.6325 C   0  0  0  0  0  0
  -16.7257  -28.6511   23.0349 C   0  0  0  0  0  0
  -26.4469  -31.6600   25.0751 C   0  0  0  0  0  0
  -25.3723  -31.3728   26.1496 C   0  0  0  0  0  0
  -27.0286  -30.3026   24.6158 C   0  0  0  0  0  0
  -27.6041  -32.4326   25.7508 C   0  0  0  0  0  0
  -27.5582  -37.1813   24.8464 C   0  0  0  0  0  0
  -21.4145  -29.3045   22.3730 N   0  0  0  0  0  0
  -26.4293  -37.3786   23.9409 N   0  0  0  0  0  0
  -24.6733  -31.0746   22.1005 N   0  0  0  0  0  0
  -23.4183  -28.8213   23.3064 O   0  0  0  0  0  0
  -28.3375  -26.5934   20.1188 O   0  0  0  0  0  0
  -26.5598  -34.8919   22.4686 O   0  0  0  0  0  0
  -23.5371  -32.1434   23.7468 O   0  0  0  0  0  0
  -31.9562  -19.1122   20.3883 C   0  0  0  0  0  0
  -32.0855  -20.4819   20.1491 C   0  0  0  0  0  0
  -29.5479  -19.3378   20.5301 C   0  0  0  0  0  0
  -30.6991  -18.4847   20.5282 C   0  0  0  0  0  0
  -30.9553  -21.3102   20.0689 C   0  0  0  0  0  0
  -29.6599  -20.7617   20.3182 C   0  0  0  0  0  0
  -30.8314  -16.9834   20.5622 C   0  0  0  0  0  0
  -30.0510  -15.8652   20.6946 C   0  0  0  0  0  0
  -31.2114  -22.6833   19.5536 C   0  0  0  0  0  0
  -28.1315  -24.0621   20.2625 C   0  0  0  0  0  0
  -32.5239  -24.8941   19.6778 C   0  0  0  0  0  0
  -32.2315  -23.5298   20.3264 C   0  0  0  0  0  0
  -28.2572  -25.4332   20.9932 C   0  0  0  0  0  0
  -28.4659  -22.7732   21.0807 C   0  0  0  0  0  0
  -30.6537  -23.1400   18.5542 O   0  0  0  0  0  0
  -27.7537  -23.9938   19.0879 O   0  0  0  0  0  0
  -28.5082  -21.5514   20.2846 O   0  0  0  0  0  0
  -31.4469  -12.3605   19.1916 H   0  0  0  0  0  0
  -30.2512  -11.3467   19.9344 H   0  0  0  0  0  0
  -29.7638  -11.7251   17.4877 H   0  0  0  0  0  0
  -29.6763  -13.4497   17.7613 H   0  0  0  0  0  0
  -27.8461  -11.2929   18.8668 H   0  0  0  0  0  0
  -27.3779  -12.5730   17.7804 H   0  0  0  0  0  0
  -27.6538  -14.2590   19.4894 H   0  0  0  0  0  0
  -28.6584  -12.1438   21.4504 H   0  0  0  0  0  0
  -28.4432  -13.8424   21.7847 H   0  0  0  0  0  0
  -25.2787   -9.5696   22.4730 H   0  0  0  0  0  0
  -24.0013   -7.4654   22.7483 H   0  0  0  0  0  0
  -21.0842   -8.8795   19.8968 H   0  0  0  0  0  0
  -22.3710  -10.9680   19.6157 H   0  0  0  0  0  0
  -21.2015   -7.6146   23.9706 H   0  0  0  0  0  0
  -21.1478   -6.0519   25.9074 H   0  0  0  0  0  0
  -22.0602   -2.7600   23.2835 H   0  0  0  0  0  0
  -22.4114  -11.9937   22.4845 H   0  0  0  0  0  0
  -21.1087  -13.1264   22.2562 H   0  0  0  0  0  0
  -24.6643  -15.8546   20.5397 H   0  0  0  0  0  0
  -26.2837  -15.6337   20.1068 H   0  0  0  0  0  0
  -26.7140  -32.5495   23.1165 H   0  0  0  0  0  0
  -25.0046  -33.9768   25.0462 H   0  0  0  0  0  0
  -22.6979  -31.3096   21.4160 H   0  0  0  0  0  0
  -23.3733  -35.9659   23.3299 H   0  0  0  0  0  0
  -24.3580  -36.8930   22.2055 H   0  0  0  0  0  0
  -23.7248  -37.6525   23.6653 H   0  0  0  0  0  0
  -26.0581  -31.5894   20.6007 H   0  0  0  0  0  0
  -26.8238  -30.8700   21.9895 H   0  0  0  0  0  0
  -28.1064  -29.0684   21.1575 H   0  0  0  0  0  0
  -26.0193  -25.9402   19.0413 H   0  0  0  0  0  0
  -23.9593  -27.2942   19.0456 H   0  0  0  0  0  0
  -23.7252  -30.6011   19.4093 H   0  0  0  0  0  0
  -22.7350  -29.2499   19.8694 H   0  0  0  0  0  0
  -25.1280  -36.1964   25.0828 H   0  0  0  0  0  0
  -20.9943  -28.3244   24.1450 H   0  0  0  0  0  0
  -20.5696  -26.2290   23.3608 H   0  0  0  0  0  0
  -21.6638  -26.7487   22.1205 H   0  0  0  0  0  0
  -19.6909  -25.6297   21.1264 H   0  0  0  0  0  0
  -19.6687  -27.3185   20.6744 H   0  0  0  0  0  0
  -17.4201  -26.6687   21.4026 H   0  0  0  0  0  0
  -18.0321  -26.0081   22.9027 H   0  0  0  0  0  0
  -19.7911  -30.7266   24.2309 H   0  0  0  0  0  0
  -17.4994  -31.6279   24.5151 H   0  0  0  0  0  0
  -15.5337  -30.2996   23.7643 H   0  0  0  0  0  0
  -15.8662  -28.0827   22.7069 H   0  0  0  0  0  0
  -24.5873  -30.7103   25.7837 H   0  0  0  0  0  0
  -24.8944  -32.2890   26.4973 H   0  0  0  0  0  0
  -25.8061  -30.8872   27.0248 H   0  0  0  0  0  0
  -26.2841  -29.6822   24.1157 H   0  0  0  0  0  0
  -27.3953  -29.7244   25.4654 H   0  0  0  0  0  0
  -27.8727  -30.4313   23.9380 H   0  0  0  0  0  0
  -27.2655  -33.3621   26.2097 H   0  0  0  0  0  0
  -28.3837  -32.6900   25.0327 H   0  0  0  0  0  0
  -28.0721  -31.8451   26.5415 H   0  0  0  0  0  0
  -28.2599  -38.0110   24.7499 H   0  0  0  0  0  0
  -28.1070  -36.2639   24.6282 H   0  0  0  0  0  0
  -27.2304  -37.1462   25.8869 H   0  0  0  0  0  0
  -20.9327  -29.8737   21.6918 H   0  0  0  0  0  0
  -26.0174  -38.2866   24.1391 H   0  0  0  0  0  0
  -32.8725  -18.5376   20.3828 H   0  0  0  0  0  0
  -33.0752  -20.8696   19.9535 H   0  0  0  0  0  0
  -28.5670  -18.9016   20.6550 H   0  0  0  0  0  0
  -31.8700  -16.7495   20.3887 H   0  0  0  0  0  0
  -28.9931  -15.9370   20.8986 H   0  0  0  0  0  0
  -33.3611  -25.3863   20.1734 H   0  0  0  0  0  0
  -31.6596  -25.5561   19.7433 H   0  0  0  0  0  0
  -32.7872  -24.7872   18.6243 H   0  0  0  0  0  0
  -33.1632  -22.9736   20.4083 H   0  0  0  0  0  0
  -31.8664  -23.6720   21.3434 H   0  0  0  0  0  0
  -29.1589  -25.4117   21.6040 H   0  0  0  0  0  0
  -27.4210  -25.5351   21.6862 H   0  0  0  0  0  0
  -27.6814  -22.6486   21.8284 H   0  0  0  0  0  0
  -29.3901  -22.9202   21.6406 H   0  0  0  0  0  0
  1 25  1  0  0  0
  1 30  2  0  0  0
  1 78  1  0  0  0
  2  3  1  0  0  0
  2 25  1  0  0  0
  2 88  1  0  0  0
  2 89  1  0  0  0
  3  4  1  0  0  0
  3 90  1  0  0  0
  3 91  1  0  0  0
  4  5  1  0  0  0
  4 92  1  0  0  0
  4 93  1  0  0  0
  5  6  1  0  0  0
  5 26  1  0  0  0
  5 94  1  0  0  0
  6 25  1  0  0  0
  6 95  1  0  0  0
  6 96  1  0  0  0
  7  8  2  0  0  0
  7 26  1  0  0  0
  7 29  1  0  0  0
  8  9  1  0  0  0
  8 22  1  0  0  0
  9 10  1  0  0  0
  9 27  2  0  0  0
 10 11  2  0  0  0
 10 15  1  0  0  0
 11 12  1  0  0  0
 11 97  1  0  0  0
 12 13  2  0  0  0
 12 98  1  0  0  0
 13 14  1  0  0  0
 13 31  1  0  0  0
 14 15  2  0  0  0
 14 99  1  0  0  0
 15100  1  0  0  0
 16 17  2  0  0  0
 16 21  1  0  0  0
 16 31  1  0  0  0
 17 18  1  0  0  0
 17101  1  0  0  0
 18 19  2  0  0  0
 18102  1  0  0  0
 19 20  1  0  0  0
 19 24  1  0  0  0
 20 21  2  0  0  0
 20103  1  0  0  0
 21 23  1  0  0  0
 22 28  1  0  0  0
 22 32  2  0  0  0
 26 27  1  0  0  0
 28104  1  0  0  0
 28105  1  0  0  0
 29106  1  0  0  0
 29107  1  0  0  0
 33 34  1  0  0  0
 33 66  1  0  0  0
 33 70  2  0  0  0
 34 36  1  0  0  0
 34 59  1  0  0  0
 34108  1  0  0  0
 35 44  2  0  0  0
 35 45  1  0  0  0
 35 68  1  0  0  0
 36 56  1  0  0  0
 36109  1  0  0  0
 37 39  1  0  0  0
 37 47  1  0  0  0
 37 66  1  0  0  0
 37110  1  0  0  0
 38 43  2  0  0  0
 38 46  1  0  0  0
 38 47  1  0  0  0
 39 64  1  0  0  0
 39 67  2  0  0  0
 40 52  1  0  0  0
 40 53  2  0  0  0
 40 58  1  0  0  0
 41111  1  0  0  0
 41112  1  0  0  0
 41113  1  0  0  0
 41 48  1  0  0  0
 42 43  1  0  0  0
 42 66  1  0  0  0
 42114  1  0  0  0
 42115  1  0  0  0
 43 44  1  0  0  0
 44116  1  0  0  0
 45 46  2  0  0  0
 45117  1  0  0  0
 46118  1  0  0  0
 47119  1  0  0  0
 47120  1  0  0  0
 48 56  1  0  0  0
 48 65  1  0  0  0
 48121  1  0  0  0
 49 50  1  0  0  0
 49 53  1  0  0  0
 49 64  1  0  0  0
 49122  1  0  0  0
 50 51  1  0  0  0
 50123  1  0  0  0
 50124  1  0  0  0
 51 52  1  0  0  0
 51125  1  0  0  0
 51126  1  0  0  0
 52127  1  0  0  0
 52128  1  0  0  0
 53 54  1  0  0  0
 54 55  2  0  0  0
 54129  1  0  0  0
 55 57  1  0  0  0
 55130  1  0  0  0
 56 69  2  0  0  0
 57 58  2  0  0  0
 57131  1  0  0  0
 58132  1  0  0  0
 59 60  1  0  0  0
 59 61  1  0  0  0
 59 62  1  0  0  0
 60133  1  0  0  0
 60134  1  0  0  0
 60135  1  0  0  0
 61136  1  0  0  0
 61137  1  0  0  0
 61138  1  0  0  0
 62139  1  0  0  0
 62140  1  0  0  0
 62141  1  0  0  0
 63 65  1  0  0  0
 63142  1  0  0  0
 63143  1  0  0  0
 63144  1  0  0  0
 64145  1  0  0  0
 65146  1  0  0  0
 68 83  1  0  0  0
 71 72  2  0  0  0
 71 74  1  0  0  0
 71147  1  0  0  0
 72 75  1  0  0  0
 72148  1  0  0  0
 73 74  2  0  0  0
 73 76  1  0  0  0
 73149  1  0  0  0
 74 77  1  0  0  0
 75 76  2  0  0  0
 75 79  1  0  0  0
 76 87  1  0  0  0
 77 78  2  0  0  0
 77150  1  0  0  0
 78151  1  0  0  0
 79 82  1  0  0  0
 79 85  2  0  0  0
 80 83  1  0  0  0
 80 84  1  0  0  0
 80 86  2  0  0  0
 81 82  1  0  0  0
 81152  1  0  0  0
 81153  1  0  0  0
 81154  1  0  0  0
 82155  1  0  0  0
 82156  1  0  0  0
 83157  1  0  0  0
 83158  1  0  0  0
 84 87  1  0  0  0
 84159  1  0  0  0
 84160  1  0  0  0
M  ISO  4   1 100  68 101  78 100  83 101
M  END
> <chiral flag>
0

> <version>
0

> <s_m_source_file>
/data/baiqing/PycharmProjects/Reinvent-master-3.2/result/LINK_invent/BTK/process_docking_weight1_custom_product_contain_oxygen_bond_distance_aromatic_linkinvent_7_9_3/rearranged_h_0132.sdf

> <i_m_source_file_index>
81

> <r_mmod_Potential_Energy-OPLS-2005>
208.275680541992

> <r_mmod_Stretch_Energy-OPLS-2005>
60.9502449035645

> <r_mmod_Bend_Energy-OPLS-2005>
160.324401855469

> <r_mmod_Torsional_Energy-OPLS-2005>
271.755737304688

> <r_mmod_Improper_Torsional_Energy-OPLS-2005>
6.65829849243164

> <r_mmod_Van_der_Waal_Energy-OPLS-2005>
163.259094238281

> <r_mmod_Electrostatic_Energy-OPLS-2005>
-248.02961730957

> <r_mmod_Solvation_Energy-OPLS-2005>
-241.280502319336

> <b_mmod_Minimization_Converged-OPLS-2005>
0

> <r_mmod_RMS_Derivative-OPLS-2005>
2.1214325428009

$$$$
81
                    3D
 Structure written by MMmdl.
162170  0  0  1  0            999 V2000
  -30.6685  -14.4974   20.5038 C   0  0  0  0  0  0
  -30.4347  -12.2876   19.4448 C   0  0  0  0  0  0
  -29.5084  -12.4170   18.2146 C   0  0  0  0  0  0
  -28.0184  -12.3516   18.6148 C   0  0  0  0  0  0
  -27.6616  -13.1942   19.8711 C   0  0  2  0  0  0
  -28.7034  -12.9926   20.9917 C   0  0  0  0  0  0
  -25.2608  -13.8137   20.5661 C   0  0  0  0  0  0
  -24.1844  -13.0442   20.9177 C   0  0  0  0  0  0
  -24.6390  -11.6893   20.8747 C   0  0  0  0  0  0
  -23.9063  -10.4288   21.0433 C   0  0  0  0  0  0
  -24.3613   -9.4202   21.9210 C   0  0  0  0  0  0
  -23.6282   -8.2239   22.0765 C   0  0  0  0  0  0
  -22.4253   -8.0292   21.3568 C   0  0  0  0  0  0
  -21.9908   -9.0266   20.4663 C   0  0  0  0  0  0
  -22.7249  -10.2136   20.3078 C   0  0  0  0  0  0
  -21.6842   -6.0742   22.5290 C   0  0  0  0  0  0
  -21.4009   -6.5627   23.8229 C   0  0  0  0  0  0
  -21.3666   -5.6782   24.9184 C   0  0  0  0  0  0
  -21.6036   -4.3042   24.7224 C   0  0  0  0  0  0
  -21.8819   -3.8152   23.4340 C   0  0  0  0  0  0
  -21.9189   -4.6975   22.3411 C   0  0  0  0  0  0
  -22.7868  -13.5268   21.1850 C   0  0  0  0  0  0
  -22.1652   -4.2173   21.0975 F   0  0  0  0  0  0
  -21.5634   -3.4514   25.7730 F   0  0  0  0  0  0
  -30.0310  -13.2967   20.4326 N   0  0  0  0  0  0
  -26.3019  -12.9276   20.3347 N   0  0  0  0  0  0
  -25.9309  -11.6453   20.5781 N   0  0  0  0  0  0
  -22.0464  -12.8279   22.0396 N   0  0  0  0  0  0
  -25.4399  -15.1844   20.4059 N   0  0  0  0  0  0
  -31.8249  -14.6695   20.1105 O   0  0  0  0  0  0
  -21.6625   -6.8885   21.4256 O   0  0  0  0  0  0
  -22.3580  -14.5582   20.6702 O   0  0  0  0  0  0
  -24.6100  -31.8701   23.2128 C   0  0  0  0  0  0
  -25.9007  -32.4836   23.8413 C   0  0  1  0  0  0
  -27.2460  -27.4542   20.1092 C   0  0  0  0  0  0
  -25.5872  -33.8642   24.2334 N   0  0  0  0  0  0
  -23.3981  -30.4909   21.5509 C   0  0  2  0  0  0
  -24.8515  -28.9598   20.1156 C   0  0  0  0  0  0
  -22.7389  -29.4653   22.5000 C   0  0  0  0  0  0
  -18.0254  -28.1360   22.8489 C   0  0  0  0  0  0
  -24.1476  -36.7327   23.2639 C   0  0  0  0  0  0
  -25.9226  -30.8415   21.3661 C   0  0  0  0  0  0
  -26.0046  -29.4747   20.7206 C   0  0  0  0  0  0
  -27.2026  -28.7284   20.7246 C   0  0  0  0  0  0
  -26.0839  -26.9587   19.4849 C   0  0  0  0  0  0
  -24.8843  -27.6980   19.4961 C   0  0  0  0  0  0
  -23.6081  -29.8194   20.1660 C   0  0  0  0  0  0
  -25.4099  -36.3128   24.0335 C   0  0  1  0  0  0
  -20.5845  -28.3649   23.1321 C   0  0  2  0  0  0
  -20.6748  -26.9382   22.5423 C   0  0  0  0  0  0
  -19.5733  -26.6375   21.5205 C   0  0  0  0  0  0
  -18.1906  -26.7914   22.1603 C   0  0  0  0  0  0
  -19.1512  -28.8817   23.2897 C   0  0  0  0  0  0
  -18.9441  -30.1430   23.8911 C   0  0  0  0  0  0
  -17.6450  -30.6577   24.0554 C   0  0  0  0  0  0
  -25.9018  -34.9489   23.5136 C   0  0  0  0  0  0
  -16.5337  -29.9076   23.6329 C   0  0  0  0  0  0
  -16.7250  -28.6486   23.0358 C   0  0  0  0  0  0
  -26.4459  -31.6619   25.0735 C   0  0  0  0  0  0
  -25.3738  -31.3724   26.1498 C   0  0  0  0  0  0
  -27.0282  -30.3056   24.6101 C   0  0  0  0  0  0
  -27.6033  -32.4359   25.7489 C   0  0  0  0  0  0
  -27.5577  -37.1817   24.8458 C   0  0  0  0  0  0
  -21.4119  -29.3019   22.3735 N   0  0  0  0  0  0
  -26.4286  -37.3811   23.9406 N   0  0  0  0  0  0
  -24.6599  -31.0826   22.1012 N   0  0  0  0  0  0
  -23.4175  -28.8201   23.3032 O   0  0  0  0  0  0
  -28.3715  -26.6597   20.0790 O   0  0  0  0  0  0
  -26.5583  -34.8940   22.4689 O   0  0  0  0  0  0
  -23.5301  -32.1440   23.7537 O   0  0  0  0  0  0
  -30.2678  -19.5765   19.5685 C   0  0  0  0  0  0
  -29.8480  -18.5907   18.6623 C   0  0  0  0  0  0
  -30.3996  -17.8945   21.3300 C   0  0  0  0  0  0
  -30.5049  -19.2462   20.9166 C   0  0  0  0  0  0
  -29.6873  -17.2550   19.0799 C   0  0  0  0  0  0
  -30.0174  -16.8806   20.4140 C   0  0  0  0  0  0
  -29.1207  -16.2710   18.0731 C   0  0  0  0  0  0
  -30.8792  -20.3622   21.8881 C   0  0  0  0  0  0
  -29.8774  -21.5498   21.8913 C   0  0  0  0  0  0
  -30.5151  -22.9246   21.5950 C   0  0  0  0  0  0
  -29.4896  -24.0803   21.5279 C   0  0  0  0  0  0
  -30.1457  -25.4542   21.2719 C   0  0  0  0  0  0
  -29.1786  -26.6587   21.2564 C   0  0  0  0  0  0
  -29.8816  -15.5316   20.8680 N   0  0  0  0  0  0
  -31.4807  -12.3896   19.1470 H   0  0  0  0  0  0
  -30.3476  -11.2934   19.8824 H   0  0  0  0  0  0
  -29.7311  -11.6124   17.5128 H   0  0  0  0  0  0
  -29.7208  -13.3286   17.6656 H   0  0  0  0  0  0
  -27.7826  -11.3032   18.7993 H   0  0  0  0  0  0
  -27.3952  -12.6577   17.7722 H   0  0  0  0  0  0
  -27.7013  -14.2375   19.5765 H   0  0  0  0  0  0
  -28.6730  -11.9621   21.3462 H   0  0  0  0  0  0
  -28.4724  -13.6099   21.8609 H   0  0  0  0  0  0
  -25.2768   -9.5663   22.4779 H   0  0  0  0  0  0
  -24.0001   -7.4606   22.7449 H   0  0  0  0  0  0
  -21.0864   -8.8808   19.8927 H   0  0  0  0  0  0
  -22.3766  -10.9674   19.6162 H   0  0  0  0  0  0
  -21.2007   -7.6137   23.9747 H   0  0  0  0  0  0
  -21.1481   -6.0495   25.9087 H   0  0  0  0  0  0
  -22.0603   -2.7617   23.2831 H   0  0  0  0  0  0
  -22.3986  -11.9899   22.4797 H   0  0  0  0  0  0
  -21.1088  -13.1342   22.2548 H   0  0  0  0  0  0
  -24.6923  -15.8561   20.5402 H   0  0  0  0  0  0
  -26.3020  -15.6145   20.0953 H   0  0  0  0  0  0
  -26.7075  -32.5586   23.1186 H   0  0  0  0  0  0
  -24.9993  -33.9810   25.0457 H   0  0  0  0  0  0
  -22.6825  -31.3028   21.4102 H   0  0  0  0  0  0
  -23.3740  -35.9660   23.3325 H   0  0  0  0  0  0
  -24.3561  -36.8925   22.2049 H   0  0  0  0  0  0
  -23.7239  -37.6538   23.6646 H   0  0  0  0  0  0
  -26.0320  -31.6045   20.5949 H   0  0  0  0  0  0
  -26.8106  -30.9011   21.9826 H   0  0  0  0  0  0
  -28.0861  -29.1392   21.1925 H   0  0  0  0  0  0
  -26.1060  -25.9907   19.0038 H   0  0  0  0  0  0
  -23.9983  -27.2962   19.0244 H   0  0  0  0  0  0
  -23.7059  -30.5901   19.3997 H   0  0  0  0  0  0
  -22.7361  -29.2292   19.8782 H   0  0  0  0  0  0
  -25.1280  -36.1992   25.0828 H   0  0  0  0  0  0
  -20.9921  -28.3212   24.1442 H   0  0  0  0  0  0
  -20.5630  -26.2246   23.3599 H   0  0  0  0  0  0
  -21.6625  -26.7411   22.1230 H   0  0  0  0  0  0
  -19.6893  -25.6285   21.1232 H   0  0  0  0  0  0
  -19.6679  -27.3187   20.6733 H   0  0  0  0  0  0
  -17.4172  -26.6657   21.4000 H   0  0  0  0  0  0
  -18.0297  -26.0050   22.8989 H   0  0  0  0  0  0
  -19.7920  -30.7233   24.2286 H   0  0  0  0  0  0
  -17.5010  -31.6267   24.5132 H   0  0  0  0  0  0
  -15.5337  -30.2975   23.7663 H   0  0  0  0  0  0
  -15.8643  -28.0813   22.7084 H   0  0  0  0  0  0
  -24.5851  -30.7143   25.7843 H   0  0  0  0  0  0
  -24.8995  -32.2883   26.5033 H   0  0  0  0  0  0
  -25.8089  -30.8815   27.0210 H   0  0  0  0  0  0
  -26.2807  -29.6843   24.1151 H   0  0  0  0  0  0
  -27.4040  -29.7281   25.4560 H   0  0  0  0  0  0
  -27.8660  -30.4375   23.9249 H   0  0  0  0  0  0
  -27.2625  -33.3629   26.2124 H   0  0  0  0  0  0
  -28.3791  -32.6992   25.0285 H   0  0  0  0  0  0
  -28.0763  -31.8470   26.5361 H   0  0  0  0  0  0
  -28.2607  -38.0104   24.7506 H   0  0  0  0  0  0
  -28.1053  -36.2639   24.6266 H   0  0  0  0  0  0
  -27.2300  -37.1466   25.8863 H   0  0  0  0  0  0
  -20.9270  -29.8715   21.6948 H   0  0  0  0  0  0
  -26.0184  -38.2889   24.1414 H   0  0  0  0  0  0
  -30.3662  -20.5992   19.2299 H   0  0  0  0  0  0
  -29.6243  -18.8778   17.6439 H   0  0  0  0  0  0
  -30.6015  -17.6324   22.3600 H   0  0  0  0  0  0
  -29.0636  -16.7030   17.0738 H   0  0  0  0  0  0
  -28.1102  -15.9788   18.3535 H   0  0  0  0  0  0
  -29.7487  -15.3920   18.0035 H   0  0  0  0  0  0
  -31.8791  -20.7069   21.6227 H   0  0  0  0  0  0
  -30.9657  -19.9536   22.8967 H   0  0  0  0  0  0
  -29.3784  -21.5835   22.8601 H   0  0  0  0  0  0
  -29.0820  -21.3739   21.1675 H   0  0  0  0  0  0
  -31.0554  -22.8738   20.6487 H   0  0  0  0  0  0
  -31.2615  -23.1438   22.3606 H   0  0  0  0  0  0
  -28.9293  -24.1168   22.4637 H   0  0  0  0  0  0
  -28.7606  -23.8765   20.7423 H   0  0  0  0  0  0
  -30.7081  -25.4310   20.3381 H   0  0  0  0  0  0
  -30.8789  -25.6292   22.0614 H   0  0  0  0  0  0
  -29.7623  -27.5790   21.2811 H   0  0  0  0  0  0
  -28.5569  -26.6467   22.1541 H   0  0  0  0  0  0
  -28.9730  -15.2719   21.2191 H   0  0  0  0  0  0
  1 25  1  0  0  0
  1 30  2  0  0  0
  1 84  1  0  0  0
  2  3  1  0  0  0
  2 25  1  0  0  0
  2 85  1  0  0  0
  2 86  1  0  0  0
  3  4  1  0  0  0
  3 87  1  0  0  0
  3 88  1  0  0  0
  4  5  1  0  0  0
  4 89  1  0  0  0
  4 90  1  0  0  0
  5  6  1  0  0  0
  5 26  1  0  0  0
  5 91  1  0  0  0
  6 25  1  0  0  0
  6 92  1  0  0  0
  6 93  1  0  0  0
  7  8  2  0  0  0
  7 26  1  0  0  0
  7 29  1  0  0  0
  8  9  1  0  0  0
  8 22  1  0  0  0
  9 10  1  0  0  0
  9 27  2  0  0  0
 10 11  2  0  0  0
 10 15  1  0  0  0
 11 12  1  0  0  0
 11 94  1  0  0  0
 12 13  2  0  0  0
 12 95  1  0  0  0
 13 14  1  0  0  0
 13 31  1  0  0  0
 14 15  2  0  0  0
 14 96  1  0  0  0
 15 97  1  0  0  0
 16 17  2  0  0  0
 16 21  1  0  0  0
 16 31  1  0  0  0
 17 18  1  0  0  0
 17 98  1  0  0  0
 18 19  2  0  0  0
 18 99  1  0  0  0
 19 20  1  0  0  0
 19 24  1  0  0  0
 20 21  2  0  0  0
 20100  1  0  0  0
 21 23  1  0  0  0
 22 28  1  0  0  0
 22 32  2  0  0  0
 26 27  1  0  0  0
 28101  1  0  0  0
 28102  1  0  0  0
 29103  1  0  0  0
 29104  1  0  0  0
 33 34  1  0  0  0
 33 66  1  0  0  0
 33 70  2  0  0  0
 34 36  1  0  0  0
 34 59  1  0  0  0
 34105  1  0  0  0
 35 44  2  0  0  0
 35 45  1  0  0  0
 35 68  1  0  0  0
 36 56  1  0  0  0
 36106  1  0  0  0
 37 39  1  0  0  0
 37 47  1  0  0  0
 37 66  1  0  0  0
 37107  1  0  0  0
 38 43  2  0  0  0
 38 46  1  0  0  0
 38 47  1  0  0  0
 39 64  1  0  0  0
 39 67  2  0  0  0
 40 52  1  0  0  0
 40 53  2  0  0  0
 40 58  1  0  0  0
 41108  1  0  0  0
 41109  1  0  0  0
 41110  1  0  0  0
 41 48  1  0  0  0
 42 43  1  0  0  0
 42 66  1  0  0  0
 42111  1  0  0  0
 42112  1  0  0  0
 43 44  1  0  0  0
 44113  1  0  0  0
 45 46  2  0  0  0
 45114  1  0  0  0
 46115  1  0  0  0
 47116  1  0  0  0
 47117  1  0  0  0
 48 56  1  0  0  0
 48 65  1  0  0  0
 48118  1  0  0  0
 49 50  1  0  0  0
 49 53  1  0  0  0
 49 64  1  0  0  0
 49119  1  0  0  0
 50 51  1  0  0  0
 50120  1  0  0  0
 50121  1  0  0  0
 51 52  1  0  0  0
 51122  1  0  0  0
 51123  1  0  0  0
 52124  1  0  0  0
 52125  1  0  0  0
 53 54  1  0  0  0
 54 55  2  0  0  0
 54126  1  0  0  0
 55 57  1  0  0  0
 55127  1  0  0  0
 56 69  2  0  0  0
 57 58  2  0  0  0
 57128  1  0  0  0
 58129  1  0  0  0
 59 60  1  0  0  0
 59 61  1  0  0  0
 59 62  1  0  0  0
 60130  1  0  0  0
 60131  1  0  0  0
 60132  1  0  0  0
 61133  1  0  0  0
 61134  1  0  0  0
 61135  1  0  0  0
 62136  1  0  0  0
 62137  1  0  0  0
 62138  1  0  0  0
 63 65  1  0  0  0
 63139  1  0  0  0
 63140  1  0  0  0
 63141  1  0  0  0
 64142  1  0  0  0
 65143  1  0  0  0
 68 83  1  0  0  0
 71 72  2  0  0  0
 71 74  1  0  0  0
 71144  1  0  0  0
 72 75  1  0  0  0
 72145  1  0  0  0
 73 74  2  0  0  0
 73 76  1  0  0  0
 73146  1  0  0  0
 74 78  1  0  0  0
 75 76  2  0  0  0
 75 77  1  0  0  0
 76 84  1  0  0  0
 77147  1  0  0  0
 77148  1  0  0  0
 77149  1  0  0  0
 78 79  1  0  0  0
 78150  1  0  0  0
 78151  1  0  0  0
 79 80  1  0  0  0
 79152  1  0  0  0
 79153  1  0  0  0
 80 81  1  0  0  0
 80154  1  0  0  0
 80155  1  0  0  0
 81 82  1  0  0  0
 81156  1  0  0  0
 81157  1  0  0  0
 82 83  1  0  0  0
 82158  1  0  0  0
 82159  1  0  0  0
 83160  1  0  0  0
 83161  1  0  0  0
 84162  1  0  0  0
M  ISO  4   1 100  68 101  83 101  84 100
M  END
> <chiral flag>
0

> <version>
0

> <s_m_source_file>
/data/baiqing/PycharmProjects/Reinvent-master-3.2/result/LINK_invent/BTK/process_docking_weight1_custom_product_contain_oxygen_bond_distance_aromatic_linkinvent_7_9_3/rearranged_h_0132.sdf

> <i_m_source_file_index>
82

> <r_mmod_Potential_Energy-OPLS-2005>
-16.2830257415771

> <r_mmod_Stretch_Energy-OPLS-2005>
36.1495590209961

> <r_mmod_Bend_Energy-OPLS-2005>
90.8123168945312

> <r_mmod_Torsional_Energy-OPLS-2005>
262.836975097656

> <r_mmod_Improper_Torsional_Energy-OPLS-2005>
5.29649543762207

> <r_mmod_Van_der_Waal_Energy-OPLS-2005>
147.31379699707

> <r_mmod_Electrostatic_Energy-OPLS-2005>
-372.750030517578

> <r_mmod_Solvation_Energy-OPLS-2005>
-202.094543457031

> <b_mmod_Minimization_Converged-OPLS-2005>
0

> <r_mmod_RMS_Derivative-OPLS-2005>
2.89784526824951

$$$$
82
                    3D
 Structure written by MMmdl.
162170  0  0  1  0            999 V2000
  -30.6466  -14.5538   20.4837 C   0  0  0  0  0  0
  -30.4186  -12.3087   19.4652 C   0  0  0  0  0  0
  -29.5146  -12.4830   18.2269 C   0  0  0  0  0  0
  -28.0354  -12.3303   18.6390 C   0  0  0  0  0  0
  -27.6587  -13.2076   19.8687 C   0  0  2  0  0  0
  -28.6931  -13.0426   21.0045 C   0  0  0  0  0  0
  -25.2590  -13.8107   20.5623 C   0  0  0  0  0  0
  -24.1839  -13.0417   20.9161 C   0  0  0  0  0  0
  -24.6358  -11.6876   20.8676 C   0  0  0  0  0  0
  -23.9018  -10.4259   21.0389 C   0  0  0  0  0  0
  -24.3575   -9.4174   21.9155 C   0  0  0  0  0  0
  -23.6253   -8.2215   22.0745 C   0  0  0  0  0  0
  -22.4231   -8.0225   21.3547 C   0  0  0  0  0  0
  -21.9857   -9.0199   20.4654 C   0  0  0  0  0  0
  -22.7180  -10.2080   20.3049 C   0  0  0  0  0  0
  -21.6867   -6.0689   22.5291 C   0  0  0  0  0  0
  -21.4011   -6.5614   23.8205 C   0  0  0  0  0  0
  -21.3664   -5.6761   24.9170 C   0  0  0  0  0  0
  -21.6074   -4.3037   24.7214 C   0  0  0  0  0  0
  -21.8818   -3.8124   23.4343 C   0  0  0  0  0  0
  -21.9171   -4.6931   22.3389 C   0  0  0  0  0  0
  -22.7835  -13.5209   21.1829 C   0  0  0  0  0  0
  -22.1664   -4.2106   21.0975 F   0  0  0  0  0  0
  -21.5627   -3.4526   25.7741 F   0  0  0  0  0  0
  -30.0207  -13.3374   20.4425 N   0  0  0  0  0  0
  -26.3032  -12.9302   20.3308 N   0  0  0  0  0  0
  -25.9304  -11.6474   20.5717 N   0  0  0  0  0  0
  -22.0550  -12.8182   22.0428 N   0  0  0  0  0  0
  -25.4243  -15.1797   20.3986 N   0  0  0  0  0  0
  -31.8090  -14.7111   20.0990 O   0  0  0  0  0  0
  -21.6640   -6.8809   21.4227 O   0  0  0  0  0  0
  -22.3521  -14.5502   20.6725 O   0  0  0  0  0  0
  -24.6111  -31.8630   23.2097 C   0  0  0  0  0  0
  -25.9014  -32.4836   23.8370 C   0  0  1  0  0  0
  -27.2502  -27.4053   20.0485 C   0  0  0  0  0  0
  -25.5836  -33.8633   24.2324 N   0  0  0  0  0  0
  -23.4026  -30.4774   21.5554 C   0  0  2  0  0  0
  -24.8521  -28.9380   20.1167 C   0  0  0  0  0  0
  -22.7403  -29.4573   22.5087 C   0  0  0  0  0  0
  -18.0317  -28.1385   22.8480 C   0  0  0  0  0  0
  -24.1469  -36.7302   23.2641 C   0  0  0  0  0  0
  -25.9347  -30.8095   21.3680 C   0  0  0  0  0  0
  -26.0138  -29.4400   20.7128 C   0  0  0  0  0  0
  -27.2082  -28.6752   20.6860 C   0  0  0  0  0  0
  -26.0559  -26.9137   19.4746 C   0  0  0  0  0  0
  -24.8706  -27.6741   19.5033 C   0  0  0  0  0  0
  -23.6105  -29.8001   20.1746 C   0  0  0  0  0  0
  -25.4107  -36.3105   24.0307 C   0  0  1  0  0  0
  -20.5858  -28.3633   23.1391 C   0  0  2  0  0  0
  -20.6780  -26.9454   22.5309 C   0  0  0  0  0  0
  -19.5762  -26.6695   21.5028 C   0  0  0  0  0  0
  -18.1971  -26.8082   22.1412 C   0  0  0  0  0  0
  -19.1538  -28.8831   23.2914 C   0  0  0  0  0  0
  -18.9544  -30.1475   23.8876 C   0  0  0  0  0  0
  -17.6608  -30.6692   24.0472 C   0  0  0  0  0  0
  -25.9042  -34.9464   23.5139 C   0  0  0  0  0  0
  -16.5444  -29.9094   23.6421 C   0  0  0  0  0  0
  -16.7325  -28.6521   23.0418 C   0  0  0  0  0  0
  -26.4442  -31.6591   25.0685 C   0  0  0  0  0  0
  -25.3729  -31.3655   26.1446 C   0  0  0  0  0  0
  -27.0282  -30.3038   24.6068 C   0  0  0  0  0  0
  -27.6016  -32.4313   25.7441 C   0  0  0  0  0  0
  -27.5582  -37.1784   24.8480 C   0  0  0  0  0  0
  -21.4110  -29.3058   22.3889 N   0  0  0  0  0  0
  -26.4304  -37.3794   23.9402 N   0  0  0  0  0  0
  -24.6693  -31.0609   22.1060 N   0  0  0  0  0  0
  -23.4176  -28.8080   23.3093 O   0  0  0  0  0  0
  -28.4564  -26.7061   20.0097 O   0  0  0  0  0  0
  -26.5649  -34.8925   22.4740 O   0  0  0  0  0  0
  -23.5296  -32.1384   23.7506 O   0  0  0  0  0  0
  -28.4555  -19.3841   23.7691 C   0  0  0  0  0  0
  -28.3572  -19.9238   22.4830 C   0  0  0  0  0  0
  -29.7370  -17.5405   22.8783 C   0  0  0  0  0  0
  -29.1848  -18.2085   23.9890 C   0  0  0  0  0  0
  -28.9739  -19.3209   21.3491 C   0  0  0  0  0  0
  -29.5841  -18.0219   21.5530 C   0  0  0  0  0  0
  -29.3077  -17.6314   25.3865 C   0  0  0  0  0  0
  -28.9605  -20.1464   20.0164 C   0  0  0  0  0  0
  -30.0840  -17.0631   20.4501 C   0  0  0  0  0  0
  -28.7134  -21.6934   20.2534 C   0  0  0  0  0  0
  -28.8073  -22.8261   19.1787 C   0  0  0  0  0  0
  -28.5064  -24.2005   19.8874 C   0  0  0  0  0  0
  -28.6667  -25.5575   19.1404 C   0  0  0  0  0  0
  -29.8423  -15.6132   20.7357 N   0  0  0  0  0  0
  -31.4755  -12.3694   19.1998 H   0  0  0  0  0  0
  -30.2752  -11.3143   19.8874 H   0  0  0  0  0  0
  -29.7862  -11.7465   17.4682 H   0  0  0  0  0  0
  -29.6850  -13.4628   17.7734 H   0  0  0  0  0  0
  -27.8737  -11.2756   18.8743 H   0  0  0  0  0  0
  -27.3913  -12.5538   17.7894 H   0  0  0  0  0  0
  -27.6821  -14.2441   19.5315 H   0  0  0  0  0  0
  -28.6636  -12.0225   21.4035 H   0  0  0  0  0  0
  -28.4441  -13.6916   21.8476 H   0  0  0  0  0  0
  -25.2744   -9.5638   22.4686 H   0  0  0  0  0  0
  -23.9983   -7.4592   22.7460 H   0  0  0  0  0  0
  -21.0809   -8.8707   19.8948 H   0  0  0  0  0  0
  -22.3669  -10.9584   19.6132 H   0  0  0  0  0  0
  -21.2047   -7.6124   23.9676 H   0  0  0  0  0  0
  -21.1509   -6.0522   25.9056 H   0  0  0  0  0  0
  -22.0594   -2.7582   23.2872 H   0  0  0  0  0  0
  -22.4261  -11.9873   22.4819 H   0  0  0  0  0  0
  -21.1171  -13.1151   22.2702 H   0  0  0  0  0  0
  -24.6462  -15.8199   20.5024 H   0  0  0  0  0  0
  -26.2710  -15.6344   20.0858 H   0  0  0  0  0  0
  -26.7057  -32.5538   23.1090 H   0  0  0  0  0  0
  -24.9879  -33.9850   25.0375 H   0  0  0  0  0  0
  -22.6974  -31.2990   21.4070 H   0  0  0  0  0  0
  -23.3755  -35.9627   23.3342 H   0  0  0  0  0  0
  -24.3541  -36.8897   22.2057 H   0  0  0  0  0  0
  -23.7209  -37.6497   23.6660 H   0  0  0  0  0  0
  -26.0423  -31.5806   20.6048 H   0  0  0  0  0  0
  -26.8221  -30.8716   21.9844 H   0  0  0  0  0  0
  -28.1092  -29.0616   21.1439 H   0  0  0  0  0  0
  -26.0252  -25.9445   18.9958 H   0  0  0  0  0  0
  -23.9712  -27.2879   19.0459 H   0  0  0  0  0  0
  -23.6989  -30.5650   19.4021 H   0  0  0  0  0  0
  -22.7381  -29.2020   19.9026 H   0  0  0  0  0  0
  -25.1289  -36.1972   25.0792 H   0  0  0  0  0  0
  -20.9885  -28.3099   24.1555 H   0  0  0  0  0  0
  -20.5508  -26.2174   23.3334 H   0  0  0  0  0  0
  -21.6685  -26.7544   22.1157 H   0  0  0  0  0  0
  -19.6923  -25.6786   21.0685 H   0  0  0  0  0  0
  -19.6740  -27.3730   20.6758 H   0  0  0  0  0  0
  -17.4397  -26.7232   21.3603 H   0  0  0  0  0  0
  -18.0232  -25.9943   22.8467 H   0  0  0  0  0  0
  -19.8092  -30.7255   24.2127 H   0  0  0  0  0  0
  -17.5199  -31.6445   24.4887 H   0  0  0  0  0  0
  -15.5472  -30.2984   23.7856 H   0  0  0  0  0  0
  -15.8673  -28.0852   22.7255 H   0  0  0  0  0  0
  -24.5895  -30.7026   25.7731 H   0  0  0  0  0  0
  -24.8903  -32.2794   26.4918 H   0  0  0  0  0  0
  -25.8064  -30.8769   27.0193 H   0  0  0  0  0  0
  -26.2842  -29.6803   24.1102 H   0  0  0  0  0  0
  -27.4059  -29.7255   25.4508 H   0  0  0  0  0  0
  -27.8654  -30.4352   23.9226 H   0  0  0  0  0  0
  -27.2646  -33.3611   26.2061 H   0  0  0  0  0  0
  -28.3818  -32.6880   25.0246 H   0  0  0  0  0  0
  -28.0718  -31.8428   26.5339 H   0  0  0  0  0  0
  -28.2614  -38.0074   24.7531 H   0  0  0  0  0  0
  -28.1074  -36.2591   24.6319 H   0  0  0  0  0  0
  -27.2308  -37.1465   25.8897 H   0  0  0  0  0  0
  -20.9236  -29.8928   21.7304 H   0  0  0  0  0  0
  -26.0201  -38.2878   24.1431 H   0  0  0  0  0  0
  -27.9544  -19.8913   24.5820 H   0  0  0  0  0  0
  -27.7945  -20.8471   22.4250 H   0  0  0  0  0  0
  -30.2621  -16.6122   23.0482 H   0  0  0  0  0  0
  -29.2296  -18.4041   26.1545 H   0  0  0  0  0  0
  -30.2571  -17.1139   25.5281 H   0  0  0  0  0  0
  -28.5155  -16.8971   25.5389 H   0  0  0  0  0  0
  -28.1844  -19.7501   19.3635 H   0  0  0  0  0  0
  -29.9037  -19.9953   19.4889 H   0  0  0  0  0  0
  -31.1453  -17.2511   20.2893 H   0  0  0  0  0  0
  -29.5812  -17.3057   19.5153 H   0  0  0  0  0  0
  -29.3869  -21.9996   21.0583 H   0  0  0  0  0  0
  -27.6913  -21.7949   20.6164 H   0  0  0  0  0  0
  -28.0955  -22.6456   18.3682 H   0  0  0  0  0  0
  -29.8032  -22.8409   18.7346 H   0  0  0  0  0  0
  -29.1560  -24.2675   20.7624 H   0  0  0  0  0  0
  -27.4908  -24.1564   20.2681 H   0  0  0  0  0  0
  -28.0729  -25.6210   18.2320 H   0  0  0  0  0  0
  -29.7002  -25.6239   18.8010 H   0  0  0  0  0  0
  -28.9034  -15.3860   21.0228 H   0  0  0  0  0  0
  1 25  1  0  0  0
  1 30  2  0  0  0
  1 84  1  0  0  0
  2  3  1  0  0  0
  2 25  1  0  0  0
  2 85  1  0  0  0
  2 86  1  0  0  0
  3  4  1  0  0  0
  3 87  1  0  0  0
  3 88  1  0  0  0
  4  5  1  0  0  0
  4 89  1  0  0  0
  4 90  1  0  0  0
  5  6  1  0  0  0
  5 26  1  0  0  0
  5 91  1  0  0  0
  6 25  1  0  0  0
  6 92  1  0  0  0
  6 93  1  0  0  0
  7  8  2  0  0  0
  7 26  1  0  0  0
  7 29  1  0  0  0
  8  9  1  0  0  0
  8 22  1  0  0  0
  9 10  1  0  0  0
  9 27  2  0  0  0
 10 11  2  0  0  0
 10 15  1  0  0  0
 11 12  1  0  0  0
 11 94  1  0  0  0
 12 13  2  0  0  0
 12 95  1  0  0  0
 13 14  1  0  0  0
 13 31  1  0  0  0
 14 15  2  0  0  0
 14 96  1  0  0  0
 15 97  1  0  0  0
 16 17  2  0  0  0
 16 21  1  0  0  0
 16 31  1  0  0  0
 17 18  1  0  0  0
 17 98  1  0  0  0
 18 19  2  0  0  0
 18 99  1  0  0  0
 19 20  1  0  0  0
 19 24  1  0  0  0
 20 21  2  0  0  0
 20100  1  0  0  0
 21 23  1  0  0  0
 22 28  1  0  0  0
 22 32  2  0  0  0
 26 27  1  0  0  0
 28101  1  0  0  0
 28102  1  0  0  0
 29103  1  0  0  0
 29104  1  0  0  0
 33 34  1  0  0  0
 33 66  1  0  0  0
 33 70  2  0  0  0
 34 36  1  0  0  0
 34 59  1  0  0  0
 34105  1  0  0  0
 35 44  2  0  0  0
 35 45  1  0  0  0
 35 68  1  0  0  0
 36 56  1  0  0  0
 36106  1  0  0  0
 37 39  1  0  0  0
 37 47  1  0  0  0
 37 66  1  0  0  0
 37107  1  0  0  0
 38 43  2  0  0  0
 38 46  1  0  0  0
 38 47  1  0  0  0
 39 64  1  0  0  0
 39 67  2  0  0  0
 40 52  1  0  0  0
 40 53  2  0  0  0
 40 58  1  0  0  0
 41108  1  0  0  0
 41109  1  0  0  0
 41110  1  0  0  0
 41 48  1  0  0  0
 42 43  1  0  0  0
 42 66  1  0  0  0
 42111  1  0  0  0
 42112  1  0  0  0
 43 44  1  0  0  0
 44113  1  0  0  0
 45 46  2  0  0  0
 45114  1  0  0  0
 46115  1  0  0  0
 47116  1  0  0  0
 47117  1  0  0  0
 48 56  1  0  0  0
 48 65  1  0  0  0
 48118  1  0  0  0
 49 50  1  0  0  0
 49 53  1  0  0  0
 49 64  1  0  0  0
 49119  1  0  0  0
 50 51  1  0  0  0
 50120  1  0  0  0
 50121  1  0  0  0
 51 52  1  0  0  0
 51122  1  0  0  0
 51123  1  0  0  0
 52124  1  0  0  0
 52125  1  0  0  0
 53 54  1  0  0  0
 54 55  2  0  0  0
 54126  1  0  0  0
 55 57  1  0  0  0
 55127  1  0  0  0
 56 69  2  0  0  0
 57 58  2  0  0  0
 57128  1  0  0  0
 58129  1  0  0  0
 59 60  1  0  0  0
 59 61  1  0  0  0
 59 62  1  0  0  0
 60130  1  0  0  0
 60131  1  0  0  0
 60132  1  0  0  0
 61133  1  0  0  0
 61134  1  0  0  0
 61135  1  0  0  0
 62136  1  0  0  0
 62137  1  0  0  0
 62138  1  0  0  0
 63 65  1  0  0  0
 63139  1  0  0  0
 63140  1  0  0  0
 63141  1  0  0  0
 64142  1  0  0  0
 65143  1  0  0  0
 68 83  1  0  0  0
 71 72  2  0  0  0
 71 74  1  0  0  0
 71144  1  0  0  0
 72 75  1  0  0  0
 72145  1  0  0  0
 73 74  2  0  0  0
 73 76  1  0  0  0
 73146  1  0  0  0
 74 77  1  0  0  0
 75 76  2  0  0  0
 75 78  1  0  0  0
 76 79  1  0  0  0
 77147  1  0  0  0
 77148  1  0  0  0
 77149  1  0  0  0
 78 80  1  0  0  0
 78150  1  0  0  0
 78151  1  0  0  0
 79 84  1  0  0  0
 79152  1  0  0  0
 79153  1  0  0  0
 80 81  1  0  0  0
 80154  1  0  0  0
 80155  1  0  0  0
 81 82  1  0  0  0
 81156  1  0  0  0
 81157  1  0  0  0
 82 83  1  0  0  0
 82158  1  0  0  0
 82159  1  0  0  0
 83160  1  0  0  0
 83161  1  0  0  0
 84162  1  0  0  0
M  ISO  4   1 100  68 101  83 101  84 100
M  END
> <chiral flag>
0

> <version>
0

> <s_m_source_file>
/data/baiqing/PycharmProjects/Reinvent-master-3.2/result/LINK_invent/BTK/process_docking_weight1_custom_product_contain_oxygen_bond_distance_aromatic_linkinvent_7_9_3/rearranged_h_0132.sdf

> <i_m_source_file_index>
83

> <r_mmod_Potential_Energy-OPLS-2005>
-11.2546291351318

> <r_mmod_Stretch_Energy-OPLS-2005>
61.820068359375

> <r_mmod_Bend_Energy-OPLS-2005>
144.556488037109

> <r_mmod_Torsional_Energy-OPLS-2005>
203.896331787109

> <r_mmod_Improper_Torsional_Energy-OPLS-2005>
6.30902910232544

> <r_mmod_Van_der_Waal_Energy-OPLS-2005>
155.424346923828

> <r_mmod_Electrostatic_Energy-OPLS-2005>
-408.203125

> <r_mmod_Solvation_Energy-OPLS-2005>
-199.067901611328

> <b_mmod_Minimization_Converged-OPLS-2005>
0

> <r_mmod_RMS_Derivative-OPLS-2005>
10.2730751037598

$$$$
83
                    3D
 Structure written by MMmdl.
158166  0  0  1  0            999 V2000
  -30.7847  -14.4160   20.4981 C   0  0  0  0  0  0
  -30.3820  -12.2453   19.4499 C   0  0  0  0  0  0
  -29.4957  -12.4768   18.2135 C   0  0  0  0  0  0
  -28.0091  -12.3770   18.6063 C   0  0  0  0  0  0
  -27.6528  -13.2264   19.8599 C   0  0  2  0  0  0
  -28.6938  -13.0650   20.9909 C   0  0  0  0  0  0
  -25.2541  -13.8205   20.5686 C   0  0  0  0  0  0
  -24.1824  -13.0447   20.9194 C   0  0  0  0  0  0
  -24.6399  -11.6922   20.8716 C   0  0  0  0  0  0
  -23.9071  -10.4297   21.0386 C   0  0  0  0  0  0
  -24.3615   -9.4206   21.9160 C   0  0  0  0  0  0
  -23.6300   -8.2233   22.0737 C   0  0  0  0  0  0
  -22.4280   -8.0272   21.3535 C   0  0  0  0  0  0
  -21.9906   -9.0251   20.4649 C   0  0  0  0  0  0
  -22.7230  -10.2135   20.3053 C   0  0  0  0  0  0
  -21.6857   -6.0738   22.5288 C   0  0  0  0  0  0
  -21.4022   -6.5639   23.8223 C   0  0  0  0  0  0
  -21.3663   -5.6782   24.9177 C   0  0  0  0  0  0
  -21.6043   -4.3048   24.7230 C   0  0  0  0  0  0
  -21.8813   -3.8147   23.4349 C   0  0  0  0  0  0
  -21.9188   -4.6966   22.3403 C   0  0  0  0  0  0
  -22.7843  -13.5236   21.1850 C   0  0  0  0  0  0
  -22.1653   -4.2154   21.0982 F   0  0  0  0  0  0
  -21.5619   -3.4530   25.7742 F   0  0  0  0  0  0
  -30.0314  -13.2865   20.4287 N   0  0  0  0  0  0
  -26.2984  -12.9420   20.3291 N   0  0  0  0  0  0
  -25.9329  -11.6555   20.5722 N   0  0  0  0  0  0
  -22.0468  -12.8262   22.0412 N   0  0  0  0  0  0
  -25.4222  -15.1928   20.4136 N   0  0  0  0  0  0
  -31.9617  -14.4112   20.1344 O   0  0  0  0  0  0
  -21.6640   -6.8875   21.4247 O   0  0  0  0  0  0
  -22.3543  -14.5533   20.6664 O   0  0  0  0  0  0
  -24.6068  -31.8738   23.2137 C   0  0  0  0  0  0
  -25.8977  -32.4865   23.8421 C   0  0  1  0  0  0
  -27.2565  -27.5082   20.0970 C   0  0  0  0  0  0
  -25.5843  -33.8656   24.2360 N   0  0  0  0  0  0
  -23.3919  -30.4959   21.5542 C   0  0  2  0  0  0
  -24.8427  -28.9703   20.1190 C   0  0  0  0  0  0
  -22.7369  -29.4691   22.5036 C   0  0  0  0  0  0
  -18.0255  -28.1391   22.8497 C   0  0  0  0  0  0
  -24.1480  -36.7343   23.2642 C   0  0  0  0  0  0
  -25.9078  -30.8709   21.3456 C   0  0  0  0  0  0
  -25.9954  -29.5066   20.7030 C   0  0  0  0  0  0
  -27.2061  -28.7895   20.6898 C   0  0  0  0  0  0
  -26.0867  -26.9742   19.5202 C   0  0  0  0  0  0
  -24.8798  -27.6981   19.5216 C   0  0  0  0  0  0
  -23.5973  -29.8234   20.1701 C   0  0  0  0  0  0
  -25.4096  -36.3144   24.0354 C   0  0  1  0  0  0
  -20.5840  -28.3669   23.1350 C   0  0  2  0  0  0
  -20.6753  -26.9412   22.5439 C   0  0  0  0  0  0
  -19.5741  -26.6402   21.5220 C   0  0  0  0  0  0
  -18.1915  -26.7941   22.1625 C   0  0  0  0  0  0
  -19.1506  -28.8846   23.2920 C   0  0  0  0  0  0
  -18.9436  -30.1447   23.8941 C   0  0  0  0  0  0
  -17.6443  -30.6599   24.0579 C   0  0  0  0  0  0
  -25.9010  -34.9500   23.5159 C   0  0  0  0  0  0
  -16.5333  -29.9110   23.6314 C   0  0  0  0  0  0
  -16.7253  -28.6525   23.0338 C   0  0  0  0  0  0
  -26.4437  -31.6601   25.0699 C   0  0  0  0  0  0
  -25.3726  -31.3665   26.1461 C   0  0  0  0  0  0
  -27.0242  -30.3067   24.5953 C   0  0  0  0  0  0
  -27.6040  -32.4294   25.7441 C   0  0  0  0  0  0
  -27.5580  -37.1831   24.8467 C   0  0  0  0  0  0
  -21.4112  -29.3033   22.3768 N   0  0  0  0  0  0
  -26.4297  -37.3813   23.9407 N   0  0  0  0  0  0
  -24.6543  -31.0909   22.0997 N   0  0  0  0  0  0
  -23.4165  -28.8228   23.3058 O   0  0  0  0  0  0
  -28.3761  -26.7172   20.0399 O   0  0  0  0  0  0
  -26.5594  -34.8944   22.4734 O   0  0  0  0  0  0
  -23.5274  -32.1445   23.7577 O   0  0  0  0  0  0
  -29.2540  -18.6786   20.4284 C   0  0  0  0  0  0
  -31.6266  -19.1193   20.7593 C   0  0  0  0  0  0
  -29.0556  -20.0384   20.1051 C   0  0  0  0  0  0
  -31.4322  -20.4673   20.4233 C   0  0  0  0  0  0
  -30.5520  -18.2056   20.7167 C   0  0  0  0  0  0
  -30.1530  -20.9254   20.0623 C   0  0  0  0  0  0
  -30.8940  -16.7837   20.8046 C   0  0  0  0  0  0
  -30.1026  -15.6891   20.7078 C   0  0  0  0  0  0
  -29.9924  -22.3434   19.5497 C   0  0  0  0  0  0
  -30.4706  -23.4150   20.5426 C   0  0  0  0  0  0
  -30.4496  -24.8128   19.9078 C   0  0  0  0  0  0
  -30.4176  -25.9451   20.9531 C   0  0  0  0  0  0
  -29.6462  -27.1864   20.4862 C   0  0  0  0  0  0
  -31.4366  -12.2433   19.1680 H   0  0  0  0  0  0
  -30.1951  -11.2565   19.8706 H   0  0  0  0  0  0
  -29.7292  -11.7433   17.4408 H   0  0  0  0  0  0
  -29.7029  -13.4570   17.7806 H   0  0  0  0  0  0
  -27.7863  -11.3261   18.7893 H   0  0  0  0  0  0
  -27.3824  -12.6754   17.7648 H   0  0  0  0  0  0
  -27.6774  -14.2679   19.5402 H   0  0  0  0  0  0
  -28.6392  -12.0663   21.4248 H   0  0  0  0  0  0
  -28.4875  -13.7548   21.8107 H   0  0  0  0  0  0
  -25.2759   -9.5690   22.4728 H   0  0  0  0  0  0
  -24.0013   -7.4635   22.7459 H   0  0  0  0  0  0
  -21.0822   -8.8789   19.8976 H   0  0  0  0  0  0
  -22.3677  -10.9675   19.6172 H   0  0  0  0  0  0
  -21.2023   -7.6149   23.9738 H   0  0  0  0  0  0
  -21.1485   -6.0505   25.9083 H   0  0  0  0  0  0
  -22.0589   -2.7612   23.2846 H   0  0  0  0  0  0
  -22.4085  -11.9961   22.4864 H   0  0  0  0  0  0
  -21.1074  -13.1306   22.2582 H   0  0  0  0  0  0
  -24.6544  -15.8466   20.5285 H   0  0  0  0  0  0
  -26.2774  -15.6357   20.1014 H   0  0  0  0  0  0
  -26.7064  -32.5636   23.1221 H   0  0  0  0  0  0
  -24.9938  -33.9815   25.0464 H   0  0  0  0  0  0
  -22.6764  -31.3098   21.4163 H   0  0  0  0  0  0
  -23.3725  -35.9694   23.3338 H   0  0  0  0  0  0
  -24.3579  -36.8916   22.2049 H   0  0  0  0  0  0
  -23.7245  -37.6571   23.6623 H   0  0  0  0  0  0
  -25.9833  -31.6315   20.5667 H   0  0  0  0  0  0
  -26.8087  -30.9510   21.9411 H   0  0  0  0  0  0
  -28.0751  -29.2466   21.1352 H   0  0  0  0  0  0
  -26.1155  -25.9935   19.0669 H   0  0  0  0  0  0
  -23.9943  -27.2748   19.0680 H   0  0  0  0  0  0
  -23.6942  -30.5960   19.4062 H   0  0  0  0  0  0
  -22.7273  -29.2321   19.8811 H   0  0  0  0  0  0
  -25.1267  -36.2039   25.0851 H   0  0  0  0  0  0
  -20.9925  -28.3240   24.1471 H   0  0  0  0  0  0
  -20.5658  -26.2276   23.3620 H   0  0  0  0  0  0
  -21.6632  -26.7481   22.1235 H   0  0  0  0  0  0
  -19.6912  -25.6317   21.1231 H   0  0  0  0  0  0
  -19.6689  -27.3229   20.6765 H   0  0  0  0  0  0
  -17.4192  -26.6693   21.4019 H   0  0  0  0  0  0
  -18.0321  -26.0078   22.9019 H   0  0  0  0  0  0
  -19.7916  -30.7241   24.2338 H   0  0  0  0  0  0
  -17.5006  -31.6282   24.5184 H   0  0  0  0  0  0
  -15.5338  -30.3035   23.7610 H   0  0  0  0  0  0
  -15.8649  -28.0861   22.7025 H   0  0  0  0  0  0
  -24.5890  -30.7028   25.7785 H   0  0  0  0  0  0
  -24.8920  -32.2809   26.4955 H   0  0  0  0  0  0
  -25.8095  -30.8793   27.0186 H   0  0  0  0  0  0
  -26.2749  -29.6864   24.1014 H   0  0  0  0  0  0
  -27.4083  -29.7237   25.4334 H   0  0  0  0  0  0
  -27.8546  -30.4432   23.9018 H   0  0  0  0  0  0
  -27.2683  -33.3575   26.2070 H   0  0  0  0  0  0
  -28.3807  -32.6884   25.0236 H   0  0  0  0  0  0
  -28.0752  -31.8384   26.5295 H   0  0  0  0  0  0
  -28.2629  -38.0096   24.7488 H   0  0  0  0  0  0
  -28.1045  -36.2636   24.6327 H   0  0  0  0  0  0
  -27.2305  -37.1532   25.8872 H   0  0  0  0  0  0
  -20.9265  -29.8739   21.6982 H   0  0  0  0  0  0
  -26.0201  -38.2905   24.1385 H   0  0  0  0  0  0
  -28.4170  -17.9971   20.3802 H   0  0  0  0  0  0
  -32.6306  -18.7811   20.9745 H   0  0  0  0  0  0
  -28.0668  -20.3796   19.8314 H   0  0  0  0  0  0
  -32.2834  -21.1342   20.3880 H   0  0  0  0  0  0
  -31.9626  -16.6296   20.8827 H   0  0  0  0  0  0
  -29.0271  -15.7674   20.6928 H   0  0  0  0  0  0
  -28.9477  -22.5191   19.2888 H   0  0  0  0  0  0
  -30.5477  -22.4240   18.6143 H   0  0  0  0  0  0
  -31.4799  -23.2090   20.8976 H   0  0  0  0  0  0
  -29.8215  -23.3782   21.4195 H   0  0  0  0  0  0
  -29.5755  -24.8664   19.2589 H   0  0  0  0  0  0
  -31.3049  -24.9423   19.2426 H   0  0  0  0  0  0
  -31.4338  -26.2170   21.2423 H   0  0  0  0  0  0
  -29.9355  -25.5909   21.8641 H   0  0  0  0  0  0
  -30.1623  -27.6896   19.6680 H   0  0  0  0  0  0
  -29.5964  -27.8761   21.3278 H   0  0  0  0  0  0
  1 25  1  0  0  0
  1 30  2  0  0  0
  1 78  1  0  0  0
  2  3  1  0  0  0
  2 25  1  0  0  0
  2 84  1  0  0  0
  2 85  1  0  0  0
  3  4  1  0  0  0
  3 86  1  0  0  0
  3 87  1  0  0  0
  4  5  1  0  0  0
  4 88  1  0  0  0
  4 89  1  0  0  0
  5  6  1  0  0  0
  5 26  1  0  0  0
  5 90  1  0  0  0
  6 25  1  0  0  0
  6 91  1  0  0  0
  6 92  1  0  0  0
  7  8  2  0  0  0
  7 26  1  0  0  0
  7 29  1  0  0  0
  8  9  1  0  0  0
  8 22  1  0  0  0
  9 10  1  0  0  0
  9 27  2  0  0  0
 10 11  2  0  0  0
 10 15  1  0  0  0
 11 12  1  0  0  0
 11 93  1  0  0  0
 12 13  2  0  0  0
 12 94  1  0  0  0
 13 14  1  0  0  0
 13 31  1  0  0  0
 14 15  2  0  0  0
 14 95  1  0  0  0
 15 96  1  0  0  0
 16 17  2  0  0  0
 16 21  1  0  0  0
 16 31  1  0  0  0
 17 18  1  0  0  0
 17 97  1  0  0  0
 18 19  2  0  0  0
 18 98  1  0  0  0
 19 20  1  0  0  0
 19 24  1  0  0  0
 20 21  2  0  0  0
 20 99  1  0  0  0
 21 23  1  0  0  0
 22 28  1  0  0  0
 22 32  2  0  0  0
 26 27  1  0  0  0
 28100  1  0  0  0
 28101  1  0  0  0
 29102  1  0  0  0
 29103  1  0  0  0
 33 34  1  0  0  0
 33 66  1  0  0  0
 33 70  2  0  0  0
 34 36  1  0  0  0
 34 59  1  0  0  0
 34104  1  0  0  0
 35 44  2  0  0  0
 35 45  1  0  0  0
 35 68  1  0  0  0
 36 56  1  0  0  0
 36105  1  0  0  0
 37 39  1  0  0  0
 37 47  1  0  0  0
 37 66  1  0  0  0
 37106  1  0  0  0
 38 43  2  0  0  0
 38 46  1  0  0  0
 38 47  1  0  0  0
 39 64  1  0  0  0
 39 67  2  0  0  0
 40 52  1  0  0  0
 40 53  2  0  0  0
 40 58  1  0  0  0
 41107  1  0  0  0
 41108  1  0  0  0
 41109  1  0  0  0
 41 48  1  0  0  0
 42 43  1  0  0  0
 42 66  1  0  0  0
 42110  1  0  0  0
 42111  1  0  0  0
 43 44  1  0  0  0
 44112  1  0  0  0
 45 46  2  0  0  0
 45113  1  0  0  0
 46114  1  0  0  0
 47115  1  0  0  0
 47116  1  0  0  0
 48 56  1  0  0  0
 48 65  1  0  0  0
 48117  1  0  0  0
 49 50  1  0  0  0
 49 53  1  0  0  0
 49 64  1  0  0  0
 49118  1  0  0  0
 50 51  1  0  0  0
 50119  1  0  0  0
 50120  1  0  0  0
 51 52  1  0  0  0
 51121  1  0  0  0
 51122  1  0  0  0
 52123  1  0  0  0
 52124  1  0  0  0
 53 54  1  0  0  0
 54 55  2  0  0  0
 54125  1  0  0  0
 55 57  1  0  0  0
 55126  1  0  0  0
 56 69  2  0  0  0
 57 58  2  0  0  0
 57127  1  0  0  0
 58128  1  0  0  0
 59 60  1  0  0  0
 59 61  1  0  0  0
 59 62  1  0  0  0
 60129  1  0  0  0
 60130  1  0  0  0
 60131  1  0  0  0
 61132  1  0  0  0
 61133  1  0  0  0
 61134  1  0  0  0
 62135  1  0  0  0
 62136  1  0  0  0
 62137  1  0  0  0
 63 65  1  0  0  0
 63138  1  0  0  0
 63139  1  0  0  0
 63140  1  0  0  0
 64141  1  0  0  0
 65142  1  0  0  0
 68 83  1  0  0  0
 71 73  2  0  0  0
 71 75  1  0  0  0
 71143  1  0  0  0
 72 74  1  0  0  0
 72 75  2  0  0  0
 72144  1  0  0  0
 73 76  1  0  0  0
 73145  1  0  0  0
 74 76  2  0  0  0
 74146  1  0  0  0
 75 77  1  0  0  0
 76 79  1  0  0  0
 77 78  2  0  0  0
 77147  1  0  0  0
 78148  1  0  0  0
 79 80  1  0  0  0
 79149  1  0  0  0
 79150  1  0  0  0
 80 81  1  0  0  0
 80151  1  0  0  0
 80152  1  0  0  0
 81 82  1  0  0  0
 81153  1  0  0  0
 81154  1  0  0  0
 82 83  1  0  0  0
 82155  1  0  0  0
 82156  1  0  0  0
 83157  1  0  0  0
 83158  1  0  0  0
M  ISO  4   1 100  68 101  78 100  83 101
M  END
> <chiral flag>
0

> <version>
0

> <s_m_source_file>
/data/baiqing/PycharmProjects/Reinvent-master-3.2/result/LINK_invent/BTK/process_docking_weight1_custom_product_contain_oxygen_bond_distance_aromatic_linkinvent_7_9_3/rearranged_h_0132.sdf

> <i_m_source_file_index>
84

> <r_mmod_Potential_Energy-OPLS-2005>
31.6359519958496

> <r_mmod_Stretch_Energy-OPLS-2005>
30.4178905487061

> <r_mmod_Bend_Energy-OPLS-2005>
113.277252197266

> <r_mmod_Torsional_Energy-OPLS-2005>
200.090026855469

> <r_mmod_Improper_Torsional_Energy-OPLS-2005>
10.112699508667

> <r_mmod_Van_der_Waal_Energy-OPLS-2005>
172.046081542969

> <r_mmod_Electrostatic_Energy-OPLS-2005>
-327.542999267578

> <r_mmod_Solvation_Energy-OPLS-2005>
-188.813583374023

> <b_mmod_Minimization_Converged-OPLS-2005>
0

> <r_mmod_RMS_Derivative-OPLS-2005>
2.38435387611389

$$$$
84
                    3D
 Structure written by MMmdl.
155163  0  0  1  0            999 V2000
  -30.6684  -14.4870   20.4288 C   0  0  0  0  0  0
  -30.4058  -12.2724   19.4541 C   0  0  0  0  0  0
  -29.5096  -12.4850   18.2157 C   0  0  0  0  0  0
  -28.0212  -12.3499   18.6082 C   0  0  0  0  0  0
  -27.6477  -13.2030   19.8493 C   0  0  2  0  0  0
  -28.6803  -13.0318   20.9837 C   0  0  0  0  0  0
  -25.2533  -13.8130   20.5588 C   0  0  0  0  0  0
  -24.1822  -13.0416   20.9146 C   0  0  0  0  0  0
  -24.6359  -11.6891   20.8662 C   0  0  0  0  0  0
  -23.9042  -10.4279   21.0356 C   0  0  0  0  0  0
  -24.3602   -9.4221   21.9141 C   0  0  0  0  0  0
  -23.6302   -8.2240   22.0743 C   0  0  0  0  0  0
  -22.4289   -8.0273   21.3536 C   0  0  0  0  0  0
  -21.9899   -9.0232   20.4639 C   0  0  0  0  0  0
  -22.7192  -10.2122   20.3019 C   0  0  0  0  0  0
  -21.6866   -6.0720   22.5270 C   0  0  0  0  0  0
  -21.3997   -6.5631   23.8189 C   0  0  0  0  0  0
  -21.3653   -5.6797   24.9170 C   0  0  0  0  0  0
  -21.6052   -4.3058   24.7237 C   0  0  0  0  0  0
  -21.8817   -3.8137   23.4357 C   0  0  0  0  0  0
  -21.9194   -4.6939   22.3403 C   0  0  0  0  0  0
  -22.7829  -13.5190   21.1874 C   0  0  0  0  0  0
  -22.1642   -4.2102   21.0995 F   0  0  0  0  0  0
  -21.5675   -3.4553   25.7769 F   0  0  0  0  0  0
  -30.0225  -13.2895   20.4408 N   0  0  0  0  0  0
  -26.2928  -12.9277   20.3186 N   0  0  0  0  0  0
  -25.9270  -11.6447   20.5620 N   0  0  0  0  0  0
  -22.0470  -12.8183   22.0454 N   0  0  0  0  0  0
  -25.4307  -15.1849   20.3998 N   0  0  0  0  0  0
  -31.8689  -14.5851   20.1712 O   0  0  0  0  0  0
  -21.6654   -6.8871   21.4224 O   0  0  0  0  0  0
  -22.3498  -14.5470   20.6690 O   0  0  0  0  0  0
  -24.6126  -31.8701   23.2138 C   0  0  0  0  0  0
  -25.9034  -32.4827   23.8428 C   0  0  1  0  0  0
  -27.2300  -27.4515   20.0799 C   0  0  0  0  0  0
  -25.5938  -33.8630   24.2339 N   0  0  0  0  0  0
  -23.4007  -30.4951   21.5529 C   0  0  2  0  0  0
  -24.8491  -28.9602   20.1220 C   0  0  0  0  0  0
  -22.7400  -29.4642   22.4976 C   0  0  0  0  0  0
  -18.0271  -28.1360   22.8456 C   0  0  0  0  0  0
  -24.1465  -36.7281   23.2634 C   0  0  0  0  0  0
  -25.9324  -30.8312   21.3762 C   0  0  0  0  0  0
  -26.0073  -29.4649   20.7291 C   0  0  0  0  0  0
  -27.2047  -28.7117   20.7183 C   0  0  0  0  0  0
  -26.0597  -26.9569   19.4761 C   0  0  0  0  0  0
  -24.8666  -27.7016   19.4971 C   0  0  0  0  0  0
  -23.6133  -29.8309   20.1662 C   0  0  0  0  0  0
  -25.4079  -36.3102   24.0354 C   0  0  1  0  0  0
  -20.5864  -28.3645   23.1321 C   0  0  2  0  0  0
  -20.6729  -26.9363   22.5457 C   0  0  0  0  0  0
  -19.5761  -26.6354   21.5206 C   0  0  0  0  0  0
  -18.1916  -26.7927   22.1539 C   0  0  0  0  0  0
  -19.1512  -28.8814   23.2894 C   0  0  0  0  0  0
  -18.9450  -30.1403   23.8920 C   0  0  0  0  0  0
  -17.6453  -30.6570   24.0547 C   0  0  0  0  0  0
  -25.9056  -34.9492   23.5141 C   0  0  0  0  0  0
  -16.5342  -29.9066   23.6309 C   0  0  0  0  0  0
  -16.7262  -28.6489   23.0334 C   0  0  0  0  0  0
  -26.4451  -31.6600   25.0759 C   0  0  0  0  0  0
  -25.3711  -31.3804   26.1534 C   0  0  0  0  0  0
  -27.0224  -30.2996   24.6181 C   0  0  0  0  0  0
  -27.6070  -32.4287   25.7494 C   0  0  0  0  0  0
  -27.5616  -37.1723   24.8394 C   0  0  0  0  0  0
  -21.4134  -29.3002   22.3705 N   0  0  0  0  0  0
  -26.4215  -37.3840   23.9527 N   0  0  0  0  0  0
  -24.6661  -31.0812   22.1044 N   0  0  0  0  0  0
  -23.4190  -28.8181   23.3001 O   0  0  0  0  0  0
  -28.3671  -26.6989   19.9319 O   0  0  0  0  0  0
  -26.5584  -34.8963   22.4681 O   0  0  0  0  0  0
  -23.5322  -32.1428   23.7537 O   0  0  0  0  0  0
  -27.5686  -19.1180   18.0173 C   0  0  0  0  0  0
  -28.2230  -17.8955   18.2772 C   0  0  0  0  0  0
  -27.9570  -20.2888   18.6989 C   0  0  0  0  0  0
  -29.6334  -19.0126   19.9161 C   0  0  0  0  0  0
  -29.2479  -17.8332   19.2466 C   0  0  0  0  0  0
  -29.0066  -20.2489   19.6496 C   0  0  0  0  0  0
  -30.0194  -16.5988   19.4489 C   0  0  0  0  0  0
  -29.7909  -15.6535   20.3897 C   0  0  0  0  0  0
  -29.1727  -23.6975   20.8569 C   0  0  0  0  0  0
  -29.8908  -25.0479   20.7176 C   0  0  0  0  0  0
  -29.4079  -22.6375   19.7713 C   0  0  0  0  0  0
  -29.0467  -26.2836   21.1038 C   0  0  0  0  0  0
  -28.4580  -23.4524   21.8370 O   0  0  0  0  0  0
  -29.4340  -21.3380   20.3772 O   0  0  0  0  0  0
  -31.4625  -12.3256   19.1883 H   0  0  0  0  0  0
  -30.2557  -11.2730   19.8644 H   0  0  0  0  0  0
  -29.7647  -11.7599   17.4424 H   0  0  0  0  0  0
  -29.6892  -13.4715   17.7859 H   0  0  0  0  0  0
  -27.8295  -11.2983   18.8137 H   0  0  0  0  0  0
  -27.3827  -12.6164   17.7649 H   0  0  0  0  0  0
  -27.6714  -14.2386   19.5152 H   0  0  0  0  0  0
  -28.6393  -12.0163   21.3895 H   0  0  0  0  0  0
  -28.4501  -13.6911   21.8196 H   0  0  0  0  0  0
  -25.2767   -9.5731   22.4676 H   0  0  0  0  0  0
  -24.0059   -7.4614   22.7426 H   0  0  0  0  0  0
  -21.0847   -8.8714   19.8919 H   0  0  0  0  0  0
  -22.3650  -10.9635   19.6108 H   0  0  0  0  0  0
  -21.1939   -7.6123   23.9666 H   0  0  0  0  0  0
  -21.1478   -6.0544   25.9074 H   0  0  0  0  0  0
  -22.0592   -2.7595   23.2868 H   0  0  0  0  0  0
  -22.4111  -11.9888   22.4915 H   0  0  0  0  0  0
  -21.1062  -13.1172   22.2568 H   0  0  0  0  0  0
  -24.6715  -15.8506   20.5056 H   0  0  0  0  0  0
  -26.2955  -15.6171   20.0996 H   0  0  0  0  0  0
  -26.7126  -32.5527   23.1219 H   0  0  0  0  0  0
  -25.0124  -33.9798   25.0508 H   0  0  0  0  0  0
  -22.6883  -31.3127   21.4172 H   0  0  0  0  0  0
  -23.3838  -35.9494   23.3112 H   0  0  0  0  0  0
  -24.3604  -36.9073   22.2095 H   0  0  0  0  0  0
  -23.7067  -37.6382   23.6732 H   0  0  0  0  0  0
  -26.0568  -31.5992   20.6116 H   0  0  0  0  0  0
  -26.8169  -30.8744   22.0011 H   0  0  0  0  0  0
  -28.1052  -29.1071   21.1648 H   0  0  0  0  0  0
  -26.0779  -25.9985   18.9776 H   0  0  0  0  0  0
  -23.9799  -27.3121   19.0140 H   0  0  0  0  0  0
  -23.7266  -30.6088   19.4093 H   0  0  0  0  0  0
  -22.7380  -29.2530   19.8664 H   0  0  0  0  0  0
  -25.1224  -36.1926   25.0836 H   0  0  0  0  0  0
  -20.9954  -28.3224   24.1443 H   0  0  0  0  0  0
  -20.5535  -26.2282   23.3662 H   0  0  0  0  0  0
  -21.6621  -26.7328   22.1342 H   0  0  0  0  0  0
  -19.6921  -25.6256   21.1247 H   0  0  0  0  0  0
  -19.6784  -27.3139   20.6719 H   0  0  0  0  0  0
  -17.4238  -26.6762   21.3868 H   0  0  0  0  0  0
  -18.0219  -26.0020   22.8874 H   0  0  0  0  0  0
  -19.7939  -30.7167   24.2339 H   0  0  0  0  0  0
  -17.5040  -31.6242   24.5161 H   0  0  0  0  0  0
  -15.5339  -30.2980   23.7649 H   0  0  0  0  0  0
  -15.8662  -28.0817   22.7027 H   0  0  0  0  0  0
  -24.5942  -30.7025   25.7969 H   0  0  0  0  0  0
  -24.8817  -32.2989   26.4796 H   0  0  0  0  0  0
  -25.8091  -30.9196   27.0399 H   0  0  0  0  0  0
  -26.2766  -29.6828   24.1148 H   0  0  0  0  0  0
  -27.3830  -29.7179   25.4679 H   0  0  0  0  0  0
  -27.8694  -30.4222   23.9423 H   0  0  0  0  0  0
  -27.2731  -33.3604   26.2071 H   0  0  0  0  0  0
  -28.3895  -32.6797   25.0319 H   0  0  0  0  0  0
  -28.0721  -31.8393   26.5410 H   0  0  0  0  0  0
  -28.2429  -38.0216   24.7799 H   0  0  0  0  0  0
  -28.1298  -36.2812   24.5689 H   0  0  0  0  0  0
  -27.2457  -37.0763   25.8793 H   0  0  0  0  0  0
  -20.9284  -29.8740   21.6947 H   0  0  0  0  0  0
  -26.0087  -38.2852   24.1797 H   0  0  0  0  0  0
  -26.7680  -19.1578   17.2888 H   0  0  0  0  0  0
  -27.9294  -17.0076   17.7344 H   0  0  0  0  0  0
  -27.4151  -21.1997   18.4872 H   0  0  0  0  0  0
  -30.4414  -18.9707   20.6319 H   0  0  0  0  0  0
  -30.8424  -16.4699   18.7551 H   0  0  0  0  0  0
  -28.9708  -15.7671   21.0831 H   0  0  0  0  0  0
  -30.2660  -25.1602   19.6991 H   0  0  0  0  0  0
  -30.7674  -25.0002   21.3616 H   0  0  0  0  0  0
  -30.3684  -22.8176   19.2872 H   0  0  0  0  0  0
  -28.6414  -22.7432   19.0077 H   0  0  0  0  0  0
  -29.6994  -27.0889   21.4436 H   0  0  0  0  0  0
  -28.3518  -26.0666   21.9173 H   0  0  0  0  0  0
  1 25  1  0  0  0
  1 30  2  0  0  0
  1 78  1  0  0  0
  2  3  1  0  0  0
  2 25  1  0  0  0
  2 85  1  0  0  0
  2 86  1  0  0  0
  3  4  1  0  0  0
  3 87  1  0  0  0
  3 88  1  0  0  0
  4  5  1  0  0  0
  4 89  1  0  0  0
  4 90  1  0  0  0
  5  6  1  0  0  0
  5 26  1  0  0  0
  5 91  1  0  0  0
  6 25  1  0  0  0
  6 92  1  0  0  0
  6 93  1  0  0  0
  7  8  2  0  0  0
  7 26  1  0  0  0
  7 29  1  0  0  0
  8  9  1  0  0  0
  8 22  1  0  0  0
  9 10  1  0  0  0
  9 27  2  0  0  0
 10 11  2  0  0  0
 10 15  1  0  0  0
 11 12  1  0  0  0
 11 94  1  0  0  0
 12 13  2  0  0  0
 12 95  1  0  0  0
 13 14  1  0  0  0
 13 31  1  0  0  0
 14 15  2  0  0  0
 14 96  1  0  0  0
 15 97  1  0  0  0
 16 17  2  0  0  0
 16 21  1  0  0  0
 16 31  1  0  0  0
 17 18  1  0  0  0
 17 98  1  0  0  0
 18 19  2  0  0  0
 18 99  1  0  0  0
 19 20  1  0  0  0
 19 24  1  0  0  0
 20 21  2  0  0  0
 20100  1  0  0  0
 21 23  1  0  0  0
 22 28  1  0  0  0
 22 32  2  0  0  0
 26 27  1  0  0  0
 28101  1  0  0  0
 28102  1  0  0  0
 29103  1  0  0  0
 29104  1  0  0  0
 33 34  1  0  0  0
 33 66  1  0  0  0
 33 70  2  0  0  0
 34 36  1  0  0  0
 34 59  1  0  0  0
 34105  1  0  0  0
 35 44  2  0  0  0
 35 45  1  0  0  0
 35 68  1  0  0  0
 36 56  1  0  0  0
 36106  1  0  0  0
 37 39  1  0  0  0
 37 47  1  0  0  0
 37 66  1  0  0  0
 37107  1  0  0  0
 38 43  2  0  0  0
 38 46  1  0  0  0
 38 47  1  0  0  0
 39 64  1  0  0  0
 39 67  2  0  0  0
 40 52  1  0  0  0
 40 53  2  0  0  0
 40 58  1  0  0  0
 41108  1  0  0  0
 41109  1  0  0  0
 41110  1  0  0  0
 41 48  1  0  0  0
 42 43  1  0  0  0
 42 66  1  0  0  0
 42111  1  0  0  0
 42112  1  0  0  0
 43 44  1  0  0  0
 44113  1  0  0  0
 45 46  2  0  0  0
 45114  1  0  0  0
 46115  1  0  0  0
 47116  1  0  0  0
 47117  1  0  0  0
 48 56  1  0  0  0
 48 65  1  0  0  0
 48118  1  0  0  0
 49 50  1  0  0  0
 49 53  1  0  0  0
 49 64  1  0  0  0
 49119  1  0  0  0
 50 51  1  0  0  0
 50120  1  0  0  0
 50121  1  0  0  0
 51 52  1  0  0  0
 51122  1  0  0  0
 51123  1  0  0  0
 52124  1  0  0  0
 52125  1  0  0  0
 53 54  1  0  0  0
 54 55  2  0  0  0
 54126  1  0  0  0
 55 57  1  0  0  0
 55127  1  0  0  0
 56 69  2  0  0  0
 57 58  2  0  0  0
 57128  1  0  0  0
 58129  1  0  0  0
 59 60  1  0  0  0
 59 61  1  0  0  0
 59 62  1  0  0  0
 60130  1  0  0  0
 60131  1  0  0  0
 60132  1  0  0  0
 61133  1  0  0  0
 61134  1  0  0  0
 61135  1  0  0  0
 62136  1  0  0  0
 62137  1  0  0  0
 62138  1  0  0  0
 63 65  1  0  0  0
 63139  1  0  0  0
 63140  1  0  0  0
 63141  1  0  0  0
 64142  1  0  0  0
 65143  1  0  0  0
 68 82  1  0  0  0
 71 72  2  0  0  0
 71 73  1  0  0  0
 71144  1  0  0  0
 72 75  1  0  0  0
 72145  1  0  0  0
 73 76  2  0  0  0
 73146  1  0  0  0
 74 75  2  0  0  0
 74 76  1  0  0  0
 74147  1  0  0  0
 75 77  1  0  0  0
 76 84  1  0  0  0
 77 78  2  0  0  0
 77148  1  0  0  0
 78149  1  0  0  0
 79 80  1  0  0  0
 79 81  1  0  0  0
 79 83  2  0  0  0
 80 82  1  0  0  0
 80150  1  0  0  0
 80151  1  0  0  0
 81 84  1  0  0  0
 81152  1  0  0  0
 81153  1  0  0  0
 82154  1  0  0  0
 82155  1  0  0  0
M  ISO  4   1 100  68 101  78 100  82 101
M  END
> <chiral flag>
0

> <version>
0

> <s_m_source_file>
/data/baiqing/PycharmProjects/Reinvent-master-3.2/result/LINK_invent/BTK/process_docking_weight1_custom_product_contain_oxygen_bond_distance_aromatic_linkinvent_7_9_3/rearranged_h_0132.sdf

> <i_m_source_file_index>
85

> <r_mmod_Potential_Energy-OPLS-2005>
23.5131282806396

> <r_mmod_Stretch_Energy-OPLS-2005>
33.380298614502

> <r_mmod_Bend_Energy-OPLS-2005>
99.7655410766602

> <r_mmod_Torsional_Energy-OPLS-2005>
260.389129638672

> <r_mmod_Improper_Torsional_Energy-OPLS-2005>
9.50509643554688

> <r_mmod_Van_der_Waal_Energy-OPLS-2005>
147.071731567383

> <r_mmod_Electrostatic_Energy-OPLS-2005>
-331.540985107422

> <r_mmod_Solvation_Energy-OPLS-2005>
-217.302825927734

> <b_mmod_Minimization_Converged-OPLS-2005>
0

> <r_mmod_RMS_Derivative-OPLS-2005>
4.6069188117981

$$$$
85
                    3D
 Structure written by MMmdl.
171179  0  0  1  0            999 V2000
  -30.7574  -14.4027   20.5282 C   0  0  0  0  0  0
  -30.3907  -12.2462   19.4337 C   0  0  0  0  0  0
  -29.4924  -12.4778   18.2019 C   0  0  0  0  0  0
  -28.0068  -12.3615   18.6010 C   0  0  0  0  0  0
  -27.6489  -13.2137   19.8494 C   0  0  2  0  0  0
  -28.6840  -13.0332   20.9800 C   0  0  0  0  0  0
  -25.2559  -13.8192   20.5657 C   0  0  0  0  0  0
  -24.1836  -13.0452   20.9191 C   0  0  0  0  0  0
  -24.6395  -11.6917   20.8709 C   0  0  0  0  0  0
  -23.9076  -10.4285   21.0382 C   0  0  0  0  0  0
  -24.3630   -9.4198   21.9166 C   0  0  0  0  0  0
  -23.6309   -8.2227   22.0745 C   0  0  0  0  0  0
  -22.4283   -8.0280   21.3548 C   0  0  0  0  0  0
  -21.9899   -9.0255   20.4657 C   0  0  0  0  0  0
  -22.7239  -10.2130   20.3046 C   0  0  0  0  0  0
  -21.6849   -6.0749   22.5293 C   0  0  0  0  0  0
  -21.4014   -6.5632   23.8231 C   0  0  0  0  0  0
  -21.3664   -5.6771   24.9174 C   0  0  0  0  0  0
  -21.6031   -4.3033   24.7220 C   0  0  0  0  0  0
  -21.8819   -3.8141   23.4330 C   0  0  0  0  0  0
  -21.9196   -4.6978   22.3393 C   0  0  0  0  0  0
  -22.7850  -13.5248   21.1844 C   0  0  0  0  0  0
  -22.1657   -4.2158   21.0975 F   0  0  0  0  0  0
  -21.5633   -3.4524   25.7734 F   0  0  0  0  0  0
  -30.0220  -13.2667   20.4275 N   0  0  0  0  0  0
  -26.2958  -12.9368   20.3206 N   0  0  0  0  0  0
  -25.9306  -11.6524   20.5660 N   0  0  0  0  0  0
  -22.0460  -12.8275   22.0402 N   0  0  0  0  0  0
  -25.4278  -15.1913   20.4110 N   0  0  0  0  0  0
  -31.9422  -14.4304   20.1924 O   0  0  0  0  0  0
  -21.6633   -6.8890   21.4253 O   0  0  0  0  0  0
  -22.3529  -14.5535   20.6652 O   0  0  0  0  0  0
  -24.6074  -31.8731   23.2152 C   0  0  0  0  0  0
  -25.8988  -32.4846   23.8435 C   0  0  1  0  0  0
  -27.2405  -27.4894   20.0727 C   0  0  0  0  0  0
  -25.5875  -33.8654   24.2357 N   0  0  0  0  0  0
  -23.3934  -30.4970   21.5529 C   0  0  2  0  0  0
  -24.8405  -28.9691   20.1136 C   0  0  0  0  0  0
  -22.7379  -29.4693   22.5007 C   0  0  0  0  0  0
  -18.0270  -28.1391   22.8485 C   0  0  0  0  0  0
  -24.1489  -36.7320   23.2638 C   0  0  0  0  0  0
  -25.9185  -30.8482   21.3687 C   0  0  0  0  0  0
  -25.9957  -29.4877   20.7139 C   0  0  0  0  0  0
  -27.1920  -28.7468   20.7021 C   0  0  0  0  0  0
  -26.0692  -26.9687   19.4747 C   0  0  0  0  0  0
  -24.8697  -27.7053   19.4989 C   0  0  0  0  0  0
  -23.6004  -29.8300   20.1661 C   0  0  0  0  0  0
  -25.4110  -36.3136   24.0340 C   0  0  1  0  0  0
  -20.5855  -28.3687   23.1329 C   0  0  2  0  0  0
  -20.6752  -26.9421   22.5427 C   0  0  0  0  0  0
  -19.5742  -26.6409   21.5210 C   0  0  0  0  0  0
  -18.1920  -26.7947   22.1614 C   0  0  0  0  0  0
  -19.1510  -28.8852   23.2914 C   0  0  0  0  0  0
  -18.9437  -30.1451   23.8933 C   0  0  0  0  0  0
  -17.6440  -30.6600   24.0580 C   0  0  0  0  0  0
  -25.9025  -34.9489   23.5157 C   0  0  0  0  0  0
  -16.5339  -29.9102   23.6324 C   0  0  0  0  0  0
  -16.7261  -28.6521   23.0344 C   0  0  0  0  0  0
  -26.4454  -31.6619   25.0752 C   0  0  0  0  0  0
  -25.3712  -31.3713   26.1494 C   0  0  0  0  0  0
  -27.0252  -30.3048   24.6117 C   0  0  0  0  0  0
  -27.6046  -32.4334   25.7482 C   0  0  0  0  0  0
  -27.5590  -37.1826   24.8462 C   0  0  0  0  0  0
  -21.4103  -29.3063   22.3738 N   0  0  0  0  0  0
  -26.4303  -37.3803   23.9404 N   0  0  0  0  0  0
  -24.6568  -31.0864   22.1054 N   0  0  0  0  0  0
  -23.4161  -28.8238   23.3032 O   0  0  0  0  0  0
  -28.4284  -26.8070   20.0884 O   0  0  0  0  0  0
  -26.5587  -34.8925   22.4712 O   0  0  0  0  0  0
  -23.5270  -32.1474   23.7569 O   0  0  0  0  0  0
  -31.3341  -19.1053   21.3800 C   0  0  0  0  0  0
  -31.3432  -20.4333   20.9271 C   0  0  0  0  0  0
  -29.5012  -18.5883   19.8640 C   0  0  0  0  0  0
  -30.4717  -18.1586   20.7946 C   0  0  0  0  0  0
  -29.5351  -19.9152   19.3739 C   0  0  0  0  0  0
  -30.4980  -20.8307   19.8634 C   0  0  0  0  0  0
  -30.7838  -16.7427   20.9920 C   0  0  0  0  0  0
  -30.0369  -15.6583   20.6953 C   0  0  0  0  0  0
  -28.5690  -20.7848   15.6911 C   0  0  0  0  0  0
  -32.5261  -23.1684   17.1001 C   0  0  0  0  0  0
  -28.6199  -20.3226   18.2271 C   0  0  0  0  0  0
  -29.3249  -20.1583   16.8690 C   0  0  0  0  0  0
  -30.1677  -25.5101   19.1800 C   0  0  0  0  0  0
  -30.6858  -24.6678   18.0053 C   0  0  0  0  0  0
  -28.8008  -26.1324   18.9003 C   0  0  0  0  0  0
  -31.7482  -22.8579   19.4922 C   0  0  0  0  0  0
  -31.9577  -23.8670   18.3440 C   0  0  1  0  0  0
  -30.5962  -22.0548   19.2400 O   0  0  0  0  0  0
  -31.4424  -12.2808   19.1460 H   0  0  0  0  0  0
  -30.2353  -11.2455   19.8411 H   0  0  0  0  0  0
  -29.7221  -11.7433   17.4296 H   0  0  0  0  0  0
  -29.6950  -13.4563   17.7624 H   0  0  0  0  0  0
  -27.8017  -11.3089   18.7994 H   0  0  0  0  0  0
  -27.3681  -12.6425   17.7607 H   0  0  0  0  0  0
  -27.6771  -14.2531   19.5276 H   0  0  0  0  0  0
  -28.6252  -12.0223   21.3826 H   0  0  0  0  0  0
  -28.4732  -13.7008   21.8149 H   0  0  0  0  0  0
  -25.2788   -9.5662   22.4733 H   0  0  0  0  0  0
  -24.0022   -7.4595   22.7452 H   0  0  0  0  0  0
  -21.0824   -8.8806   19.8960 H   0  0  0  0  0  0
  -22.3727  -10.9676   19.6145 H   0  0  0  0  0  0
  -21.1995   -7.6137   23.9735 H   0  0  0  0  0  0
  -21.1483   -6.0491   25.9082 H   0  0  0  0  0  0
  -22.0599   -2.7613   23.2823 H   0  0  0  0  0  0
  -22.4075  -11.9980   22.4856 H   0  0  0  0  0  0
  -21.1058  -13.1316   22.2543 H   0  0  0  0  0  0
  -24.6681  -15.8524   20.5363 H   0  0  0  0  0  0
  -26.2883  -15.6276   20.1045 H   0  0  0  0  0  0
  -26.7068  -32.5569   23.1203 H   0  0  0  0  0  0
  -25.0008  -33.9832   25.0494 H   0  0  0  0  0  0
  -22.6809  -31.3136   21.4169 H   0  0  0  0  0  0
  -23.3753  -35.9647   23.3300 H   0  0  0  0  0  0
  -24.3585  -36.8932   22.2052 H   0  0  0  0  0  0
  -23.7233  -37.6523   23.6650 H   0  0  0  0  0  0
  -26.0344  -31.6224   20.6095 H   0  0  0  0  0  0
  -26.8050  -30.8931   21.9885 H   0  0  0  0  0  0
  -28.0872  -29.1450   21.1611 H   0  0  0  0  0  0
  -26.0668  -26.0003   18.9993 H   0  0  0  0  0  0
  -23.9804  -27.2989   19.0366 H   0  0  0  0  0  0
  -23.7075  -30.6075   19.4088 H   0  0  0  0  0  0
  -22.7266  -29.2460   19.8687 H   0  0  0  0  0  0
  -25.1284  -36.2010   25.0829 H   0  0  0  0  0  0
  -20.9955  -28.3257   24.1446 H   0  0  0  0  0  0
  -20.5659  -26.2287   23.3606 H   0  0  0  0  0  0
  -21.6626  -26.7473   22.1223 H   0  0  0  0  0  0
  -19.6898  -25.6324   21.1232 H   0  0  0  0  0  0
  -19.6687  -27.3222   20.6738 H   0  0  0  0  0  0
  -17.4192  -26.6721   21.4010 H   0  0  0  0  0  0
  -18.0317  -26.0086   22.9005 H   0  0  0  0  0  0
  -19.7907  -30.7265   24.2321 H   0  0  0  0  0  0
  -17.4995  -31.6275   24.5197 H   0  0  0  0  0  0
  -15.5338  -30.3020   23.7629 H   0  0  0  0  0  0
  -15.8664  -28.0860   22.7033 H   0  0  0  0  0  0
  -24.5883  -30.7083   25.7809 H   0  0  0  0  0  0
  -24.8902  -32.2861   26.4972 H   0  0  0  0  0  0
  -25.8056  -30.8845   27.0233 H   0  0  0  0  0  0
  -26.2788  -29.6859   24.1130 H   0  0  0  0  0  0
  -27.3954  -29.7258   25.4591 H   0  0  0  0  0  0
  -27.8670  -30.4350   23.9304 H   0  0  0  0  0  0
  -27.2699  -33.3645   26.2067 H   0  0  0  0  0  0
  -28.3834  -32.6883   25.0279 H   0  0  0  0  0  0
  -28.0739  -31.8451   26.5378 H   0  0  0  0  0  0
  -28.2617  -38.0117   24.7502 H   0  0  0  0  0  0
  -28.1088  -36.2653   24.6295 H   0  0  0  0  0  0
  -27.2314  -37.1474   25.8868 H   0  0  0  0  0  0
  -20.9261  -29.8735   21.6924 H   0  0  0  0  0  0
  -26.0203  -38.2888   24.1388 H   0  0  0  0  0  0
  -32.0722  -18.7959   22.1073 H   0  0  0  0  0  0
  -32.0723  -21.1034   21.3582 H   0  0  0  0  0  0
  -28.8228  -17.8750   19.4163 H   0  0  0  0  0  0
  -31.8077  -16.5808   21.3011 H   0  0  0  0  0  0
  -28.9858  -15.7468   20.4754 H   0  0  0  0  0  0
  -29.0879  -20.5768   14.7541 H   0  0  0  0  0  0
  -28.4967  -21.8699   15.7939 H   0  0  0  0  0  0
  -27.5567  -20.3894   15.6100 H   0  0  0  0  0  0
  -32.6841  -23.8794   16.2894 H   0  0  0  0  0  0
  -31.8552  -22.3900   16.7412 H   0  0  0  0  0  0
  -33.4878  -22.7027   17.3195 H   0  0  0  0  0  0
  -28.3111  -21.3594   18.3714 H   0  0  0  0  0  0
  -27.7066  -19.7252   18.2534 H   0  0  0  0  0  0
  -30.3079  -20.6247   16.9193 H   0  0  0  0  0  0
  -29.4995  -19.0989   16.6783 H   0  0  0  0  0  0
  -30.8928  -26.2894   19.4207 H   0  0  0  0  0  0
  -30.0642  -24.8928   20.0713 H   0  0  0  0  0  0
  -30.8836  -25.3306   17.1614 H   0  0  0  0  0  0
  -29.9012  -23.9868   17.6719 H   0  0  0  0  0  0
  -28.0918  -25.3462   18.6404 H   0  0  0  0  0  0
  -28.8624  -26.8341   18.0677 H   0  0  0  0  0  0
  -31.6217  -23.3672   20.4487 H   0  0  0  0  0  0
  -32.6535  -22.2591   19.5793 H   0  0  0  0  0  0
  -32.7203  -24.5735   18.6714 H   0  0  0  0  0  0
  1 25  1  0  0  0
  1 30  2  0  0  0
  1 78  1  0  0  0
  2  3  1  0  0  0
  2 25  1  0  0  0
  2 89  1  0  0  0
  2 90  1  0  0  0
  3  4  1  0  0  0
  3 91  1  0  0  0
  3 92  1  0  0  0
  4  5  1  0  0  0
  4 93  1  0  0  0
  4 94  1  0  0  0
  5  6  1  0  0  0
  5 26  1  0  0  0
  5 95  1  0  0  0
  6 25  1  0  0  0
  6 96  1  0  0  0
  6 97  1  0  0  0
  7  8  2  0  0  0
  7 26  1  0  0  0
  7 29  1  0  0  0
  8  9  1  0  0  0
  8 22  1  0  0  0
  9 10  1  0  0  0
  9 27  2  0  0  0
 10 11  2  0  0  0
 10 15  1  0  0  0
 11 12  1  0  0  0
 11 98  1  0  0  0
 12 13  2  0  0  0
 12 99  1  0  0  0
 13 14  1  0  0  0
 13 31  1  0  0  0
 14 15  2  0  0  0
 14100  1  0  0  0
 15101  1  0  0  0
 16 17  2  0  0  0
 16 21  1  0  0  0
 16 31  1  0  0  0
 17 18  1  0  0  0
 17102  1  0  0  0
 18 19  2  0  0  0
 18103  1  0  0  0
 19 20  1  0  0  0
 19 24  1  0  0  0
 20 21  2  0  0  0
 20104  1  0  0  0
 21 23  1  0  0  0
 22 28  1  0  0  0
 22 32  2  0  0  0
 26 27  1  0  0  0
 28105  1  0  0  0
 28106  1  0  0  0
 29107  1  0  0  0
 29108  1  0  0  0
 33 34  1  0  0  0
 33 66  1  0  0  0
 33 70  2  0  0  0
 34 36  1  0  0  0
 34 59  1  0  0  0
 34109  1  0  0  0
 35 44  2  0  0  0
 35 45  1  0  0  0
 35 68  1  0  0  0
 36 56  1  0  0  0
 36110  1  0  0  0
 37 39  1  0  0  0
 37 47  1  0  0  0
 37 66  1  0  0  0
 37111  1  0  0  0
 38 43  2  0  0  0
 38 46  1  0  0  0
 38 47  1  0  0  0
 39 64  1  0  0  0
 39 67  2  0  0  0
 40 52  1  0  0  0
 40 53  2  0  0  0
 40 58  1  0  0  0
 41112  1  0  0  0
 41113  1  0  0  0
 41114  1  0  0  0
 41 48  1  0  0  0
 42 43  1  0  0  0
 42 66  1  0  0  0
 42115  1  0  0  0
 42116  1  0  0  0
 43 44  1  0  0  0
 44117  1  0  0  0
 45 46  2  0  0  0
 45118  1  0  0  0
 46119  1  0  0  0
 47120  1  0  0  0
 47121  1  0  0  0
 48 56  1  0  0  0
 48 65  1  0  0  0
 48122  1  0  0  0
 49 50  1  0  0  0
 49 53  1  0  0  0
 49 64  1  0  0  0
 49123  1  0  0  0
 50 51  1  0  0  0
 50124  1  0  0  0
 50125  1  0  0  0
 51 52  1  0  0  0
 51126  1  0  0  0
 51127  1  0  0  0
 52128  1  0  0  0
 52129  1  0  0  0
 53 54  1  0  0  0
 54 55  2  0  0  0
 54130  1  0  0  0
 55 57  1  0  0  0
 55131  1  0  0  0
 56 69  2  0  0  0
 57 58  2  0  0  0
 57132  1  0  0  0
 58133  1  0  0  0
 59 60  1  0  0  0
 59 61  1  0  0  0
 59 62  1  0  0  0
 60134  1  0  0  0
 60135  1  0  0  0
 60136  1  0  0  0
 61137  1  0  0  0
 61138  1  0  0  0
 61139  1  0  0  0
 62140  1  0  0  0
 62141  1  0  0  0
 62142  1  0  0  0
 63 65  1  0  0  0
 63143  1  0  0  0
 63144  1  0  0  0
 63145  1  0  0  0
 64146  1  0  0  0
 65147  1  0  0  0
 68 85  1  0  0  0
 71 72  2  0  0  0
 71 74  1  0  0  0
 71148  1  0  0  0
 72 76  1  0  0  0
 72149  1  0  0  0
 73 74  2  0  0  0
 73 75  1  0  0  0
 73150  1  0  0  0
 74 77  1  0  0  0
 75 76  2  0  0  0
 75 81  1  0  0  0
 76 88  1  0  0  0
 77 78  2  0  0  0
 77151  1  0  0  0
 78152  1  0  0  0
 79 82  1  0  0  0
 79153  1  0  0  0
 79154  1  0  0  0
 79155  1  0  0  0
 80156  1  0  0  0
 80157  1  0  0  0
 80158  1  0  0  0
 80 87  1  0  0  0
 81 82  1  0  0  0
 81159  1  0  0  0
 81160  1  0  0  0
 82161  1  0  0  0
 82162  1  0  0  0
 83 84  1  0  0  0
 83 85  1  0  0  0
 83163  1  0  0  0
 83164  1  0  0  0
 84 87  1  0  0  0
 84165  1  0  0  0
 84166  1  0  0  0
 85167  1  0  0  0
 85168  1  0  0  0
 86 87  1  0  0  0
 86 88  1  0  0  0
 86169  1  0  0  0
 86170  1  0  0  0
 87171  1  0  0  0
M  ISO  4   1 100  68 101  78 100  85 101
M  END
> <chiral flag>
0

> <version>
0

> <s_m_source_file>
/data/baiqing/PycharmProjects/Reinvent-master-3.2/result/LINK_invent/BTK/process_docking_weight1_custom_product_contain_oxygen_bond_distance_aromatic_linkinvent_7_9_3/rearranged_h_0132.sdf

> <i_m_source_file_index>
86

> <r_mmod_Potential_Energy-OPLS-2005>
44.6650276184082

> <r_mmod_Stretch_Energy-OPLS-2005>
31.509313583374

> <r_mmod_Bend_Energy-OPLS-2005>
107.277572631836

> <r_mmod_Torsional_Energy-OPLS-2005>
237.85041809082

> <r_mmod_Improper_Torsional_Energy-OPLS-2005>
14.8374633789062

> <r_mmod_Van_der_Waal_Energy-OPLS-2005>
163.337112426758

> <r_mmod_Electrostatic_Energy-OPLS-2005>
-341.581604003906

> <r_mmod_Solvation_Energy-OPLS-2005>
-190.135269165039

> <b_mmod_Minimization_Converged-OPLS-2005>
0

> <r_mmod_RMS_Derivative-OPLS-2005>
4.00778198242188

$$$$
86
                    3D
 Structure written by MMmdl.
160168  0  0  1  0            999 V2000
  -30.6839  -14.5815   20.5721 C   0  0  0  0  0  0
  -30.4087  -12.3599   19.4717 C   0  0  0  0  0  0
  -29.5019  -12.5113   18.2335 C   0  0  0  0  0  0
  -28.0223  -12.3547   18.6310 C   0  0  0  0  0  0
  -27.6466  -13.2215   19.8640 C   0  0  2  0  0  0
  -28.6799  -13.0644   21.0022 C   0  0  0  0  0  0
  -25.2505  -13.8212   20.5707 C   0  0  0  0  0  0
  -24.1789  -13.0462   20.9193 C   0  0  0  0  0  0
  -24.6354  -11.6921   20.8723 C   0  0  0  0  0  0
  -23.9029  -10.4299   21.0364 C   0  0  0  0  0  0
  -24.3589   -9.4215   21.9136 C   0  0  0  0  0  0
  -23.6281   -8.2243   22.0708 C   0  0  0  0  0  0
  -22.4262   -8.0265   21.3523 C   0  0  0  0  0  0
  -21.9889   -9.0230   20.4624 C   0  0  0  0  0  0
  -22.7201  -10.2113   20.3028 C   0  0  0  0  0  0
  -21.6846   -6.0721   22.5278 C   0  0  0  0  0  0
  -21.4014   -6.5622   23.8217 C   0  0  0  0  0  0
  -21.3669   -5.6769   24.9183 C   0  0  0  0  0  0
  -21.6053   -4.3034   24.7219 C   0  0  0  0  0  0
  -21.8814   -3.8128   23.4336 C   0  0  0  0  0  0
  -21.9188   -4.6950   22.3403 C   0  0  0  0  0  0
  -22.7795  -13.5201   21.1867 C   0  0  0  0  0  0
  -22.1645   -4.2138   21.0980 F   0  0  0  0  0  0
  -21.5630   -3.4519   25.7725 F   0  0  0  0  0  0
  -30.0116  -13.3872   20.4621 N   0  0  0  0  0  0
  -26.2915  -12.9392   20.3280 N   0  0  0  0  0  0
  -25.9278  -11.6538   20.5722 N   0  0  0  0  0  0
  -22.0453  -12.8217   22.0440 N   0  0  0  0  0  0
  -25.4306  -15.1949   20.4190 N   0  0  0  0  0  0
  -31.7562  -14.7459   19.9847 O   0  0  0  0  0  0
  -21.6627   -6.8864   21.4237 O   0  0  0  0  0  0
  -22.3463  -14.5488   20.6679 O   0  0  0  0  0  0
  -24.6231  -31.8606   23.2055 C   0  0  0  0  0  0
  -25.9104  -32.4773   23.8343 C   0  0  1  0  0  0
  -27.2203  -27.3250   20.1242 C   0  0  0  0  0  0
  -25.5928  -33.8573   24.2269 N   0  0  0  0  0  0
  -23.4128  -30.4867   21.5481 C   0  0  2  0  0  0
  -24.8558  -28.9392   20.1093 C   0  0  0  0  0  0
  -22.7432  -29.4653   22.4948 C   0  0  0  0  0  0
  -18.0274  -28.1373   22.8505 C   0  0  0  0  0  0
  -24.1488  -36.7286   23.2648 C   0  0  0  0  0  0
  -25.9517  -30.7923   21.3743 C   0  0  0  0  0  0
  -26.0211  -29.4207   20.7166 C   0  0  0  0  0  0
  -27.2007  -28.6242   20.7166 C   0  0  0  0  0  0
  -26.0333  -26.8922   19.4865 C   0  0  0  0  0  0
  -24.8642  -27.6792   19.4881 C   0  0  0  0  0  0
  -23.6229  -29.8218   20.1609 C   0  0  0  0  0  0
  -25.4123  -36.3087   24.0322 C   0  0  1  0  0  0
  -20.5880  -28.3683   23.1297 C   0  0  2  0  0  0
  -20.6768  -26.9407   22.5423 C   0  0  0  0  0  0
  -19.5742  -26.6378   21.5228 C   0  0  0  0  0  0
  -18.1919  -26.7921   22.1636 C   0  0  0  0  0  0
  -19.1531  -28.8847   23.2893 C   0  0  0  0  0  0
  -18.9451  -30.1456   23.8896 C   0  0  0  0  0  0
  -17.6450  -30.6583   24.0577 C   0  0  0  0  0  0
  -25.9058  -34.9452   23.5107 C   0  0  0  0  0  0
  -16.5345  -29.9082   23.6336 C   0  0  0  0  0  0
  -16.7264  -28.6498   23.0365 C   0  0  0  0  0  0
  -26.4487  -31.6596   25.0717 C   0  0  0  0  0  0
  -25.3732  -31.3733   26.1452 C   0  0  0  0  0  0
  -27.0346  -30.3028   24.6184 C   0  0  0  0  0  0
  -27.6032  -32.4358   25.7481 C   0  0  0  0  0  0
  -27.5576  -37.1804   24.8460 C   0  0  0  0  0  0
  -21.4156  -29.3045   22.3685 N   0  0  0  0  0  0
  -26.4296  -37.3783   23.9409 N   0  0  0  0  0  0
  -24.6809  -31.0626   22.0998 N   0  0  0  0  0  0
  -23.4180  -28.8209   23.3013 O   0  0  0  0  0  0
  -28.3721  -26.5288   20.2048 O   0  0  0  0  0  0
  -26.5623  -34.8916   22.4669 O   0  0  0  0  0  0
  -23.5405  -32.1413   23.7398 O   0  0  0  0  0  0
  -29.6591  -19.9213   24.3817 C   0  0  0  0  0  0
  -29.4402  -20.3690   23.0681 C   0  0  0  0  0  0
  -30.1700  -17.7255   23.5069 C   0  0  0  0  0  0
  -29.9450  -18.1261   22.1628 C   0  0  0  0  0  0
  -30.0378  -18.5935   24.6015 C   0  0  0  0  0  0
  -29.5688  -19.5197   21.9316 C   0  0  0  0  0  0
  -30.7918  -22.6537   20.1076 C   0  0  0  0  0  0
  -30.1956  -17.0012   21.1674 C   0  0  0  0  0  0
  -30.1339  -15.6490   21.4417 C   0  0  0  0  0  0
  -29.5071  -22.7035   20.4975 C   0  0  0  0  0  0
  -30.3250  -18.0868   26.0013 C   0  0  0  0  0  0
  -28.8933  -24.0796   20.9343 C   0  0  0  0  0  0
  -28.6561  -21.3940   20.5305 C   0  0  0  0  0  0
  -28.4098  -25.1002   19.8227 C   0  0  0  0  0  0
  -29.3726  -20.1033   20.6699 O   0  0  0  0  0  0
  -31.4582  -12.4294   19.1864 H   0  0  0  0  0  0
  -30.2910  -11.3607   19.8971 H   0  0  0  0  0  0
  -29.7635  -11.7673   17.4809 H   0  0  0  0  0  0
  -29.6604  -13.4858   17.7695 H   0  0  0  0  0  0
  -27.8517  -11.3007   18.8549 H   0  0  0  0  0  0
  -27.3747  -12.5901   17.7851 H   0  0  0  0  0  0
  -27.6736  -14.2605   19.5346 H   0  0  0  0  0  0
  -28.6664  -12.0400   21.3777 H   0  0  0  0  0  0
  -28.4021  -13.6899   21.8495 H   0  0  0  0  0  0
  -25.2732   -9.5690   22.4707 H   0  0  0  0  0  0
  -24.0000   -7.4622   22.7398 H   0  0  0  0  0  0
  -21.0827   -8.8737   19.8931 H   0  0  0  0  0  0
  -22.3646  -10.9636   19.6134 H   0  0  0  0  0  0
  -21.2013   -7.6124   23.9728 H   0  0  0  0  0  0
  -21.1498   -6.0492   25.9089 H   0  0  0  0  0  0
  -22.0594   -2.7588   23.2839 H   0  0  0  0  0  0
  -22.4064  -11.9909   22.4894 H   0  0  0  0  0  0
  -21.1059  -13.1231   22.2616 H   0  0  0  0  0  0
  -24.6807  -15.8676   20.5391 H   0  0  0  0  0  0
  -26.3067  -15.6218   20.1423 H   0  0  0  0  0  0
  -26.7156  -32.5432   23.1058 H   0  0  0  0  0  0
  -25.0077  -33.9726   25.0420 H   0  0  0  0  0  0
  -22.7067  -31.3082   21.4137 H   0  0  0  0  0  0
  -23.3751  -35.9618   23.3321 H   0  0  0  0  0  0
  -24.3573  -36.8899   22.2060 H   0  0  0  0  0  0
  -23.7228  -37.6481   23.6670 H   0  0  0  0  0  0
  -26.0880  -31.5560   20.6065 H   0  0  0  0  0  0
  -26.8315  -30.8351   22.0050 H   0  0  0  0  0  0
  -28.0884  -28.9969   21.2081 H   0  0  0  0  0  0
  -25.9651  -25.9396   18.9848 H   0  0  0  0  0  0
  -23.9703  -27.3098   19.0047 H   0  0  0  0  0  0
  -23.7322  -30.6053   19.4085 H   0  0  0  0  0  0
  -22.7402  -29.2506   19.8659 H   0  0  0  0  0  0
  -25.1310  -36.1929   25.0809 H   0  0  0  0  0  0
  -20.9979  -28.3247   24.1415 H   0  0  0  0  0  0
  -20.5695  -26.2279   23.3613 H   0  0  0  0  0  0
  -21.6629  -26.7444   22.1206 H   0  0  0  0  0  0
  -19.6909  -25.6294   21.1241 H   0  0  0  0  0  0
  -19.6683  -27.3201   20.6773 H   0  0  0  0  0  0
  -17.4202  -26.6699   21.4023 H   0  0  0  0  0  0
  -18.0297  -26.0049   22.9013 H   0  0  0  0  0  0
  -19.7938  -30.7282   24.2238 H   0  0  0  0  0  0
  -17.5014  -31.6266   24.5174 H   0  0  0  0  0  0
  -15.5353  -30.2993   23.7652 H   0  0  0  0  0  0
  -15.8664  -28.0821   22.7076 H   0  0  0  0  0  0
  -24.5872  -30.7123   25.7781 H   0  0  0  0  0  0
  -24.8957  -32.2901   26.4923 H   0  0  0  0  0  0
  -25.8051  -30.8864   27.0203 H   0  0  0  0  0  0
  -26.2931  -29.6770   24.1203 H   0  0  0  0  0  0
  -27.4044  -29.7295   25.4691 H   0  0  0  0  0  0
  -27.8789  -30.4329   23.9414 H   0  0  0  0  0  0
  -27.2612  -33.3639   26.2074 H   0  0  0  0  0  0
  -28.3811  -32.6967   25.0300 H   0  0  0  0  0  0
  -28.0736  -31.8491   26.5378 H   0  0  0  0  0  0
  -28.2604  -38.0095   24.7510 H   0  0  0  0  0  0
  -28.1058  -36.2620   24.6288 H   0  0  0  0  0  0
  -27.2287  -37.1455   25.8862 H   0  0  0  0  0  0
  -20.9304  -29.8741   21.6892 H   0  0  0  0  0  0
  -26.0164  -38.2851   24.1419 H   0  0  0  0  0  0
  -29.5776  -20.6117   25.2113 H   0  0  0  0  0  0
  -29.2038  -21.4180   22.9691 H   0  0  0  0  0  0
  -30.5073  -16.7257   23.7358 H   0  0  0  0  0  0
  -31.4039  -23.5441   20.0819 H   0  0  0  0  0  0
  -31.2519  -21.7224   19.8059 H   0  0  0  0  0  0
  -30.5419  -17.3135   20.1915 H   0  0  0  0  0  0
  -29.7418  -15.3208   22.3924 H   0  0  0  0  0  0
  -30.7695  -18.8665   26.6206 H   0  0  0  0  0  0
  -31.0218  -17.2462   25.9692 H   0  0  0  0  0  0
  -29.4072  -17.7457   26.4822 H   0  0  0  0  0  0
  -29.6779  -24.5897   21.4925 H   0  0  0  0  0  0
  -28.1033  -23.9030   21.6667 H   0  0  0  0  0  0
  -28.1350  -21.3615   19.5754 H   0  0  0  0  0  0
  -27.8530  -21.4811   21.2635 H   0  0  0  0  0  0
  -27.4793  -24.7042   19.4285 H   0  0  0  0  0  0
  -29.1039  -25.0560   18.9822 H   0  0  0  0  0  0
  1 25  1  0  0  0
  1 30  2  0  0  0
  1 79  1  0  0  0
  2  3  1  0  0  0
  2 25  1  0  0  0
  2 86  1  0  0  0
  2 87  1  0  0  0
  3  4  1  0  0  0
  3 88  1  0  0  0
  3 89  1  0  0  0
  4  5  1  0  0  0
  4 90  1  0  0  0
  4 91  1  0  0  0
  5  6  1  0  0  0
  5 26  1  0  0  0
  5 92  1  0  0  0
  6 25  1  0  0  0
  6 93  1  0  0  0
  6 94  1  0  0  0
  7  8  2  0  0  0
  7 26  1  0  0  0
  7 29  1  0  0  0
  8  9  1  0  0  0
  8 22  1  0  0  0
  9 10  1  0  0  0
  9 27  2  0  0  0
 10 11  2  0  0  0
 10 15  1  0  0  0
 11 12  1  0  0  0
 11 95  1  0  0  0
 12 13  2  0  0  0
 12 96  1  0  0  0
 13 14  1  0  0  0
 13 31  1  0  0  0
 14 15  2  0  0  0
 14 97  1  0  0  0
 15 98  1  0  0  0
 16 17  2  0  0  0
 16 21  1  0  0  0
 16 31  1  0  0  0
 17 18  1  0  0  0
 17 99  1  0  0  0
 18 19  2  0  0  0
 18100  1  0  0  0
 19 20  1  0  0  0
 19 24  1  0  0  0
 20 21  2  0  0  0
 20101  1  0  0  0
 21 23  1  0  0  0
 22 28  1  0  0  0
 22 32  2  0  0  0
 26 27  1  0  0  0
 28102  1  0  0  0
 28103  1  0  0  0
 29104  1  0  0  0
 29105  1  0  0  0
 33 34  1  0  0  0
 33 66  1  0  0  0
 33 70  2  0  0  0
 34 36  1  0  0  0
 34 59  1  0  0  0
 34106  1  0  0  0
 35 44  2  0  0  0
 35 45  1  0  0  0
 35 68  1  0  0  0
 36 56  1  0  0  0
 36107  1  0  0  0
 37 39  1  0  0  0
 37 47  1  0  0  0
 37 66  1  0  0  0
 37108  1  0  0  0
 38 43  2  0  0  0
 38 46  1  0  0  0
 38 47  1  0  0  0
 39 64  1  0  0  0
 39 67  2  0  0  0
 40 52  1  0  0  0
 40 53  2  0  0  0
 40 58  1  0  0  0
 41109  1  0  0  0
 41110  1  0  0  0
 41111  1  0  0  0
 41 48  1  0  0  0
 42 43  1  0  0  0
 42 66  1  0  0  0
 42112  1  0  0  0
 42113  1  0  0  0
 43 44  1  0  0  0
 44114  1  0  0  0
 45 46  2  0  0  0
 45115  1  0  0  0
 46116  1  0  0  0
 47117  1  0  0  0
 47118  1  0  0  0
 48 56  1  0  0  0
 48 65  1  0  0  0
 48119  1  0  0  0
 49 50  1  0  0  0
 49 53  1  0  0  0
 49 64  1  0  0  0
 49120  1  0  0  0
 50 51  1  0  0  0
 50121  1  0  0  0
 50122  1  0  0  0
 51 52  1  0  0  0
 51123  1  0  0  0
 51124  1  0  0  0
 52125  1  0  0  0
 52126  1  0  0  0
 53 54  1  0  0  0
 54 55  2  0  0  0
 54127  1  0  0  0
 55 57  1  0  0  0
 55128  1  0  0  0
 56 69  2  0  0  0
 57 58  2  0  0  0
 57129  1  0  0  0
 58130  1  0  0  0
 59 60  1  0  0  0
 59 61  1  0  0  0
 59 62  1  0  0  0
 60131  1  0  0  0
 60132  1  0  0  0
 60133  1  0  0  0
 61134  1  0  0  0
 61135  1  0  0  0
 61136  1  0  0  0
 62137  1  0  0  0
 62138  1  0  0  0
 62139  1  0  0  0
 63 65  1  0  0  0
 63140  1  0  0  0
 63141  1  0  0  0
 63142  1  0  0  0
 64143  1  0  0  0
 65144  1  0  0  0
 68 84  1  0  0  0
 71 72  2  0  0  0
 71 75  1  0  0  0
 71145  1  0  0  0
 72 76  1  0  0  0
 72146  1  0  0  0
 73 74  1  0  0  0
 73 75  2  0  0  0
 73147  1  0  0  0
 74 76  2  0  0  0
 74 78  1  0  0  0
 75 81  1  0  0  0
 76 85  1  0  0  0
 77 80  2  0  0  0
 77148  1  0  0  0
 77149  1  0  0  0
 78 79  2  0  0  0
 78150  1  0  0  0
 79151  1  0  0  0
 80 82  1  0  0  0
 80 83  1  0  0  0
 81152  1  0  0  0
 81153  1  0  0  0
 81154  1  0  0  0
 82 84  1  0  0  0
 82155  1  0  0  0
 82156  1  0  0  0
 83 85  1  0  0  0
 83157  1  0  0  0
 83158  1  0  0  0
 84159  1  0  0  0
 84160  1  0  0  0
M  ISO  4   1 100  68 101  79 100  84 101
M  END
> <chiral flag>
0

> <version>
0

> <s_m_source_file>
/data/baiqing/PycharmProjects/Reinvent-master-3.2/result/LINK_invent/BTK/process_docking_weight1_custom_product_contain_oxygen_bond_distance_aromatic_linkinvent_7_9_3/rearranged_h_0132.sdf

> <i_m_source_file_index>
87

> <r_mmod_Potential_Energy-OPLS-2005>
124.810455322266

> <r_mmod_Stretch_Energy-OPLS-2005>
87.0293121337891

> <r_mmod_Bend_Energy-OPLS-2005>
163.532852172852

> <r_mmod_Torsional_Energy-OPLS-2005>
196.358932495117

> <r_mmod_Improper_Torsional_Energy-OPLS-2005>
4.4225025177002

> <r_mmod_Van_der_Waal_Energy-OPLS-2005>
160.118179321289

> <r_mmod_Electrostatic_Energy-OPLS-2005>
-330.167541503906

> <r_mmod_Solvation_Energy-OPLS-2005>
-193.821487426758

> <b_mmod_Minimization_Converged-OPLS-2005>
0

> <r_mmod_RMS_Derivative-OPLS-2005>
3.92451214790344

$$$$
87
                    3D
 Structure written by MMmdl.
178186  0  0  1  0            999 V2000
  -30.6686  -14.5558   20.6858 C   0  0  0  0  0  0
  -30.4165  -12.4038   19.4384 C   0  0  0  0  0  0
  -29.4912  -12.5800   18.2130 C   0  0  0  0  0  0
  -28.0126  -12.4242   18.6156 C   0  0  0  0  0  0
  -27.6573  -13.2277   19.8963 C   0  0  2  0  0  0
  -28.6928  -13.0081   21.0215 C   0  0  0  0  0  0
  -25.2557  -13.8189   20.5700 C   0  0  0  0  0  0
  -24.1815  -13.0412   20.9197 C   0  0  0  0  0  0
  -24.6426  -11.6926   20.8735 C   0  0  0  0  0  0
  -23.9113  -10.4311   21.0438 C   0  0  0  0  0  0
  -24.3677   -9.4226   21.9197 C   0  0  0  0  0  0
  -23.6342   -8.2270   22.0761 C   0  0  0  0  0  0
  -22.4326   -8.0308   21.3545 C   0  0  0  0  0  0
  -21.9984   -9.0286   20.4646 C   0  0  0  0  0  0
  -22.7309  -10.2174   20.3080 C   0  0  0  0  0  0
  -21.6864   -6.0785   22.5295 C   0  0  0  0  0  0
  -21.4022   -6.5683   23.8226 C   0  0  0  0  0  0
  -21.3658   -5.6821   24.9174 C   0  0  0  0  0  0
  -21.6046   -4.3085   24.7218 C   0  0  0  0  0  0
  -21.8820   -3.8188   23.4334 C   0  0  0  0  0  0
  -21.9205   -4.7020   22.3402 C   0  0  0  0  0  0
  -22.7861  -13.5216   21.1843 C   0  0  0  0  0  0
  -22.1674   -4.2216   21.0979 F   0  0  0  0  0  0
  -21.5643   -3.4562   25.7732 F   0  0  0  0  0  0
  -30.0101  -13.3700   20.4838 N   0  0  0  0  0  0
  -26.3021  -12.9380   20.3492 N   0  0  0  0  0  0
  -25.9356  -11.6507   20.5768 N   0  0  0  0  0  0
  -22.0565  -12.8143   22.0429 N   0  0  0  0  0  0
  -25.4199  -15.1873   20.4029 N   0  0  0  0  0  0
  -31.7164  -14.7760   20.0703 O   0  0  0  0  0  0
  -21.6650   -6.8930   21.4258 O   0  0  0  0  0  0
  -22.3535  -14.5526   20.6752 O   0  0  0  0  0  0
  -24.6193  -31.8521   23.2022 C   0  0  0  0  0  0
  -25.9059  -32.4726   23.8317 C   0  0  1  0  0  0
  -27.2319  -27.3466   20.0904 C   0  0  0  0  0  0
  -25.5884  -33.8539   24.2203 N   0  0  0  0  0  0
  -23.4193  -30.4677   21.5494 C   0  0  2  0  0  0
  -24.8647  -28.9334   20.1126 C   0  0  0  0  0  0
  -22.7473  -29.4502   22.4992 C   0  0  0  0  0  0
  -18.0241  -28.1409   22.8473 C   0  0  0  0  0  0
  -24.1480  -36.7295   23.2646 C   0  0  0  0  0  0
  -25.9540  -30.7813   21.3805 C   0  0  0  0  0  0
  -26.0259  -29.4153   20.7230 C   0  0  0  0  0  0
  -27.2150  -28.6313   20.7056 C   0  0  0  0  0  0
  -26.0381  -26.8990   19.4890 C   0  0  0  0  0  0
  -24.8706  -27.6797   19.4883 C   0  0  0  0  0  0
  -23.6266  -29.7992   20.1674 C   0  0  0  0  0  0
  -25.4115  -36.3057   24.0304 C   0  0  1  0  0  0
  -20.5827  -28.3697   23.1276 C   0  0  2  0  0  0
  -20.6734  -26.9427   22.5409 C   0  0  0  0  0  0
  -19.5726  -26.6406   21.5222 C   0  0  0  0  0  0
  -18.1907  -26.7944   22.1635 C   0  0  0  0  0  0
  -19.1514  -28.8886   23.2845 C   0  0  0  0  0  0
  -18.9447  -30.1494   23.8863 C   0  0  0  0  0  0
  -17.6460  -30.6607   24.0592 C   0  0  0  0  0  0
  -25.9067  -34.9422   23.5061 C   0  0  0  0  0  0
  -16.5333  -29.9120   23.6372 C   0  0  0  0  0  0
  -16.7256  -28.6547   23.0351 C   0  0  0  0  0  0
  -26.4507  -31.6567   25.0683 C   0  0  0  0  0  0
  -25.3753  -31.3691   26.1410 C   0  0  0  0  0  0
  -27.0415  -30.3011   24.6189 C   0  0  0  0  0  0
  -27.6042  -32.4373   25.7443 C   0  0  0  0  0  0
  -27.5578  -37.1781   24.8481 C   0  0  0  0  0  0
  -21.4196  -29.3020   22.3699 N   0  0  0  0  0  0
  -26.4290  -37.3764   23.9415 N   0  0  0  0  0  0
  -24.6846  -31.0469   22.1037 N   0  0  0  0  0  0
  -23.4186  -28.7983   23.3039 O   0  0  0  0  0  0
  -28.3817  -26.5575   20.1094 O   0  0  0  0  0  0
  -26.5657  -34.8898   22.4654 O   0  0  0  0  0  0
  -23.5357  -32.1336   23.7320 O   0  0  0  0  0  0
  -32.3316  -19.2143   18.6641 C   0  0  0  0  0  0
  -31.9757  -17.8064   20.5966 C   0  0  0  0  0  0
  -32.8506  -18.3710   19.6541 C   0  0  0  0  0  0
  -30.9818  -19.6234   18.7007 C   0  0  0  0  0  0
  -30.5848  -18.0686   20.5735 C   0  0  0  0  0  0
  -30.1085  -19.1676   19.7440 C   0  0  0  0  0  0
  -35.2542  -19.0227   20.2766 C   0  0  0  0  0  0
  -30.9937  -21.9202   17.4510 C   0  0  0  0  0  0
  -26.2580  -23.1795   17.5807 C   0  0  0  0  0  0
  -34.3266  -17.9913   19.6169 C   0  0  0  0  0  0
  -30.4891  -20.4684   17.5256 C   0  0  0  0  0  0
  -29.7018  -17.1008   21.4158 C   0  0  0  0  0  0
  -28.7403  -19.9165   19.9098 C   0  0  0  0  0  0
  -30.2229  -15.6214   21.7646 C   0  0  0  0  0  0
  -27.5718  -22.5556   18.0850 C   0  0  0  0  0  0
  -28.8471  -21.4972   20.1735 C   0  0  0  0  0  0
  -27.7970  -24.0039   20.2360 C   0  0  0  0  0  0
  -28.4439  -25.2343   19.4717 C   0  0  0  0  0  0
  -27.7533  -22.5265   19.6240 C   0  0  1  0  0  0
  -31.4616  -12.5258   19.1482 H   0  0  0  0  0  0
  -30.3346  -11.3895   19.8296 H   0  0  0  0  0  0
  -29.7429  -11.8667   17.4254 H   0  0  0  0  0  0
  -29.6411  -13.5737   17.7810 H   0  0  0  0  0  0
  -27.8022  -11.3636   18.7463 H   0  0  0  0  0  0
  -27.3682  -12.7531   17.7990 H   0  0  0  0  0  0
  -27.6941  -14.2836   19.6272 H   0  0  0  0  0  0
  -28.7027  -11.9658   21.3415 H   0  0  0  0  0  0
  -28.4079  -13.5491   21.9189 H   0  0  0  0  0  0
  -25.2853   -9.5712   22.4736 H   0  0  0  0  0  0
  -24.0106   -7.4650   22.7432 H   0  0  0  0  0  0
  -21.0962   -8.8785   19.8894 H   0  0  0  0  0  0
  -22.3781  -10.9714   19.6190 H   0  0  0  0  0  0
  -21.2003   -7.6187   23.9753 H   0  0  0  0  0  0
  -21.1472   -6.0542   25.9074 H   0  0  0  0  0  0
  -22.0595   -2.7655   23.2795 H   0  0  0  0  0  0
  -22.4241  -11.9781   22.4699 H   0  0  0  0  0  0
  -21.1163  -13.1108   22.2608 H   0  0  0  0  0  0
  -24.6516  -15.8430   20.4937 H   0  0  0  0  0  0
  -26.2761  -15.6261   20.0842 H   0  0  0  0  0  0
  -26.7040  -32.5396   23.0986 H   0  0  0  0  0  0
  -24.9978  -33.9692   25.0304 H   0  0  0  0  0  0
  -22.7129  -31.2860   21.3995 H   0  0  0  0  0  0
  -23.3765  -35.9617   23.3333 H   0  0  0  0  0  0
  -24.3550  -36.8950   22.2061 H   0  0  0  0  0  0
  -23.7218  -37.6475   23.6713 H   0  0  0  0  0  0
  -26.0684  -31.5273   20.5940 H   0  0  0  0  0  0
  -26.8397  -30.8371   22.0015 H   0  0  0  0  0  0
  -28.1088  -28.9860   21.1956 H   0  0  0  0  0  0
  -25.9814  -25.9267   19.0342 H   0  0  0  0  0  0
  -23.9772  -27.3051   19.0089 H   0  0  0  0  0  0
  -23.7151  -30.5667   19.3994 H   0  0  0  0  0  0
  -22.7602  -29.1982   19.8846 H   0  0  0  0  0  0
  -25.1264  -36.1910   25.0785 H   0  0  0  0  0  0
  -20.9876  -28.3295   24.1426 H   0  0  0  0  0  0
  -20.5723  -26.2312   23.3613 H   0  0  0  0  0  0
  -21.6567  -26.7480   22.1152 H   0  0  0  0  0  0
  -19.6906  -25.6345   21.1214 H   0  0  0  0  0  0
  -19.6644  -27.3225   20.6772 H   0  0  0  0  0  0
  -17.4146  -26.6667   21.4055 H   0  0  0  0  0  0
  -18.0360  -26.0070   22.9028 H   0  0  0  0  0  0
  -19.7932  -30.7313   24.2214 H   0  0  0  0  0  0
  -17.5023  -31.6306   24.5191 H   0  0  0  0  0  0
  -15.5348  -30.3030   23.7754 H   0  0  0  0  0  0
  -15.8636  -28.0908   22.7070 H   0  0  0  0  0  0
  -24.5928  -30.7031   25.7767 H   0  0  0  0  0  0
  -24.8885  -32.2802   26.4867 H   0  0  0  0  0  0
  -25.8027  -30.8849   27.0178 H   0  0  0  0  0  0
  -26.2971  -29.6686   24.1312 H   0  0  0  0  0  0
  -27.4246  -29.7360   25.4703 H   0  0  0  0  0  0
  -27.8780  -30.4367   23.9330 H   0  0  0  0  0  0
  -27.2645  -33.3723   26.1926 H   0  0  0  0  0  0
  -28.3861  -32.6867   25.0256 H   0  0  0  0  0  0
  -28.0706  -31.8568   26.5418 H   0  0  0  0  0  0
  -28.2567  -38.0103   24.7509 H   0  0  0  0  0  0
  -28.1052  -36.2595   24.6292 H   0  0  0  0  0  0
  -27.2260  -37.1438   25.8877 H   0  0  0  0  0  0
  -20.9480  -29.8683   21.6766 H   0  0  0  0  0  0
  -26.0175  -38.2827   24.1471 H   0  0  0  0  0  0
  -32.9950  -19.5476   17.8771 H   0  0  0  0  0  0
  -32.3877  -17.0946   21.2993 H   0  0  0  0  0  0
  -36.2925  -18.7031   20.1957 H   0  0  0  0  0  0
  -35.0456  -19.1745   21.3363 H   0  0  0  0  0  0
  -35.1802  -19.9857   19.7782 H   0  0  0  0  0  0
  -30.3935  -22.4329   16.6958 H   0  0  0  0  0  0
  -32.0360  -21.9418   17.1492 H   0  0  0  0  0  0
  -30.9482  -22.5128   18.3621 H   0  0  0  0  0  0
  -26.2603  -23.2541   16.4914 H   0  0  0  0  0  0
  -26.1144  -24.1880   17.9502 H   0  0  0  0  0  0
  -25.3848  -22.5922   17.8624 H   0  0  0  0  0  0
  -34.6275  -17.8823   18.5752 H   0  0  0  0  0  0
  -34.4729  -17.0120   20.0719 H   0  0  0  0  0  0
  -29.4105  -20.4224   17.4370 H   0  0  0  0  0  0
  -30.8244  -19.9851   16.6042 H   0  0  0  0  0  0
  -28.6931  -17.0487   21.0081 H   0  0  0  0  0  0
  -29.5772  -17.5997   22.3806 H   0  0  0  0  0  0
  -28.1899  -19.4707   20.7380 H   0  0  0  0  0  0
  -28.1367  -19.6995   19.0253 H   0  0  0  0  0  0
  -29.5149  -15.1894   22.4667 H   0  0  0  0  0  0
  -31.1027  -15.7251   22.3953 H   0  0  0  0  0  0
  -28.3921  -23.0968   17.6177 H   0  0  0  0  0  0
  -27.5886  -21.5453   17.6854 H   0  0  0  0  0  0
  -29.8169  -21.8320   19.8512 H   0  0  0  0  0  0
  -28.9318  -21.6379   21.2522 H   0  0  0  0  0  0
  -26.7661  -24.2718   20.4539 H   0  0  0  0  0  0
  -28.2719  -23.9459   21.2131 H   0  0  0  0  0  0
  -28.0866  -25.3225   18.4460 H   0  0  0  0  0  0
  -29.5060  -25.0136   19.3622 H   0  0  0  0  0  0
  -26.8293  -22.0905   20.0034 H   0  0  0  0  0  0
  1 25  1  0  0  0
  1 30  2  0  0  0
  1 84  1  0  0  0
  2  3  1  0  0  0
  2 25  1  0  0  0
  2 90  1  0  0  0
  2 91  1  0  0  0
  3  4  1  0  0  0
  3 92  1  0  0  0
  3 93  1  0  0  0
  4  5  1  0  0  0
  4 94  1  0  0  0
  4 95  1  0  0  0
  5  6  1  0  0  0
  5 26  1  0  0  0
  5 96  1  0  0  0
  6 25  1  0  0  0
  6 97  1  0  0  0
  6 98  1  0  0  0
  7  8  2  0  0  0
  7 26  1  0  0  0
  7 29  1  0  0  0
  8  9  1  0  0  0
  8 22  1  0  0  0
  9 10  1  0  0  0
  9 27  2  0  0  0
 10 11  2  0  0  0
 10 15  1  0  0  0
 11 12  1  0  0  0
 11 99  1  0  0  0
 12 13  2  0  0  0
 12100  1  0  0  0
 13 14  1  0  0  0
 13 31  1  0  0  0
 14 15  2  0  0  0
 14101  1  0  0  0
 15102  1  0  0  0
 16 17  2  0  0  0
 16 21  1  0  0  0
 16 31  1  0  0  0
 17 18  1  0  0  0
 17103  1  0  0  0
 18 19  2  0  0  0
 18104  1  0  0  0
 19 20  1  0  0  0
 19 24  1  0  0  0
 20 21  2  0  0  0
 20105  1  0  0  0
 21 23  1  0  0  0
 22 28  1  0  0  0
 22 32  2  0  0  0
 26 27  1  0  0  0
 28106  1  0  0  0
 28107  1  0  0  0
 29108  1  0  0  0
 29109  1  0  0  0
 33 34  1  0  0  0
 33 66  1  0  0  0
 33 70  2  0  0  0
 34 36  1  0  0  0
 34 59  1  0  0  0
 34110  1  0  0  0
 35 44  2  0  0  0
 35 45  1  0  0  0
 35 68  1  0  0  0
 36 56  1  0  0  0
 36111  1  0  0  0
 37 39  1  0  0  0
 37 47  1  0  0  0
 37 66  1  0  0  0
 37112  1  0  0  0
 38 43  2  0  0  0
 38 46  1  0  0  0
 38 47  1  0  0  0
 39 64  1  0  0  0
 39 67  2  0  0  0
 40 52  1  0  0  0
 40 53  2  0  0  0
 40 58  1  0  0  0
 41113  1  0  0  0
 41114  1  0  0  0
 41115  1  0  0  0
 41 48  1  0  0  0
 42 43  1  0  0  0
 42 66  1  0  0  0
 42116  1  0  0  0
 42117  1  0  0  0
 43 44  1  0  0  0
 44118  1  0  0  0
 45 46  2  0  0  0
 45119  1  0  0  0
 46120  1  0  0  0
 47121  1  0  0  0
 47122  1  0  0  0
 48 56  1  0  0  0
 48 65  1  0  0  0
 48123  1  0  0  0
 49 50  1  0  0  0
 49 53  1  0  0  0
 49 64  1  0  0  0
 49124  1  0  0  0
 50 51  1  0  0  0
 50125  1  0  0  0
 50126  1  0  0  0
 51 52  1  0  0  0
 51127  1  0  0  0
 51128  1  0  0  0
 52129  1  0  0  0
 52130  1  0  0  0
 53 54  1  0  0  0
 54 55  2  0  0  0
 54131  1  0  0  0
 55 57  1  0  0  0
 55132  1  0  0  0
 56 69  2  0  0  0
 57 58  2  0  0  0
 57133  1  0  0  0
 58134  1  0  0  0
 59 60  1  0  0  0
 59 61  1  0  0  0
 59 62  1  0  0  0
 60135  1  0  0  0
 60136  1  0  0  0
 60137  1  0  0  0
 61138  1  0  0  0
 61139  1  0  0  0
 61140  1  0  0  0
 62141  1  0  0  0
 62142  1  0  0  0
 62143  1  0  0  0
 63 65  1  0  0  0
 63144  1  0  0  0
 63145  1  0  0  0
 63146  1  0  0  0
 64147  1  0  0  0
 65148  1  0  0  0
 68 88  1  0  0  0
 71 73  2  0  0  0
 71 74  1  0  0  0
 71149  1  0  0  0
 72 73  1  0  0  0
 72 75  2  0  0  0
 72150  1  0  0  0
 73 80  1  0  0  0
 74 76  2  0  0  0
 74 81  1  0  0  0
 75 76  1  0  0  0
 75 82  1  0  0  0
 76 83  1  0  0  0
 77 80  1  0  0  0
 77151  1  0  0  0
 77152  1  0  0  0
 77153  1  0  0  0
 78 81  1  0  0  0
 78154  1  0  0  0
 78155  1  0  0  0
 78156  1  0  0  0
 79 85  1  0  0  0
 79157  1  0  0  0
 79158  1  0  0  0
 79159  1  0  0  0
 80160  1  0  0  0
 80161  1  0  0  0
 81162  1  0  0  0
 81163  1  0  0  0
 82 84  1  0  0  0
 82164  1  0  0  0
 82165  1  0  0  0
 83 86  1  0  0  0
 83166  1  0  0  0
 83167  1  0  0  0
 84168  1  0  0  0
 84169  1  0  0  0
 85170  1  0  0  0
 85171  1  0  0  0
 85 89  1  0  0  0
 86 89  1  0  0  0
 86172  1  0  0  0
 86173  1  0  0  0
 87 88  1  0  0  0
 87 89  1  0  0  0
 87174  1  0  0  0
 87175  1  0  0  0
 88176  1  0  0  0
 88177  1  0  0  0
 89178  1  0  0  0
M  ISO  4   1 100  68 101  84 100  88 101
M  END
> <chiral flag>
0

> <version>
0

> <s_m_source_file>
/data/baiqing/PycharmProjects/Reinvent-master-3.2/result/LINK_invent/BTK/process_docking_weight1_custom_product_contain_oxygen_bond_distance_aromatic_linkinvent_7_9_3/rearranged_h_0132.sdf

> <i_m_source_file_index>
88

> <r_mmod_Potential_Energy-OPLS-2005>
150.921371459961

> <r_mmod_Stretch_Energy-OPLS-2005>
90.7515563964844

> <r_mmod_Bend_Energy-OPLS-2005>
186.588577270508

> <r_mmod_Torsional_Energy-OPLS-2005>
225.692001342773

> <r_mmod_Improper_Torsional_Energy-OPLS-2005>
3.1851863861084

> <r_mmod_Van_der_Waal_Energy-OPLS-2005>
148.090118408203

> <r_mmod_Electrostatic_Energy-OPLS-2005>
-349.652160644531

> <r_mmod_Solvation_Energy-OPLS-2005>
-184.073501586914

> <b_mmod_Minimization_Converged-OPLS-2005>
0

> <r_mmod_RMS_Derivative-OPLS-2005>
9.35786533355713

$$$$
88
                    3D
 Structure written by MMmdl.
153161  0  0  1  0            999 V2000
  -30.6965  -14.4803   20.5617 C   0  0  0  0  0  0
  -30.4209  -12.2998   19.4347 C   0  0  0  0  0  0
  -29.4986  -12.4855   18.2117 C   0  0  0  0  0  0
  -28.0190  -12.3472   18.6210 C   0  0  0  0  0  0
  -27.6585  -13.2049   19.8628 C   0  0  2  0  0  0
  -28.6985  -13.0217   20.9912 C   0  0  0  0  0  0
  -25.2597  -13.8166   20.5669 C   0  0  0  0  0  0
  -24.1848  -13.0446   20.9176 C   0  0  0  0  0  0
  -24.6401  -11.6913   20.8746 C   0  0  0  0  0  0
  -23.9075  -10.4300   21.0419 C   0  0  0  0  0  0
  -24.3621   -9.4213   21.9198 C   0  0  0  0  0  0
  -23.6295   -8.2248   22.0764 C   0  0  0  0  0  0
  -22.4277   -8.0290   21.3548 C   0  0  0  0  0  0
  -21.9918   -9.0267   20.4652 C   0  0  0  0  0  0
  -22.7249  -10.2146   20.3065 C   0  0  0  0  0  0
  -21.6848   -6.0747   22.5284 C   0  0  0  0  0  0
  -21.4011   -6.5652   23.8221 C   0  0  0  0  0  0
  -21.3657   -5.6805   24.9186 C   0  0  0  0  0  0
  -21.6038   -4.3065   24.7235 C   0  0  0  0  0  0
  -21.8817   -3.8160   23.4356 C   0  0  0  0  0  0
  -21.9192   -4.6976   22.3409 C   0  0  0  0  0  0
  -22.7874  -13.5242   21.1845 C   0  0  0  0  0  0
  -22.1660   -4.2165   21.0982 F   0  0  0  0  0  0
  -21.5628   -3.4547   25.7749 F   0  0  0  0  0  0
  -30.0308  -13.3001   20.4403 N   0  0  0  0  0  0
  -26.3013  -12.9326   20.3304 N   0  0  0  0  0  0
  -25.9319  -11.6492   20.5742 N   0  0  0  0  0  0
  -22.0508  -12.8241   22.0401 N   0  0  0  0  0  0
  -25.4359  -15.1886   20.4101 N   0  0  0  0  0  0
  -31.8380  -14.6230   20.1126 O   0  0  0  0  0  0
  -21.6629   -6.8892   21.4245 O   0  0  0  0  0  0
  -22.3569  -14.5554   20.6698 O   0  0  0  0  0  0
  -24.6151  -31.8691   23.2120 C   0  0  0  0  0  0
  -25.9054  -32.4829   23.8411 C   0  0  1  0  0  0
  -27.2265  -27.4289   20.1070 C   0  0  0  0  0  0
  -25.5921  -33.8627   24.2333 N   0  0  0  0  0  0
  -23.4043  -30.4902   21.5525 C   0  0  2  0  0  0
  -24.8528  -28.9572   20.1180 C   0  0  0  0  0  0
  -22.7407  -29.4656   22.5009 C   0  0  0  0  0  0
  -18.0262  -28.1364   22.8489 C   0  0  0  0  0  0
  -24.1489  -36.7320   23.2638 C   0  0  0  0  0  0
  -25.9330  -30.8300   21.3704 C   0  0  0  0  0  0
  -26.0115  -29.4613   20.7248 C   0  0  0  0  0  0
  -27.2042  -28.7001   20.7265 C   0  0  0  0  0  0
  -26.0609  -26.9477   19.4796 C   0  0  0  0  0  0
  -24.8710  -27.6973   19.4960 C   0  0  0  0  0  0
  -23.6146  -29.8238   20.1675 C   0  0  0  0  0  0
  -25.4113  -36.3119   24.0333 C   0  0  1  0  0  0
  -20.5856  -28.3664   23.1320 C   0  0  2  0  0  0
  -20.6756  -26.9405   22.5418 C   0  0  0  0  0  0
  -19.5740  -26.6376   21.5213 C   0  0  0  0  0  0
  -18.1910  -26.7915   22.1616 C   0  0  0  0  0  0
  -19.1513  -28.8829   23.2896 C   0  0  0  0  0  0
  -18.9448  -30.1433   23.8912 C   0  0  0  0  0  0
  -17.6456  -30.6590   24.0553 C   0  0  0  0  0  0
  -25.9045  -34.9481   23.5124 C   0  0  0  0  0  0
  -16.5344  -29.9092   23.6317 C   0  0  0  0  0  0
  -16.7257  -28.6497   23.0360 C   0  0  0  0  0  0
  -26.4479  -31.6614   25.0741 C   0  0  0  0  0  0
  -25.3737  -31.3713   26.1478 C   0  0  0  0  0  0
  -27.0315  -30.3052   24.6124 C   0  0  0  0  0  0
  -27.6059  -32.4335   25.7495 C   0  0  0  0  0  0
  -27.5583  -37.1813   24.8460 C   0  0  0  0  0  0
  -21.4138  -29.3034   22.3735 N   0  0  0  0  0  0
  -26.4299  -37.3800   23.9398 N   0  0  0  0  0  0
  -24.6683  -31.0777   22.1031 N   0  0  0  0  0  0
  -23.4169  -28.8197   23.3061 O   0  0  0  0  0  0
  -28.3624  -26.6554   20.0472 O   0  0  0  0  0  0
  -26.5599  -34.8929   22.4683 O   0  0  0  0  0  0
  -23.5348  -32.1456   23.7505 O   0  0  0  0  0  0
  -29.6821  -19.2195   19.8649 C   0  0  0  0  0  0
  -29.4933  -18.7777   22.2464 C   0  0  0  0  0  0
  -29.0472  -20.4690   20.0400 C   0  0  0  0  0  0
  -28.8490  -20.0249   22.4191 C   0  0  0  0  0  0
  -29.9230  -18.3660   20.9665 C   0  0  0  0  0  0
  -28.6350  -20.8945   21.3239 C   0  0  0  0  0  0
  -28.4806  -23.2319   21.2143 C   0  0  0  0  0  0
  -27.8045  -24.5911   21.3503 C   0  0  0  0  0  0
  -30.7054  -17.0639   20.7646 C   0  0  0  0  0  0
  -28.6685  -25.8702   21.2158 C   0  0  0  0  0  0
  -29.9723  -15.7369   21.1175 C   0  0  0  0  0  0
  -27.9473  -22.1031   21.5202 N   0  0  0  0  0  0
  -26.5995  -24.6878   21.6190 O   0  0  0  0  0  0
  -31.4673  -12.3860   19.1379 H   0  0  0  0  0  0
  -30.3120  -11.2956   19.8490 H   0  0  0  0  0  0
  -29.7429  -11.7495   17.4444 H   0  0  0  0  0  0
  -29.6681  -13.4652   17.7625 H   0  0  0  0  0  0
  -27.8352  -11.2933   18.8344 H   0  0  0  0  0  0
  -27.3701  -12.6034   17.7826 H   0  0  0  0  0  0
  -27.6915  -14.2435   19.5363 H   0  0  0  0  0  0
  -28.6683  -12.0009   21.3747 H   0  0  0  0  0  0
  -28.4646  -13.6651   21.8402 H   0  0  0  0  0  0
  -25.2766   -9.5683   22.4776 H   0  0  0  0  0  0
  -24.0009   -7.4635   22.7481 H   0  0  0  0  0  0
  -21.0854   -8.8789   19.8953 H   0  0  0  0  0  0
  -22.3717  -10.9688   19.6178 H   0  0  0  0  0  0
  -21.1996   -7.6160   23.9733 H   0  0  0  0  0  0
  -21.1479   -6.0533   25.9091 H   0  0  0  0  0  0
  -22.0594   -2.7623   23.2852 H   0  0  0  0  0  0
  -22.4105  -11.9886   22.4778 H   0  0  0  0  0  0
  -21.1133  -13.1284   22.2603 H   0  0  0  0  0  0
  -24.6783  -15.8514   20.5321 H   0  0  0  0  0  0
  -26.2989  -15.6258   20.1119 H   0  0  0  0  0  0
  -26.7136  -32.5544   23.1185 H   0  0  0  0  0  0
  -25.0075  -33.9792   25.0483 H   0  0  0  0  0  0
  -22.6928  -31.3065   21.4134 H   0  0  0  0  0  0
  -23.3750  -35.9656   23.3314 H   0  0  0  0  0  0
  -24.3589  -36.8929   22.2055 H   0  0  0  0  0  0
  -23.7248  -37.6525   23.6650 H   0  0  0  0  0  0
  -26.0465  -31.5926   20.5989 H   0  0  0  0  0  0
  -26.8196  -30.8860   21.9900 H   0  0  0  0  0  0
  -28.1000  -29.0827   21.1968 H   0  0  0  0  0  0
  -26.0705  -25.9835   18.9912 H   0  0  0  0  0  0
  -23.9824  -27.3042   19.0222 H   0  0  0  0  0  0
  -23.7235  -30.5979   19.4068 H   0  0  0  0  0  0
  -22.7389  -29.2424   19.8736 H   0  0  0  0  0  0
  -25.1296  -36.1989   25.0830 H   0  0  0  0  0  0
  -20.9925  -28.3231   24.1452 H   0  0  0  0  0  0
  -20.5676  -26.2273   23.3601 H   0  0  0  0  0  0
  -21.6631  -26.7459   22.1213 H   0  0  0  0  0  0
  -19.6905  -25.6287   21.1249 H   0  0  0  0  0  0
  -19.6680  -27.3178   20.6740 H   0  0  0  0  0  0
  -17.4183  -26.6670   21.4008 H   0  0  0  0  0  0
  -18.0302  -26.0046   22.9000 H   0  0  0  0  0  0
  -19.7928  -30.7222   24.2315 H   0  0  0  0  0  0
  -17.5021  -31.6280   24.5143 H   0  0  0  0  0  0
  -15.5351  -30.3005   23.7636 H   0  0  0  0  0  0
  -15.8647  -28.0820   22.7095 H   0  0  0  0  0  0
  -24.5900  -30.7091   25.7790 H   0  0  0  0  0  0
  -24.8942  -32.2870   26.4954 H   0  0  0  0  0  0
  -25.8072  -30.8843   27.0221 H   0  0  0  0  0  0
  -26.2857  -29.6810   24.1186 H   0  0  0  0  0  0
  -27.4086  -29.7307   25.4593 H   0  0  0  0  0  0
  -27.8697  -30.4372   23.9276 H   0  0  0  0  0  0
  -27.2690  -33.3635   26.2097 H   0  0  0  0  0  0
  -28.3850  -32.6911   25.0307 H   0  0  0  0  0  0
  -28.0749  -31.8449   26.5390 H   0  0  0  0  0  0
  -28.2604  -38.0107   24.7528 H   0  0  0  0  0  0
  -28.1076  -36.2644   24.6269 H   0  0  0  0  0  0
  -27.2296  -37.1454   25.8860 H   0  0  0  0  0  0
  -20.9307  -29.8770   21.6967 H   0  0  0  0  0  0
  -26.0191  -38.2878   24.1402 H   0  0  0  0  0  0
  -29.9950  -18.9264   18.8718 H   0  0  0  0  0  0
  -29.6652  -18.1454   23.1069 H   0  0  0  0  0  0
  -28.8685  -21.0924   19.1744 H   0  0  0  0  0  0
  -28.5232  -20.3120   23.4094 H   0  0  0  0  0  0
  -29.5054  -23.2555   20.8324 H   0  0  0  0  0  0
  -31.6210  -17.1323   21.3536 H   0  0  0  0  0  0
  -31.0324  -17.0300   19.7239 H   0  0  0  0  0  0
  -29.7210  -25.5899   21.1739 H   0  0  0  0  0  0
  -28.5442  -26.4754   22.1143 H   0  0  0  0  0  0
  -28.9739  -15.7766   20.6838 H   0  0  0  0  0  0
  -29.8493  -15.6420   22.1963 H   0  0  0  0  0  0
  1 25  1  0  0  0
  1 30  2  0  0  0
  1 81  1  0  0  0
  2  3  1  0  0  0
  2 25  1  0  0  0
  2 84  1  0  0  0
  2 85  1  0  0  0
  3  4  1  0  0  0
  3 86  1  0  0  0
  3 87  1  0  0  0
  4  5  1  0  0  0
  4 88  1  0  0  0
  4 89  1  0  0  0
  5  6  1  0  0  0
  5 26  1  0  0  0
  5 90  1  0  0  0
  6 25  1  0  0  0
  6 91  1  0  0  0
  6 92  1  0  0  0
  7  8  2  0  0  0
  7 26  1  0  0  0
  7 29  1  0  0  0
  8  9  1  0  0  0
  8 22  1  0  0  0
  9 10  1  0  0  0
  9 27  2  0  0  0
 10 11  2  0  0  0
 10 15  1  0  0  0
 11 12  1  0  0  0
 11 93  1  0  0  0
 12 13  2  0  0  0
 12 94  1  0  0  0
 13 14  1  0  0  0
 13 31  1  0  0  0
 14 15  2  0  0  0
 14 95  1  0  0  0
 15 96  1  0  0  0
 16 17  2  0  0  0
 16 21  1  0  0  0
 16 31  1  0  0  0
 17 18  1  0  0  0
 17 97  1  0  0  0
 18 19  2  0  0  0
 18 98  1  0  0  0
 19 20  1  0  0  0
 19 24  1  0  0  0
 20 21  2  0  0  0
 20 99  1  0  0  0
 21 23  1  0  0  0
 22 28  1  0  0  0
 22 32  2  0  0  0
 26 27  1  0  0  0
 28100  1  0  0  0
 28101  1  0  0  0
 29102  1  0  0  0
 29103  1  0  0  0
 33 34  1  0  0  0
 33 66  1  0  0  0
 33 70  2  0  0  0
 34 36  1  0  0  0
 34 59  1  0  0  0
 34104  1  0  0  0
 35 44  2  0  0  0
 35 45  1  0  0  0
 35 68  1  0  0  0
 36 56  1  0  0  0
 36105  1  0  0  0
 37 39  1  0  0  0
 37 47  1  0  0  0
 37 66  1  0  0  0
 37106  1  0  0  0
 38 43  2  0  0  0
 38 46  1  0  0  0
 38 47  1  0  0  0
 39 64  1  0  0  0
 39 67  2  0  0  0
 40 52  1  0  0  0
 40 53  2  0  0  0
 40 58  1  0  0  0
 41107  1  0  0  0
 41108  1  0  0  0
 41109  1  0  0  0
 41 48  1  0  0  0
 42 43  1  0  0  0
 42 66  1  0  0  0
 42110  1  0  0  0
 42111  1  0  0  0
 43 44  1  0  0  0
 44112  1  0  0  0
 45 46  2  0  0  0
 45113  1  0  0  0
 46114  1  0  0  0
 47115  1  0  0  0
 47116  1  0  0  0
 48 56  1  0  0  0
 48 65  1  0  0  0
 48117  1  0  0  0
 49 50  1  0  0  0
 49 53  1  0  0  0
 49 64  1  0  0  0
 49118  1  0  0  0
 50 51  1  0  0  0
 50119  1  0  0  0
 50120  1  0  0  0
 51 52  1  0  0  0
 51121  1  0  0  0
 51122  1  0  0  0
 52123  1  0  0  0
 52124  1  0  0  0
 53 54  1  0  0  0
 54 55  2  0  0  0
 54125  1  0  0  0
 55 57  1  0  0  0
 55126  1  0  0  0
 56 69  2  0  0  0
 57 58  2  0  0  0
 57127  1  0  0  0
 58128  1  0  0  0
 59 60  1  0  0  0
 59 61  1  0  0  0
 59 62  1  0  0  0
 60129  1  0  0  0
 60130  1  0  0  0
 60131  1  0  0  0
 61132  1  0  0  0
 61133  1  0  0  0
 61134  1  0  0  0
 62135  1  0  0  0
 62136  1  0  0  0
 62137  1  0  0  0
 63 65  1  0  0  0
 63138  1  0  0  0
 63139  1  0  0  0
 63140  1  0  0  0
 64141  1  0  0  0
 65142  1  0  0  0
 68 80  1  0  0  0
 71 73  2  0  0  0
 71 75  1  0  0  0
 71143  1  0  0  0
 72 74  1  0  0  0
 72 75  2  0  0  0
 72144  1  0  0  0
 73 76  1  0  0  0
 73145  1  0  0  0
 74 76  2  0  0  0
 74146  1  0  0  0
 75 79  1  0  0  0
 76 82  1  0  0  0
 77 78  1  0  0  0
 77 82  2  0  0  0
 77147  1  0  0  0
 78 80  1  0  0  0
 78 83  2  0  0  0
 79 81  1  0  0  0
 79148  1  0  0  0
 79149  1  0  0  0
 80150  1  0  0  0
 80151  1  0  0  0
 81152  1  0  0  0
 81153  1  0  0  0
M  ISO  4   1 100  68 101  80 101  81 100
M  END
> <chiral flag>
0

> <version>
0

> <s_m_source_file>
/data/baiqing/PycharmProjects/Reinvent-master-3.2/result/LINK_invent/BTK/process_docking_weight1_custom_product_contain_oxygen_bond_distance_aromatic_linkinvent_7_9_3/rearranged_h_0132.sdf

> <i_m_source_file_index>
89

> <r_mmod_Potential_Energy-OPLS-2005>
-3.80825567245483

> <r_mmod_Stretch_Energy-OPLS-2005>
39.2188415527344

> <r_mmod_Bend_Energy-OPLS-2005>
93.0458374023438

> <r_mmod_Torsional_Energy-OPLS-2005>
215.415283203125

> <r_mmod_Improper_Torsional_Energy-OPLS-2005>
3.85575437545776

> <r_mmod_Van_der_Waal_Energy-OPLS-2005>
146.126373291016

> <r_mmod_Electrostatic_Energy-OPLS-2005>
-292.090301513672

> <r_mmod_Solvation_Energy-OPLS-2005>
-223.789657592773

> <b_mmod_Minimization_Converged-OPLS-2005>
0

> <r_mmod_RMS_Derivative-OPLS-2005>
1.38468647003174

$$$$
89
                    3D
 Structure written by MMmdl.
164172  0  0  1  0            999 V2000
  -30.7498  -14.3944   20.6351 C   0  0  0  0  0  0
  -30.4110  -12.2802   19.4082 C   0  0  0  0  0  0
  -29.4866  -12.5116   18.1982 C   0  0  0  0  0  0
  -28.0086  -12.3757   18.6121 C   0  0  0  0  0  0
  -27.6640  -13.2056   19.8780 C   0  0  2  0  0  0
  -28.7044  -12.9663   20.9946 C   0  0  0  0  0  0
  -25.2600  -13.8166   20.5685 C   0  0  0  0  0  0
  -24.1843  -13.0443   20.9168 C   0  0  0  0  0  0
  -24.6394  -11.6909   20.8729 C   0  0  0  0  0  0
  -23.9059  -10.4294   21.0400 C   0  0  0  0  0  0
  -24.3611   -9.4211   21.9180 C   0  0  0  0  0  0
  -23.6288   -8.2246   22.0753 C   0  0  0  0  0  0
  -22.4271   -8.0282   21.3545 C   0  0  0  0  0  0
  -21.9905   -9.0254   20.4647 C   0  0  0  0  0  0
  -22.7231  -10.2135   20.3052 C   0  0  0  0  0  0
  -21.6852   -6.0737   22.5278 C   0  0  0  0  0  0
  -21.4014   -6.5640   23.8213 C   0  0  0  0  0  0
  -21.3659   -5.6792   24.9175 C   0  0  0  0  0  0
  -21.6044   -4.3055   24.7226 C   0  0  0  0  0  0
  -21.8820   -3.8147   23.4346 C   0  0  0  0  0  0
  -21.9193   -4.6965   22.3402 C   0  0  0  0  0  0
  -22.7867  -13.5242   21.1835 C   0  0  0  0  0  0
  -22.1660   -4.2150   21.0980 F   0  0  0  0  0  0
  -21.5630   -3.4539   25.7739 F   0  0  0  0  0  0
  -30.0380  -13.2524   20.4461 N   0  0  0  0  0  0
  -26.3039  -12.9334   20.3387 N   0  0  0  0  0  0
  -25.9322  -11.6491   20.5764 N   0  0  0  0  0  0
  -22.0506  -12.8235   22.0394 N   0  0  0  0  0  0
  -25.4335  -15.1882   20.4103 N   0  0  0  0  0  0
  -31.8424  -14.5704   20.0856 O   0  0  0  0  0  0
  -21.6637   -6.8878   21.4240 O   0  0  0  0  0  0
  -22.3552  -14.5549   20.6688 O   0  0  0  0  0  0
  -24.6125  -31.8704   23.2130 C   0  0  0  0  0  0
  -25.9031  -32.4833   23.8414 C   0  0  1  0  0  0
  -27.2300  -27.4563   20.0878 C   0  0  0  0  0  0
  -25.5897  -33.8632   24.2348 N   0  0  0  0  0  0
  -23.3981  -30.4954   21.5542 C   0  0  2  0  0  0
  -24.8416  -28.9677   20.1134 C   0  0  0  0  0  0
  -22.7396  -29.4668   22.5011 C   0  0  0  0  0  0
  -18.0265  -28.1372   22.8493 C   0  0  0  0  0  0
  -24.1485  -36.7325   23.2634 C   0  0  0  0  0  0
  -25.9250  -30.8430   21.3620 C   0  0  0  0  0  0
  -26.0010  -29.4802   20.7075 C   0  0  0  0  0  0
  -27.1980  -28.7324   20.6902 C   0  0  0  0  0  0
  -26.0538  -26.9609   19.4767 C   0  0  0  0  0  0
  -24.8619  -27.7063   19.4963 C   0  0  0  0  0  0
  -23.6029  -29.8312   20.1671 C   0  0  0  0  0  0
  -25.4103  -36.3124   24.0340 C   0  0  1  0  0  0
  -20.5855  -28.3656   23.1326 C   0  0  2  0  0  0
  -20.6759  -26.9395   22.5419 C   0  0  0  0  0  0
  -19.5739  -26.6385   21.5210 C   0  0  0  0  0  0
  -18.1914  -26.7920   22.1620 C   0  0  0  0  0  0
  -19.1514  -28.8830   23.2905 C   0  0  0  0  0  0
  -18.9444  -30.1434   23.8917 C   0  0  0  0  0  0
  -17.6449  -30.6580   24.0566 C   0  0  0  0  0  0
  -25.9034  -34.9484   23.5144 C   0  0  0  0  0  0
  -16.5339  -29.9086   23.6320 C   0  0  0  0  0  0
  -16.7256  -28.6499   23.0349 C   0  0  0  0  0  0
  -26.4462  -31.6597   25.0731 C   0  0  0  0  0  0
  -25.3734  -31.3694   26.1483 C   0  0  0  0  0  0
  -27.0277  -30.3039   24.6085 C   0  0  0  0  0  0
  -27.6060  -32.4298   25.7480 C   0  0  0  0  0  0
  -27.5589  -37.1807   24.8456 C   0  0  0  0  0  0
  -21.4128  -29.3026   22.3741 N   0  0  0  0  0  0
  -26.4291  -37.3809   23.9417 N   0  0  0  0  0  0
  -24.6636  -31.0827   22.1019 N   0  0  0  0  0  0
  -23.4177  -28.8211   23.3043 O   0  0  0  0  0  0
  -28.4128  -26.7491   20.1031 O   0  0  0  0  0  0
  -26.5598  -34.8930   22.4706 O   0  0  0  0  0  0
  -23.5324  -32.1450   23.7536 O   0  0  0  0  0  0
  -28.5715  -20.0340   21.3017 C   0  0  0  0  0  0
  -30.2022  -20.0182   23.1152 C   0  0  0  0  0  0
  -29.0570  -18.7911   20.8528 C   0  0  0  0  0  0
  -30.6919  -18.7781   22.6620 C   0  0  0  0  0  0
  -29.1541  -20.6596   22.4236 C   0  0  0  0  0  0
  -30.1328  -18.1690   21.5188 C   0  0  0  0  0  0
  -26.6712  -24.8247   22.0601 C   0  0  0  0  0  0
  -27.9525  -24.9083   21.6624 C   0  0  0  0  0  0
  -30.4754  -15.3592   22.9674 C   0  0  0  0  0  0
  -28.6805  -22.0342   22.8570 C   0  0  0  0  0  0
  -30.7501  -16.9057   20.9438 C   0  0  0  0  0  0
  -29.0940  -24.5681   22.6073 C   0  0  0  0  0  0
  -28.3446  -25.3260   20.2467 C   0  0  0  0  0  0
  -29.6407  -23.1448   22.3885 C   0  0  0  0  0  0
  -30.1752  -15.5641   21.4692 C   0  0  1  0  0  0
  -31.4569  -12.3584   19.1063 H   0  0  0  0  0  0
  -30.2922  -11.2652   19.7906 H   0  0  0  0  0  0
  -29.7192  -11.8009   17.4043 H   0  0  0  0  0  0
  -29.6639  -13.5050   17.7833 H   0  0  0  0  0  0
  -27.8125  -11.3189   18.7973 H   0  0  0  0  0  0
  -27.3580  -12.6637   17.7857 H   0  0  0  0  0  0
  -27.7168  -14.2570   19.5949 H   0  0  0  0  0  0
  -28.6675  -11.9283   21.3286 H   0  0  0  0  0  0
  -28.4681  -13.5592   21.8771 H   0  0  0  0  0  0
  -25.2758   -9.5689   22.4752 H   0  0  0  0  0  0
  -24.0000   -7.4639   22.7473 H   0  0  0  0  0  0
  -21.0836   -8.8770   19.8952 H   0  0  0  0  0  0
  -22.3687  -10.9672   19.6160 H   0  0  0  0  0  0
  -21.2005   -7.6149   23.9716 H   0  0  0  0  0  0
  -21.1481   -6.0524   25.9078 H   0  0  0  0  0  0
  -22.0599   -2.7610   23.2847 H   0  0  0  0  0  0
  -22.4115  -11.9892   22.4778 H   0  0  0  0  0  0
  -21.1128  -13.1268   22.2602 H   0  0  0  0  0  0
  -24.6724  -15.8486   20.5254 H   0  0  0  0  0  0
  -26.2974  -15.6274   20.1176 H   0  0  0  0  0  0
  -26.7106  -32.5549   23.1187 H   0  0  0  0  0  0
  -25.0043  -33.9798   25.0489 H   0  0  0  0  0  0
  -22.6852  -31.3114   21.4192 H   0  0  0  0  0  0
  -23.3750  -35.9653   23.3290 H   0  0  0  0  0  0
  -24.3582  -36.8946   22.2049 H   0  0  0  0  0  0
  -23.7229  -37.6526   23.6648 H   0  0  0  0  0  0
  -26.0341  -31.6104   20.5945 H   0  0  0  0  0  0
  -26.8146  -30.8958   21.9778 H   0  0  0  0  0  0
  -28.0945  -29.1245   21.1501 H   0  0  0  0  0  0
  -26.0334  -26.0071   18.9725 H   0  0  0  0  0  0
  -23.9722  -27.3092   19.0272 H   0  0  0  0  0  0
  -23.7067  -30.6078   19.4082 H   0  0  0  0  0  0
  -22.7270  -29.2494   19.8739 H   0  0  0  0  0  0
  -25.1272  -36.2001   25.0832 H   0  0  0  0  0  0
  -20.9940  -28.3222   24.1449 H   0  0  0  0  0  0
  -20.5663  -26.2263   23.3602 H   0  0  0  0  0  0
  -21.6633  -26.7443   22.1214 H   0  0  0  0  0  0
  -19.6903  -25.6302   21.1225 H   0  0  0  0  0  0
  -19.6684  -27.3206   20.6748 H   0  0  0  0  0  0
  -17.4190  -26.6671   21.4016 H   0  0  0  0  0  0
  -18.0312  -26.0053   22.9005 H   0  0  0  0  0  0
  -19.7920  -30.7238   24.2307 H   0  0  0  0  0  0
  -17.5006  -31.6262   24.5165 H   0  0  0  0  0  0
  -15.5341  -30.3002   23.7627 H   0  0  0  0  0  0
  -15.8652  -28.0825   22.7065 H   0  0  0  0  0  0
  -24.5916  -30.7031   25.7818 H   0  0  0  0  0  0
  -24.8906  -32.2836   26.4942 H   0  0  0  0  0  0
  -25.8088  -30.8858   27.0237 H   0  0  0  0  0  0
  -26.2808  -29.6819   24.1135 H   0  0  0  0  0  0
  -27.4046  -29.7257   25.4532 H   0  0  0  0  0  0
  -27.8646  -30.4359   23.9225 H   0  0  0  0  0  0
  -27.2712  -33.3594   26.2094 H   0  0  0  0  0  0
  -28.3845  -32.6860   25.0281 H   0  0  0  0  0  0
  -28.0755  -31.8393   26.5359 H   0  0  0  0  0  0
  -28.2589  -38.0124   24.7547 H   0  0  0  0  0  0
  -28.1103  -36.2662   24.6221 H   0  0  0  0  0  0
  -27.2314  -37.1390   25.8859 H   0  0  0  0  0  0
  -20.9288  -29.8755   21.6970 H   0  0  0  0  0  0
  -26.0186  -38.2884   24.1444 H   0  0  0  0  0  0
  -27.7679  -20.5179   20.7631 H   0  0  0  0  0  0
  -30.6542  -20.4901   23.9771 H   0  0  0  0  0  0
  -28.6246  -18.3378   19.9710 H   0  0  0  0  0  0
  -31.5206  -18.3120   23.1777 H   0  0  0  0  0  0
  -26.4135  -24.5218   23.0646 H   0  0  0  0  0  0
  -25.8552  -25.0548   21.3916 H   0  0  0  0  0  0
  -29.9535  -16.0976   23.5760 H   0  0  0  0  0  0
  -31.5421  -15.4518   23.1743 H   0  0  0  0  0  0
  -30.1591  -14.3752   23.3144 H   0  0  0  0  0  0
  -28.5784  -22.0566   23.9428 H   0  0  0  0  0  0
  -27.6804  -22.1987   22.4556 H   0  0  0  0  0  0
  -31.8254  -16.9467   21.1266 H   0  0  0  0  0  0
  -30.6404  -16.9513   19.8584 H   0  0  0  0  0  0
  -28.7673  -24.6798   23.6424 H   0  0  0  0  0  0
  -29.8884  -25.3018   22.4623 H   0  0  0  0  0  0
  -27.6895  -24.8546   19.5161 H   0  0  0  0  0  0
  -29.3338  -24.9268   20.0228 H   0  0  0  0  0  0
  -29.8729  -23.0050   21.3320 H   0  0  0  0  0  0
  -30.5889  -23.0381   22.9174 H   0  0  0  0  0  0
  -29.0970  -15.6012   21.3166 H   0  0  0  0  0  0
  1 25  1  0  0  0
  1 30  2  0  0  0
  1 85  1  0  0  0
  2  3  1  0  0  0
  2 25  1  0  0  0
  2 86  1  0  0  0
  2 87  1  0  0  0
  3  4  1  0  0  0
  3 88  1  0  0  0
  3 89  1  0  0  0
  4  5  1  0  0  0
  4 90  1  0  0  0
  4 91  1  0  0  0
  5  6  1  0  0  0
  5 26  1  0  0  0
  5 92  1  0  0  0
  6 25  1  0  0  0
  6 93  1  0  0  0
  6 94  1  0  0  0
  7  8  2  0  0  0
  7 26  1  0  0  0
  7 29  1  0  0  0
  8  9  1  0  0  0
  8 22  1  0  0  0
  9 10  1  0  0  0
  9 27  2  0  0  0
 10 11  2  0  0  0
 10 15  1  0  0  0
 11 12  1  0  0  0
 11 95  1  0  0  0
 12 13  2  0  0  0
 12 96  1  0  0  0
 13 14  1  0  0  0
 13 31  1  0  0  0
 14 15  2  0  0  0
 14 97  1  0  0  0
 15 98  1  0  0  0
 16 17  2  0  0  0
 16 21  1  0  0  0
 16 31  1  0  0  0
 17 18  1  0  0  0
 17 99  1  0  0  0
 18 19  2  0  0  0
 18100  1  0  0  0
 19 20  1  0  0  0
 19 24  1  0  0  0
 20 21  2  0  0  0
 20101  1  0  0  0
 21 23  1  0  0  0
 22 28  1  0  0  0
 22 32  2  0  0  0
 26 27  1  0  0  0
 28102  1  0  0  0
 28103  1  0  0  0
 29104  1  0  0  0
 29105  1  0  0  0
 33 34  1  0  0  0
 33 66  1  0  0  0
 33 70  2  0  0  0
 34 36  1  0  0  0
 34 59  1  0  0  0
 34106  1  0  0  0
 35 44  2  0  0  0
 35 45  1  0  0  0
 35 68  1  0  0  0
 36 56  1  0  0  0
 36107  1  0  0  0
 37 39  1  0  0  0
 37 47  1  0  0  0
 37 66  1  0  0  0
 37108  1  0  0  0
 38 43  2  0  0  0
 38 46  1  0  0  0
 38 47  1  0  0  0
 39 64  1  0  0  0
 39 67  2  0  0  0
 40 52  1  0  0  0
 40 53  2  0  0  0
 40 58  1  0  0  0
 41109  1  0  0  0
 41110  1  0  0  0
 41111  1  0  0  0
 41 48  1  0  0  0
 42 43  1  0  0  0
 42 66  1  0  0  0
 42112  1  0  0  0
 42113  1  0  0  0
 43 44  1  0  0  0
 44114  1  0  0  0
 45 46  2  0  0  0
 45115  1  0  0  0
 46116  1  0  0  0
 47117  1  0  0  0
 47118  1  0  0  0
 48 56  1  0  0  0
 48 65  1  0  0  0
 48119  1  0  0  0
 49 50  1  0  0  0
 49 53  1  0  0  0
 49 64  1  0  0  0
 49120  1  0  0  0
 50 51  1  0  0  0
 50121  1  0  0  0
 50122  1  0  0  0
 51 52  1  0  0  0
 51123  1  0  0  0
 51124  1  0  0  0
 52125  1  0  0  0
 52126  1  0  0  0
 53 54  1  0  0  0
 54 55  2  0  0  0
 54127  1  0  0  0
 55 57  1  0  0  0
 55128  1  0  0  0
 56 69  2  0  0  0
 57 58  2  0  0  0
 57129  1  0  0  0
 58130  1  0  0  0
 59 60  1  0  0  0
 59 61  1  0  0  0
 59 62  1  0  0  0
 60131  1  0  0  0
 60132  1  0  0  0
 60133  1  0  0  0
 61134  1  0  0  0
 61135  1  0  0  0
 61136  1  0  0  0
 62137  1  0  0  0
 62138  1  0  0  0
 62139  1  0  0  0
 63 65  1  0  0  0
 63140  1  0  0  0
 63141  1  0  0  0
 63142  1  0  0  0
 64143  1  0  0  0
 65144  1  0  0  0
 68 83  1  0  0  0
 71 73  2  0  0  0
 71 75  1  0  0  0
 71145  1  0  0  0
 72 74  1  0  0  0
 72 75  2  0  0  0
 72146  1  0  0  0
 73 76  1  0  0  0
 73147  1  0  0  0
 74 76  2  0  0  0
 74148  1  0  0  0
 75 80  1  0  0  0
 76 81  1  0  0  0
 77 78  2  0  0  0
 77149  1  0  0  0
 77150  1  0  0  0
 78 82  1  0  0  0
 78 83  1  0  0  0
 79151  1  0  0  0
 79152  1  0  0  0
 79153  1  0  0  0
 79 85  1  0  0  0
 80 84  1  0  0  0
 80154  1  0  0  0
 80155  1  0  0  0
 81 85  1  0  0  0
 81156  1  0  0  0
 81157  1  0  0  0
 82 84  1  0  0  0
 82158  1  0  0  0
 82159  1  0  0  0
 83160  1  0  0  0
 83161  1  0  0  0
 84162  1  0  0  0
 84163  1  0  0  0
 85164  1  0  0  0
M  ISO  4   1 100  68 101  83 101  85 100
M  END
> <chiral flag>
0

> <version>
0

> <s_m_source_file>
/data/baiqing/PycharmProjects/Reinvent-master-3.2/result/LINK_invent/BTK/process_docking_weight1_custom_product_contain_oxygen_bond_distance_aromatic_linkinvent_7_9_3/rearranged_h_0132.sdf

> <i_m_source_file_index>
90

> <r_mmod_Potential_Energy-OPLS-2005>
-18.3188781738281

> <r_mmod_Stretch_Energy-OPLS-2005>
32.9913902282715

> <r_mmod_Bend_Energy-OPLS-2005>
90.4002838134766

> <r_mmod_Torsional_Energy-OPLS-2005>
187.076843261719

> <r_mmod_Improper_Torsional_Energy-OPLS-2005>
2.38591527938843

> <r_mmod_Van_der_Waal_Energy-OPLS-2005>
151.57356262207

> <r_mmod_Electrostatic_Energy-OPLS-2005>
-315.564910888672

> <r_mmod_Solvation_Energy-OPLS-2005>
-176.776763916016

> <b_mmod_Minimization_Converged-OPLS-2005>
0

> <r_mmod_RMS_Derivative-OPLS-2005>
0.448252439498901

$$$$
