0
                    3D
 Structure written by MMmdl.
166174  0  0  1  0            999 V2000
  -30.7476  -14.4214   20.5876 C   0  0  0  0  0  0
  -30.4051  -12.2692   19.4397 C   0  0  0  0  0  0
  -29.4906  -12.4740   18.2174 C   0  0  0  0  0  0
  -28.0132  -12.3346   18.6286 C   0  0  0  0  0  0
  -27.6604  -13.1961   19.8705 C   0  0  2  0  0  0
  -28.6940  -12.9921   21.0009 C   0  0  0  0  0  0
  -25.2588  -13.8144   20.5632 C   0  0  0  0  0  0
  -24.1821  -13.0436   20.9125 C   0  0  0  0  0  0
  -24.6345  -11.6902   20.8701 C   0  0  0  0  0  0
  -23.9008  -10.4292   21.0379 C   0  0  0  0  0  0
  -24.3566   -9.4220   21.9178 C   0  0  0  0  0  0
  -23.6250   -8.2251   22.0762 C   0  0  0  0  0  0
  -22.4245   -8.0257   21.3543 C   0  0  0  0  0  0
  -21.9883   -9.0225   20.4627 C   0  0  0  0  0  0
  -22.7197  -10.2108   20.3028 C   0  0  0  0  0  0
  -21.6845   -6.0704   22.5259 C   0  0  0  0  0  0
  -21.4018   -6.5623   23.8194 C   0  0  0  0  0  0
  -21.3666   -5.6784   24.9163 C   0  0  0  0  0  0
  -21.6038   -4.3042   24.7230 C   0  0  0  0  0  0
  -21.8826   -3.8126   23.4350 C   0  0  0  0  0  0
  -21.9204   -4.6931   22.3397 C   0  0  0  0  0  0
  -22.7867  -13.5245   21.1816 C   0  0  0  0  0  0
  -22.1658   -4.2117   21.0971 F   0  0  0  0  0  0
  -21.5647   -3.4527   25.7752 F   0  0  0  0  0  0
  -30.0346  -13.2677   20.4561 N   0  0  0  0  0  0
  -26.2997  -12.9294   20.3319 N   0  0  0  0  0  0
  -25.9268  -11.6469   20.5738 N   0  0  0  0  0  0
  -22.0487  -12.8206   22.0343 N   0  0  0  0  0  0
  -25.4394  -15.1848   20.4066 N   0  0  0  0  0  0
  -31.8160  -14.6016   19.9974 O   0  0  0  0  0  0
  -21.6630   -6.8846   21.4223 O   0  0  0  0  0  0
  -22.3573  -14.5566   20.6703 O   0  0  0  0  0  0
  -24.6149  -31.8706   23.2123 C   0  0  0  0  0  0
  -25.9034  -32.4825   23.8443 C   0  0  1  0  0  0
  -27.2146  -27.4221   20.0644 C   0  0  0  0  0  0
  -25.5895  -33.8630   24.2359 N   0  0  0  0  0  0
  -23.4019  -30.4927   21.5598 C   0  0  2  0  0  0
  -24.8371  -28.9623   20.1235 C   0  0  0  0  0  0
  -22.7393  -29.4637   22.5045 C   0  0  0  0  0  0
  -18.0245  -28.1333   22.8466 C   0  0  0  0  0  0
  -24.1475  -36.7323   23.2640 C   0  0  0  0  0  0
  -25.9367  -30.8238   21.3729 C   0  0  0  0  0  0
  -26.0057  -29.4593   20.7156 C   0  0  0  0  0  0
  -27.1963  -28.6948   20.6865 C   0  0  0  0  0  0
  -26.0130  -26.9355   19.4955 C   0  0  0  0  0  0
  -24.8364  -27.6972   19.5179 C   0  0  0  0  0  0
  -23.6035  -29.8299   20.1747 C   0  0  0  0  0  0
  -25.4097  -36.3119   24.0339 C   0  0  1  0  0  0
  -20.5834  -28.3615   23.1313 C   0  0  2  0  0  0
  -20.6743  -26.9366   22.5376 C   0  0  0  0  0  0
  -19.5701  -26.6362   21.5173 C   0  0  0  0  0  0
  -18.1896  -26.7877   22.1604 C   0  0  0  0  0  0
  -19.1492  -28.8789   23.2876 C   0  0  0  0  0  0
  -18.9425  -30.1407   23.8859 C   0  0  0  0  0  0
  -17.6431  -30.6543   24.0533 C   0  0  0  0  0  0
  -25.9023  -34.9475   23.5141 C   0  0  0  0  0  0
  -16.5318  -29.9032   23.6335 C   0  0  0  0  0  0
  -16.7238  -28.6458   23.0345 C   0  0  0  0  0  0
  -26.4455  -31.6599   25.0768 C   0  0  0  0  0  0
  -25.3682  -31.3646   26.1463 C   0  0  0  0  0  0
  -27.0399  -30.3070   24.6179 C   0  0  0  0  0  0
  -27.5984  -32.4378   25.7562 C   0  0  0  0  0  0
  -27.5574  -37.1827   24.8446 C   0  0  0  0  0  0
  -21.4123  -29.3019   22.3782 N   0  0  0  0  0  0
  -26.4283  -37.3801   23.9386 N   0  0  0  0  0  0
  -24.6704  -31.0762   22.1053 N   0  0  0  0  0  0
  -23.4168  -28.8172   23.3084 O   0  0  0  0  0  0
  -28.3927  -26.6970   20.0274 O   0  0  0  0  0  0
  -26.5584  -34.8904   22.4706 O   0  0  0  0  0  0
  -23.5329  -32.1516   23.7453 O   0  0  0  0  0  0
  -30.1604  -17.8865   23.2247 C   0  0  0  0  0  0
  -29.3721  -19.1146   21.2675 C   0  0  0  0  0  0
  -29.3971  -20.1792   23.4564 C   0  0  0  0  0  0
  -29.8962  -17.9273   21.8396 C   0  0  0  0  0  0
  -29.9645  -19.0212   24.0306 C   0  0  0  0  0  0
  -29.1154  -20.2526   22.0787 C   0  0  0  0  0  0
  -30.2229  -16.7485   21.0160 C   0  0  0  0  0  0
  -30.1910  -15.4627   21.4380 C   0  0  0  0  0  0
  -32.4979  -21.1174   27.6103 C   0  0  0  0  0  0
  -31.7894  -19.8640   27.0837 C   0  0  0  0  0  0
  -28.0238  -24.2387   19.5707 C   0  0  0  0  0  0
  -29.1287  -23.3918   20.2448 C   0  0  0  0  0  0
  -30.8729  -20.1732   25.8961 C   0  0  0  0  0  0
  -28.5051  -25.6302   19.0704 C   0  0  0  0  0  0
  -28.8734  -21.8618   20.2881 C   0  0  0  0  0  0
  -30.3767  -18.9580   25.3424 O   0  0  0  0  0  0
  -28.6105  -21.4587   21.6302 O   0  0  0  0  0  0
  -31.4541  -12.3304   19.1479 H   0  0  0  0  0  0
  -30.2776  -11.2655   19.8477 H   0  0  0  0  0  0
  -29.7304  -11.7424   17.4458 H   0  0  0  0  0  0
  -29.6658  -13.4578   17.7827 H   0  0  0  0  0  0
  -27.8357  -11.2816   18.8501 H   0  0  0  0  0  0
  -27.3600  -12.5791   17.7906 H   0  0  0  0  0  0
  -27.7066  -14.2370   19.5531 H   0  0  0  0  0  0
  -28.6596  -11.9645   21.3659 H   0  0  0  0  0  0
  -28.4359  -13.6101   21.8594 H   0  0  0  0  0  0
  -25.2691   -9.5734   22.4761 H   0  0  0  0  0  0
  -23.9964   -7.4670   22.7515 H   0  0  0  0  0  0
  -21.0828   -8.8708   19.8926 H   0  0  0  0  0  0
  -22.3626  -10.9632   19.6123 H   0  0  0  0  0  0
  -21.1996   -7.6132   23.9688 H   0  0  0  0  0  0
  -21.1483   -6.0512   25.9070 H   0  0  0  0  0  0
  -22.0605   -2.7580   23.2857 H   0  0  0  0  0  0
  -22.4084  -11.9785   22.4580 H   0  0  0  0  0  0
  -21.1126  -13.1247   22.2580 H   0  0  0  0  0  0
  -24.6908  -15.8558   20.5400 H   0  0  0  0  0  0
  -26.3129  -15.6156   20.1266 H   0  0  0  0  0  0
  -26.7096  -32.5508   23.1206 H   0  0  0  0  0  0
  -25.0032  -33.9815   25.0492 H   0  0  0  0  0  0
  -22.6897  -31.3082   21.4257 H   0  0  0  0  0  0
  -23.3732  -35.9657   23.3292 H   0  0  0  0  0  0
  -24.3556  -36.8978   22.2055 H   0  0  0  0  0  0
  -23.7235  -37.6519   23.6677 H   0  0  0  0  0  0
  -26.0575  -31.5899   20.6055 H   0  0  0  0  0  0
  -26.8256  -30.8690   21.9928 H   0  0  0  0  0  0
  -28.1073  -29.0800   21.1243 H   0  0  0  0  0  0
  -25.9559  -25.9639   19.0275 H   0  0  0  0  0  0
  -23.9329  -27.3055   19.0705 H   0  0  0  0  0  0
  -23.7050  -30.6047   19.4151 H   0  0  0  0  0  0
  -22.7260  -29.2479   19.8844 H   0  0  0  0  0  0
  -25.1273  -36.2015   25.0840 H   0  0  0  0  0  0
  -20.9879  -28.3171   24.1439 H   0  0  0  0  0  0
  -20.5642  -26.2224   23.3551 H   0  0  0  0  0  0
  -21.6616  -26.7421   22.1179 H   0  0  0  0  0  0
  -19.6868  -25.6275   21.1191 H   0  0  0  0  0  0
  -19.6617  -27.3155   20.6690 H   0  0  0  0  0  0
  -17.4166  -26.6575   21.4023 H   0  0  0  0  0  0
  -18.0307  -26.0018   22.8998 H   0  0  0  0  0  0
  -19.7911  -30.7212   24.2222 H   0  0  0  0  0  0
  -17.4993  -31.6207   24.5144 H   0  0  0  0  0  0
  -15.5315  -30.2919   23.7678 H   0  0  0  0  0  0
  -15.8641  -28.0764   22.7091 H   0  0  0  0  0  0
  -24.5876  -30.6994   25.7737 H   0  0  0  0  0  0
  -24.8799  -32.2757   26.4920 H   0  0  0  0  0  0
  -25.8003  -30.8780   27.0218 H   0  0  0  0  0  0
  -26.3040  -29.6744   24.1186 H   0  0  0  0  0  0
  -27.4172  -29.7359   25.4676 H   0  0  0  0  0  0
  -27.8837  -30.4458   23.9414 H   0  0  0  0  0  0
  -27.2588  -33.3731   26.2039 H   0  0  0  0  0  0
  -28.3845  -32.6878   25.0417 H   0  0  0  0  0  0
  -28.0580  -31.8564   26.5566 H   0  0  0  0  0  0
  -28.2546  -38.0173   24.7563 H   0  0  0  0  0  0
  -28.1153  -36.2701   24.6241 H   0  0  0  0  0  0
  -27.2268  -37.1428   25.8843 H   0  0  0  0  0  0
  -20.9272  -29.8840   21.7089 H   0  0  0  0  0  0
  -26.0182  -38.2897   24.1336 H   0  0  0  0  0  0
  -30.5998  -17.0036   23.6658 H   0  0  0  0  0  0
  -29.1693  -19.1422   20.2058 H   0  0  0  0  0  0
  -29.1972  -21.0504   24.0626 H   0  0  0  0  0  0
  -30.5795  -16.9635   20.0161 H   0  0  0  0  0  0
  -29.8126  -15.2140   22.4174 H   0  0  0  0  0  0
  -33.1682  -20.8714   28.4343 H   0  0  0  0  0  0
  -31.7813  -21.8556   27.9696 H   0  0  0  0  0  0
  -33.0976  -21.5865   26.8291 H   0  0  0  0  0  0
  -31.2089  -19.4033   27.8837 H   0  0  0  0  0  0
  -32.5403  -19.1314   26.7855 H   0  0  0  0  0  0
  -27.1580  -24.3299   20.2274 H   0  0  0  0  0  0
  -27.6624  -23.6918   18.6978 H   0  0  0  0  0  0
  -29.3186  -23.7756   21.2487 H   0  0  0  0  0  0
  -30.0606  -23.5500   19.7024 H   0  0  0  0  0  0
  -31.4420  -20.7283   25.1475 H   0  0  0  0  0  0
  -30.0413  -20.8024   26.2152 H   0  0  0  0  0  0
  -27.9825  -25.8946   18.1486 H   0  0  0  0  0  0
  -29.5446  -25.5680   18.7530 H   0  0  0  0  0  0
  -29.7591  -21.3616   19.8925 H   0  0  0  0  0  0
  -28.0375  -21.5730   19.6504 H   0  0  0  0  0  0
  1 25  1  0  0  0
  1 30  2  0  0  0
  1 78  1  0  0  0
  2  3  1  0  0  0
  2 25  1  0  0  0
  2 88  1  0  0  0
  2 89  1  0  0  0
  3  4  1  0  0  0
  3 90  1  0  0  0
  3 91  1  0  0  0
  4  5  1  0  0  0
  4 92  1  0  0  0
  4 93  1  0  0  0
  5  6  1  0  0  0
  5 26  1  0  0  0
  5 94  1  0  0  0
  6 25  1  0  0  0
  6 95  1  0  0  0
  6 96  1  0  0  0
  7  8  2  0  0  0
  7 26  1  0  0  0
  7 29  1  0  0  0
  8  9  1  0  0  0
  8 22  1  0  0  0
  9 10  1  0  0  0
  9 27  2  0  0  0
 10 11  2  0  0  0
 10 15  1  0  0  0
 11 12  1  0  0  0
 11 97  1  0  0  0
 12 13  2  0  0  0
 12 98  1  0  0  0
 13 14  1  0  0  0
 13 31  1  0  0  0
 14 15  2  0  0  0
 14 99  1  0  0  0
 15100  1  0  0  0
 16 17  2  0  0  0
 16 21  1  0  0  0
 16 31  1  0  0  0
 17 18  1  0  0  0
 17101  1  0  0  0
 18 19  2  0  0  0
 18102  1  0  0  0
 19 20  1  0  0  0
 19 24  1  0  0  0
 20 21  2  0  0  0
 20103  1  0  0  0
 21 23  1  0  0  0
 22 28  1  0  0  0
 22 32  2  0  0  0
 26 27  1  0  0  0
 28104  1  0  0  0
 28105  1  0  0  0
 29106  1  0  0  0
 29107  1  0  0  0
 33 34  1  0  0  0
 33 66  1  0  0  0
 33 70  2  0  0  0
 34 36  1  0  0  0
 34 59  1  0  0  0
 34108  1  0  0  0
 35 44  2  0  0  0
 35 45  1  0  0  0
 35 68  1  0  0  0
 36 56  1  0  0  0
 36109  1  0  0  0
 37 39  1  0  0  0
 37 47  1  0  0  0
 37 66  1  0  0  0
 37110  1  0  0  0
 38 43  2  0  0  0
 38 46  1  0  0  0
 38 47  1  0  0  0
 39 64  1  0  0  0
 39 67  2  0  0  0
 40 52  1  0  0  0
 40 53  2  0  0  0
 40 58  1  0  0  0
 41111  1  0  0  0
 41112  1  0  0  0
 41113  1  0  0  0
 41 48  1  0  0  0
 42 43  1  0  0  0
 42 66  1  0  0  0
 42114  1  0  0  0
 42115  1  0  0  0
 43 44  1  0  0  0
 44116  1  0  0  0
 45 46  2  0  0  0
 45117  1  0  0  0
 46118  1  0  0  0
 47119  1  0  0  0
 47120  1  0  0  0
 48 56  1  0  0  0
 48 65  1  0  0  0
 48121  1  0  0  0
 49 50  1  0  0  0
 49 53  1  0  0  0
 49 64  1  0  0  0
 49122  1  0  0  0
 50 51  1  0  0  0
 50123  1  0  0  0
 50124  1  0  0  0
 51 52  1  0  0  0
 51125  1  0  0  0
 51126  1  0  0  0
 52127  1  0  0  0
 52128  1  0  0  0
 53 54  1  0  0  0
 54 55  2  0  0  0
 54129  1  0  0  0
 55 57  1  0  0  0
 55130  1  0  0  0
 56 69  2  0  0  0
 57 58  2  0  0  0
 57131  1  0  0  0
 58132  1  0  0  0
 59 60  1  0  0  0
 59 61  1  0  0  0
 59 62  1  0  0  0
 60133  1  0  0  0
 60134  1  0  0  0
 60135  1  0  0  0
 61136  1  0  0  0
 61137  1  0  0  0
 61138  1  0  0  0
 62139  1  0  0  0
 62140  1  0  0  0
 62141  1  0  0  0
 63 65  1  0  0  0
 63142  1  0  0  0
 63143  1  0  0  0
 63144  1  0  0  0
 64145  1  0  0  0
 65146  1  0  0  0
 68 84  1  0  0  0
 71 74  2  0  0  0
 71 75  1  0  0  0
 71147  1  0  0  0
 72 74  1  0  0  0
 72 76  2  0  0  0
 72148  1  0  0  0
 73 75  2  0  0  0
 73 76  1  0  0  0
 73149  1  0  0  0
 74 77  1  0  0  0
 75 86  1  0  0  0
 76 87  1  0  0  0
 77 78  2  0  0  0
 77150  1  0  0  0
 78151  1  0  0  0
 79 80  1  0  0  0
 79152  1  0  0  0
 79153  1  0  0  0
 79154  1  0  0  0
 80 83  1  0  0  0
 80155  1  0  0  0
 80156  1  0  0  0
 81 82  1  0  0  0
 81 84  1  0  0  0
 81157  1  0  0  0
 81158  1  0  0  0
 82 85  1  0  0  0
 82159  1  0  0  0
 82160  1  0  0  0
 83 86  1  0  0  0
 83161  1  0  0  0
 83162  1  0  0  0
 84163  1  0  0  0
 84164  1  0  0  0
 85 87  1  0  0  0
 85165  1  0  0  0
 85166  1  0  0  0
M  ISO  4   1 100  68 101  78 100  84 101
M  END
> <chiral flag>
0

> <version>
0

> <s_m_source_file>
/data/baiqing/PycharmProjects/Reinvent-master-3.2/result/LINK_invent/BTK/process_docking_weight1_custom_product_contain_oxygen_bond_distance_aromatic_linkinvent_7_9_3/rearranged_h_0118.sdf

> <i_m_source_file_index>
1

> <r_mmod_Potential_Energy-OPLS-2005>
19.1822452545166

> <r_mmod_Stretch_Energy-OPLS-2005>
37.5848350524902

> <r_mmod_Bend_Energy-OPLS-2005>
111.319442749023

> <r_mmod_Torsional_Energy-OPLS-2005>
225.379989624023

> <r_mmod_Improper_Torsional_Energy-OPLS-2005>
3.02875399589539

> <r_mmod_Van_der_Waal_Energy-OPLS-2005>
168.876052856445

> <r_mmod_Electrostatic_Energy-OPLS-2005>
-339.141510009766

> <r_mmod_Solvation_Energy-OPLS-2005>
-200.659118652344

> <b_mmod_Minimization_Converged-OPLS-2005>
0

> <r_mmod_RMS_Derivative-OPLS-2005>
3.47368836402893

$$$$
1
                    3D
 Structure written by MMmdl.
153161  0  0  1  0            999 V2000
  -30.6876  -14.5723   20.4829 C   0  0  0  0  0  0
  -30.4181  -12.3418   19.4628 C   0  0  0  0  0  0
  -29.5032  -12.4873   18.2273 C   0  0  0  0  0  0
  -28.0227  -12.3517   18.6320 C   0  0  0  0  0  0
  -27.6538  -13.2222   19.8637 C   0  0  2  0  0  0
  -28.6949  -13.0754   20.9950 C   0  0  0  0  0  0
  -25.2563  -13.8195   20.5689 C   0  0  0  0  0  0
  -24.1831  -13.0451   20.9181 C   0  0  0  0  0  0
  -24.6403  -11.6924   20.8739 C   0  0  0  0  0  0
  -23.9082  -10.4298   21.0400 C   0  0  0  0  0  0
  -24.3630   -9.4217   21.9180 C   0  0  0  0  0  0
  -23.6304   -8.2249   22.0753 C   0  0  0  0  0  0
  -22.4282   -8.0283   21.3545 C   0  0  0  0  0  0
  -21.9919   -9.0262   20.4649 C   0  0  0  0  0  0
  -22.7251  -10.2141   20.3059 C   0  0  0  0  0  0
  -21.6861   -6.0738   22.5277 C   0  0  0  0  0  0
  -21.4013   -6.5643   23.8209 C   0  0  0  0  0  0
  -21.3662   -5.6799   24.9172 C   0  0  0  0  0  0
  -21.6045   -4.3060   24.7227 C   0  0  0  0  0  0
  -21.8825   -3.8150   23.4348 C   0  0  0  0  0  0
  -21.9196   -4.6962   22.3401 C   0  0  0  0  0  0
  -22.7856  -13.5235   21.1855 C   0  0  0  0  0  0
  -22.1664   -4.2148   21.0982 F   0  0  0  0  0  0
  -21.5633   -3.4545   25.7742 F   0  0  0  0  0  0
  -30.0193  -13.3785   20.4360 N   0  0  0  0  0  0
  -26.2998  -12.9387   20.3329 N   0  0  0  0  0  0
  -25.9337  -11.6536   20.5766 N   0  0  0  0  0  0
  -22.0512  -12.8212   22.0408 N   0  0  0  0  0  0
  -25.4288  -15.1913   20.4120 N   0  0  0  0  0  0
  -31.8607  -14.6414   20.1074 O   0  0  0  0  0  0
  -21.6649   -6.8882   21.4238 O   0  0  0  0  0  0
  -22.3540  -14.5549   20.6719 O   0  0  0  0  0  0
  -24.6202  -31.8633   23.2084 C   0  0  0  0  0  0
  -25.9078  -32.4797   23.8381 C   0  0  1  0  0  0
  -27.2265  -27.3710   20.1108 C   0  0  0  0  0  0
  -25.5925  -33.8599   24.2312 N   0  0  0  0  0  0
  -23.4115  -30.4884   21.5492 C   0  0  2  0  0  0
  -24.8576  -28.9511   20.1122 C   0  0  0  0  0  0
  -22.7437  -29.4639   22.4966 C   0  0  0  0  0  0
  -18.0274  -28.1390   22.8485 C   0  0  0  0  0  0
  -24.1490  -36.7293   23.2641 C   0  0  0  0  0  0
  -25.9474  -30.8092   21.3738 C   0  0  0  0  0  0
  -26.0220  -29.4416   20.7158 C   0  0  0  0  0  0
  -27.2086  -28.6614   20.7087 C   0  0  0  0  0  0
  -26.0412  -26.9208   19.4822 C   0  0  0  0  0  0
  -24.8660  -27.6930   19.4897 C   0  0  0  0  0  0
  -23.6237  -29.8248   20.1626 C   0  0  0  0  0  0
  -25.4117  -36.3095   24.0333 C   0  0  1  0  0  0
  -20.5870  -28.3680   23.1304 C   0  0  2  0  0  0
  -20.6776  -26.9412   22.5421 C   0  0  0  0  0  0
  -19.5756  -26.6392   21.5219 C   0  0  0  0  0  0
  -18.1930  -26.7935   22.1620 C   0  0  0  0  0  0
  -19.1524  -28.8852   23.2887 C   0  0  0  0  0  0
  -18.9452  -30.1460   23.8898 C   0  0  0  0  0  0
  -17.6453  -30.6594   24.0569 C   0  0  0  0  0  0
  -25.9045  -34.9461   23.5119 C   0  0  0  0  0  0
  -16.5344  -29.9094   23.6339 C   0  0  0  0  0  0
  -16.7260  -28.6513   23.0349 C   0  0  0  0  0  0
  -26.4503  -31.6592   25.0725 C   0  0  0  0  0  0
  -25.3772  -31.3686   26.1469 C   0  0  0  0  0  0
  -27.0349  -30.3028   24.6149 C   0  0  0  0  0  0
  -27.6072  -32.4324   25.7484 C   0  0  0  0  0  0
  -27.5580  -37.1807   24.8469 C   0  0  0  0  0  0
  -21.4157  -29.3032   22.3698 N   0  0  0  0  0  0
  -26.4300  -37.3784   23.9407 N   0  0  0  0  0  0
  -24.6780  -31.0690   22.1012 N   0  0  0  0  0  0
  -23.4180  -28.8177   23.3026 O   0  0  0  0  0  0
  -28.3673  -26.5718   20.1650 O   0  0  0  0  0  0
  -26.5596  -34.8918   22.4675 O   0  0  0  0  0  0
  -23.5381  -32.1410   23.7445 O   0  0  0  0  0  0
  -31.5843  -18.7097   18.9143 C   0  0  0  0  0  0
  -31.5952  -20.1254   18.8151 C   0  0  0  0  0  0
  -30.6405  -18.3467   19.8286 C   0  0  0  0  0  0
  -30.6458  -20.5853   19.6906 C   0  0  0  0  0  0
  -30.3797  -16.9742   20.2542 C   0  0  0  0  0  0
  -30.3366  -21.9855   19.9575 C   0  0  0  0  0  0
  -29.9226  -15.8018   20.7946 C   0  0  0  0  0  0
  -29.2906  -22.7266   20.4032 C   0  0  0  0  0  0
  -32.4997  -20.9442   17.9286 C   0  0  0  0  0  0
  -29.3572  -24.2661   20.6102 C   0  0  0  0  0  0
  -28.2072  -25.1288   19.9938 C   0  0  0  0  0  0
  -30.0108  -19.5029   20.3017 O   0  0  0  0  0  0
  -31.4660  -12.4148   19.1670 H   0  0  0  0  0  0
  -30.3087  -11.3508   19.9058 H   0  0  0  0  0  0
  -29.7541  -11.7294   17.4841 H   0  0  0  0  0  0
  -29.6718  -13.4534   17.7496 H   0  0  0  0  0  0
  -27.8405  -11.2997   18.8562 H   0  0  0  0  0  0
  -27.3763  -12.5998   17.7892 H   0  0  0  0  0  0
  -27.6771  -14.2591   19.5282 H   0  0  0  0  0  0
  -28.6870  -12.0592   21.3909 H   0  0  0  0  0  0
  -28.4503  -13.7172   21.8411 H   0  0  0  0  0  0
  -25.2774   -9.5691   22.4760 H   0  0  0  0  0  0
  -24.0013   -7.4644   22.7474 H   0  0  0  0  0  0
  -21.0853   -8.8789   19.8960 H   0  0  0  0  0  0
  -22.3707  -10.9684   19.6174 H   0  0  0  0  0  0
  -21.1995   -7.6150   23.9710 H   0  0  0  0  0  0
  -21.1481   -6.0529   25.9078 H   0  0  0  0  0  0
  -22.0599   -2.7608   23.2851 H   0  0  0  0  0  0
  -22.4140  -11.9859   22.4761 H   0  0  0  0  0  0
  -21.1135  -13.1232   22.2652 H   0  0  0  0  0  0
  -24.6670  -15.8507   20.5283 H   0  0  0  0  0  0
  -26.2887  -15.6291   20.1048 H   0  0  0  0  0  0
  -26.7136  -32.5485   23.1123 H   0  0  0  0  0  0
  -25.0121  -33.9758   25.0490 H   0  0  0  0  0  0
  -22.7029  -31.3074   21.4098 H   0  0  0  0  0  0
  -23.3754  -35.9625   23.3320 H   0  0  0  0  0  0
  -24.3574  -36.8892   22.2050 H   0  0  0  0  0  0
  -23.7239  -37.6502   23.6644 H   0  0  0  0  0  0
  -26.0766  -31.5770   20.6093 H   0  0  0  0  0  0
  -26.8284  -30.8534   22.0026 H   0  0  0  0  0  0
  -28.1022  -29.0323   21.1918 H   0  0  0  0  0  0
  -25.9997  -25.9638   18.9838 H   0  0  0  0  0  0
  -23.9735  -27.3119   19.0125 H   0  0  0  0  0  0
  -23.7420  -30.6031   19.4079 H   0  0  0  0  0  0
  -22.7457  -29.2521   19.8590 H   0  0  0  0  0  0
  -25.1301  -36.1960   25.0827 H   0  0  0  0  0  0
  -20.9952  -28.3258   24.1429 H   0  0  0  0  0  0
  -20.5706  -26.2280   23.3608 H   0  0  0  0  0  0
  -21.6643  -26.7479   22.1199 H   0  0  0  0  0  0
  -19.6927  -25.6306   21.1245 H   0  0  0  0  0  0
  -19.6709  -27.3207   20.6755 H   0  0  0  0  0  0
  -17.4206  -26.6674   21.4017 H   0  0  0  0  0  0
  -18.0331  -26.0082   22.9020 H   0  0  0  0  0  0
  -19.7927  -30.7278   24.2264 H   0  0  0  0  0  0
  -17.5010  -31.6273   24.5169 H   0  0  0  0  0  0
  -15.5344  -30.2995   23.7679 H   0  0  0  0  0  0
  -15.8654  -28.0844   22.7061 H   0  0  0  0  0  0
  -24.5955  -30.7026   25.7796 H   0  0  0  0  0  0
  -24.8958  -32.2830   26.4944 H   0  0  0  0  0  0
  -25.8140  -30.8836   27.0209 H   0  0  0  0  0  0
  -26.2902  -29.6759   24.1231 H   0  0  0  0  0  0
  -27.4120  -29.7301   25.4632 H   0  0  0  0  0  0
  -27.8743  -30.4321   23.9312 H   0  0  0  0  0  0
  -27.2692  -33.3622   26.2070 H   0  0  0  0  0  0
  -28.3877  -32.6889   25.0308 H   0  0  0  0  0  0
  -28.0750  -31.8449   26.5393 H   0  0  0  0  0  0
  -28.2616  -38.0089   24.7511 H   0  0  0  0  0  0
  -28.1062  -36.2621   24.6318 H   0  0  0  0  0  0
  -27.2289  -37.1481   25.8871 H   0  0  0  0  0  0
  -20.9331  -29.8725   21.6892 H   0  0  0  0  0  0
  -26.0186  -38.2863   24.1408 H   0  0  0  0  0  0
  -32.2211  -18.0181   18.3797 H   0  0  0  0  0  0
  -29.5262  -17.4114   20.7486 H   0  0  0  0  0  0
  -31.2081  -22.5928   19.7561 H   0  0  0  0  0  0
  -29.0448  -15.7419   21.4272 H   0  0  0  0  0  0
  -28.3577  -22.2389   20.6495 H   0  0  0  0  0  0
  -33.1221  -20.2984   17.3083 H   0  0  0  0  0  0
  -33.1562  -21.5745   18.5289 H   0  0  0  0  0  0
  -31.9124  -21.5856   17.2711 H   0  0  0  0  0  0
  -30.3110  -24.6350   20.2308 H   0  0  0  0  0  0
  -29.3772  -24.4423   21.6861 H   0  0  0  0  0  0
  -27.2789  -24.7962   20.4614 H   0  0  0  0  0  0
  -28.1222  -24.9136   18.9282 H   0  0  0  0  0  0
  1 25  1  0  0  0
  1 30  2  0  0  0
  1 77  1  0  0  0
  2  3  1  0  0  0
  2 25  1  0  0  0
  2 83  1  0  0  0
  2 84  1  0  0  0
  3  4  1  0  0  0
  3 85  1  0  0  0
  3 86  1  0  0  0
  4  5  1  0  0  0
  4 87  1  0  0  0
  4 88  1  0  0  0
  5  6  1  0  0  0
  5 26  1  0  0  0
  5 89  1  0  0  0
  6 25  1  0  0  0
  6 90  1  0  0  0
  6 91  1  0  0  0
  7  8  2  0  0  0
  7 26  1  0  0  0
  7 29  1  0  0  0
  8  9  1  0  0  0
  8 22  1  0  0  0
  9 10  1  0  0  0
  9 27  2  0  0  0
 10 11  2  0  0  0
 10 15  1  0  0  0
 11 12  1  0  0  0
 11 92  1  0  0  0
 12 13  2  0  0  0
 12 93  1  0  0  0
 13 14  1  0  0  0
 13 31  1  0  0  0
 14 15  2  0  0  0
 14 94  1  0  0  0
 15 95  1  0  0  0
 16 17  2  0  0  0
 16 21  1  0  0  0
 16 31  1  0  0  0
 17 18  1  0  0  0
 17 96  1  0  0  0
 18 19  2  0  0  0
 18 97  1  0  0  0
 19 20  1  0  0  0
 19 24  1  0  0  0
 20 21  2  0  0  0
 20 98  1  0  0  0
 21 23  1  0  0  0
 22 28  1  0  0  0
 22 32  2  0  0  0
 26 27  1  0  0  0
 28 99  1  0  0  0
 28100  1  0  0  0
 29101  1  0  0  0
 29102  1  0  0  0
 33 34  1  0  0  0
 33 66  1  0  0  0
 33 70  2  0  0  0
 34 36  1  0  0  0
 34 59  1  0  0  0
 34103  1  0  0  0
 35 44  2  0  0  0
 35 45  1  0  0  0
 35 68  1  0  0  0
 36 56  1  0  0  0
 36104  1  0  0  0
 37 39  1  0  0  0
 37 47  1  0  0  0
 37 66  1  0  0  0
 37105  1  0  0  0
 38 43  2  0  0  0
 38 46  1  0  0  0
 38 47  1  0  0  0
 39 64  1  0  0  0
 39 67  2  0  0  0
 40 52  1  0  0  0
 40 53  2  0  0  0
 40 58  1  0  0  0
 41106  1  0  0  0
 41107  1  0  0  0
 41108  1  0  0  0
 41 48  1  0  0  0
 42 43  1  0  0  0
 42 66  1  0  0  0
 42109  1  0  0  0
 42110  1  0  0  0
 43 44  1  0  0  0
 44111  1  0  0  0
 45 46  2  0  0  0
 45112  1  0  0  0
 46113  1  0  0  0
 47114  1  0  0  0
 47115  1  0  0  0
 48 56  1  0  0  0
 48 65  1  0  0  0
 48116  1  0  0  0
 49 50  1  0  0  0
 49 53  1  0  0  0
 49 64  1  0  0  0
 49117  1  0  0  0
 50 51  1  0  0  0
 50118  1  0  0  0
 50119  1  0  0  0
 51 52  1  0  0  0
 51120  1  0  0  0
 51121  1  0  0  0
 52122  1  0  0  0
 52123  1  0  0  0
 53 54  1  0  0  0
 54 55  2  0  0  0
 54124  1  0  0  0
 55 57  1  0  0  0
 55125  1  0  0  0
 56 69  2  0  0  0
 57 58  2  0  0  0
 57126  1  0  0  0
 58127  1  0  0  0
 59 60  1  0  0  0
 59 61  1  0  0  0
 59 62  1  0  0  0
 60128  1  0  0  0
 60129  1  0  0  0
 60130  1  0  0  0
 61131  1  0  0  0
 61132  1  0  0  0
 61133  1  0  0  0
 62134  1  0  0  0
 62135  1  0  0  0
 62136  1  0  0  0
 63 65  1  0  0  0
 63137  1  0  0  0
 63138  1  0  0  0
 63139  1  0  0  0
 64140  1  0  0  0
 65141  1  0  0  0
 68 81  1  0  0  0
 71 72  1  0  0  0
 71 73  2  0  0  0
 71142  1  0  0  0
 72 74  2  0  0  0
 72 79  1  0  0  0
 73 75  1  0  0  0
 73 82  1  0  0  0
 74 76  1  0  0  0
 74 82  1  0  0  0
 75 77  2  0  0  0
 75143  1  0  0  0
 76 78  2  0  0  0
 76144  1  0  0  0
 77145  1  0  0  0
 78 80  1  0  0  0
 78146  1  0  0  0
 79147  1  0  0  0
 79148  1  0  0  0
 79149  1  0  0  0
 80 81  1  0  0  0
 80150  1  0  0  0
 80151  1  0  0  0
 81152  1  0  0  0
 81153  1  0  0  0
M  ISO  4   1 100  68 101  77 100  81 101
M  END
> <chiral flag>
0

> <version>
0

> <s_m_source_file>
/data/baiqing/PycharmProjects/Reinvent-master-3.2/result/LINK_invent/BTK/process_docking_weight1_custom_product_contain_oxygen_bond_distance_aromatic_linkinvent_7_9_3/rearranged_h_0118.sdf

> <i_m_source_file_index>
2

> <r_mmod_Potential_Energy-OPLS-2005>
237.657638549805

> <r_mmod_Stretch_Energy-OPLS-2005>
54.672290802002

> <r_mmod_Bend_Energy-OPLS-2005>
361.810638427734

> <r_mmod_Torsional_Energy-OPLS-2005>
184.032562255859

> <r_mmod_Improper_Torsional_Energy-OPLS-2005>
4.27151966094971

> <r_mmod_Van_der_Waal_Energy-OPLS-2005>
137.933609008789

> <r_mmod_Electrostatic_Energy-OPLS-2005>
-337.182403564453

> <r_mmod_Solvation_Energy-OPLS-2005>
-199.66455078125

> <b_mmod_Minimization_Converged-OPLS-2005>
0

> <r_mmod_RMS_Derivative-OPLS-2005>
1.45029127597809

$$$$
2
                    3D
 Structure written by MMmdl.
165174  0  0  1  0            999 V2000
  -30.6775  -14.7279   20.4611 C   0  0  0  0  0  0
  -30.4181  -12.4461   19.4877 C   0  0  0  0  0  0
  -29.5136  -12.5163   18.2402 C   0  0  0  0  0  0
  -28.0393  -12.3386   18.6490 C   0  0  0  0  0  0
  -27.6406  -13.2436   19.8475 C   0  0  2  0  0  0
  -28.6839  -13.2045   20.9875 C   0  0  0  0  0  0
  -25.2491  -13.8225   20.5678 C   0  0  0  0  0  0
  -24.1796  -13.0456   20.9199 C   0  0  0  0  0  0
  -24.6386  -11.6935   20.8721 C   0  0  0  0  0  0
  -23.9071  -10.4302   21.0374 C   0  0  0  0  0  0
  -24.3626   -9.4223   21.9156 C   0  0  0  0  0  0
  -23.6301   -8.2257   22.0733 C   0  0  0  0  0  0
  -22.4283   -8.0282   21.3537 C   0  0  0  0  0  0
  -21.9914   -9.0253   20.4636 C   0  0  0  0  0  0
  -22.7240  -10.2132   20.3035 C   0  0  0  0  0  0
  -21.6858   -6.0722   22.5279 C   0  0  0  0  0  0
  -21.4008   -6.5621   23.8204 C   0  0  0  0  0  0
  -21.3669   -5.6778   24.9177 C   0  0  0  0  0  0
  -21.6048   -4.3037   24.7220 C   0  0  0  0  0  0
  -21.8827   -3.8135   23.4347 C   0  0  0  0  0  0
  -21.9191   -4.6946   22.3393 C   0  0  0  0  0  0
  -22.7812  -13.5222   21.1853 C   0  0  0  0  0  0
  -22.1655   -4.2126   21.0980 F   0  0  0  0  0  0
  -21.5644   -3.4529   25.7738 F   0  0  0  0  0  0
  -29.9930  -13.5318   20.4065 N   0  0  0  0  0  0
  -26.2935  -12.9451   20.3274 N   0  0  0  0  0  0
  -25.9327  -11.6580   20.5720 N   0  0  0  0  0  0
  -22.0443  -12.8236   22.0424 N   0  0  0  0  0  0
  -25.4193  -15.1951   20.4079 N   0  0  0  0  0  0
  -31.8652  -14.7224   20.1343 O   0  0  0  0  0  0
  -21.6648   -6.8874   21.4237 O   0  0  0  0  0  0
  -22.3502  -14.5518   20.6682 O   0  0  0  0  0  0
  -24.6297  -31.8558   23.1938 C   0  0  0  0  0  0
  -25.9112  -32.4749   23.8302 C   0  0  1  0  0  0
  -27.2256  -27.2718   20.1311 C   0  0  0  0  0  0
  -25.5894  -33.8547   24.2199 N   0  0  0  0  0  0
  -23.4262  -30.4781   21.5391 C   0  0  2  0  0  0
  -24.8741  -28.9224   20.1162 C   0  0  0  0  0  0
  -22.7499  -29.4602   22.4914 C   0  0  0  0  0  0
  -18.0297  -28.1358   22.8525 C   0  0  0  0  0  0
  -24.1494  -36.7288   23.2641 C   0  0  0  0  0  0
  -25.9733  -30.7786   21.3680 C   0  0  0  0  0  0
  -26.0483  -29.3994   20.7134 C   0  0  0  0  0  0
  -27.2301  -28.5897   20.7017 C   0  0  0  0  0  0
  -26.0279  -26.8630   19.5055 C   0  0  0  0  0  0
  -24.8692  -27.6614   19.5017 C   0  0  0  0  0  0
  -23.6422  -29.8051   20.1594 C   0  0  0  0  0  0
  -25.4121  -36.3057   24.0314 C   0  0  1  0  0  0
  -20.5912  -28.3675   23.1279 C   0  0  2  0  0  0
  -20.6766  -26.9389   22.5422 C   0  0  0  0  0  0
  -19.5715  -26.6360   21.5239 C   0  0  0  0  0  0
  -18.1909  -26.7905   22.1662 C   0  0  0  0  0  0
  -19.1558  -28.8824   23.2909 C   0  0  0  0  0  0
  -18.9477  -30.1429   23.8918 C   0  0  0  0  0  0
  -17.6470  -30.6567   24.0553 C   0  0  0  0  0  0
  -25.9067  -34.9438   23.5070 C   0  0  0  0  0  0
  -16.5360  -29.9071   23.6305 C   0  0  0  0  0  0
  -16.7289  -28.6476   23.0368 C   0  0  0  0  0  0
  -26.4466  -31.6569   25.0692 C   0  0  0  0  0  0
  -25.3686  -31.3746   26.1415 C   0  0  0  0  0  0
  -27.0273  -30.2965   24.6163 C   0  0  0  0  0  0
  -27.6004  -32.4327   25.7478 C   0  0  0  0  0  0
  -27.5576  -37.1796   24.8460 C   0  0  0  0  0  0
  -21.4206  -29.3032   22.3666 N   0  0  0  0  0  0
  -26.4284  -37.3767   23.9407 N   0  0  0  0  0  0
  -24.6958  -31.0555   22.0895 N   0  0  0  0  0  0
  -23.4221  -28.8136   23.2995 O   0  0  0  0  0  0
  -28.3344  -26.3955   20.1518 O   0  0  0  0  0  0
  -26.5683  -34.8922   22.4666 O   0  0  0  0  0  0
  -23.5444  -32.1360   23.7236 O   0  0  0  0  0  0
  -31.7939  -17.6565   20.2206 C   0  0  0  0  0  0
  -29.5613  -18.5105   20.5082 C   0  0  0  0  0  0
  -31.3590  -20.0656   19.8864 C   0  0  0  0  0  0
  -32.2476  -18.9521   19.9028 C   0  0  0  0  0  0
  -29.9906  -19.8811   20.2399 C   0  0  0  0  0  0
  -30.4381  -17.3495   20.4794 C   0  0  0  0  0  0
  -29.8026  -22.5577   22.0889 C   0  0  0  0  0  0
  -32.9483  -22.0270   19.8975 C   0  0  0  0  0  0
  -31.8340  -21.4041   19.4708 C   0  0  0  0  0  0
  -30.4549  -23.9005   22.3574 C   0  0  0  0  0  0
  -30.5463  -24.5091   20.9596 C   0  0  0  0  0  0
  -29.3633  -23.8855   20.2041 C   0  0  2  0  0  0
  -33.7219  -19.0749   19.5251 C   0  0  0  0  0  0
  -28.9808  -21.1307   20.2162 C   0  0  0  0  0  0
  -28.1263  -24.9167   20.3688 C   0  0  0  0  0  0
  -29.3024  -22.4907   20.8441 N   0  0  0  0  0  0
  -30.0005  -15.9287   20.6808 N   0  0  0  0  0  0
  -29.8096  -21.6480   22.9222 O   0  0  0  0  0  0
  -31.4657  -12.5237   19.1917 H   0  0  0  0  0  0
  -30.3275  -11.4758   19.9775 H   0  0  0  0  0  0
  -29.8028  -11.7480   17.5224 H   0  0  0  0  0  0
  -29.6518  -13.4752   17.7368 H   0  0  0  0  0  0
  -27.9005  -11.2890   18.9132 H   0  0  0  0  0  0
  -27.3865  -12.5253   17.7951 H   0  0  0  0  0  0
  -27.6290  -14.2627   19.4600 H   0  0  0  0  0  0
  -28.7083  -12.2195   21.4539 H   0  0  0  0  0  0
  -28.4193  -13.9117   21.7737 H   0  0  0  0  0  0
  -25.2754   -9.5698   22.4740 H   0  0  0  0  0  0
  -24.0000   -7.4646   22.7453 H   0  0  0  0  0  0
  -21.0838   -8.8769   19.8949 H   0  0  0  0  0  0
  -22.3680  -10.9666   19.6149 H   0  0  0  0  0  0
  -21.1987   -7.6123   23.9706 H   0  0  0  0  0  0
  -21.1492   -6.0500   25.9076 H   0  0  0  0  0  0
  -22.0597   -2.7587   23.2852 H   0  0  0  0  0  0
  -22.4025  -11.9927   22.4891 H   0  0  0  0  0  0
  -21.1027  -13.1256   22.2523 H   0  0  0  0  0  0
  -24.6560  -15.8545   20.5131 H   0  0  0  0  0  0
  -26.2705  -15.6301   20.0770 H   0  0  0  0  0  0
  -26.7200  -32.5410   23.1078 H   0  0  0  0  0  0
  -24.9935  -33.9664   25.0265 H   0  0  0  0  0  0
  -22.7231  -31.3000   21.3890 H   0  0  0  0  0  0
  -23.3739  -35.9638   23.3289 H   0  0  0  0  0  0
  -24.3607  -36.8926   22.2063 H   0  0  0  0  0  0
  -23.7264  -37.6485   23.6692 H   0  0  0  0  0  0
  -26.1147  -31.5409   20.5991 H   0  0  0  0  0  0
  -26.8523  -30.8299   22.0002 H   0  0  0  0  0  0
  -28.1344  -28.9610   21.1638 H   0  0  0  0  0  0
  -25.9620  -25.9097   19.0061 H   0  0  0  0  0  0
  -23.9722  -27.2872   19.0267 H   0  0  0  0  0  0
  -23.7598  -30.5766   19.3985 H   0  0  0  0  0  0
  -22.7631  -29.2322   19.8571 H   0  0  0  0  0  0
  -25.1308  -36.1901   25.0807 H   0  0  0  0  0  0
  -21.0058  -28.3266   24.1377 H   0  0  0  0  0  0
  -20.5650  -26.2300   23.3653 H   0  0  0  0  0  0
  -21.6625  -26.7373   22.1207 H   0  0  0  0  0  0
  -19.6857  -25.6281   21.1233 H   0  0  0  0  0  0
  -19.6601  -27.3196   20.6794 H   0  0  0  0  0  0
  -17.4178  -26.6706   21.4058 H   0  0  0  0  0  0
  -18.0265  -26.0034   22.9035 H   0  0  0  0  0  0
  -19.7959  -30.7240   24.2297 H   0  0  0  0  0  0
  -17.5023  -31.6255   24.5136 H   0  0  0  0  0  0
  -15.5356  -30.2971   23.7571 H   0  0  0  0  0  0
  -15.8714  -28.0762   22.7082 H   0  0  0  0  0  0
  -24.5878  -30.7059   25.7768 H   0  0  0  0  0  0
  -24.8849  -32.2920   26.4779 H   0  0  0  0  0  0
  -25.8002  -30.8987   27.0228 H   0  0  0  0  0  0
  -26.2820  -29.6758   24.1166 H   0  0  0  0  0  0
  -27.3907  -29.7188   25.4669 H   0  0  0  0  0  0
  -27.8738  -30.4185   23.9403 H   0  0  0  0  0  0
  -27.2566  -33.3638   26.2006 H   0  0  0  0  0  0
  -28.3840  -32.6876   25.0329 H   0  0  0  0  0  0
  -28.0645  -31.8492   26.5439 H   0  0  0  0  0  0
  -28.2580  -38.0101   24.7509 H   0  0  0  0  0  0
  -28.1075  -36.2629   24.6274 H   0  0  0  0  0  0
  -27.2309  -37.1442   25.8867 H   0  0  0  0  0  0
  -20.9388  -29.8785   21.6903 H   0  0  0  0  0  0
  -26.0145  -38.2833   24.1410 H   0  0  0  0  0  0
  -32.5496  -16.8895   20.2243 H   0  0  0  0  0  0
  -28.5159  -18.3465   20.7203 H   0  0  0  0  0  0
  -33.2272  -22.9941   19.5039 H   0  0  0  0  0  0
  -33.6010  -21.5947   20.6411 H   0  0  0  0  0  0
  -31.2326  -21.9069   18.7261 H   0  0  0  0  0  0
  -31.4298  -23.7933   22.8326 H   0  0  0  0  0  0
  -29.8060  -24.4910   23.0044 H   0  0  0  0  0  0
  -31.4825  -24.2196   20.4865 H   0  0  0  0  0  0
  -30.5339  -25.5986   20.9788 H   0  0  0  0  0  0
  -29.6076  -23.7897   19.1459 H   0  0  0  0  0  0
  -34.1242  -18.1218   19.1775 H   0  0  0  0  0  0
  -34.3153  -19.3861   20.3853 H   0  0  0  0  0  0
  -33.8829  -19.7857   18.7137 H   0  0  0  0  0  0
  -28.0605  -20.7956   20.6963 H   0  0  0  0  0  0
  -28.7125  -21.3007   19.1743 H   0  0  0  0  0  0
  -27.7369  -24.8152   21.3822 H   0  0  0  0  0  0
  -27.3389  -24.5367   19.7233 H   0  0  0  0  0  0
  -29.0270  -15.8106   20.9172 H   0  0  0  0  0  0
  1 25  1  0  0  0
  1 30  2  0  0  0
  1 87  1  0  0  0
  2  3  1  0  0  0
  2 25  1  0  0  0
  2 89  1  0  0  0
  2 90  1  0  0  0
  3  4  1  0  0  0
  3 91  1  0  0  0
  3 92  1  0  0  0
  4  5  1  0  0  0
  4 93  1  0  0  0
  4 94  1  0  0  0
  5  6  1  0  0  0
  5 26  1  0  0  0
  5 95  1  0  0  0
  6 25  1  0  0  0
  6 96  1  0  0  0
  6 97  1  0  0  0
  7  8  2  0  0  0
  7 26  1  0  0  0
  7 29  1  0  0  0
  8  9  1  0  0  0
  8 22  1  0  0  0
  9 10  1  0  0  0
  9 27  2  0  0  0
 10 11  2  0  0  0
 10 15  1  0  0  0
 11 12  1  0  0  0
 11 98  1  0  0  0
 12 13  2  0  0  0
 12 99  1  0  0  0
 13 14  1  0  0  0
 13 31  1  0  0  0
 14 15  2  0  0  0
 14100  1  0  0  0
 15101  1  0  0  0
 16 17  2  0  0  0
 16 21  1  0  0  0
 16 31  1  0  0  0
 17 18  1  0  0  0
 17102  1  0  0  0
 18 19  2  0  0  0
 18103  1  0  0  0
 19 20  1  0  0  0
 19 24  1  0  0  0
 20 21  2  0  0  0
 20104  1  0  0  0
 21 23  1  0  0  0
 22 28  1  0  0  0
 22 32  2  0  0  0
 26 27  1  0  0  0
 28105  1  0  0  0
 28106  1  0  0  0
 29107  1  0  0  0
 29108  1  0  0  0
 33 34  1  0  0  0
 33 66  1  0  0  0
 33 70  2  0  0  0
 34 36  1  0  0  0
 34 59  1  0  0  0
 34109  1  0  0  0
 35 44  2  0  0  0
 35 45  1  0  0  0
 35 68  1  0  0  0
 36 56  1  0  0  0
 36110  1  0  0  0
 37 39  1  0  0  0
 37 47  1  0  0  0
 37 66  1  0  0  0
 37111  1  0  0  0
 38 43  2  0  0  0
 38 46  1  0  0  0
 38 47  1  0  0  0
 39 64  1  0  0  0
 39 67  2  0  0  0
 40 52  1  0  0  0
 40 53  2  0  0  0
 40 58  1  0  0  0
 41112  1  0  0  0
 41113  1  0  0  0
 41114  1  0  0  0
 41 48  1  0  0  0
 42 43  1  0  0  0
 42 66  1  0  0  0
 42115  1  0  0  0
 42116  1  0  0  0
 43 44  1  0  0  0
 44117  1  0  0  0
 45 46  2  0  0  0
 45118  1  0  0  0
 46119  1  0  0  0
 47120  1  0  0  0
 47121  1  0  0  0
 48 56  1  0  0  0
 48 65  1  0  0  0
 48122  1  0  0  0
 49 50  1  0  0  0
 49 53  1  0  0  0
 49 64  1  0  0  0
 49123  1  0  0  0
 50 51  1  0  0  0
 50124  1  0  0  0
 50125  1  0  0  0
 51 52  1  0  0  0
 51126  1  0  0  0
 51127  1  0  0  0
 52128  1  0  0  0
 52129  1  0  0  0
 53 54  1  0  0  0
 54 55  2  0  0  0
 54130  1  0  0  0
 55 57  1  0  0  0
 55131  1  0  0  0
 56 69  2  0  0  0
 57 58  2  0  0  0
 57132  1  0  0  0
 58133  1  0  0  0
 59 60  1  0  0  0
 59 61  1  0  0  0
 59 62  1  0  0  0
 60134  1  0  0  0
 60135  1  0  0  0
 60136  1  0  0  0
 61137  1  0  0  0
 61138  1  0  0  0
 61139  1  0  0  0
 62140  1  0  0  0
 62141  1  0  0  0
 62142  1  0  0  0
 63 65  1  0  0  0
 63143  1  0  0  0
 63144  1  0  0  0
 63145  1  0  0  0
 64146  1  0  0  0
 65147  1  0  0  0
 68 85  1  0  0  0
 71 74  2  0  0  0
 71 76  1  0  0  0
 71148  1  0  0  0
 72 75  1  0  0  0
 72 76  2  0  0  0
 72149  1  0  0  0
 73 74  1  0  0  0
 73 75  2  0  0  0
 73 79  1  0  0  0
 74 83  1  0  0  0
 75 84  1  0  0  0
 76 87  1  0  0  0
 77 80  1  0  0  0
 77 86  1  0  0  0
 77 88  2  0  0  0
 78 79  2  0  0  0
 78150  1  0  0  0
 78151  1  0  0  0
 79152  1  0  0  0
 80 81  1  0  0  0
 80153  1  0  0  0
 80154  1  0  0  0
 81 82  1  0  0  0
 81155  1  0  0  0
 81156  1  0  0  0
 82 85  1  0  0  0
 82 86  1  0  0  0
 82157  1  0  0  0
 83158  1  0  0  0
 83159  1  0  0  0
 83160  1  0  0  0
 84 86  1  0  0  0
 84161  1  0  0  0
 84162  1  0  0  0
 85163  1  0  0  0
 85164  1  0  0  0
 87165  1  0  0  0
M  ISO  4   1 100  68 101  85 101  87 100
M  END
> <chiral flag>
0

> <version>
0

> <s_m_source_file>
/data/baiqing/PycharmProjects/Reinvent-master-3.2/result/LINK_invent/BTK/process_docking_weight1_custom_product_contain_oxygen_bond_distance_aromatic_linkinvent_7_9_3/rearranged_h_0118.sdf

> <i_m_source_file_index>
3

> <r_mmod_Potential_Energy-OPLS-2005>
222.595336914062

> <r_mmod_Stretch_Energy-OPLS-2005>
137.4384765625

> <r_mmod_Bend_Energy-OPLS-2005>
208.232849121094

> <r_mmod_Torsional_Energy-OPLS-2005>
275.447174072266

> <r_mmod_Improper_Torsional_Energy-OPLS-2005>
5.33732604980469

> <r_mmod_Van_der_Waal_Energy-OPLS-2005>
151.435485839844

> <r_mmod_Electrostatic_Energy-OPLS-2005>
-402.6669921875

> <r_mmod_Solvation_Energy-OPLS-2005>
-230.545135498047

> <b_mmod_Minimization_Converged-OPLS-2005>
0

> <r_mmod_RMS_Derivative-OPLS-2005>
2.56115579605103

$$$$
3
                    3D
 Structure written by MMmdl.
165174  0  0  1  0            999 V2000
  -30.6428  -14.6716   20.4699 C   0  0  0  0  0  0
  -30.4403  -12.4047   19.4621 C   0  0  0  0  0  0
  -29.5126  -12.4973   18.2306 C   0  0  0  0  0  0
  -28.0342  -12.3367   18.6435 C   0  0  0  0  0  0
  -27.6458  -13.2218   19.8575 C   0  0  2  0  0  0
  -28.6995  -13.1177   20.9860 C   0  0  0  0  0  0
  -25.2379  -13.7995   20.5628 C   0  0  0  0  0  0
  -24.1731  -13.0271   20.9225 C   0  0  0  0  0  0
  -24.6389  -11.6796   20.8764 C   0  0  0  0  0  0
  -23.9065  -10.4206   21.0409 C   0  0  0  0  0  0
  -24.3614   -9.4139   21.9195 C   0  0  0  0  0  0
  -23.6264   -8.2195   22.0765 C   0  0  0  0  0  0
  -22.4254   -8.0245   21.3550 C   0  0  0  0  0  0
  -21.9888   -9.0222   20.4656 C   0  0  0  0  0  0
  -22.7229  -10.2088   20.3057 C   0  0  0  0  0  0
  -21.6846   -6.0704   22.5267 C   0  0  0  0  0  0
  -21.4012   -6.5617   23.8192 C   0  0  0  0  0  0
  -21.3645   -5.6774   24.9162 C   0  0  0  0  0  0
  -21.6043   -4.3035   24.7220 C   0  0  0  0  0  0
  -21.8829   -3.8122   23.4343 C   0  0  0  0  0  0
  -21.9194   -4.6933   22.3398 C   0  0  0  0  0  0
  -22.7756  -13.5086   21.1870 C   0  0  0  0  0  0
  -22.1660   -4.2114   21.0973 F   0  0  0  0  0  0
  -21.5630   -3.4525   25.7734 F   0  0  0  0  0  0
  -30.0153  -13.4514   20.4119 N   0  0  0  0  0  0
  -26.2924  -12.9300   20.3306 N   0  0  0  0  0  0
  -25.9336  -11.6450   20.5809 N   0  0  0  0  0  0
  -22.0382  -12.8130   22.0455 N   0  0  0  0  0  0
  -25.3705  -15.1651   20.3861 N   0  0  0  0  0  0
  -31.8235  -14.7980   20.1350 O   0  0  0  0  0  0
  -21.6622   -6.8845   21.4231 O   0  0  0  0  0  0
  -22.3460  -14.5404   20.6704 O   0  0  0  0  0  0
  -24.6262  -31.8600   23.2040 C   0  0  0  0  0  0
  -25.9112  -32.4772   23.8367 C   0  0  1  0  0  0
  -27.2334  -27.3247   20.1102 C   0  0  0  0  0  0
  -25.5932  -33.8573   24.2288 N   0  0  0  0  0  0
  -23.4194  -30.4836   21.5484 C   0  0  2  0  0  0
  -24.8671  -28.9383   20.1181 C   0  0  0  0  0  0
  -22.7481  -29.4617   22.4951 C   0  0  0  0  0  0
  -18.0288  -28.1384   22.8490 C   0  0  0  0  0  0
  -24.1483  -36.7286   23.2629 C   0  0  0  0  0  0
  -25.9616  -30.7909   21.3757 C   0  0  0  0  0  0
  -26.0373  -29.4180   20.7192 C   0  0  0  0  0  0
  -27.2225  -28.6231   20.7074 C   0  0  0  0  0  0
  -26.0362  -26.8997   19.4855 C   0  0  0  0  0  0
  -24.8681  -27.6831   19.4945 C   0  0  0  0  0  0
  -23.6353  -29.8201   20.1643 C   0  0  0  0  0  0
  -25.4104  -36.3081   24.0325 C   0  0  1  0  0  0
  -20.5892  -28.3682   23.1295 C   0  0  2  0  0  0
  -20.6775  -26.9397   22.5424 C   0  0  0  0  0  0
  -19.5749  -26.6385   21.5220 C   0  0  0  0  0  0
  -18.1933  -26.7930   22.1633 C   0  0  0  0  0  0
  -19.1547  -28.8849   23.2892 C   0  0  0  0  0  0
  -18.9468  -30.1455   23.8908 C   0  0  0  0  0  0
  -17.6462  -30.6571   24.0577 C   0  0  0  0  0  0
  -25.9051  -34.9438   23.5105 C   0  0  0  0  0  0
  -16.5357  -29.9078   23.6329 C   0  0  0  0  0  0
  -16.7278  -28.6508   23.0340 C   0  0  0  0  0  0
  -26.4480  -31.6567   25.0725 C   0  0  0  0  0  0
  -25.3726  -31.3751   26.1476 C   0  0  0  0  0  0
  -27.0271  -30.2978   24.6166 C   0  0  0  0  0  0
  -27.6079  -32.4265   25.7465 C   0  0  0  0  0  0
  -27.5579  -37.1795   24.8451 C   0  0  0  0  0  0
  -21.4195  -29.3023   22.3683 N   0  0  0  0  0  0
  -26.4284  -37.3776   23.9412 N   0  0  0  0  0  0
  -24.6878  -31.0613   22.0991 N   0  0  0  0  0  0
  -23.4193  -28.8164   23.3047 O   0  0  0  0  0  0
  -28.3643  -26.4899   20.1271 O   0  0  0  0  0  0
  -26.5634  -34.8906   22.4685 O   0  0  0  0  0  0
  -23.5430  -32.1395   23.7379 O   0  0  0  0  0  0
  -31.3237  -19.3253   20.5595 C   0  0  0  0  0  0
  -31.2375  -17.9016   20.6711 C   0  0  0  0  0  0
  -28.9763  -19.4602   20.1573 C   0  0  0  0  0  0
  -28.8764  -18.0431   20.2698 C   0  0  0  0  0  0
  -30.1942  -20.1624   20.3022 C   0  0  0  0  0  0
  -30.0068  -17.2072   20.5359 C   0  0  0  0  0  0
  -30.5517  -24.5176   19.7744 C   0  0  0  0  0  0
  -29.3568  -24.0586   20.1899 C   0  0  0  0  0  0
  -31.7149  -23.6330   19.6351 C   0  0  0  0  0  0
  -31.6230  -22.1809   20.1331 C   0  0  0  0  0  0
  -29.1375  -22.5312   20.5200 C   0  0  2  0  0  0
  -28.7861  -22.3656   22.0096 C   0  0  0  0  0  0
  -27.2546  -17.1434   18.5696 C   0  0  0  0  0  0
  -27.5020  -17.4542   20.0545 C   0  0  0  0  0  0
  -28.1341  -25.0332   20.2770 C   0  0  0  0  0  0
  -30.2700  -21.6040   20.1775 N   0  0  0  0  0  0
  -29.8366  -15.7546   20.7123 N   0  0  0  0  0  0
  -32.7749  -24.0288   19.1442 O   0  0  0  0  0  0
  -31.4817  -12.5241   19.1588 H   0  0  0  0  0  0
  -30.3739  -11.4214   19.9317 H   0  0  0  0  0  0
  -29.7802  -11.7284   17.5037 H   0  0  0  0  0  0
  -29.6524  -13.4579   17.7316 H   0  0  0  0  0  0
  -27.8786  -11.2869   18.8931 H   0  0  0  0  0  0
  -27.3822  -12.5456   17.7947 H   0  0  0  0  0  0
  -27.6444  -14.2487   19.4952 H   0  0  0  0  0  0
  -28.7134  -12.1089   21.3997 H   0  0  0  0  0  0
  -28.4499  -13.7794   21.8157 H   0  0  0  0  0  0
  -25.2775   -9.5607   22.4752 H   0  0  0  0  0  0
  -23.9953   -7.4594   22.7501 H   0  0  0  0  0  0
  -21.0806   -8.8764   19.8972 H   0  0  0  0  0  0
  -22.3711  -10.9635   19.6160 H   0  0  0  0  0  0
  -21.2010   -7.6125   23.9684 H   0  0  0  0  0  0
  -21.1444   -6.0510   25.9056 H   0  0  0  0  0  0
  -22.0625   -2.7576   23.2869 H   0  0  0  0  0  0
  -22.3990  -11.9830   22.4926 H   0  0  0  0  0  0
  -21.1018  -13.1222   22.2659 H   0  0  0  0  0  0
  -24.5575  -15.7691   20.4175 H   0  0  0  0  0  0
  -26.1519  -15.5790   19.8970 H   0  0  0  0  0  0
  -26.7189  -32.5445   23.1123 H   0  0  0  0  0  0
  -25.0049  -33.9709   25.0417 H   0  0  0  0  0  0
  -22.7117  -31.3031   21.4070 H   0  0  0  0  0  0
  -23.3746  -35.9619   23.3281 H   0  0  0  0  0  0
  -24.3567  -36.8914   22.2042 H   0  0  0  0  0  0
  -23.7226  -37.6482   23.6657 H   0  0  0  0  0  0
  -26.0907  -31.5511   20.6044 H   0  0  0  0  0  0
  -26.8437  -30.8422   22.0026 H   0  0  0  0  0  0
  -28.1202  -28.9885   21.1865 H   0  0  0  0  0  0
  -25.9684  -25.9559   18.9689 H   0  0  0  0  0  0
  -23.9742  -27.3101   19.0140 H   0  0  0  0  0  0
  -23.7575  -30.5995   19.4110 H   0  0  0  0  0  0
  -22.7544  -29.2535   19.8572 H   0  0  0  0  0  0
  -25.1277  -36.1932   25.0818 H   0  0  0  0  0  0
  -20.9986  -28.3269   24.1415 H   0  0  0  0  0  0
  -20.5672  -26.2285   23.3623 H   0  0  0  0  0  0
  -21.6641  -26.7412   22.1217 H   0  0  0  0  0  0
  -19.6904  -25.6310   21.1216 H   0  0  0  0  0  0
  -19.6695  -27.3229   20.6778 H   0  0  0  0  0  0
  -17.4201  -26.6693   21.4039 H   0  0  0  0  0  0
  -18.0324  -26.0066   22.9018 H   0  0  0  0  0  0
  -19.7937  -30.7283   24.2269 H   0  0  0  0  0  0
  -17.5003  -31.6243   24.5200 H   0  0  0  0  0  0
  -15.5352  -30.2978   23.7638 H   0  0  0  0  0  0
  -15.8688  -28.0823   22.7031 H   0  0  0  0  0  0
  -24.5885  -30.7090   25.7846 H   0  0  0  0  0  0
  -24.8933  -32.2935   26.4884 H   0  0  0  0  0  0
  -25.8056  -30.8955   27.0264 H   0  0  0  0  0  0
  -26.2812  -29.6768   24.1186 H   0  0  0  0  0  0
  -27.3947  -29.7197   25.4654 H   0  0  0  0  0  0
  -27.8705  -30.4238   23.9372 H   0  0  0  0  0  0
  -27.2740  -33.3590   26.2028 H   0  0  0  0  0  0
  -28.3886  -32.6767   25.0266 H   0  0  0  0  0  0
  -28.0733  -31.8375   26.5379 H   0  0  0  0  0  0
  -28.2601  -38.0093   24.7505 H   0  0  0  0  0  0
  -28.1076  -36.2628   24.6253 H   0  0  0  0  0  0
  -27.2307  -37.1398   25.8858 H   0  0  0  0  0  0
  -20.9379  -29.8740   21.6884 H   0  0  0  0  0  0
  -26.0159  -38.2846   24.1459 H   0  0  0  0  0  0
  -32.3014  -19.7589   20.6954 H   0  0  0  0  0  0
  -32.1422  -17.3491   20.8834 H   0  0  0  0  0  0
  -28.0759  -20.0143   19.9354 H   0  0  0  0  0  0
  -30.6806  -25.5580   19.5201 H   0  0  0  0  0  0
  -32.0740  -22.1327   21.1242 H   0  0  0  0  0  0
  -32.2460  -21.5839   19.4662 H   0  0  0  0  0  0
  -28.2781  -22.2268   19.9207 H   0  0  0  0  0  0
  -29.5912  -22.7312   22.6488 H   0  0  0  0  0  0
  -28.6057  -21.3240   22.2746 H   0  0  0  0  0  0
  -27.8805  -22.9086   22.2791 H   0  0  0  0  0  0
  -26.2504  -16.7586   18.3972 H   0  0  0  0  0  0
  -27.9659  -16.4116   18.1852 H   0  0  0  0  0  0
  -27.3522  -18.0471   17.9681 H   0  0  0  0  0  0
  -26.7442  -18.1556   20.4100 H   0  0  0  0  0  0
  -27.3999  -16.5793   20.6887 H   0  0  0  0  0  0
  -27.6450  -24.8881   21.2401 H   0  0  0  0  0  0
  -27.4523  -24.6599   19.5167 H   0  0  0  0  0  0
  -28.8889  -15.4719   20.9090 H   0  0  0  0  0  0
  1 25  1  0  0  0
  1 30  2  0  0  0
  1 87  1  0  0  0
  2  3  1  0  0  0
  2 25  1  0  0  0
  2 89  1  0  0  0
  2 90  1  0  0  0
  3  4  1  0  0  0
  3 91  1  0  0  0
  3 92  1  0  0  0
  4  5  1  0  0  0
  4 93  1  0  0  0
  4 94  1  0  0  0
  5  6  1  0  0  0
  5 26  1  0  0  0
  5 95  1  0  0  0
  6 25  1  0  0  0
  6 96  1  0  0  0
  6 97  1  0  0  0
  7  8  2  0  0  0
  7 26  1  0  0  0
  7 29  1  0  0  0
  8  9  1  0  0  0
  8 22  1  0  0  0
  9 10  1  0  0  0
  9 27  2  0  0  0
 10 11  2  0  0  0
 10 15  1  0  0  0
 11 12  1  0  0  0
 11 98  1  0  0  0
 12 13  2  0  0  0
 12 99  1  0  0  0
 13 14  1  0  0  0
 13 31  1  0  0  0
 14 15  2  0  0  0
 14100  1  0  0  0
 15101  1  0  0  0
 16 17  2  0  0  0
 16 21  1  0  0  0
 16 31  1  0  0  0
 17 18  1  0  0  0
 17102  1  0  0  0
 18 19  2  0  0  0
 18103  1  0  0  0
 19 20  1  0  0  0
 19 24  1  0  0  0
 20 21  2  0  0  0
 20104  1  0  0  0
 21 23  1  0  0  0
 22 28  1  0  0  0
 22 32  2  0  0  0
 26 27  1  0  0  0
 28105  1  0  0  0
 28106  1  0  0  0
 29107  1  0  0  0
 29108  1  0  0  0
 33 34  1  0  0  0
 33 66  1  0  0  0
 33 70  2  0  0  0
 34 36  1  0  0  0
 34 59  1  0  0  0
 34109  1  0  0  0
 35 44  2  0  0  0
 35 45  1  0  0  0
 35 68  1  0  0  0
 36 56  1  0  0  0
 36110  1  0  0  0
 37 39  1  0  0  0
 37 47  1  0  0  0
 37 66  1  0  0  0
 37111  1  0  0  0
 38 43  2  0  0  0
 38 46  1  0  0  0
 38 47  1  0  0  0
 39 64  1  0  0  0
 39 67  2  0  0  0
 40 52  1  0  0  0
 40 53  2  0  0  0
 40 58  1  0  0  0
 41112  1  0  0  0
 41113  1  0  0  0
 41114  1  0  0  0
 41 48  1  0  0  0
 42 43  1  0  0  0
 42 66  1  0  0  0
 42115  1  0  0  0
 42116  1  0  0  0
 43 44  1  0  0  0
 44117  1  0  0  0
 45 46  2  0  0  0
 45118  1  0  0  0
 46119  1  0  0  0
 47120  1  0  0  0
 47121  1  0  0  0
 48 56  1  0  0  0
 48 65  1  0  0  0
 48122  1  0  0  0
 49 50  1  0  0  0
 49 53  1  0  0  0
 49 64  1  0  0  0
 49123  1  0  0  0
 50 51  1  0  0  0
 50124  1  0  0  0
 50125  1  0  0  0
 51 52  1  0  0  0
 51126  1  0  0  0
 51127  1  0  0  0
 52128  1  0  0  0
 52129  1  0  0  0
 53 54  1  0  0  0
 54 55  2  0  0  0
 54130  1  0  0  0
 55 57  1  0  0  0
 55131  1  0  0  0
 56 69  2  0  0  0
 57 58  2  0  0  0
 57132  1  0  0  0
 58133  1  0  0  0
 59 60  1  0  0  0
 59 61  1  0  0  0
 59 62  1  0  0  0
 60134  1  0  0  0
 60135  1  0  0  0
 60136  1  0  0  0
 61137  1  0  0  0
 61138  1  0  0  0
 61139  1  0  0  0
 62140  1  0  0  0
 62141  1  0  0  0
 62142  1  0  0  0
 63 65  1  0  0  0
 63143  1  0  0  0
 63144  1  0  0  0
 63145  1  0  0  0
 64146  1  0  0  0
 65147  1  0  0  0
 68 85  1  0  0  0
 71 72  2  0  0  0
 71 75  1  0  0  0
 71148  1  0  0  0
 72 76  1  0  0  0
 72149  1  0  0  0
 73 74  1  0  0  0
 73 75  2  0  0  0
 73150  1  0  0  0
 74 76  2  0  0  0
 74 84  1  0  0  0
 75 86  1  0  0  0
 76 87  1  0  0  0
 77 78  2  0  0  0
 77 79  1  0  0  0
 77151  1  0  0  0
 78 81  1  0  0  0
 78 85  1  0  0  0
 79 80  1  0  0  0
 79 88  2  0  0  0
 80 86  1  0  0  0
 80152  1  0  0  0
 80153  1  0  0  0
 81 82  1  0  0  0
 81 86  1  0  0  0
 81154  1  0  0  0
 82155  1  0  0  0
 82156  1  0  0  0
 82157  1  0  0  0
 83 84  1  0  0  0
 83158  1  0  0  0
 83159  1  0  0  0
 83160  1  0  0  0
 84161  1  0  0  0
 84162  1  0  0  0
 85163  1  0  0  0
 85164  1  0  0  0
 87165  1  0  0  0
M  ISO  4   1 100  68 101  85 101  87 100
M  END
> <chiral flag>
0

> <version>
0

> <s_m_source_file>
/data/baiqing/PycharmProjects/Reinvent-master-3.2/result/LINK_invent/BTK/process_docking_weight1_custom_product_contain_oxygen_bond_distance_aromatic_linkinvent_7_9_3/rearranged_h_0118.sdf

> <i_m_source_file_index>
4

> <r_mmod_Potential_Energy-OPLS-2005>
46.2466316223145

> <r_mmod_Stretch_Energy-OPLS-2005>
85.7574081420898

> <r_mmod_Bend_Energy-OPLS-2005>
147.880599975586

> <r_mmod_Torsional_Energy-OPLS-2005>
218.472763061523

> <r_mmod_Improper_Torsional_Energy-OPLS-2005>
7.3169584274292

> <r_mmod_Van_der_Waal_Energy-OPLS-2005>
158.468185424805

> <r_mmod_Electrostatic_Energy-OPLS-2005>
-399.720275878906

> <r_mmod_Solvation_Energy-OPLS-2005>
-225.322204589844

> <b_mmod_Minimization_Converged-OPLS-2005>
0

> <r_mmod_RMS_Derivative-OPLS-2005>
2.74237465858459

$$$$
4
                    3D
 Structure written by MMmdl.
154162  0  0  1  0            999 V2000
  -29.4629  -16.1085   20.3181 C   0  0  0  0  0  0
  -30.2152  -13.4918   19.6236 C   0  0  0  0  0  0
  -29.5070  -12.7851   18.4178 C   0  0  0  0  0  0
  -28.1271  -12.2628   18.8337 C   0  0  0  0  0  0
  -27.4738  -13.2802   19.7838 C   0  0  2  0  0  0
  -28.3508  -13.7223   20.9481 C   0  0  0  0  0  0
  -25.1742  -13.8101   20.5699 C   0  0  0  0  0  0
  -24.1257  -13.0280   20.9329 C   0  0  0  0  0  0
  -24.5996  -11.6796   20.8810 C   0  0  0  0  0  0
  -23.8846  -10.4168   21.0456 C   0  0  0  0  0  0
  -24.3498   -9.4119   21.9199 C   0  0  0  0  0  0
  -23.6226   -8.2141   22.0748 C   0  0  0  0  0  0
  -22.4206   -8.0191   21.3541 C   0  0  0  0  0  0
  -21.9797   -9.0123   20.4633 C   0  0  0  0  0  0
  -22.7068  -10.2015   20.3054 C   0  0  0  0  0  0
  -21.6816   -6.0685   22.5287 C   0  0  0  0  0  0
  -21.3993   -6.5605   23.8221 C   0  0  0  0  0  0
  -21.3658   -5.6768   24.9183 C   0  0  0  0  0  0
  -21.6047   -4.3030   24.7244 C   0  0  0  0  0  0
  -21.8824   -3.8121   23.4362 C   0  0  0  0  0  0
  -21.9180   -4.6921   22.3418 C   0  0  0  0  0  0
  -22.7356  -13.5090   21.2055 C   0  0  0  0  0  0
  -22.1654   -4.2115   21.0991 F   0  0  0  0  0  0
  -21.5645   -3.4523   25.7760 F   0  0  0  0  0  0
  -29.3175  -14.6023   20.3014 N   0  0  0  0  0  0
  -26.1902  -12.9273   20.2836 N   0  0  0  0  0  0
  -25.8819  -11.6413   20.5512 N   0  0  0  0  0  0
  -22.0100  -12.8060   22.0642 N   0  0  0  0  0  0
  -25.3439  -15.1859   20.4242 N   0  0  0  0  0  0
  -30.7338  -16.0827   20.1770 O   0  0  0  0  0  0
  -21.6590   -6.8789   21.4239 O   0  0  0  0  0  0
  -22.3091  -14.5418   20.6893 O   0  0  0  0  0  0
  -24.7267  -31.6848   22.6927 C   0  0  0  0  0  0
  -25.9294  -32.3711   23.5665 C   0  0  1  0  0  0
  -26.3441  -28.2195   21.6822 C   0  0  0  0  0  0
  -25.5314  -33.7446   24.0077 N   0  0  0  0  0  0
  -24.1744  -29.2722   20.7734 C   0  0  2  0  0  0
  -25.5763  -28.9292   19.3530 C   0  0  0  0  0  0
  -23.7412  -27.4289   22.4233 C   0  0  0  0  0  0
  -18.1844  -28.1028   22.8018 C   0  0  0  0  0  0
  -24.1416  -36.6908   23.2714 C   0  0  0  0  0  0
  -26.0188  -31.0933   20.6777 C   0  0  0  0  0  0
  -26.4829  -29.7467   20.1347 C   0  0  0  0  0  0
  -27.2660  -29.0420   21.0451 C   0  0  0  0  0  0
  -26.1065  -27.1515   20.6927 C   0  0  0  0  0  0
  -25.6338  -27.5379   19.4352 C   0  0  0  0  0  0
  -24.1976  -29.3176   19.2945 C   0  0  0  0  0  0
  -25.4150  -36.2436   24.0112 C   0  0  1  0  0  0
  -20.7827  -27.5676   23.2211 C   0  0  2  0  0  0
  -20.3621  -26.2461   22.6530 C   0  0  0  0  0  0
  -19.3556  -26.2906   21.5279 C   0  0  0  0  0  0
  -18.0548  -26.7728   22.1012 C   0  0  0  0  0  0
  -19.4741  -28.6232   23.2372 C   0  0  0  0  0  0
  -19.3282  -29.9122   23.8641 C   0  0  0  0  0  0
  -18.0607  -30.5643   24.0512 C   0  0  0  0  0  0
  -25.9106  -34.8949   23.4298 C   0  0  0  0  0  0
  -16.8543  -29.9760   23.6415 C   0  0  0  0  0  0
  -16.9303  -28.7400   23.0058 C   0  0  0  0  0  0
  -26.4200  -31.6431   24.9277 C   0  0  0  0  0  0
  -25.3195  -31.3888   25.9901 C   0  0  0  0  0  0
  -27.0806  -30.2897   24.6289 C   0  0  0  0  0  0
  -27.5246  -32.4748   25.6545 C   0  0  0  0  0  0
  -27.5491  -37.1496   24.8410 C   0  0  0  0  0  0
  -22.3944  -27.3618   23.1830 N   0  0  0  0  0  0
  -26.4163  -37.3373   23.9400 N   0  0  0  0  0  0
  -24.7655  -30.9034   21.3909 N   0  0  0  0  0  0
  -24.3046  -27.2333   23.4819 O   0  0  0  0  0  0
  -25.2964  -29.0637   22.5999 O   0  0  0  0  0  0
  -26.6259  -34.9018   22.4305 O   0  0  0  0  0  0
  -23.6769  -31.9537   23.3237 O   0  0  0  0  0  0
  -23.4846  -20.9116   20.8255 C   0  0  0  0  0  0
  -24.6744  -20.0868   20.7477 C   0  0  0  0  0  0
  -23.3233  -22.3391   20.6881 C   0  0  0  0  0  0
  -25.7101  -22.1753   20.4014 C   0  0  0  0  0  0
  -26.0340  -20.4650   20.4768 C   0  0  0  0  0  0
  -24.3669  -23.2818   20.4917 C   0  0  0  0  0  0
  -21.1059  -28.6517   20.0908 C   0  0  0  0  0  0
  -27.1520  -18.7443   20.4299 C   0  0  0  0  0  0
  -28.4824  -17.7436   20.3794 C   0  0  0  0  0  0
  -22.0655  -28.0967   20.8545 C   0  0  0  0  0  0
  -22.5718  -26.2802   20.3049 C   0  0  0  0  0  0
  -22.9136  -29.5670   22.5156 C   0  0  0  0  0  0
  -23.7609  -25.0905   20.5740 N   0  0  0  0  0  0
  -21.7805  -25.8116   19.4877 O   0  0  0  0  0  0
  -31.1426  -13.9229   19.2469 H   0  0  0  0  0  0
  -30.5613  -12.7558   20.3534 H   0  0  0  0  0  0
  -30.1268  -11.9792   18.0203 H   0  0  0  0  0  0
  -29.3817  -13.5120   17.6136 H   0  0  0  0  0  0
  -28.2580  -11.3126   19.3530 H   0  0  0  0  0  0
  -27.5028  -12.0631   17.9638 H   0  0  0  0  0  0
  -27.2915  -14.1457   19.1446 H   0  0  0  0  0  0
  -28.7656  -12.8731   21.4958 H   0  0  0  0  0  0
  -27.7910  -14.2978   21.6866 H   0  0  0  0  0  0
  -25.2645   -9.5646   22.4744 H   0  0  0  0  0  0
  -23.9981   -7.4519   22.7422 H   0  0  0  0  0  0
  -21.0753   -8.8595   19.8910 H   0  0  0  0  0  0
  -22.3524  -10.9552   19.6170 H   0  0  0  0  0  0
  -21.1971   -7.6116   23.9719 H   0  0  0  0  0  0
  -21.1485   -6.0496   25.9088 H   0  0  0  0  0  0
  -22.0607   -2.7583   23.2869 H   0  0  0  0  0  0
  -22.3830  -11.9772   22.5020 H   0  0  0  0  0  0
  -21.0718  -13.1014   22.2924 H   0  0  0  0  0  0
  -24.5645  -15.8257   20.5410 H   0  0  0  0  0  0
  -26.1759  -15.6285   20.0609 H   0  0  0  0  0  0
  -26.8246  -32.4858   22.9665 H   0  0  0  0  0  0
  -24.9037  -33.7950   24.7971 H   0  0  0  0  0  0
  -23.3241  -29.8882   20.4299 H   0  0  0  0  0  0
  -23.3773  -35.9124   23.3089 H   0  0  0  0  0  0
  -24.3353  -36.9031   22.2175 H   0  0  0  0  0  0
  -23.7104  -37.5876   23.7211 H   0  0  0  0  0  0
  -25.8275  -31.7588   19.8345 H   0  0  0  0  0  0
  -26.8406  -31.5517   21.2156 H   0  0  0  0  0  0
  -27.8339  -29.6816   21.7022 H   0  0  0  0  0  0
  -26.0290  -26.1283   21.0244 H   0  0  0  0  0  0
  -25.0791  -26.8590   18.8028 H   0  0  0  0  0  0
  -24.1323  -30.2937   18.7926 H   0  0  0  0  0  0
  -23.5738  -28.5983   18.7536 H   0  0  0  0  0  0
  -25.1527  -36.0821   25.0584 H   0  0  0  0  0  0
  -20.7465  -27.4005   24.2981 H   0  0  0  0  0  0
  -19.8765  -25.6896   23.4543 H   0  0  0  0  0  0
  -21.1778  -25.5638   22.4188 H   0  0  0  0  0  0
  -19.2089  -25.2905   21.1219 H   0  0  0  0  0  0
  -19.6293  -26.8757   20.6735 H   0  0  0  0  0  0
  -17.3320  -26.8544   21.2865 H   0  0  0  0  0  0
  -17.6424  -26.0458   22.8048 H   0  0  0  0  0  0
  -20.2039  -30.3957   24.2691 H   0  0  0  0  0  0
  -18.0286  -31.5199   24.5602 H   0  0  0  0  0  0
  -15.9107  -30.4766   23.8205 H   0  0  0  0  0  0
  -16.0098  -28.2837   22.6652 H   0  0  0  0  0  0
  -24.5422  -30.7259   25.6104 H   0  0  0  0  0  0
  -24.8376  -32.3128   26.3112 H   0  0  0  0  0  0
  -25.7311  -30.9167   26.8841 H   0  0  0  0  0  0
  -26.3553  -29.4832   24.5816 H   0  0  0  0  0  0
  -27.7676  -29.9851   25.4189 H   0  0  0  0  0  0
  -27.6579  -30.3240   23.7104 H   0  0  0  0  0  0
  -27.1476  -33.4292   26.0279 H   0  0  0  0  0  0
  -28.3666  -32.6927   24.9950 H   0  0  0  0  0  0
  -27.9227  -31.9481   26.5255 H   0  0  0  0  0  0
  -28.2414  -37.9877   24.7606 H   0  0  0  0  0  0
  -28.1082  -36.2429   24.6102 H   0  0  0  0  0  0
  -27.2221  -37.0943   25.8796 H   0  0  0  0  0  0
  -22.6668  -26.9980   24.0884 H   0  0  0  0  0  0
  -25.9889  -38.2363   24.1508 H   0  0  0  0  0  0
  -22.5658  -20.3763   21.0337 H   0  0  0  0  0  0
  -24.4962  -19.0342   20.9338 H   0  0  0  0  0  0
  -22.3180  -22.7299   20.7942 H   0  0  0  0  0  0
  -26.6277  -22.7272   20.2317 H   0  0  0  0  0  0
  -20.6565  -28.1293   19.2612 H   0  0  0  0  0  0
  -20.7594  -29.6505   20.3037 H   0  0  0  0  0  0
  -26.3667  -18.0025   20.4335 H   0  0  0  0  0  0
  -29.2891  -18.4606   20.3607 H   0  0  0  0  0  0
  -22.4813  -29.6124   23.5227 H   0  0  0  0  0  0
  -22.4729  -30.4970   22.1378 H   0  0  0  0  0  0
  -24.4986  -25.5950   21.0451 H   0  0  0  0  0  0
  1 25  1  0  0  0
  1 30  2  0  0  0
  1 79  1  0  0  0
  2  3  1  0  0  0
  2 25  1  0  0  0
  2 85  1  0  0  0
  2 86  1  0  0  0
  3  4  1  0  0  0
  3 87  1  0  0  0
  3 88  1  0  0  0
  4  5  1  0  0  0
  4 89  1  0  0  0
  4 90  1  0  0  0
  5  6  1  0  0  0
  5 26  1  0  0  0
  5 91  1  0  0  0
  6 25  1  0  0  0
  6 92  1  0  0  0
  6 93  1  0  0  0
  7  8  2  0  0  0
  7 26  1  0  0  0
  7 29  1  0  0  0
  8  9  1  0  0  0
  8 22  1  0  0  0
  9 10  1  0  0  0
  9 27  2  0  0  0
 10 11  2  0  0  0
 10 15  1  0  0  0
 11 12  1  0  0  0
 11 94  1  0  0  0
 12 13  2  0  0  0
 12 95  1  0  0  0
 13 14  1  0  0  0
 13 31  1  0  0  0
 14 15  2  0  0  0
 14 96  1  0  0  0
 15 97  1  0  0  0
 16 17  2  0  0  0
 16 21  1  0  0  0
 16 31  1  0  0  0
 17 18  1  0  0  0
 17 98  1  0  0  0
 18 19  2  0  0  0
 18 99  1  0  0  0
 19 20  1  0  0  0
 19 24  1  0  0  0
 20 21  2  0  0  0
 20100  1  0  0  0
 21 23  1  0  0  0
 22 28  1  0  0  0
 22 32  2  0  0  0
 26 27  1  0  0  0
 28101  1  0  0  0
 28102  1  0  0  0
 29103  1  0  0  0
 29104  1  0  0  0
 33 34  1  0  0  0
 33 66  1  0  0  0
 33 70  2  0  0  0
 34 36  1  0  0  0
 34 59  1  0  0  0
 34105  1  0  0  0
 35 44  2  0  0  0
 35 45  1  0  0  0
 35 68  1  0  0  0
 36 56  1  0  0  0
 36106  1  0  0  0
 37 39  1  0  0  0
 37 47  1  0  0  0
 37 66  1  0  0  0
 37107  1  0  0  0
 38 43  2  0  0  0
 38 46  1  0  0  0
 38 47  1  0  0  0
 39 64  1  0  0  0
 39 67  2  0  0  0
 40 52  1  0  0  0
 40 53  2  0  0  0
 40 58  1  0  0  0
 41108  1  0  0  0
 41109  1  0  0  0
 41110  1  0  0  0
 41 48  1  0  0  0
 42 43  1  0  0  0
 42 66  1  0  0  0
 42111  1  0  0  0
 42112  1  0  0  0
 43 44  1  0  0  0
 44113  1  0  0  0
 45 46  2  0  0  0
 45114  1  0  0  0
 46115  1  0  0  0
 47116  1  0  0  0
 47117  1  0  0  0
 48 56  1  0  0  0
 48 65  1  0  0  0
 48118  1  0  0  0
 49 50  1  0  0  0
 49 53  1  0  0  0
 49 64  1  0  0  0
 49119  1  0  0  0
 50 51  1  0  0  0
 50120  1  0  0  0
 50121  1  0  0  0
 51 52  1  0  0  0
 51122  1  0  0  0
 51123  1  0  0  0
 52124  1  0  0  0
 52125  1  0  0  0
 53 54  1  0  0  0
 54 55  2  0  0  0
 54126  1  0  0  0
 55 57  1  0  0  0
 55127  1  0  0  0
 56 69  2  0  0  0
 57 58  2  0  0  0
 57128  1  0  0  0
 58129  1  0  0  0
 59 60  1  0  0  0
 59 61  1  0  0  0
 59 62  1  0  0  0
 60130  1  0  0  0
 60131  1  0  0  0
 60132  1  0  0  0
 61133  1  0  0  0
 61134  1  0  0  0
 61135  1  0  0  0
 62136  1  0  0  0
 62137  1  0  0  0
 62138  1  0  0  0
 63 65  1  0  0  0
 63139  1  0  0  0
 63140  1  0  0  0
 63141  1  0  0  0
 64142  1  0  0  0
 65143  1  0  0  0
 68 82  1  0  0  0
 71 72  2  0  0  0
 71 73  1  0  0  0
 71144  1  0  0  0
 72 75  1  0  0  0
 72145  1  0  0  0
 73 76  2  0  0  0
 73146  1  0  0  0
 74 75  2  0  0  0
 74 76  1  0  0  0
 74147  1  0  0  0
 75 78  1  0  0  0
 76 83  1  0  0  0
 77 80  2  0  0  0
 77148  1  0  0  0
 77149  1  0  0  0
 78 79  2  0  0  0
 78150  1  0  0  0
 79151  1  0  0  0
 80 81  1  0  0  0
 80 82  1  0  0  0
 81 83  1  0  0  0
 81 84  2  0  0  0
 82152  1  0  0  0
 82153  1  0  0  0
 83154  1  0  0  0
M  ISO  4   1 100  68 101  79 100  82 101
M  END
> <chiral flag>
0

> <version>
0

> <s_m_source_file>
/data/baiqing/PycharmProjects/Reinvent-master-3.2/result/LINK_invent/BTK/process_docking_weight1_custom_product_contain_oxygen_bond_distance_aromatic_linkinvent_7_9_3/rearranged_h_0118.sdf

> <i_m_source_file_index>
5

> <r_mmod_Potential_Energy-OPLS-2005>
18183.005859375

> <r_mmod_Stretch_Energy-OPLS-2005>
7159.62744140625

> <r_mmod_Bend_Energy-OPLS-2005>
2107.93017578125

> <r_mmod_Torsional_Energy-OPLS-2005>
619.804443359375

> <r_mmod_Improper_Torsional_Energy-OPLS-2005>
108.231407165527

> <r_mmod_Van_der_Waal_Energy-OPLS-2005>
2268.55639648438

> <r_mmod_Electrostatic_Energy-OPLS-2005>
-360.024444580078

> <r_mmod_Solvation_Energy-OPLS-2005>
-199.317108154297

> <b_mmod_Minimization_Converged-OPLS-2005>
0

> <r_mmod_RMS_Derivative-OPLS-2005>
9.50731372833252

$$$$
5
                    3D
 Structure written by MMmdl.
157165  0  0  1  0            999 V2000
  -30.7474  -14.4210   20.5395 C   0  0  0  0  0  0
  -30.4078  -12.2595   19.4478 C   0  0  0  0  0  0
  -29.4991  -12.4696   18.2190 C   0  0  0  0  0  0
  -28.0182  -12.3502   18.6282 C   0  0  0  0  0  0
  -27.6635  -13.2070   19.8732 C   0  0  2  0  0  0
  -28.7004  -13.0083   21.0021 C   0  0  0  0  0  0
  -25.2621  -13.8161   20.5703 C   0  0  0  0  0  0
  -24.1879  -13.0455   20.9175 C   0  0  0  0  0  0
  -24.6424  -11.6903   20.8748 C   0  0  0  0  0  0
  -23.9062  -10.4312   21.0424 C   0  0  0  0  0  0
  -24.3616   -9.4220   21.9196 C   0  0  0  0  0  0
  -23.6306   -8.2246   22.0771 C   0  0  0  0  0  0
  -22.4282   -8.0286   21.3551 C   0  0  0  0  0  0
  -21.9897   -9.0267   20.4654 C   0  0  0  0  0  0
  -22.7230  -10.2146   20.3071 C   0  0  0  0  0  0
  -21.6846   -6.0750   22.5289 C   0  0  0  0  0  0
  -21.4020   -6.5658   23.8217 C   0  0  0  0  0  0
  -21.3651   -5.6802   24.9179 C   0  0  0  0  0  0
  -21.6042   -4.3070   24.7219 C   0  0  0  0  0  0
  -21.8818   -3.8163   23.4349 C   0  0  0  0  0  0
  -21.9200   -4.6983   22.3399 C   0  0  0  0  0  0
  -22.7895  -13.5267   21.1856 C   0  0  0  0  0  0
  -22.1669   -4.2170   21.0978 F   0  0  0  0  0  0
  -21.5609   -3.4554   25.7734 F   0  0  0  0  0  0
  -30.0379  -13.2669   20.4522 N   0  0  0  0  0  0
  -26.3056  -12.9337   20.3365 N   0  0  0  0  0  0
  -25.9360  -11.6487   20.5781 N   0  0  0  0  0  0
  -22.0538  -12.8261   22.0392 N   0  0  0  0  0  0
  -25.4409  -15.1890   20.4154 N   0  0  0  0  0  0
  -31.8969  -14.5191   20.1003 O   0  0  0  0  0  0
  -21.6643   -6.8889   21.4241 O   0  0  0  0  0  0
  -22.3572  -14.5573   20.6698 O   0  0  0  0  0  0
  -24.6151  -31.8673   23.2164 C   0  0  0  0  0  0
  -25.9049  -32.4823   23.8463 C   0  0  1  0  0  0
  -27.2257  -27.4610   20.0850 C   0  0  0  0  0  0
  -25.5913  -33.8625   24.2396 N   0  0  0  0  0  0
  -23.3998  -30.4998   21.5496 C   0  0  2  0  0  0
  -24.8458  -28.9727   20.1116 C   0  0  0  0  0  0
  -22.7392  -29.4690   22.4961 C   0  0  0  0  0  0
  -18.0244  -28.1392   22.8507 C   0  0  0  0  0  0
  -24.1498  -36.7340   23.2632 C   0  0  0  0  0  0
  -25.9267  -30.8503   21.3584 C   0  0  0  0  0  0
  -26.0062  -29.4885   20.7002 C   0  0  0  0  0  0
  -27.2033  -28.7396   20.6821 C   0  0  0  0  0  0
  -26.0494  -26.9598   19.4881 C   0  0  0  0  0  0
  -24.8609  -27.7083   19.5025 C   0  0  0  0  0  0
  -23.6072  -29.8338   20.1629 C   0  0  0  0  0  0
  -25.4101  -36.3100   24.0347 C   0  0  1  0  0  0
  -20.5851  -28.3666   23.1235 C   0  0  2  0  0  0
  -20.6728  -26.9418   22.5210 C   0  0  0  0  0  0
  -19.5612  -26.6505   21.5087 C   0  0  0  0  0  0
  -18.1877  -26.7903   22.1749 C   0  0  0  0  0  0
  -19.1508  -28.8842   23.2878 C   0  0  0  0  0  0
  -18.9432  -30.1431   23.8886 C   0  0  0  0  0  0
  -17.6435  -30.6561   24.0601 C   0  0  0  0  0  0
  -25.9020  -34.9453   23.5154 C   0  0  0  0  0  0
  -16.5331  -29.9088   23.6338 C   0  0  0  0  0  0
  -16.7225  -28.6526   23.0325 C   0  0  0  0  0  0
  -26.4477  -31.6573   25.0764 C   0  0  0  0  0  0
  -25.3766  -31.3679   26.1533 C   0  0  0  0  0  0
  -27.0278  -30.3015   24.6104 C   0  0  0  0  0  0
  -27.6060  -32.4286   25.7514 C   0  0  0  0  0  0
  -27.5576  -37.1812   24.8457 C   0  0  0  0  0  0
  -21.4120  -29.3036   22.3679 N   0  0  0  0  0  0
  -26.4284  -37.3781   23.9408 N   0  0  0  0  0  0
  -24.6666  -31.0831   22.1025 N   0  0  0  0  0  0
  -23.4171  -28.8244   23.3003 O   0  0  0  0  0  0
  -28.3797  -26.7148   20.1000 O   0  0  0  0  0  0
  -26.5565  -34.8890   22.4702 O   0  0  0  0  0  0
  -23.5346  -32.1388   23.7581 O   0  0  0  0  0  0
  -29.0628  -18.7592   19.3307 C   0  0  0  0  0  0
  -28.8143  -20.1292   19.4897 C   0  0  0  0  0  0
  -29.8895  -18.6580   21.6198 C   0  0  0  0  0  0
  -29.6431  -18.0286   20.3821 C   0  0  0  0  0  0
  -29.6858  -20.0469   21.7872 C   0  0  0  0  0  0
  -29.1569  -20.7846   20.6916 C   0  0  0  0  0  0
  -29.4191  -21.6600   23.7111 C   0  0  0  0  0  0
  -30.0707  -16.6564   20.1341 C   0  0  0  0  0  0
  -30.0268  -20.6258   23.1040 C   0  0  0  0  0  0
  -30.0409  -15.6096   20.9829 C   0  0  0  0  0  0
  -28.0315  -22.9384   20.5331 C   0  0  0  0  0  0
  -28.2092  -24.2770   19.8180 C   0  0  0  0  0  0
  -28.2563  -25.4633   20.7896 C   0  0  0  0  0  0
  -29.1352  -22.1958   20.6623 N   0  0  0  0  0  0
  -26.9295  -22.5969   20.9740 O   0  0  0  0  0  0
  -31.4607  -12.3062   19.1638 H   0  0  0  0  0  0
  -30.2702  -11.2611   19.8630 H   0  0  0  0  0  0
  -29.7321  -11.7273   17.4538 H   0  0  0  0  0  0
  -29.6862  -13.4481   17.7757 H   0  0  0  0  0  0
  -27.8266  -11.2985   18.8417 H   0  0  0  0  0  0
  -27.3686  -12.6154   17.7936 H   0  0  0  0  0  0
  -27.7049  -14.2509   19.5626 H   0  0  0  0  0  0
  -28.6611  -11.9872   21.3828 H   0  0  0  0  0  0
  -28.4716  -13.6496   21.8545 H   0  0  0  0  0  0
  -25.2762   -9.5698   22.4773 H   0  0  0  0  0  0
  -24.0027   -7.4621   22.7496 H   0  0  0  0  0  0
  -21.0815   -8.8783   19.8958 H   0  0  0  0  0  0
  -22.3696  -10.9691   19.6186 H   0  0  0  0  0  0
  -21.2020   -7.6168   23.9721 H   0  0  0  0  0  0
  -21.1462   -6.0540   25.9072 H   0  0  0  0  0  0
  -22.0600   -2.7632   23.2842 H   0  0  0  0  0  0
  -22.4146  -11.9917   22.4782 H   0  0  0  0  0  0
  -21.1177  -13.1320   22.2633 H   0  0  0  0  0  0
  -24.6892  -15.8568   20.5496 H   0  0  0  0  0  0
  -26.3122  -15.6197   20.1308 H   0  0  0  0  0  0
  -26.7104  -32.5583   23.1208 H   0  0  0  0  0  0
  -25.0075  -33.9820   25.0546 H   0  0  0  0  0  0
  -22.6916  -31.3200   21.4102 H   0  0  0  0  0  0
  -23.3732  -35.9705   23.3293 H   0  0  0  0  0  0
  -24.3566  -36.8963   22.2044 H   0  0  0  0  0  0
  -23.7309  -37.6565   23.6636 H   0  0  0  0  0  0
  -26.0361  -31.6254   20.5978 H   0  0  0  0  0  0
  -26.8164  -30.9015   21.9724 H   0  0  0  0  0  0
  -28.1035  -29.1328   21.1342 H   0  0  0  0  0  0
  -26.0369  -25.9977   19.0046 H   0  0  0  0  0  0
  -23.9656  -27.3152   19.0406 H   0  0  0  0  0  0
  -23.7150  -30.6016   19.3977 H   0  0  0  0  0  0
  -22.7394  -29.2459   19.8628 H   0  0  0  0  0  0
  -25.1274  -36.1934   25.0845 H   0  0  0  0  0  0
  -20.9956  -28.3246   24.1344 H   0  0  0  0  0  0
  -20.5692  -26.2218   23.3325 H   0  0  0  0  0  0
  -21.6544  -26.7435   22.0858 H   0  0  0  0  0  0
  -19.6805  -25.6547   21.0852 H   0  0  0  0  0  0
  -19.6342  -27.3518   20.6744 H   0  0  0  0  0  0
  -17.3988  -26.6404   21.4361 H   0  0  0  0  0  0
  -18.0498  -26.0090   22.9216 H   0  0  0  0  0  0
  -19.7921  -30.7250   24.2200 H   0  0  0  0  0  0
  -17.4964  -31.6206   24.5268 H   0  0  0  0  0  0
  -15.5336  -30.2982   23.7683 H   0  0  0  0  0  0
  -15.8621  -28.0882   22.7029 H   0  0  0  0  0  0
  -24.5899  -30.7069   25.7884 H   0  0  0  0  0  0
  -24.9032  -32.2852   26.5039 H   0  0  0  0  0  0
  -25.8156  -30.8790   27.0251 H   0  0  0  0  0  0
  -26.2813  -29.6776   24.1210 H   0  0  0  0  0  0
  -27.4080  -29.7229   25.4530 H   0  0  0  0  0  0
  -27.8621  -30.4305   23.9224 H   0  0  0  0  0  0
  -27.2668  -33.3553   26.2147 H   0  0  0  0  0  0
  -28.3837  -32.6926   25.0335 H   0  0  0  0  0  0
  -28.0758  -31.8395   26.5378 H   0  0  0  0  0  0
  -28.2599  -38.0105   24.7483 H   0  0  0  0  0  0
  -28.1072  -36.2639   24.6293 H   0  0  0  0  0  0
  -27.2292  -37.1483   25.8860 H   0  0  0  0  0  0
  -20.9277  -29.8617   21.6770 H   0  0  0  0  0  0
  -26.0168  -38.2859   24.1402 H   0  0  0  0  0  0
  -28.8537  -18.2881   18.3789 H   0  0  0  0  0  0
  -28.4252  -20.6892   18.6501 H   0  0  0  0  0  0
  -30.3162  -18.0812   22.4268 H   0  0  0  0  0  0
  -29.7481  -22.0155   24.6782 H   0  0  0  0  0  0
  -28.5794  -22.1715   23.2651 H   0  0  0  0  0  0
  -30.5287  -16.5198   19.1620 H   0  0  0  0  0  0
  -30.8629  -20.1672   23.6145 H   0  0  0  0  0  0
  -29.5693  -15.6744   21.9529 H   0  0  0  0  0  0
  -27.3807  -24.3707   19.1234 H   0  0  0  0  0  0
  -29.1095  -24.2537   19.2044 H   0  0  0  0  0  0
  -27.3855  -25.4457   21.4491 H   0  0  0  0  0  0
  -29.1264  -25.3527   21.4405 H   0  0  0  0  0  0
  -30.0056  -22.6420   20.4074 H   0  0  0  0  0  0
  1 25  1  0  0  0
  1 30  2  0  0  0
  1 80  1  0  0  0
  2  3  1  0  0  0
  2 25  1  0  0  0
  2 86  1  0  0  0
  2 87  1  0  0  0
  3  4  1  0  0  0
  3 88  1  0  0  0
  3 89  1  0  0  0
  4  5  1  0  0  0
  4 90  1  0  0  0
  4 91  1  0  0  0
  5  6  1  0  0  0
  5 26  1  0  0  0
  5 92  1  0  0  0
  6 25  1  0  0  0
  6 93  1  0  0  0
  6 94  1  0  0  0
  7  8  2  0  0  0
  7 26  1  0  0  0
  7 29  1  0  0  0
  8  9  1  0  0  0
  8 22  1  0  0  0
  9 10  1  0  0  0
  9 27  2  0  0  0
 10 11  2  0  0  0
 10 15  1  0  0  0
 11 12  1  0  0  0
 11 95  1  0  0  0
 12 13  2  0  0  0
 12 96  1  0  0  0
 13 14  1  0  0  0
 13 31  1  0  0  0
 14 15  2  0  0  0
 14 97  1  0  0  0
 15 98  1  0  0  0
 16 17  2  0  0  0
 16 21  1  0  0  0
 16 31  1  0  0  0
 17 18  1  0  0  0
 17 99  1  0  0  0
 18 19  2  0  0  0
 18100  1  0  0  0
 19 20  1  0  0  0
 19 24  1  0  0  0
 20 21  2  0  0  0
 20101  1  0  0  0
 21 23  1  0  0  0
 22 28  1  0  0  0
 22 32  2  0  0  0
 26 27  1  0  0  0
 28102  1  0  0  0
 28103  1  0  0  0
 29104  1  0  0  0
 29105  1  0  0  0
 33 34  1  0  0  0
 33 66  1  0  0  0
 33 70  2  0  0  0
 34 36  1  0  0  0
 34 59  1  0  0  0
 34106  1  0  0  0
 35 44  2  0  0  0
 35 45  1  0  0  0
 35 68  1  0  0  0
 36 56  1  0  0  0
 36107  1  0  0  0
 37 39  1  0  0  0
 37 47  1  0  0  0
 37 66  1  0  0  0
 37108  1  0  0  0
 38 43  2  0  0  0
 38 46  1  0  0  0
 38 47  1  0  0  0
 39 64  1  0  0  0
 39 67  2  0  0  0
 40 52  1  0  0  0
 40 53  2  0  0  0
 40 58  1  0  0  0
 41109  1  0  0  0
 41110  1  0  0  0
 41111  1  0  0  0
 41 48  1  0  0  0
 42 43  1  0  0  0
 42 66  1  0  0  0
 42112  1  0  0  0
 42113  1  0  0  0
 43 44  1  0  0  0
 44114  1  0  0  0
 45 46  2  0  0  0
 45115  1  0  0  0
 46116  1  0  0  0
 47117  1  0  0  0
 47118  1  0  0  0
 48 56  1  0  0  0
 48 65  1  0  0  0
 48119  1  0  0  0
 49 50  1  0  0  0
 49 53  1  0  0  0
 49 64  1  0  0  0
 49120  1  0  0  0
 50 51  1  0  0  0
 50121  1  0  0  0
 50122  1  0  0  0
 51 52  1  0  0  0
 51123  1  0  0  0
 51124  1  0  0  0
 52125  1  0  0  0
 52126  1  0  0  0
 53 54  1  0  0  0
 54 55  2  0  0  0
 54127  1  0  0  0
 55 57  1  0  0  0
 55128  1  0  0  0
 56 69  2  0  0  0
 57 58  2  0  0  0
 57129  1  0  0  0
 58130  1  0  0  0
 59 60  1  0  0  0
 59 61  1  0  0  0
 59 62  1  0  0  0
 60131  1  0  0  0
 60132  1  0  0  0
 60133  1  0  0  0
 61134  1  0  0  0
 61135  1  0  0  0
 61136  1  0  0  0
 62137  1  0  0  0
 62138  1  0  0  0
 62139  1  0  0  0
 63 65  1  0  0  0
 63140  1  0  0  0
 63141  1  0  0  0
 63142  1  0  0  0
 64143  1  0  0  0
 65144  1  0  0  0
 68 83  1  0  0  0
 71 72  2  0  0  0
 71 74  1  0  0  0
 71145  1  0  0  0
 72 76  1  0  0  0
 72146  1  0  0  0
 73 74  2  0  0  0
 73 75  1  0  0  0
 73147  1  0  0  0
 74 78  1  0  0  0
 75 76  2  0  0  0
 75 79  1  0  0  0
 76 84  1  0  0  0
 77 79  2  0  0  0
 77148  1  0  0  0
 77149  1  0  0  0
 78 80  2  0  0  0
 78150  1  0  0  0
 79151  1  0  0  0
 80152  1  0  0  0
 81 82  1  0  0  0
 81 84  1  0  0  0
 81 85  2  0  0  0
 82 83  1  0  0  0
 82153  1  0  0  0
 82154  1  0  0  0
 83155  1  0  0  0
 83156  1  0  0  0
 84157  1  0  0  0
M  ISO  4   1 100  68 101  80 100  83 101
M  END
> <chiral flag>
0

> <version>
0

> <s_m_source_file>
/data/baiqing/PycharmProjects/Reinvent-master-3.2/result/LINK_invent/BTK/process_docking_weight1_custom_product_contain_oxygen_bond_distance_aromatic_linkinvent_7_9_3/rearranged_h_0118.sdf

> <i_m_source_file_index>
6

> <r_mmod_Potential_Energy-OPLS-2005>
-2.74064445495605

> <r_mmod_Stretch_Energy-OPLS-2005>
32.5651779174805

> <r_mmod_Bend_Energy-OPLS-2005>
97.0331954956055

> <r_mmod_Torsional_Energy-OPLS-2005>
291.845611572266

> <r_mmod_Improper_Torsional_Energy-OPLS-2005>
7.67593908309937

> <r_mmod_Van_der_Waal_Energy-OPLS-2005>
156.936370849609

> <r_mmod_Electrostatic_Energy-OPLS-2005>
-387.523010253906

> <r_mmod_Solvation_Energy-OPLS-2005>
-216.267227172852

> <b_mmod_Minimization_Converged-OPLS-2005>
0

> <r_mmod_RMS_Derivative-OPLS-2005>
5.19169187545776

$$$$
6
                    3D
 Structure written by MMmdl.
158167  0  0  1  0            999 V2000
  -30.6913  -14.5383   20.4642 C   0  0  0  0  0  0
  -30.4208  -12.3117   19.4438 C   0  0  0  0  0  0
  -29.5026  -12.4735   18.2129 C   0  0  0  0  0  0
  -28.0239  -12.3409   18.6272 C   0  0  0  0  0  0
  -27.6581  -13.2141   19.8585 C   0  0  2  0  0  0
  -28.7050  -13.0600   20.9857 C   0  0  0  0  0  0
  -25.2612  -13.8164   20.5682 C   0  0  0  0  0  0
  -24.1875  -13.0432   20.9185 C   0  0  0  0  0  0
  -24.6442  -11.6904   20.8716 C   0  0  0  0  0  0
  -23.9102  -10.4284   21.0401 C   0  0  0  0  0  0
  -24.3642   -9.4202   21.9185 C   0  0  0  0  0  0
  -23.6309   -8.2237   22.0742 C   0  0  0  0  0  0
  -22.4277   -8.0292   21.3541 C   0  0  0  0  0  0
  -21.9931   -9.0277   20.4633 C   0  0  0  0  0  0
  -22.7272  -10.2152   20.3054 C   0  0  0  0  0  0
  -21.6859   -6.0761   22.5298 C   0  0  0  0  0  0
  -21.4012   -6.5661   23.8239 C   0  0  0  0  0  0
  -21.3639   -5.6787   24.9187 C   0  0  0  0  0  0
  -21.6047   -4.3051   24.7226 C   0  0  0  0  0  0
  -21.8818   -3.8163   23.4334 C   0  0  0  0  0  0
  -21.9202   -4.6989   22.3403 C   0  0  0  0  0  0
  -22.7903  -13.5240   21.1867 C   0  0  0  0  0  0
  -22.1675   -4.2181   21.0969 F   0  0  0  0  0  0
  -21.5617   -3.4527   25.7735 F   0  0  0  0  0  0
  -30.0300  -13.3473   20.4166 N   0  0  0  0  0  0
  -26.3037  -12.9354   20.3296 N   0  0  0  0  0  0
  -25.9369  -11.6503   20.5732 N   0  0  0  0  0  0
  -22.0513  -12.8236   22.0387 N   0  0  0  0  0  0
  -25.4356  -15.1875   20.4126 N   0  0  0  0  0  0
  -31.8729  -14.6395   20.1258 O   0  0  0  0  0  0
  -21.6629   -6.8904   21.4256 O   0  0  0  0  0  0
  -22.3605  -14.5557   20.6713 O   0  0  0  0  0  0
  -24.6243  -31.8665   23.1997 C   0  0  0  0  0  0
  -25.9076  -32.4832   23.8347 C   0  0  1  0  0  0
  -27.2338  -27.3603   20.1029 C   0  0  0  0  0  0
  -25.5893  -33.8627   24.2299 N   0  0  0  0  0  0
  -23.4168  -30.4867   21.5398 C   0  0  2  0  0  0
  -24.8598  -28.9303   20.1091 C   0  0  0  0  0  0
  -22.7440  -29.4683   22.4908 C   0  0  0  0  0  0
  -18.0291  -28.1426   22.8486 C   0  0  0  0  0  0
  -24.1457  -36.7278   23.2645 C   0  0  0  0  0  0
  -25.9496  -30.8044   21.3590 C   0  0  0  0  0  0
  -26.0206  -29.4298   20.7089 C   0  0  0  0  0  0
  -27.2066  -28.6519   20.7006 C   0  0  0  0  0  0
  -26.0559  -26.8882   19.4922 C   0  0  0  0  0  0
  -24.8758  -27.6637   19.4929 C   0  0  0  0  0  0
  -23.6247  -29.8074   20.1575 C   0  0  0  0  0  0
  -25.4108  -36.3137   24.0356 C   0  0  1  0  0  0
  -20.5883  -28.3754   23.1253 C   0  0  2  0  0  0
  -20.6766  -26.9477   22.5402 C   0  0  0  0  0  0
  -19.5734  -26.6418   21.5183 C   0  0  0  0  0  0
  -18.1921  -26.7975   22.1586 C   0  0  0  0  0  0
  -19.1552  -28.8894   23.2886 C   0  0  0  0  0  0
  -18.9478  -30.1465   23.8956 C   0  0  0  0  0  0
  -17.6499  -30.6632   24.0582 C   0  0  0  0  0  0
  -25.9063  -34.9496   23.5149 C   0  0  0  0  0  0
  -16.5388  -29.9159   23.6300 C   0  0  0  0  0  0
  -16.7282  -28.6541   23.0378 C   0  0  0  0  0  0
  -26.4450  -31.6628   25.0716 C   0  0  0  0  0  0
  -25.3685  -31.3777   26.1463 C   0  0  0  0  0  0
  -27.0234  -30.3067   24.6126 C   0  0  0  0  0  0
  -27.6092  -32.4288   25.7417 C   0  0  0  0  0  0
  -27.5605  -37.1812   24.8490 C   0  0  0  0  0  0
  -21.4165  -29.3106   22.3641 N   0  0  0  0  0  0
  -26.4302  -37.3840   23.9446 N   0  0  0  0  0  0
  -24.6821  -31.0699   22.0899 N   0  0  0  0  0  0
  -23.4170  -28.8240   23.3020 O   0  0  0  0  0  0
  -28.3888  -26.5920   20.2001 O   0  0  0  0  0  0
  -26.5642  -34.8964   22.4723 O   0  0  0  0  0  0
  -23.5418  -32.1443   23.7338 O   0  0  0  0  0  0
  -30.9951  -18.5201   18.4872 C   0  0  0  0  0  0
  -30.4507  -19.6269   19.1664 C   0  0  0  0  0  0
  -30.8346  -17.2167   18.9931 C   0  0  0  0  0  0
  -29.5468  -18.1118   20.8560 C   0  0  0  0  0  0
  -29.7108  -19.4461   20.3564 C   0  0  0  0  0  0
  -30.1231  -16.9822   20.1974 C   0  0  0  0  0  0
  -28.4488  -24.1270   20.2190 C   0  0  0  0  0  0
  -28.5627  -25.3448   19.6038 C   0  0  0  0  0  0
  -27.8331  -23.8339   21.5597 C   0  0  0  0  0  0
  -28.9664  -22.7773   19.6910 C   0  0  0  0  0  0
  -27.3721  -22.3675   21.4177 C   0  0  0  0  0  0
  -29.2136  -20.6759   21.1608 C   0  0  0  0  0  0
  -29.9370  -15.6413   20.7170 N   0  0  0  0  0  0
  -28.3084  -21.6813   20.4814 N   0  3  2  0  0  0
  -31.4713  -12.3812   19.1524 H   0  0  0  0  0  0
  -30.3004  -11.3178   19.8781 H   0  0  0  0  0  0
  -29.7397  -11.7185   17.4612 H   0  0  0  0  0  0
  -29.6765  -13.4406   17.7402 H   0  0  0  0  0  0
  -27.8467  -11.2904   18.8579 H   0  0  0  0  0  0
  -27.3738  -12.5792   17.7840 H   0  0  0  0  0  0
  -27.6826  -14.2475   19.5171 H   0  0  0  0  0  0
  -28.6868  -12.0463   21.3867 H   0  0  0  0  0  0
  -28.4817  -13.7194   21.8250 H   0  0  0  0  0  0
  -25.2790   -9.5696   22.4749 H   0  0  0  0  0  0
  -24.0049   -7.4626   22.7441 H   0  0  0  0  0  0
  -21.0873   -8.8800   19.8920 H   0  0  0  0  0  0
  -22.3746  -10.9701   19.6155 H   0  0  0  0  0  0
  -21.1990   -7.6171   23.9771 H   0  0  0  0  0  0
  -21.1450   -6.0495   25.9096 H   0  0  0  0  0  0
  -22.0606   -2.7629   23.2823 H   0  0  0  0  0  0
  -22.4091  -11.9892   22.4800 H   0  0  0  0  0  0
  -21.1144  -13.1299   22.2552 H   0  0  0  0  0  0
  -24.6684  -15.8427   20.5168 H   0  0  0  0  0  0
  -26.2862  -15.6250   20.0795 H   0  0  0  0  0  0
  -26.7171  -32.5519   23.1129 H   0  0  0  0  0  0
  -25.0049  -33.9756   25.0451 H   0  0  0  0  0  0
  -22.7108  -31.3092   21.3910 H   0  0  0  0  0  0
  -23.3774  -35.9549   23.3311 H   0  0  0  0  0  0
  -24.3544  -36.8859   22.2053 H   0  0  0  0  0  0
  -23.7109  -37.6468   23.6618 H   0  0  0  0  0  0
  -26.0712  -31.5607   20.5834 H   0  0  0  0  0  0
  -26.8373  -30.8636   21.9798 H   0  0  0  0  0  0
  -28.1043  -29.0225   21.1681 H   0  0  0  0  0  0
  -26.0325  -25.9089   19.0366 H   0  0  0  0  0  0
  -23.9815  -27.2732   19.0283 H   0  0  0  0  0  0
  -23.7493  -30.5804   19.3975 H   0  0  0  0  0  0
  -22.7427  -29.2413   19.8547 H   0  0  0  0  0  0
  -25.1257  -36.2019   25.0848 H   0  0  0  0  0  0
  -21.0020  -28.3383   24.1360 H   0  0  0  0  0  0
  -20.5560  -26.2431   23.3639 H   0  0  0  0  0  0
  -21.6643  -26.7458   22.1279 H   0  0  0  0  0  0
  -19.6915  -25.6315   21.1238 H   0  0  0  0  0  0
  -19.6652  -27.3183   20.6670 H   0  0  0  0  0  0
  -17.4179  -26.6714   21.4009 H   0  0  0  0  0  0
  -18.0352  -26.0109   22.8965 H   0  0  0  0  0  0
  -19.7971  -30.7241   24.2380 H   0  0  0  0  0  0
  -17.5064  -31.6302   24.5200 H   0  0  0  0  0  0
  -15.5391  -30.3100   23.7600 H   0  0  0  0  0  0
  -15.8652  -28.0853   22.7157 H   0  0  0  0  0  0
  -24.5912  -30.7046   25.7825 H   0  0  0  0  0  0
  -24.8819  -32.2929   26.4844 H   0  0  0  0  0  0
  -25.8044  -30.9045   27.0266 H   0  0  0  0  0  0
  -26.2782  -29.6859   24.1166 H   0  0  0  0  0  0
  -27.3962  -29.7298   25.4594 H   0  0  0  0  0  0
  -27.8622  -30.4351   23.9275 H   0  0  0  0  0  0
  -27.2854  -33.3629   26.1983 H   0  0  0  0  0  0
  -28.3904  -32.6730   25.0201 H   0  0  0  0  0  0
  -28.0741  -31.8373   26.5314 H   0  0  0  0  0  0
  -28.2709  -38.0049   24.7599 H   0  0  0  0  0  0
  -28.1010  -36.2620   24.6226 H   0  0  0  0  0  0
  -27.2350  -37.1394   25.8902 H   0  0  0  0  0  0
  -20.9329  -29.8824   21.6836 H   0  0  0  0  0  0
  -26.0197  -38.2917   24.1480 H   0  0  0  0  0  0
  -31.5610  -18.6738   17.5743 H   0  0  0  0  0  0
  -30.6339  -20.6158   18.7706 H   0  0  0  0  0  0
  -31.2694  -16.4025   18.4289 H   0  0  0  0  0  0
  -29.0100  -17.9605   21.7840 H   0  0  0  0  0  0
  -29.0486  -25.4469   18.6410 H   0  0  0  0  0  0
  -27.0114  -24.5100   21.7964 H   0  0  0  0  0  0
  -28.5948  -23.9201   22.3349 H   0  0  0  0  0  0
  -30.0446  -22.7525   19.8472 H   0  0  0  0  0  0
  -28.7817  -22.6714   18.6209 H   0  0  0  0  0  0
  -26.3861  -22.3488   20.9491 H   0  0  0  0  0  0
  -27.2619  -21.8663   22.3808 H   0  0  0  0  0  0
  -30.0783  -21.1832   21.5912 H   0  0  0  0  0  0
  -28.6772  -20.2545   22.0114 H   0  0  0  0  0  0
  -29.0567  -15.4640   21.1741 H   0  0  0  0  0  0
  -27.7268  -21.1417   19.8564 H   0  0  0  0  0  0
  1 25  1  0  0  0
  1 30  2  0  0  0
  1 83  1  0  0  0
  2  3  1  0  0  0
  2 25  1  0  0  0
  2 85  1  0  0  0
  2 86  1  0  0  0
  3  4  1  0  0  0
  3 87  1  0  0  0
  3 88  1  0  0  0
  4  5  1  0  0  0
  4 89  1  0  0  0
  4 90  1  0  0  0
  5  6  1  0  0  0
  5 26  1  0  0  0
  5 91  1  0  0  0
  6 25  1  0  0  0
  6 92  1  0  0  0
  6 93  1  0  0  0
  7  8  2  0  0  0
  7 26  1  0  0  0
  7 29  1  0  0  0
  8  9  1  0  0  0
  8 22  1  0  0  0
  9 10  1  0  0  0
  9 27  2  0  0  0
 10 11  2  0  0  0
 10 15  1  0  0  0
 11 12  1  0  0  0
 11 94  1  0  0  0
 12 13  2  0  0  0
 12 95  1  0  0  0
 13 14  1  0  0  0
 13 31  1  0  0  0
 14 15  2  0  0  0
 14 96  1  0  0  0
 15 97  1  0  0  0
 16 17  2  0  0  0
 16 21  1  0  0  0
 16 31  1  0  0  0
 17 18  1  0  0  0
 17 98  1  0  0  0
 18 19  2  0  0  0
 18 99  1  0  0  0
 19 20  1  0  0  0
 19 24  1  0  0  0
 20 21  2  0  0  0
 20100  1  0  0  0
 21 23  1  0  0  0
 22 28  1  0  0  0
 22 32  2  0  0  0
 26 27  1  0  0  0
 28101  1  0  0  0
 28102  1  0  0  0
 29103  1  0  0  0
 29104  1  0  0  0
 33 34  1  0  0  0
 33 66  1  0  0  0
 33 70  2  0  0  0
 34 36  1  0  0  0
 34 59  1  0  0  0
 34105  1  0  0  0
 35 44  2  0  0  0
 35 45  1  0  0  0
 35 68  1  0  0  0
 36 56  1  0  0  0
 36106  1  0  0  0
 37 39  1  0  0  0
 37 47  1  0  0  0
 37 66  1  0  0  0
 37107  1  0  0  0
 38 43  2  0  0  0
 38 46  1  0  0  0
 38 47  1  0  0  0
 39 64  1  0  0  0
 39 67  2  0  0  0
 40 52  1  0  0  0
 40 53  2  0  0  0
 40 58  1  0  0  0
 41108  1  0  0  0
 41109  1  0  0  0
 41110  1  0  0  0
 41 48  1  0  0  0
 42 43  1  0  0  0
 42 66  1  0  0  0
 42111  1  0  0  0
 42112  1  0  0  0
 43 44  1  0  0  0
 44113  1  0  0  0
 45 46  2  0  0  0
 45114  1  0  0  0
 46115  1  0  0  0
 47116  1  0  0  0
 47117  1  0  0  0
 48 56  1  0  0  0
 48 65  1  0  0  0
 48118  1  0  0  0
 49 50  1  0  0  0
 49 53  1  0  0  0
 49 64  1  0  0  0
 49119  1  0  0  0
 50 51  1  0  0  0
 50120  1  0  0  0
 50121  1  0  0  0
 51 52  1  0  0  0
 51122  1  0  0  0
 51123  1  0  0  0
 52124  1  0  0  0
 52125  1  0  0  0
 53 54  1  0  0  0
 54 55  2  0  0  0
 54126  1  0  0  0
 55 57  1  0  0  0
 55127  1  0  0  0
 56 69  2  0  0  0
 57 58  2  0  0  0
 57128  1  0  0  0
 58129  1  0  0  0
 59 60  1  0  0  0
 59 61  1  0  0  0
 59 62  1  0  0  0
 60130  1  0  0  0
 60131  1  0  0  0
 60132  1  0  0  0
 61133  1  0  0  0
 61134  1  0  0  0
 61135  1  0  0  0
 62136  1  0  0  0
 62137  1  0  0  0
 62138  1  0  0  0
 63 65  1  0  0  0
 63139  1  0  0  0
 63140  1  0  0  0
 63141  1  0  0  0
 64142  1  0  0  0
 65143  1  0  0  0
 68 78  1  0  0  0
 71 72  2  0  0  0
 71 73  1  0  0  0
 71144  1  0  0  0
 72 75  1  0  0  0
 72145  1  0  0  0
 73 76  2  0  0  0
 73146  1  0  0  0
 74 75  2  0  0  0
 74 76  1  0  0  0
 74147  1  0  0  0
 75 82  1  0  0  0
 76 83  1  0  0  0
 77 78  2  0  0  0
 77 79  1  0  0  0
 77 80  1  0  0  0
 78148  1  0  0  0
 79 81  1  0  0  0
 79149  1  0  0  0
 79150  1  0  0  0
 80 84  1  0  0  0
 80151  1  0  0  0
 80152  1  0  0  0
 81 84  1  0  0  0
 81153  1  0  0  0
 81154  1  0  0  0
 82155  1  0  0  0
 82156  1  0  0  0
 82 84  1  0  0  0
 83157  1  0  0  0
 84158  1  0  0  0
M  CHG  1  84   1
M  ISO  4   1 100  68 101  78 101  83 100
M  END
> <chiral flag>
0

> <version>
0

> <s_m_source_file>
/data/baiqing/PycharmProjects/Reinvent-master-3.2/result/LINK_invent/BTK/process_docking_weight1_custom_product_contain_oxygen_bond_distance_aromatic_linkinvent_7_9_3/rearranged_h_0118.sdf

> <i_m_source_file_index>
7

> <r_mmod_Potential_Energy-OPLS-2005>
-65.7568130493164

> <r_mmod_Stretch_Energy-OPLS-2005>
55.740161895752

> <r_mmod_Bend_Energy-OPLS-2005>
144.879547119141

> <r_mmod_Torsional_Energy-OPLS-2005>
276.082916259766

> <r_mmod_Improper_Torsional_Energy-OPLS-2005>
5.64706373214722

> <r_mmod_Van_der_Waal_Energy-OPLS-2005>
140.254913330078

> <r_mmod_Electrostatic_Energy-OPLS-2005>
-270.558044433594

> <r_mmod_Solvation_Energy-OPLS-2005>
-449.610168457031

> <b_mmod_Minimization_Converged-OPLS-2005>
0

> <r_mmod_RMS_Derivative-OPLS-2005>
5.71701288223267

$$$$
7
                    3D
 Structure written by MMmdl.
154162  0  0  1  0            999 V2000
  -30.6671  -14.6502   20.4741 C   0  0  0  0  0  0
  -30.4215  -12.3863   19.4771 C   0  0  0  0  0  0
  -29.5101  -12.5010   18.2364 C   0  0  0  0  0  0
  -28.0314  -12.3459   18.6395 C   0  0  0  0  0  0
  -27.6477  -13.2341   19.8535 C   0  0  2  0  0  0
  -28.6889  -13.1387   20.9884 C   0  0  0  0  0  0
  -25.2537  -13.8218   20.5702 C   0  0  0  0  0  0
  -24.1813  -13.0455   20.9173 C   0  0  0  0  0  0
  -24.6403  -11.6932   20.8722 C   0  0  0  0  0  0
  -23.9079  -10.4304   21.0393 C   0  0  0  0  0  0
  -24.3625   -9.4219   21.9176 C   0  0  0  0  0  0
  -23.6298   -8.2255   22.0753 C   0  0  0  0  0  0
  -22.4280   -8.0288   21.3545 C   0  0  0  0  0  0
  -21.9917   -9.0261   20.4646 C   0  0  0  0  0  0
  -22.7247  -10.2139   20.3049 C   0  0  0  0  0  0
  -21.6857   -6.0739   22.5278 C   0  0  0  0  0  0
  -21.4018   -6.5641   23.8212 C   0  0  0  0  0  0
  -21.3661   -5.6794   24.9174 C   0  0  0  0  0  0
  -21.6043   -4.3057   24.7224 C   0  0  0  0  0  0
  -21.8819   -3.8149   23.4346 C   0  0  0  0  0  0
  -21.9195   -4.6966   22.3402 C   0  0  0  0  0  0
  -22.7833  -13.5230   21.1849 C   0  0  0  0  0  0
  -22.1662   -4.2151   21.0979 F   0  0  0  0  0  0
  -21.5628   -3.4540   25.7738 F   0  0  0  0  0  0
  -30.0110  -13.4444   20.4264 N   0  0  0  0  0  0
  -26.2972  -12.9432   20.3293 N   0  0  0  0  0  0
  -25.9335  -11.6564   20.5733 N   0  0  0  0  0  0
  -22.0491  -12.8212   22.0411 N   0  0  0  0  0  0
  -25.4250  -15.1945   20.4195 N   0  0  0  0  0  0
  -31.8518  -14.6784   20.1304 O   0  0  0  0  0  0
  -21.6645   -6.8884   21.4241 O   0  0  0  0  0  0
  -22.3501  -14.5532   20.6705 O   0  0  0  0  0  0
  -24.6287  -31.8611   23.2063 C   0  0  0  0  0  0
  -25.9132  -32.4787   23.8382 C   0  0  1  0  0  0
  -27.2062  -27.3016   20.1094 C   0  0  0  0  0  0
  -25.5944  -33.8589   24.2300 N   0  0  0  0  0  0
  -23.4214  -30.4906   21.5502 C   0  0  2  0  0  0
  -24.8645  -28.9575   20.1077 C   0  0  0  0  0  0
  -22.7487  -29.4638   22.4934 C   0  0  0  0  0  0
  -18.0290  -28.1386   22.8488 C   0  0  0  0  0  0
  -24.1489  -36.7294   23.2637 C   0  0  0  0  0  0
  -25.9681  -30.7852   21.3844 C   0  0  0  0  0  0
  -26.0381  -29.4150   20.7206 C   0  0  0  0  0  0
  -27.2122  -28.5979   20.7180 C   0  0  0  0  0  0
  -26.0098  -26.9260   19.4463 C   0  0  0  0  0  0
  -24.8538  -27.7182   19.4614 C   0  0  0  0  0  0
  -23.6355  -29.8390   20.1618 C   0  0  0  0  0  0
  -25.4115  -36.3089   24.0329 C   0  0  1  0  0  0
  -20.5893  -28.3696   23.1275 C   0  0  2  0  0  0
  -20.6782  -26.9419   22.5403 C   0  0  0  0  0  0
  -19.5753  -26.6387   21.5211 C   0  0  0  0  0  0
  -18.1934  -26.7930   22.1626 C   0  0  0  0  0  0
  -19.1543  -28.8858   23.2877 C   0  0  0  0  0  0
  -18.9464  -30.1460   23.8894 C   0  0  0  0  0  0
  -17.6463  -30.6589   24.0565 C   0  0  0  0  0  0
  -25.9054  -34.9456   23.5111 C   0  0  0  0  0  0
  -16.5355  -29.9086   23.6332 C   0  0  0  0  0  0
  -16.7277  -28.6504   23.0354 C   0  0  0  0  0  0
  -26.4505  -31.6594   25.0753 C   0  0  0  0  0  0
  -25.3730  -31.3732   26.1472 C   0  0  0  0  0  0
  -27.0351  -30.3014   24.6222 C   0  0  0  0  0  0
  -27.6062  -32.4330   25.7522 C   0  0  0  0  0  0
  -27.5580  -37.1806   24.8466 C   0  0  0  0  0  0
  -21.4199  -29.3052   22.3671 N   0  0  0  0  0  0
  -26.4294  -37.3781   23.9407 N   0  0  0  0  0  0
  -24.6918  -31.0616   22.1030 N   0  0  0  0  0  0
  -23.4207  -28.8160   23.3001 O   0  0  0  0  0  0
  -28.2832  -26.3897   20.1862 O   0  0  0  0  0  0
  -26.5613  -34.8918   22.4672 O   0  0  0  0  0  0
  -23.5446  -32.1420   23.7378 O   0  0  0  0  0  0
  -30.2776  -20.9358   20.6387 C   0  0  0  0  0  0
  -28.0613  -20.0937   20.3373 C   0  0  0  0  0  0
  -29.9051  -18.4412   20.5955 C   0  0  0  0  0  0
  -30.7692  -19.5905   20.7216 C   0  0  0  0  0  0
  -28.9098  -21.2297   20.4228 C   0  0  0  0  0  0
  -28.5290  -18.7492   20.4205 C   0  0  0  0  0  0
  -30.4455  -16.9915   20.5671 C   0  0  0  0  0  0
  -28.8282  -23.7307   20.3002 C   0  0  0  0  0  0
  -32.6116  -19.0282   22.3881 C   0  0  0  0  0  0
  -32.2727  -19.4424   20.9499 C   0  0  0  0  0  0
  -27.9305  -24.9669   19.9117 C   0  0  0  0  0  0
  -28.3205  -22.5295   20.2400 N   0  0  0  0  0  0
  -29.8845  -15.8179   20.7383 N   0  0  0  0  0  0
  -27.6238  -17.7482   20.2867 F   0  0  0  0  0  0
  -31.4691  -12.4611   19.1807 H   0  0  0  0  0  0
  -30.3173  -11.4035   19.9400 H   0  0  0  0  0  0
  -29.7777  -11.7426   17.4995 H   0  0  0  0  0  0
  -29.6620  -13.4673   17.7526 H   0  0  0  0  0  0
  -27.8669  -11.2957   18.8830 H   0  0  0  0  0  0
  -27.3823  -12.5657   17.7911 H   0  0  0  0  0  0
  -27.6557  -14.2638   19.4946 H   0  0  0  0  0  0
  -28.6896  -12.1412   21.4301 H   0  0  0  0  0  0
  -28.4383  -13.8290   21.7955 H   0  0  0  0  0  0
  -25.2770   -9.5697   22.4750 H   0  0  0  0  0  0
  -24.0008   -7.4649   22.7475 H   0  0  0  0  0  0
  -21.0848   -8.8779   19.8953 H   0  0  0  0  0  0
  -22.3703  -10.9675   19.6156 H   0  0  0  0  0  0
  -21.2011   -7.6149   23.9716 H   0  0  0  0  0  0
  -21.1482   -6.0524   25.9076 H   0  0  0  0  0  0
  -22.0597   -2.7611   23.2846 H   0  0  0  0  0  0
  -22.4123  -11.9875   22.4789 H   0  0  0  0  0  0
  -21.1109  -13.1227   22.2631 H   0  0  0  0  0  0
  -24.6717  -15.8573   20.5633 H   0  0  0  0  0  0
  -26.3071  -15.6417   20.1947 H   0  0  0  0  0  0
  -26.7199  -32.5448   23.1126 H   0  0  0  0  0  0
  -25.0100  -33.9738   25.0451 H   0  0  0  0  0  0
  -22.7159  -31.3128   21.4136 H   0  0  0  0  0  0
  -23.3752  -35.9626   23.3305 H   0  0  0  0  0  0
  -24.3581  -36.8910   22.2051 H   0  0  0  0  0  0
  -23.7241  -37.6498   23.6654 H   0  0  0  0  0  0
  -26.1074  -31.5508   20.6198 H   0  0  0  0  0  0
  -26.8461  -30.8270   22.0171 H   0  0  0  0  0  0
  -28.1054  -28.9387   21.2228 H   0  0  0  0  0  0
  -25.9108  -25.9935   18.9130 H   0  0  0  0  0  0
  -23.9588  -27.3667   18.9665 H   0  0  0  0  0  0
  -23.7576  -30.6221   19.4125 H   0  0  0  0  0  0
  -22.7538  -29.2739   19.8542 H   0  0  0  0  0  0
  -25.1294  -36.1946   25.0821 H   0  0  0  0  0  0
  -20.9985  -28.3270   24.1396 H   0  0  0  0  0  0
  -20.5694  -26.2304   23.3603 H   0  0  0  0  0  0
  -21.6649  -26.7453   22.1190 H   0  0  0  0  0  0
  -19.6915  -25.6297   21.1243 H   0  0  0  0  0  0
  -19.6687  -27.3195   20.6740 H   0  0  0  0  0  0
  -17.4202  -26.6676   21.4030 H   0  0  0  0  0  0
  -18.0337  -26.0072   22.9024 H   0  0  0  0  0  0
  -19.7939  -30.7280   24.2259 H   0  0  0  0  0  0
  -17.5017  -31.6268   24.5168 H   0  0  0  0  0  0
  -15.5355  -30.2987   23.7658 H   0  0  0  0  0  0
  -15.8677  -28.0822   22.7071 H   0  0  0  0  0  0
  -24.5913  -30.7072   25.7800 H   0  0  0  0  0  0
  -24.8911  -32.2896   26.4888 H   0  0  0  0  0  0
  -25.8050  -30.8919   27.0255 H   0  0  0  0  0  0
  -26.2936  -29.6766   24.1230 H   0  0  0  0  0  0
  -27.4023  -29.7271   25.4737 H   0  0  0  0  0  0
  -27.8819  -30.4296   23.9475 H   0  0  0  0  0  0
  -27.2674  -33.3633   26.2092 H   0  0  0  0  0  0
  -28.3875  -32.6884   25.0352 H   0  0  0  0  0  0
  -28.0725  -31.8460   26.5446 H   0  0  0  0  0  0
  -28.2600  -38.0100   24.7512 H   0  0  0  0  0  0
  -28.1073  -36.2632   24.6297 H   0  0  0  0  0  0
  -27.2296  -37.1462   25.8869 H   0  0  0  0  0  0
  -20.9373  -29.8791   21.6898 H   0  0  0  0  0  0
  -26.0178  -38.2858   24.1403 H   0  0  0  0  0  0
  -30.9776  -21.7555   20.7237 H   0  0  0  0  0  0
  -27.0043  -20.2462   20.1745 H   0  0  0  0  0  0
  -31.5120  -17.0020   20.3376 H   0  0  0  0  0  0
  -29.8626  -23.9437   20.5820 H   0  0  0  0  0  0
  -33.6909  -18.9598   22.5261 H   0  0  0  0  0  0
  -32.1864  -18.0586   22.6463 H   0  0  0  0  0  0
  -32.2334  -19.7581   23.1046 H   0  0  0  0  0  0
  -32.7672  -20.3922   20.7413 H   0  0  0  0  0  0
  -32.7098  -18.7510   20.2301 H   0  0  0  0  0  0
  -26.9765  -24.7587   20.3991 H   0  0  0  0  0  0
  -27.7652  -24.8791   18.8372 H   0  0  0  0  0  0
  1 25  1  0  0  0
  1 30  2  0  0  0
  1 83  1  0  0  0
  2  3  1  0  0  0
  2 25  1  0  0  0
  2 85  1  0  0  0
  2 86  1  0  0  0
  3  4  1  0  0  0
  3 87  1  0  0  0
  3 88  1  0  0  0
  4  5  1  0  0  0
  4 89  1  0  0  0
  4 90  1  0  0  0
  5  6  1  0  0  0
  5 26  1  0  0  0
  5 91  1  0  0  0
  6 25  1  0  0  0
  6 92  1  0  0  0
  6 93  1  0  0  0
  7  8  2  0  0  0
  7 26  1  0  0  0
  7 29  1  0  0  0
  8  9  1  0  0  0
  8 22  1  0  0  0
  9 10  1  0  0  0
  9 27  2  0  0  0
 10 11  2  0  0  0
 10 15  1  0  0  0
 11 12  1  0  0  0
 11 94  1  0  0  0
 12 13  2  0  0  0
 12 95  1  0  0  0
 13 14  1  0  0  0
 13 31  1  0  0  0
 14 15  2  0  0  0
 14 96  1  0  0  0
 15 97  1  0  0  0
 16 17  2  0  0  0
 16 21  1  0  0  0
 16 31  1  0  0  0
 17 18  1  0  0  0
 17 98  1  0  0  0
 18 19  2  0  0  0
 18 99  1  0  0  0
 19 20  1  0  0  0
 19 24  1  0  0  0
 20 21  2  0  0  0
 20100  1  0  0  0
 21 23  1  0  0  0
 22 28  1  0  0  0
 22 32  2  0  0  0
 26 27  1  0  0  0
 28101  1  0  0  0
 28102  1  0  0  0
 29103  1  0  0  0
 29104  1  0  0  0
 33 34  1  0  0  0
 33 66  1  0  0  0
 33 70  2  0  0  0
 34 36  1  0  0  0
 34 59  1  0  0  0
 34105  1  0  0  0
 35 44  2  0  0  0
 35 45  1  0  0  0
 35 68  1  0  0  0
 36 56  1  0  0  0
 36106  1  0  0  0
 37 39  1  0  0  0
 37 47  1  0  0  0
 37 66  1  0  0  0
 37107  1  0  0  0
 38 43  2  0  0  0
 38 46  1  0  0  0
 38 47  1  0  0  0
 39 64  1  0  0  0
 39 67  2  0  0  0
 40 52  1  0  0  0
 40 53  2  0  0  0
 40 58  1  0  0  0
 41108  1  0  0  0
 41109  1  0  0  0
 41110  1  0  0  0
 41 48  1  0  0  0
 42 43  1  0  0  0
 42 66  1  0  0  0
 42111  1  0  0  0
 42112  1  0  0  0
 43 44  1  0  0  0
 44113  1  0  0  0
 45 46  2  0  0  0
 45114  1  0  0  0
 46115  1  0  0  0
 47116  1  0  0  0
 47117  1  0  0  0
 48 56  1  0  0  0
 48 65  1  0  0  0
 48118  1  0  0  0
 49 50  1  0  0  0
 49 53  1  0  0  0
 49 64  1  0  0  0
 49119  1  0  0  0
 50 51  1  0  0  0
 50120  1  0  0  0
 50121  1  0  0  0
 51 52  1  0  0  0
 51122  1  0  0  0
 51123  1  0  0  0
 52124  1  0  0  0
 52125  1  0  0  0
 53 54  1  0  0  0
 54 55  2  0  0  0
 54126  1  0  0  0
 55 57  1  0  0  0
 55127  1  0  0  0
 56 69  2  0  0  0
 57 58  2  0  0  0
 57128  1  0  0  0
 58129  1  0  0  0
 59 60  1  0  0  0
 59 61  1  0  0  0
 59 62  1  0  0  0
 60130  1  0  0  0
 60131  1  0  0  0
 60132  1  0  0  0
 61133  1  0  0  0
 61134  1  0  0  0
 61135  1  0  0  0
 62136  1  0  0  0
 62137  1  0  0  0
 62138  1  0  0  0
 63 65  1  0  0  0
 63139  1  0  0  0
 63140  1  0  0  0
 63141  1  0  0  0
 64142  1  0  0  0
 65143  1  0  0  0
 68 81  1  0  0  0
 71 74  2  0  0  0
 71 75  1  0  0  0
 71144  1  0  0  0
 72 75  2  0  0  0
 72 76  1  0  0  0
 72145  1  0  0  0
 73 74  1  0  0  0
 73 76  2  0  0  0
 73 77  1  0  0  0
 74 80  1  0  0  0
 75 82  1  0  0  0
 76 84  1  0  0  0
 77 83  2  0  0  0
 77146  1  0  0  0
 78 81  1  0  0  0
 78 82  2  0  0  0
 78147  1  0  0  0
 79 80  1  0  0  0
 79148  1  0  0  0
 79149  1  0  0  0
 79150  1  0  0  0
 80151  1  0  0  0
 80152  1  0  0  0
 81153  1  0  0  0
 81154  1  0  0  0
M  ISO  4   1 100  68 101  81 101  83 100
M  END
> <chiral flag>
0

> <version>
0

> <s_m_source_file>
/data/baiqing/PycharmProjects/Reinvent-master-3.2/result/LINK_invent/BTK/process_docking_weight1_custom_product_contain_oxygen_bond_distance_aromatic_linkinvent_7_9_3/rearranged_h_0118.sdf

> <i_m_source_file_index>
8

> <r_mmod_Potential_Energy-OPLS-2005>
181.687591552734

> <r_mmod_Stretch_Energy-OPLS-2005>
93.9755706787109

> <r_mmod_Bend_Energy-OPLS-2005>
172.156661987305

> <r_mmod_Torsional_Energy-OPLS-2005>
169.489761352539

> <r_mmod_Improper_Torsional_Energy-OPLS-2005>
4.3874363899231

> <r_mmod_Van_der_Waal_Energy-OPLS-2005>
170.719787597656

> <r_mmod_Electrostatic_Energy-OPLS-2005>
-307.164978027344

> <r_mmod_Solvation_Energy-OPLS-2005>
-183.114242553711

> <b_mmod_Minimization_Converged-OPLS-2005>
0

> <r_mmod_RMS_Derivative-OPLS-2005>
0.178888067603111

$$$$
8
                    3D
 Structure written by MMmdl.
158166  0  0  1  0            999 V2000
  -30.7349  -14.4474   20.6093 C   0  0  0  0  0  0
  -30.4144  -12.3077   19.4149 C   0  0  0  0  0  0
  -29.4870  -12.5062   18.2007 C   0  0  0  0  0  0
  -28.0106  -12.3650   18.6180 C   0  0  0  0  0  0
  -27.6600  -13.2075   19.8736 C   0  0  2  0  0  0
  -28.7019  -12.9934   20.9934 C   0  0  0  0  0  0
  -25.2585  -13.8164   20.5668 C   0  0  0  0  0  0
  -24.1835  -13.0446   20.9170 C   0  0  0  0  0  0
  -24.6390  -11.6911   20.8731 C   0  0  0  0  0  0
  -23.9062  -10.4295   21.0405 C   0  0  0  0  0  0
  -24.3615   -9.4208   21.9184 C   0  0  0  0  0  0
  -23.6293   -8.2244   22.0752 C   0  0  0  0  0  0
  -22.4277   -8.0280   21.3539 C   0  0  0  0  0  0
  -21.9909   -9.0253   20.4643 C   0  0  0  0  0  0
  -22.7236  -10.2136   20.3052 C   0  0  0  0  0  0
  -21.6850   -6.0737   22.5277 C   0  0  0  0  0  0
  -21.4012   -6.5642   23.8211 C   0  0  0  0  0  0
  -21.3659   -5.6791   24.9172 C   0  0  0  0  0  0
  -21.6046   -4.3057   24.7220 C   0  0  0  0  0  0
  -21.8818   -3.8151   23.4340 C   0  0  0  0  0  0
  -21.9194   -4.6967   22.3397 C   0  0  0  0  0  0
  -22.7859  -13.5243   21.1849 C   0  0  0  0  0  0
  -22.1661   -4.2156   21.0974 F   0  0  0  0  0  0
  -21.5632   -3.4539   25.7727 F   0  0  0  0  0  0
  -30.0313  -13.2951   20.4371 N   0  0  0  0  0  0
  -26.3020  -12.9336   20.3371 N   0  0  0  0  0  0
  -25.9321  -11.6496   20.5783 N   0  0  0  0  0  0
  -22.0509  -12.8215   22.0401 N   0  0  0  0  0  0
  -25.4329  -15.1878   20.4050 N   0  0  0  0  0  0
  -31.8312  -14.6401   20.0765 O   0  0  0  0  0  0
  -21.6637   -6.8880   21.4241 O   0  0  0  0  0  0
  -22.3542  -14.5556   20.6716 O   0  0  0  0  0  0
  -24.6165  -31.8669   23.2109 C   0  0  0  0  0  0
  -25.9052  -32.4827   23.8405 C   0  0  1  0  0  0
  -27.2203  -27.4137   20.0958 C   0  0  0  0  0  0
  -25.5907  -33.8626   24.2334 N   0  0  0  0  0  0
  -23.4037  -30.4943   21.5514 C   0  0  2  0  0  0
  -24.8467  -28.9633   20.1107 C   0  0  0  0  0  0
  -22.7416  -29.4667   22.4975 C   0  0  0  0  0  0
  -18.0269  -28.1387   22.8499 C   0  0  0  0  0  0
  -24.1487  -36.7304   23.2642 C   0  0  0  0  0  0
  -25.9359  -30.8271   21.3667 C   0  0  0  0  0  0
  -26.0094  -29.4622   20.7105 C   0  0  0  0  0  0
  -27.1996  -28.6955   20.6981 C   0  0  0  0  0  0
  -26.0383  -26.9431   19.4755 C   0  0  0  0  0  0
  -24.8579  -27.7049   19.4892 C   0  0  0  0  0  0
  -23.6111  -29.8329   20.1641 C   0  0  0  0  0  0
  -25.4109  -36.3111   24.0341 C   0  0  1  0  0  0
  -20.5865  -28.3670   23.1316 C   0  0  2  0  0  0
  -20.6764  -26.9403   22.5420 C   0  0  0  0  0  0
  -19.5745  -26.6389   21.5223 C   0  0  0  0  0  0
  -18.1917  -26.7938   22.1624 C   0  0  0  0  0  0
  -19.1522  -28.8842   23.2911 C   0  0  0  0  0  0
  -18.9452  -30.1449   23.8924 C   0  0  0  0  0  0
  -17.6453  -30.6597   24.0567 C   0  0  0  0  0  0
  -25.9032  -34.9478   23.5128 C   0  0  0  0  0  0
  -16.5342  -29.9101   23.6336 C   0  0  0  0  0  0
  -16.7258  -28.6513   23.0360 C   0  0  0  0  0  0
  -26.4474  -31.6606   25.0731 C   0  0  0  0  0  0
  -25.3752  -31.3732   26.1499 C   0  0  0  0  0  0
  -27.0275  -30.3040   24.6097 C   0  0  0  0  0  0
  -27.6072  -32.4307   25.7472 C   0  0  0  0  0  0
  -27.5578  -37.1804   24.8466 C   0  0  0  0  0  0
  -21.4138  -29.3044   22.3726 N   0  0  0  0  0  0
  -26.4290  -37.3795   23.9411 N   0  0  0  0  0  0
  -24.6709  -31.0772   22.1014 N   0  0  0  0  0  0
  -23.4189  -28.8195   23.3002 O   0  0  0  0  0  0
  -28.3761  -26.6543   20.1321 O   0  0  0  0  0  0
  -26.5592  -34.8931   22.4692 O   0  0  0  0  0  0
  -23.5355  -32.1420   23.7498 O   0  0  0  0  0  0
  -30.8591  -18.6619   20.5464 C   0  0  0  0  0  0
  -30.6334  -20.0533   20.4385 C   0  0  0  0  0  0
  -29.5386  -18.6113   22.5804 C   0  0  0  0  0  0
  -30.3675  -17.9418   21.6560 C   0  0  0  0  0  0
  -29.3112  -20.0059   22.4829 C   0  0  0  0  0  0
  -29.9074  -20.7530   21.4313 C   0  0  0  0  0  0
  -29.2227  -22.9206   20.7751 C   0  0  0  0  0  0
  -29.2793  -24.4471   20.8034 C   0  0  0  0  0  0
  -27.0086  -20.8265   23.1482 C   0  0  0  0  0  0
  -28.4773  -20.6775   23.5658 C   0  0  0  0  0  0
  -30.8795  -16.5300   21.9652 C   0  0  0  0  0  0
  -28.2295  -25.2201   19.9829 C   0  0  0  0  0  0
  -29.9669  -22.1569   21.4844 N   0  0  0  0  0  0
  -30.1630  -15.3904   21.3791 N   0  0  0  0  0  0
  -30.1200  -25.0616   21.4763 O   0  0  0  0  0  0
  -31.4595  -12.3965   19.1136 H   0  0  0  0  0  0
  -30.3081  -11.2979   19.8155 H   0  0  0  0  0  0
  -29.7258  -11.7802   17.4220 H   0  0  0  0  0  0
  -29.6546  -13.4921   17.7642 H   0  0  0  0  0  0
  -27.8231  -11.3091   18.8177 H   0  0  0  0  0  0
  -27.3565  -12.6368   17.7890 H   0  0  0  0  0  0
  -27.7057  -14.2552   19.5755 H   0  0  0  0  0  0
  -28.6793  -11.9586   21.3393 H   0  0  0  0  0  0
  -28.4586  -13.5952   21.8696 H   0  0  0  0  0  0
  -25.2765   -9.5682   22.4753 H   0  0  0  0  0  0
  -24.0004   -7.4629   22.7465 H   0  0  0  0  0  0
  -21.0845   -8.8771   19.8940 H   0  0  0  0  0  0
  -22.3704  -10.9669   19.6155 H   0  0  0  0  0  0
  -21.1998   -7.6149   23.9716 H   0  0  0  0  0  0
  -21.1484   -6.0520   25.9072 H   0  0  0  0  0  0
  -22.0600   -2.7613   23.2833 H   0  0  0  0  0  0
  -22.4131  -11.9848   22.4731 H   0  0  0  0  0  0
  -21.1146  -13.1239   22.2657 H   0  0  0  0  0  0
  -24.6696  -15.8486   20.5026 H   0  0  0  0  0  0
  -26.2920  -15.6208   20.0896 H   0  0  0  0  0  0
  -26.7118  -32.5529   23.1161 H   0  0  0  0  0  0
  -25.0091  -33.9798   25.0504 H   0  0  0  0  0  0
  -22.6926  -31.3118   21.4154 H   0  0  0  0  0  0
  -23.3757  -35.9626   23.3311 H   0  0  0  0  0  0
  -24.3579  -36.8908   22.2052 H   0  0  0  0  0  0
  -23.7224  -37.6506   23.6647 H   0  0  0  0  0  0
  -26.0521  -31.5923   20.5983 H   0  0  0  0  0  0
  -26.8241  -30.8772   21.9848 H   0  0  0  0  0  0
  -28.0966  -29.0727   21.1692 H   0  0  0  0  0  0
  -26.0034  -25.9883   18.9720 H   0  0  0  0  0  0
  -23.9657  -27.3190   19.0154 H   0  0  0  0  0  0
  -23.7200  -30.6114   19.4078 H   0  0  0  0  0  0
  -22.7330  -29.2562   19.8657 H   0  0  0  0  0  0
  -25.1282  -36.1978   25.0831 H   0  0  0  0  0  0
  -20.9958  -28.3233   24.1434 H   0  0  0  0  0  0
  -20.5680  -26.2273   23.3606 H   0  0  0  0  0  0
  -21.6627  -26.7454   22.1188 H   0  0  0  0  0  0
  -19.6904  -25.6306   21.1235 H   0  0  0  0  0  0
  -19.6695  -27.3216   20.6768 H   0  0  0  0  0  0
  -17.4191  -26.6705   21.4023 H   0  0  0  0  0  0
  -18.0302  -26.0073   22.9008 H   0  0  0  0  0  0
  -19.7930  -30.7255   24.2304 H   0  0  0  0  0  0
  -17.5016  -31.6286   24.5159 H   0  0  0  0  0  0
  -15.5350  -30.3017   23.7658 H   0  0  0  0  0  0
  -15.8651  -28.0848   22.7074 H   0  0  0  0  0  0
  -24.5857  -30.7163   25.7835 H   0  0  0  0  0  0
  -24.9038  -32.2914   26.5022 H   0  0  0  0  0  0
  -25.8100  -30.8818   27.0214 H   0  0  0  0  0  0
  -26.2790  -29.6821   24.1173 H   0  0  0  0  0  0
  -27.4065  -29.7265   25.4536 H   0  0  0  0  0  0
  -27.8633  -30.4349   23.9221 H   0  0  0  0  0  0
  -27.2723  -33.3629   26.2039 H   0  0  0  0  0  0
  -28.3887  -32.6826   25.0288 H   0  0  0  0  0  0
  -28.0731  -31.8429   26.5392 H   0  0  0  0  0  0
  -28.2603  -38.0092   24.7496 H   0  0  0  0  0  0
  -28.1064  -36.2622   24.6305 H   0  0  0  0  0  0
  -27.2297  -37.1459   25.8870 H   0  0  0  0  0  0
  -20.9288  -29.8791   21.6976 H   0  0  0  0  0  0
  -26.0186  -38.2875   24.1419 H   0  0  0  0  0  0
  -31.4937  -18.1680   19.8222 H   0  0  0  0  0  0
  -31.1044  -20.5970   19.6307 H   0  0  0  0  0  0
  -29.1448  -18.0671   23.4287 H   0  0  0  0  0  0
  -28.4815  -22.4823   20.1006 H   0  0  0  0  0  0
  -26.4199  -21.2857   23.9421 H   0  0  0  0  0  0
  -26.5621  -19.8575   22.9231 H   0  0  0  0  0  0
  -26.9112  -21.4510   22.2602 H   0  0  0  0  0  0
  -28.8976  -21.6509   23.8196 H   0  0  0  0  0  0
  -28.5370  -20.0894   24.4825 H   0  0  0  0  0  0
  -30.8629  -16.3880   23.0463 H   0  0  0  0  0  0
  -31.9402  -16.5032   21.7082 H   0  0  0  0  0  0
  -27.2550  -24.8842   20.3394 H   0  0  0  0  0  0
  -28.3120  -24.9479   18.9304 H   0  0  0  0  0  0
  -29.2429  -15.1899   21.7390 H   0  0  0  0  0  0
  1 25  1  0  0  0
  1 30  2  0  0  0
  1 84  1  0  0  0
  2  3  1  0  0  0
  2 25  1  0  0  0
  2 86  1  0  0  0
  2 87  1  0  0  0
  3  4  1  0  0  0
  3 88  1  0  0  0
  3 89  1  0  0  0
  4  5  1  0  0  0
  4 90  1  0  0  0
  4 91  1  0  0  0
  5  6  1  0  0  0
  5 26  1  0  0  0
  5 92  1  0  0  0
  6 25  1  0  0  0
  6 93  1  0  0  0
  6 94  1  0  0  0
  7  8  2  0  0  0
  7 26  1  0  0  0
  7 29  1  0  0  0
  8  9  1  0  0  0
  8 22  1  0  0  0
  9 10  1  0  0  0
  9 27  2  0  0  0
 10 11  2  0  0  0
 10 15  1  0  0  0
 11 12  1  0  0  0
 11 95  1  0  0  0
 12 13  2  0  0  0
 12 96  1  0  0  0
 13 14  1  0  0  0
 13 31  1  0  0  0
 14 15  2  0  0  0
 14 97  1  0  0  0
 15 98  1  0  0  0
 16 17  2  0  0  0
 16 21  1  0  0  0
 16 31  1  0  0  0
 17 18  1  0  0  0
 17 99  1  0  0  0
 18 19  2  0  0  0
 18100  1  0  0  0
 19 20  1  0  0  0
 19 24  1  0  0  0
 20 21  2  0  0  0
 20101  1  0  0  0
 21 23  1  0  0  0
 22 28  1  0  0  0
 22 32  2  0  0  0
 26 27  1  0  0  0
 28102  1  0  0  0
 28103  1  0  0  0
 29104  1  0  0  0
 29105  1  0  0  0
 33 34  1  0  0  0
 33 66  1  0  0  0
 33 70  2  0  0  0
 34 36  1  0  0  0
 34 59  1  0  0  0
 34106  1  0  0  0
 35 44  2  0  0  0
 35 45  1  0  0  0
 35 68  1  0  0  0
 36 56  1  0  0  0
 36107  1  0  0  0
 37 39  1  0  0  0
 37 47  1  0  0  0
 37 66  1  0  0  0
 37108  1  0  0  0
 38 43  2  0  0  0
 38 46  1  0  0  0
 38 47  1  0  0  0
 39 64  1  0  0  0
 39 67  2  0  0  0
 40 52  1  0  0  0
 40 53  2  0  0  0
 40 58  1  0  0  0
 41109  1  0  0  0
 41110  1  0  0  0
 41111  1  0  0  0
 41 48  1  0  0  0
 42 43  1  0  0  0
 42 66  1  0  0  0
 42112  1  0  0  0
 42113  1  0  0  0
 43 44  1  0  0  0
 44114  1  0  0  0
 45 46  2  0  0  0
 45115  1  0  0  0
 46116  1  0  0  0
 47117  1  0  0  0
 47118  1  0  0  0
 48 56  1  0  0  0
 48 65  1  0  0  0
 48119  1  0  0  0
 49 50  1  0  0  0
 49 53  1  0  0  0
 49 64  1  0  0  0
 49120  1  0  0  0
 50 51  1  0  0  0
 50121  1  0  0  0
 50122  1  0  0  0
 51 52  1  0  0  0
 51123  1  0  0  0
 51124  1  0  0  0
 52125  1  0  0  0
 52126  1  0  0  0
 53 54  1  0  0  0
 54 55  2  0  0  0
 54127  1  0  0  0
 55 57  1  0  0  0
 55128  1  0  0  0
 56 69  2  0  0  0
 57 58  2  0  0  0
 57129  1  0  0  0
 58130  1  0  0  0
 59 60  1  0  0  0
 59 61  1  0  0  0
 59 62  1  0  0  0
 60131  1  0  0  0
 60132  1  0  0  0
 60133  1  0  0  0
 61134  1  0  0  0
 61135  1  0  0  0
 61136  1  0  0  0
 62137  1  0  0  0
 62138  1  0  0  0
 62139  1  0  0  0
 63 65  1  0  0  0
 63140  1  0  0  0
 63141  1  0  0  0
 63142  1  0  0  0
 64143  1  0  0  0
 65144  1  0  0  0
 68 82  1  0  0  0
 71 72  2  0  0  0
 71 74  1  0  0  0
 71145  1  0  0  0
 72 76  1  0  0  0
 72146  1  0  0  0
 73 74  2  0  0  0
 73 75  1  0  0  0
 73147  1  0  0  0
 74 81  1  0  0  0
 75 76  2  0  0  0
 75 80  1  0  0  0
 76 83  1  0  0  0
 77 78  1  0  0  0
 77 83  2  0  0  0
 77148  1  0  0  0
 78 82  1  0  0  0
 78 85  2  0  0  0
 79 80  1  0  0  0
 79149  1  0  0  0
 79150  1  0  0  0
 79151  1  0  0  0
 80152  1  0  0  0
 80153  1  0  0  0
 81 84  1  0  0  0
 81154  1  0  0  0
 81155  1  0  0  0
 82156  1  0  0  0
 82157  1  0  0  0
 84158  1  0  0  0
M  ISO  4   1 100  68 101  82 101  84 100
M  END
> <chiral flag>
0

> <version>
0

> <s_m_source_file>
/data/baiqing/PycharmProjects/Reinvent-master-3.2/result/LINK_invent/BTK/process_docking_weight1_custom_product_contain_oxygen_bond_distance_aromatic_linkinvent_7_9_3/rearranged_h_0118.sdf

> <i_m_source_file_index>
9

> <r_mmod_Potential_Energy-OPLS-2005>
-70.7023391723633

> <r_mmod_Stretch_Energy-OPLS-2005>
40.1817626953125

> <r_mmod_Bend_Energy-OPLS-2005>
99.9763107299805

> <r_mmod_Torsional_Energy-OPLS-2005>
231.054946899414

> <r_mmod_Improper_Torsional_Energy-OPLS-2005>
4.442054271698

> <r_mmod_Van_der_Waal_Energy-OPLS-2005>
154.298110961914

> <r_mmod_Electrostatic_Energy-OPLS-2005>
-368.889495849609

> <r_mmod_Solvation_Energy-OPLS-2005>
-245.397506713867

> <b_mmod_Minimization_Converged-OPLS-2005>
0

> <r_mmod_RMS_Derivative-OPLS-2005>
1.20907688140869

$$$$
9
                    3D
 Structure written by MMmdl.
151159  0  0  1  0            999 V2000
  -30.6168  -14.6317   20.5200 C   0  0  0  0  0  0
  -30.4420  -12.3886   19.4499 C   0  0  0  0  0  0
  -29.5157  -12.5349   18.2210 C   0  0  0  0  0  0
  -28.0333  -12.3729   18.6226 C   0  0  0  0  0  0
  -27.6591  -13.2206   19.8677 C   0  0  2  0  0  0
  -28.7023  -13.0443   20.9950 C   0  0  0  0  0  0
  -25.2586  -13.8182   20.5691 C   0  0  0  0  0  0
  -24.1841  -13.0442   20.9170 C   0  0  0  0  0  0
  -24.6427  -11.6914   20.8736 C   0  0  0  0  0  0
  -23.9085  -10.4308   21.0399 C   0  0  0  0  0  0
  -24.3634   -9.4234   21.9175 C   0  0  0  0  0  0
  -23.6332   -8.2257   22.0723 C   0  0  0  0  0  0
  -22.4313   -8.0285   21.3509 C   0  0  0  0  0  0
  -21.9955   -9.0265   20.4626 C   0  0  0  0  0  0
  -22.7269  -10.2152   20.3057 C   0  0  0  0  0  0
  -21.6857   -6.0746   22.5282 C   0  0  0  0  0  0
  -21.4013   -6.5645   23.8221 C   0  0  0  0  0  0
  -21.3674   -5.6771   24.9167 C   0  0  0  0  0  0
  -21.6073   -4.3043   24.7206 C   0  0  0  0  0  0
  -21.8817   -3.8145   23.4325 C   0  0  0  0  0  0
  -21.9187   -4.6976   22.3386 C   0  0  0  0  0  0
  -22.7882  -13.5239   21.1825 C   0  0  0  0  0  0
  -22.1665   -4.2174   21.0972 F   0  0  0  0  0  0
  -21.5639   -3.4526   25.7721 F   0  0  0  0  0  0
  -30.0208  -13.3987   20.4432 N   0  0  0  0  0  0
  -26.3017  -12.9371   20.3315 N   0  0  0  0  0  0
  -25.9355  -11.6521   20.5738 N   0  0  0  0  0  0
  -22.0494  -12.8244   22.0389 N   0  0  0  0  0  0
  -25.4280  -15.1928   20.4182 N   0  0  0  0  0  0
  -31.7596  -14.8252   20.0946 O   0  0  0  0  0  0
  -21.6645   -6.8903   21.4238 O   0  0  0  0  0  0
  -22.3563  -14.5533   20.6629 O   0  0  0  0  0  0
  -24.6215  -31.8564   23.1978 C   0  0  0  0  0  0
  -25.9057  -32.4773   23.8311 C   0  0  1  0  0  0
  -27.2449  -27.3142   20.1308 C   0  0  0  0  0  0
  -25.5883  -33.8579   24.2229 N   0  0  0  0  0  0
  -23.4181  -30.4723   21.5383 C   0  0  2  0  0  0
  -24.8710  -28.9135   20.1165 C   0  0  0  0  0  0
  -22.7441  -29.4590   22.4909 C   0  0  0  0  0  0
  -18.0278  -28.1378   22.8460 C   0  0  0  0  0  0
  -24.1489  -36.7306   23.2638 C   0  0  0  0  0  0
  -25.9549  -30.7853   21.3683 C   0  0  0  0  0  0
  -26.0336  -29.4082   20.7176 C   0  0  0  0  0  0
  -27.2174  -28.6174   20.7172 C   0  0  0  0  0  0
  -26.0555  -26.8560   19.5246 C   0  0  0  0  0  0
  -24.8820  -27.6403   19.5185 C   0  0  0  0  0  0
  -23.6353  -29.7897   20.1595 C   0  0  0  0  0  0
  -25.4125  -36.3082   24.0304 C   0  0  1  0  0  0
  -20.5868  -28.3684   23.1267 C   0  0  2  0  0  0
  -20.6766  -26.9400   22.5407 C   0  0  0  0  0  0
  -19.5761  -26.6362   21.5192 C   0  0  0  0  0  0
  -18.1937  -26.7925   22.1601 C   0  0  0  0  0  0
  -19.1524  -28.8850   23.2872 C   0  0  0  0  0  0
  -18.9456  -30.1451   23.8878 C   0  0  0  0  0  0
  -17.6457  -30.6597   24.0552 C   0  0  0  0  0  0
  -25.9043  -34.9446   23.5082 C   0  0  0  0  0  0
  -16.5351  -29.9088   23.6316 C   0  0  0  0  0  0
  -16.7266  -28.6511   23.0335 C   0  0  0  0  0  0
  -26.4429  -31.6630   25.0720 C   0  0  0  0  0  0
  -25.3641  -31.3816   26.1446 C   0  0  0  0  0  0
  -27.0269  -30.3047   24.6221 C   0  0  0  0  0  0
  -27.5981  -32.4369   25.7507 C   0  0  0  0  0  0
  -27.5584  -37.1811   24.8438 C   0  0  0  0  0  0
  -21.4154  -29.3048   22.3668 N   0  0  0  0  0  0
  -26.4292  -37.3773   23.9381 N   0  0  0  0  0  0
  -24.6823  -31.0557   22.0931 N   0  0  0  0  0  0
  -23.4165  -28.8128   23.2995 O   0  0  0  0  0  0
  -28.4076  -26.5333   20.1975 O   0  0  0  0  0  0
  -26.5619  -34.8905   22.4644 O   0  0  0  0  0  0
  -23.5380  -32.1344   23.7322 O   0  0  0  0  0  0
  -29.9914  -19.4625   21.3518 C   0  0  0  0  0  0
  -30.3214  -18.0760   21.5144 C   0  0  0  0  0  0
  -28.8973  -17.5258   19.6468 C   0  0  0  0  0  0
  -29.0441  -19.9066   20.3822 C   0  0  0  0  0  0
  -29.7585  -17.0675   20.6796 C   0  0  0  0  0  0
  -28.5522  -18.9031   19.5001 C   0  0  0  0  0  0
  -28.4738  -21.3254   20.3080 C   0  0  0  0  0  0
  -28.9946  -22.5577   20.6125 C   0  0  0  0  0  0
  -28.2107  -23.9257   20.7079 C   0  0  0  0  0  0
  -28.5322  -25.1364   19.7219 C   0  0  0  0  0  0
  -29.8297  -15.6429   21.0039 N   0  0  0  0  0  0
  -27.6819  -19.2460   18.5165 F   0  0  0  0  0  0
  -31.4861  -12.5130   19.1567 H   0  0  0  0  0  0
  -30.3676  -11.3829   19.8690 H   0  0  0  0  0  0
  -29.7859  -11.8072   17.4531 H   0  0  0  0  0  0
  -29.6625  -13.5201   17.7742 H   0  0  0  0  0  0
  -27.8510  -11.3157   18.8196 H   0  0  0  0  0  0
  -27.3908  -12.6399   17.7846 H   0  0  0  0  0  0
  -27.6855  -14.2630   19.5493 H   0  0  0  0  0  0
  -28.7171  -12.0116   21.3481 H   0  0  0  0  0  0
  -28.4471  -13.6439   21.8683 H   0  0  0  0  0  0
  -25.2784   -9.5733   22.4723 H   0  0  0  0  0  0
  -24.0065   -7.4661   22.7440 H   0  0  0  0  0  0
  -21.0888   -8.8777   19.8954 H   0  0  0  0  0  0
  -22.3721  -10.9671   19.6150 H   0  0  0  0  0  0
  -21.1995   -7.6154   23.9745 H   0  0  0  0  0  0
  -21.1507   -6.0487   25.9077 H   0  0  0  0  0  0
  -22.0588   -2.7619   23.2795 H   0  0  0  0  0  0
  -22.4096  -11.9949   22.4865 H   0  0  0  0  0  0
  -21.1083  -13.1247   22.2504 H   0  0  0  0  0  0
  -24.6609  -15.8434   20.5475 H   0  0  0  0  0  0
  -26.2789  -15.6464   20.1130 H   0  0  0  0  0  0
  -26.7135  -32.5423   23.1068 H   0  0  0  0  0  0
  -25.0000  -33.9728   25.0359 H   0  0  0  0  0  0
  -22.7152  -31.2927   21.3860 H   0  0  0  0  0  0
  -23.3742  -35.9653   23.3295 H   0  0  0  0  0  0
  -24.3577  -36.8945   22.2054 H   0  0  0  0  0  0
  -23.7263  -37.6511   23.6682 H   0  0  0  0  0  0
  -26.0788  -31.5456   20.5966 H   0  0  0  0  0  0
  -26.8388  -30.8445   21.9919 H   0  0  0  0  0  0
  -28.1089  -28.9949   21.1980 H   0  0  0  0  0  0
  -26.0117  -25.8750   19.0789 H   0  0  0  0  0  0
  -23.9826  -27.2440   19.0695 H   0  0  0  0  0  0
  -23.7482  -30.5539   19.3911 H   0  0  0  0  0  0
  -22.7604  -29.2072   19.8634 H   0  0  0  0  0  0
  -25.1323  -36.1916   25.0800 H   0  0  0  0  0  0
  -20.9977  -28.3276   24.1379 H   0  0  0  0  0  0
  -20.5636  -26.2287   23.3605 H   0  0  0  0  0  0
  -21.6639  -26.7410   22.1225 H   0  0  0  0  0  0
  -19.6919  -25.6260   21.1251 H   0  0  0  0  0  0
  -19.6732  -27.3125   20.6685 H   0  0  0  0  0  0
  -17.4206  -26.6632   21.4016 H   0  0  0  0  0  0
  -18.0377  -26.0085   22.9018 H   0  0  0  0  0  0
  -19.7953  -30.7257   24.2234 H   0  0  0  0  0  0
  -17.5034  -31.6268   24.5182 H   0  0  0  0  0  0
  -15.5349  -30.2989   23.7675 H   0  0  0  0  0  0
  -15.8670  -28.0837   22.7039 H   0  0  0  0  0  0
  -24.5757  -30.7239   25.7762 H   0  0  0  0  0  0
  -24.8885  -32.3014   26.4876 H   0  0  0  0  0  0
  -25.7917  -30.8954   27.0228 H   0  0  0  0  0  0
  -26.2860  -29.6846   24.1165 H   0  0  0  0  0  0
  -27.3844  -29.7284   25.4768 H   0  0  0  0  0  0
  -27.8779  -30.4320   23.9525 H   0  0  0  0  0  0
  -27.2570  -33.3635   26.2142 H   0  0  0  0  0  0
  -28.3780  -32.7002   25.0353 H   0  0  0  0  0  0
  -28.0672  -31.8468   26.5395 H   0  0  0  0  0  0
  -28.2579  -38.0125   24.7502 H   0  0  0  0  0  0
  -28.1098  -36.2657   24.6247 H   0  0  0  0  0  0
  -27.2289  -37.1435   25.8832 H   0  0  0  0  0  0
  -20.9314  -29.8769   21.6888 H   0  0  0  0  0  0
  -26.0167  -38.2840   24.1418 H   0  0  0  0  0  0
  -30.4129  -20.1745   22.0485 H   0  0  0  0  0  0
  -30.9704  -17.7966   22.3377 H   0  0  0  0  0  0
  -28.4261  -16.8123   18.9837 H   0  0  0  0  0  0
  -27.4310  -21.3289   20.0210 H   0  0  0  0  0  0
  -30.0426  -22.6143   20.8785 H   0  0  0  0  0  0
  -28.3983  -24.2851   21.7209 H   0  0  0  0  0  0
  -27.1401  -23.7171   20.6757 H   0  0  0  0  0  0
  -28.0103  -24.9934   18.7752 H   0  0  0  0  0  0
  -29.5880  -25.0499   19.4598 H   0  0  0  0  0  0
  -28.9725  -15.2734   21.3874 H   0  0  0  0  0  0
  1 25  1  0  0  0
  1 30  2  0  0  0
  1 81  1  0  0  0
  2  3  1  0  0  0
  2 25  1  0  0  0
  2 83  1  0  0  0
  2 84  1  0  0  0
  3  4  1  0  0  0
  3 85  1  0  0  0
  3 86  1  0  0  0
  4  5  1  0  0  0
  4 87  1  0  0  0
  4 88  1  0  0  0
  5  6  1  0  0  0
  5 26  1  0  0  0
  5 89  1  0  0  0
  6 25  1  0  0  0
  6 90  1  0  0  0
  6 91  1  0  0  0
  7  8  2  0  0  0
  7 26  1  0  0  0
  7 29  1  0  0  0
  8  9  1  0  0  0
  8 22  1  0  0  0
  9 10  1  0  0  0
  9 27  2  0  0  0
 10 11  2  0  0  0
 10 15  1  0  0  0
 11 12  1  0  0  0
 11 92  1  0  0  0
 12 13  2  0  0  0
 12 93  1  0  0  0
 13 14  1  0  0  0
 13 31  1  0  0  0
 14 15  2  0  0  0
 14 94  1  0  0  0
 15 95  1  0  0  0
 16 17  2  0  0  0
 16 21  1  0  0  0
 16 31  1  0  0  0
 17 18  1  0  0  0
 17 96  1  0  0  0
 18 19  2  0  0  0
 18 97  1  0  0  0
 19 20  1  0  0  0
 19 24  1  0  0  0
 20 21  2  0  0  0
 20 98  1  0  0  0
 21 23  1  0  0  0
 22 28  1  0  0  0
 22 32  2  0  0  0
 26 27  1  0  0  0
 28 99  1  0  0  0
 28100  1  0  0  0
 29101  1  0  0  0
 29102  1  0  0  0
 33 34  1  0  0  0
 33 66  1  0  0  0
 33 70  2  0  0  0
 34 36  1  0  0  0
 34 59  1  0  0  0
 34103  1  0  0  0
 35 44  2  0  0  0
 35 45  1  0  0  0
 35 68  1  0  0  0
 36 56  1  0  0  0
 36104  1  0  0  0
 37 39  1  0  0  0
 37 47  1  0  0  0
 37 66  1  0  0  0
 37105  1  0  0  0
 38 43  2  0  0  0
 38 46  1  0  0  0
 38 47  1  0  0  0
 39 64  1  0  0  0
 39 67  2  0  0  0
 40 52  1  0  0  0
 40 53  2  0  0  0
 40 58  1  0  0  0
 41106  1  0  0  0
 41107  1  0  0  0
 41108  1  0  0  0
 41 48  1  0  0  0
 42 43  1  0  0  0
 42 66  1  0  0  0
 42109  1  0  0  0
 42110  1  0  0  0
 43 44  1  0  0  0
 44111  1  0  0  0
 45 46  2  0  0  0
 45112  1  0  0  0
 46113  1  0  0  0
 47114  1  0  0  0
 47115  1  0  0  0
 48 56  1  0  0  0
 48 65  1  0  0  0
 48116  1  0  0  0
 49 50  1  0  0  0
 49 53  1  0  0  0
 49 64  1  0  0  0
 49117  1  0  0  0
 50 51  1  0  0  0
 50118  1  0  0  0
 50119  1  0  0  0
 51 52  1  0  0  0
 51120  1  0  0  0
 51121  1  0  0  0
 52122  1  0  0  0
 52123  1  0  0  0
 53 54  1  0  0  0
 54 55  2  0  0  0
 54124  1  0  0  0
 55 57  1  0  0  0
 55125  1  0  0  0
 56 69  2  0  0  0
 57 58  2  0  0  0
 57126  1  0  0  0
 58127  1  0  0  0
 59 60  1  0  0  0
 59 61  1  0  0  0
 59 62  1  0  0  0
 60128  1  0  0  0
 60129  1  0  0  0
 60130  1  0  0  0
 61131  1  0  0  0
 61132  1  0  0  0
 61133  1  0  0  0
 62134  1  0  0  0
 62135  1  0  0  0
 62136  1  0  0  0
 63 65  1  0  0  0
 63137  1  0  0  0
 63138  1  0  0  0
 63139  1  0  0  0
 64140  1  0  0  0
 65141  1  0  0  0
 68 80  1  0  0  0
 71 72  2  0  0  0
 71 74  1  0  0  0
 71142  1  0  0  0
 72 75  1  0  0  0
 72143  1  0  0  0
 73 75  2  0  0  0
 73 76  1  0  0  0
 73144  1  0  0  0
 74 76  2  0  0  0
 74 77  1  0  0  0
 75 81  1  0  0  0
 76 82  1  0  0  0
 77 78  2  0  0  0
 77145  1  0  0  0
 78 79  1  0  0  0
 78146  1  0  0  0
 79 80  1  0  0  0
 79147  1  0  0  0
 79148  1  0  0  0
 80149  1  0  0  0
 80150  1  0  0  0
 81151  1  0  0  0
M  ISO  4   1 100  68 101  80 101  81 100
M  END
> <chiral flag>
0

> <version>
0

> <s_m_source_file>
/data/baiqing/PycharmProjects/Reinvent-master-3.2/result/LINK_invent/BTK/process_docking_weight1_custom_product_contain_oxygen_bond_distance_aromatic_linkinvent_7_9_3/rearranged_h_0118.sdf

> <i_m_source_file_index>
10

> <r_mmod_Potential_Energy-OPLS-2005>
124.911499023438

> <r_mmod_Stretch_Energy-OPLS-2005>
80.66015625

> <r_mmod_Bend_Energy-OPLS-2005>
151.903076171875

> <r_mmod_Torsional_Energy-OPLS-2005>
253.042922973633

> <r_mmod_Improper_Torsional_Energy-OPLS-2005>
7.07233667373657

> <r_mmod_Van_der_Waal_Energy-OPLS-2005>
131.886749267578

> <r_mmod_Electrostatic_Energy-OPLS-2005>
-338.830261230469

> <r_mmod_Solvation_Energy-OPLS-2005>
-206.395782470703

> <b_mmod_Minimization_Converged-OPLS-2005>
0

> <r_mmod_RMS_Derivative-OPLS-2005>
3.92202830314636

$$$$
10
                    3D
 Structure written by MMmdl.
158166  0  0  1  0            999 V2000
  -30.7642  -14.4132   20.5574 C   0  0  0  0  0  0
  -30.3968  -12.2688   19.4272 C   0  0  0  0  0  0
  -29.4871  -12.4924   18.2047 C   0  0  0  0  0  0
  -28.0071  -12.3724   18.6156 C   0  0  0  0  0  0
  -27.6584  -13.2153   19.8730 C   0  0  2  0  0  0
  -28.6996  -13.0197   20.9981 C   0  0  0  0  0  0
  -25.2569  -13.8190   20.5691 C   0  0  0  0  0  0
  -24.1829  -13.0453   20.9180 C   0  0  0  0  0  0
  -24.6392  -11.6925   20.8737 C   0  0  0  0  0  0
  -23.9066  -10.4309   21.0408 C   0  0  0  0  0  0
  -24.3620   -9.4221   21.9182 C   0  0  0  0  0  0
  -23.6303   -8.2252   22.0755 C   0  0  0  0  0  0
  -22.4283   -8.0289   21.3550 C   0  0  0  0  0  0
  -21.9916   -9.0263   20.4650 C   0  0  0  0  0  0
  -22.7240  -10.2148   20.3063 C   0  0  0  0  0  0
  -21.6854   -6.0742   22.5285 C   0  0  0  0  0  0
  -21.4010   -6.5643   23.8217 C   0  0  0  0  0  0
  -21.3662   -5.6796   24.9176 C   0  0  0  0  0  0
  -21.6046   -4.3060   24.7223 C   0  0  0  0  0  0
  -21.8820   -3.8152   23.4344 C   0  0  0  0  0  0
  -21.9195   -4.6970   22.3402 C   0  0  0  0  0  0
  -22.7852  -13.5240   21.1840 C   0  0  0  0  0  0
  -22.1667   -4.2158   21.0978 F   0  0  0  0  0  0
  -21.5628   -3.4542   25.7733 F   0  0  0  0  0  0
  -30.0318  -13.2763   20.4356 N   0  0  0  0  0  0
  -26.3009  -12.9374   20.3375 N   0  0  0  0  0  0
  -25.9323  -11.6522   20.5779 N   0  0  0  0  0  0
  -22.0501  -12.8237   22.0400 N   0  0  0  0  0  0
  -25.4300  -15.1912   20.4089 N   0  0  0  0  0  0
  -31.9027  -14.5112   20.0938 O   0  0  0  0  0  0
  -21.6648   -6.8889   21.4249 O   0  0  0  0  0  0
  -22.3543  -14.5549   20.6698 O   0  0  0  0  0  0
  -24.6088  -31.8708   23.2121 C   0  0  0  0  0  0
  -25.9004  -32.4841   23.8404 C   0  0  1  0  0  0
  -27.2496  -27.4753   20.1080 C   0  0  0  0  0  0
  -25.5872  -33.8630   24.2347 N   0  0  0  0  0  0
  -23.3949  -30.4920   21.5502 C   0  0  2  0  0  0
  -24.8462  -28.9630   20.1124 C   0  0  0  0  0  0
  -22.7382  -29.4668   22.5009 C   0  0  0  0  0  0
  -18.0267  -28.1375   22.8494 C   0  0  0  0  0  0
  -24.1482  -36.7319   23.2646 C   0  0  0  0  0  0
  -25.9154  -30.8543   21.3545 C   0  0  0  0  0  0
  -25.9975  -29.4897   20.7086 C   0  0  0  0  0  0
  -27.1996  -28.7570   20.7063 C   0  0  0  0  0  0
  -26.0869  -26.9616   19.4998 C   0  0  0  0  0  0
  -24.8838  -27.6951   19.5032 C   0  0  0  0  0  0
  -23.6019  -29.8197   20.1642 C   0  0  0  0  0  0
  -25.4097  -36.3116   24.0351 C   0  0  1  0  0  0
  -20.5850  -28.3649   23.1336 C   0  0  2  0  0  0
  -20.6754  -26.9393   22.5422 C   0  0  0  0  0  0
  -19.5747  -26.6384   21.5203 C   0  0  0  0  0  0
  -18.1921  -26.7927   22.1610 C   0  0  0  0  0  0
  -19.1516  -28.8827   23.2916 C   0  0  0  0  0  0
  -18.9444  -30.1429   23.8933 C   0  0  0  0  0  0
  -17.6453  -30.6589   24.0562 C   0  0  0  0  0  0
  -25.9016  -34.9482   23.5147 C   0  0  0  0  0  0
  -16.5340  -29.9099   23.6318 C   0  0  0  0  0  0
  -16.7259  -28.6505   23.0355 C   0  0  0  0  0  0
  -26.4460  -31.6604   25.0707 C   0  0  0  0  0  0
  -25.3749  -31.3700   26.1478 C   0  0  0  0  0  0
  -27.0277  -30.3059   24.6028 C   0  0  0  0  0  0
  -27.6047  -32.4313   25.7459 C   0  0  0  0  0  0
  -27.5577  -37.1815   24.8468 C   0  0  0  0  0  0
  -21.4118  -29.3022   22.3748 N   0  0  0  0  0  0
  -26.4292  -37.3786   23.9409 N   0  0  0  0  0  0
  -24.6576  -31.0855   22.0987 N   0  0  0  0  0  0
  -23.4178  -28.8216   23.3037 O   0  0  0  0  0  0
  -28.3782  -26.6864   20.0858 O   0  0  0  0  0  0
  -26.5574  -34.8935   22.4705 O   0  0  0  0  0  0
  -23.5298  -32.1423   23.7561 O   0  0  0  0  0  0
  -29.7862  -20.4617   20.7529 C   0  0  0  0  0  0
  -29.3957  -18.2648   22.4482 C   0  0  0  0  0  0
  -29.1845  -20.6930   22.0115 C   0  0  0  0  0  0
  -30.0956  -18.0900   21.2386 C   0  0  0  0  0  0
  -28.9395  -19.5482   22.8358 C   0  0  0  0  0  0
  -30.2464  -19.1937   20.3745 C   0  0  0  0  0  0
  -29.6246  -23.2534   21.7701 C   0  0  0  0  0  0
  -29.4102  -24.5635   22.0039 C   0  0  0  0  0  0
  -28.9052  -22.1182   22.4172 C   0  0  0  0  0  0
  -30.8417  -16.8010   20.9215 C   0  0  0  0  0  0
  -30.2021  -25.6806   21.3403 C   0  0  0  0  0  0
  -29.3690  -26.9420   21.0786 C   0  0  0  0  0  0
  -28.0779  -22.3944   23.3360 N   0  0  0  0  0  0
  -30.1555  -15.5061   21.0506 N   0  0  0  0  0  0
  -28.3067  -19.6413   24.0454 O   0  0  0  0  0  0
  -30.8834  -19.0639   19.1867 F   0  0  0  0  0  0
  -31.4466  -12.3147   19.1312 H   0  0  0  0  0  0
  -30.2527  -11.2668   19.8344 H   0  0  0  0  0  0
  -29.7172  -11.7684   17.4218 H   0  0  0  0  0  0
  -29.6743  -13.4781   17.7741 H   0  0  0  0  0  0
  -27.8013  -11.3186   18.8067 H   0  0  0  0  0  0
  -27.3631  -12.6597   17.7836 H   0  0  0  0  0  0
  -27.6988  -14.2625   19.5705 H   0  0  0  0  0  0
  -28.6575  -12.0005   21.3820 H   0  0  0  0  0  0
  -28.4818  -13.6675   21.8486 H   0  0  0  0  0  0
  -25.2771   -9.5687   22.4745 H   0  0  0  0  0  0
  -24.0022   -7.4632   22.7462 H   0  0  0  0  0  0
  -21.0852   -8.8774   19.8943 H   0  0  0  0  0  0
  -22.3703  -10.9682   19.6166 H   0  0  0  0  0  0
  -21.2006   -7.6151   23.9720 H   0  0  0  0  0  0
  -21.1482   -6.0523   25.9076 H   0  0  0  0  0  0
  -22.0599   -2.7617   23.2840 H   0  0  0  0  0  0
  -22.4126  -11.9910   22.4802 H   0  0  0  0  0  0
  -21.1112  -13.1247   22.2595 H   0  0  0  0  0  0
  -24.6663  -15.8492   20.5186 H   0  0  0  0  0  0
  -26.2852  -15.6265   20.0871 H   0  0  0  0  0  0
  -26.7086  -32.5594   23.1187 H   0  0  0  0  0  0
  -25.0023  -33.9784   25.0494 H   0  0  0  0  0  0
  -22.6815  -31.3067   21.4111 H   0  0  0  0  0  0
  -23.3731  -35.9668   23.3336 H   0  0  0  0  0  0
  -24.3581  -36.8901   22.2057 H   0  0  0  0  0  0
  -23.7259  -37.6544   23.6639 H   0  0  0  0  0  0
  -26.0115  -31.6184   20.5818 H   0  0  0  0  0  0
  -26.8073  -30.9179   21.9648 H   0  0  0  0  0  0
  -28.0764  -29.1920   21.1623 H   0  0  0  0  0  0
  -26.1127  -25.9836   19.0392 H   0  0  0  0  0  0
  -23.9985  -27.2808   19.0402 H   0  0  0  0  0  0
  -23.7012  -30.5929   19.4015 H   0  0  0  0  0  0
  -22.7301  -29.2307   19.8731 H   0  0  0  0  0  0
  -25.1275  -36.1977   25.0843 H   0  0  0  0  0  0
  -20.9932  -28.3210   24.1460 H   0  0  0  0  0  0
  -20.5633  -26.2263   23.3603 H   0  0  0  0  0  0
  -21.6630  -26.7433   22.1224 H   0  0  0  0  0  0
  -19.6904  -25.6293   21.1239 H   0  0  0  0  0  0
  -19.6707  -27.3184   20.6725 H   0  0  0  0  0  0
  -17.4188  -26.6674   21.4017 H   0  0  0  0  0  0
  -18.0331  -26.0073   22.9009 H   0  0  0  0  0  0
  -19.7918  -30.7229   24.2342 H   0  0  0  0  0  0
  -17.5007  -31.6280   24.5145 H   0  0  0  0  0  0
  -15.5343  -30.3015   23.7624 H   0  0  0  0  0  0
  -15.8653  -28.0831   22.7075 H   0  0  0  0  0  0
  -24.5885  -30.7107   25.7794 H   0  0  0  0  0  0
  -24.8993  -32.2863   26.4994 H   0  0  0  0  0  0
  -25.8102  -30.8796   27.0196 H   0  0  0  0  0  0
  -26.2775  -29.6832   24.1143 H   0  0  0  0  0  0
  -27.4139  -29.7281   25.4436 H   0  0  0  0  0  0
  -27.8576  -30.4401   23.9086 H   0  0  0  0  0  0
  -27.2657  -33.3584   26.2091 H   0  0  0  0  0  0
  -28.3825  -32.6931   25.0272 H   0  0  0  0  0  0
  -28.0749  -31.8409   26.5335 H   0  0  0  0  0  0
  -28.2606  -38.0094   24.7469 H   0  0  0  0  0  0
  -28.1057  -36.2628   24.6332 H   0  0  0  0  0  0
  -27.2300  -37.1505   25.8872 H   0  0  0  0  0  0
  -20.9275  -29.8743   21.6974 H   0  0  0  0  0  0
  -26.0194  -38.2871   24.1393 H   0  0  0  0  0  0
  -29.9436  -21.2628   20.0490 H   0  0  0  0  0  0
  -29.2755  -17.4186   23.1098 H   0  0  0  0  0  0
  -30.4030  -22.9895   21.0728 H   0  0  0  0  0  0
  -28.6546  -24.8715   22.7136 H   0  0  0  0  0  0
  -31.7248  -16.7832   21.5614 H   0  0  0  0  0  0
  -31.2232  -16.8830   19.9018 H   0  0  0  0  0  0
  -30.6598  -25.3261   20.4159 H   0  0  0  0  0  0
  -31.0216  -25.9439   22.0099 H   0  0  0  0  0  0
  -30.0164  -27.7493   20.7330 H   0  0  0  0  0  0
  -28.9270  -27.2585   22.0254 H   0  0  0  0  0  0
  -27.7122  -21.5235   23.7183 H   0  0  0  0  0  0
  -29.2047  -15.4580   21.3826 H   0  0  0  0  0  0
  -28.2107  -18.8028   24.4865 H   0  0  0  0  0  0
  1 25  1  0  0  0
  1 30  2  0  0  0
  1 84  1  0  0  0
  2  3  1  0  0  0
  2 25  1  0  0  0
  2 87  1  0  0  0
  2 88  1  0  0  0
  3  4  1  0  0  0
  3 89  1  0  0  0
  3 90  1  0  0  0
  4  5  1  0  0  0
  4 91  1  0  0  0
  4 92  1  0  0  0
  5  6  1  0  0  0
  5 26  1  0  0  0
  5 93  1  0  0  0
  6 25  1  0  0  0
  6 94  1  0  0  0
  6 95  1  0  0  0
  7  8  2  0  0  0
  7 26  1  0  0  0
  7 29  1  0  0  0
  8  9  1  0  0  0
  8 22  1  0  0  0
  9 10  1  0  0  0
  9 27  2  0  0  0
 10 11  2  0  0  0
 10 15  1  0  0  0
 11 12  1  0  0  0
 11 96  1  0  0  0
 12 13  2  0  0  0
 12 97  1  0  0  0
 13 14  1  0  0  0
 13 31  1  0  0  0
 14 15  2  0  0  0
 14 98  1  0  0  0
 15 99  1  0  0  0
 16 17  2  0  0  0
 16 21  1  0  0  0
 16 31  1  0  0  0
 17 18  1  0  0  0
 17100  1  0  0  0
 18 19  2  0  0  0
 18101  1  0  0  0
 19 20  1  0  0  0
 19 24  1  0  0  0
 20 21  2  0  0  0
 20102  1  0  0  0
 21 23  1  0  0  0
 22 28  1  0  0  0
 22 32  2  0  0  0
 26 27  1  0  0  0
 28103  1  0  0  0
 28104  1  0  0  0
 29105  1  0  0  0
 29106  1  0  0  0
 33 34  1  0  0  0
 33 66  1  0  0  0
 33 70  2  0  0  0
 34 36  1  0  0  0
 34 59  1  0  0  0
 34107  1  0  0  0
 35 44  2  0  0  0
 35 45  1  0  0  0
 35 68  1  0  0  0
 36 56  1  0  0  0
 36108  1  0  0  0
 37 39  1  0  0  0
 37 47  1  0  0  0
 37 66  1  0  0  0
 37109  1  0  0  0
 38 43  2  0  0  0
 38 46  1  0  0  0
 38 47  1  0  0  0
 39 64  1  0  0  0
 39 67  2  0  0  0
 40 52  1  0  0  0
 40 53  2  0  0  0
 40 58  1  0  0  0
 41110  1  0  0  0
 41111  1  0  0  0
 41112  1  0  0  0
 41 48  1  0  0  0
 42 43  1  0  0  0
 42 66  1  0  0  0
 42113  1  0  0  0
 42114  1  0  0  0
 43 44  1  0  0  0
 44115  1  0  0  0
 45 46  2  0  0  0
 45116  1  0  0  0
 46117  1  0  0  0
 47118  1  0  0  0
 47119  1  0  0  0
 48 56  1  0  0  0
 48 65  1  0  0  0
 48120  1  0  0  0
 49 50  1  0  0  0
 49 53  1  0  0  0
 49 64  1  0  0  0
 49121  1  0  0  0
 50 51  1  0  0  0
 50122  1  0  0  0
 50123  1  0  0  0
 51 52  1  0  0  0
 51124  1  0  0  0
 51125  1  0  0  0
 52126  1  0  0  0
 52127  1  0  0  0
 53 54  1  0  0  0
 54 55  2  0  0  0
 54128  1  0  0  0
 55 57  1  0  0  0
 55129  1  0  0  0
 56 69  2  0  0  0
 57 58  2  0  0  0
 57130  1  0  0  0
 58131  1  0  0  0
 59 60  1  0  0  0
 59 61  1  0  0  0
 59 62  1  0  0  0
 60132  1  0  0  0
 60133  1  0  0  0
 60134  1  0  0  0
 61135  1  0  0  0
 61136  1  0  0  0
 61137  1  0  0  0
 62138  1  0  0  0
 62139  1  0  0  0
 62140  1  0  0  0
 63 65  1  0  0  0
 63141  1  0  0  0
 63142  1  0  0  0
 63143  1  0  0  0
 64144  1  0  0  0
 65145  1  0  0  0
 68 82  1  0  0  0
 71 73  2  0  0  0
 71 76  1  0  0  0
 71146  1  0  0  0
 72 74  1  0  0  0
 72 75  2  0  0  0
 72147  1  0  0  0
 73 75  1  0  0  0
 73 79  1  0  0  0
 74 76  2  0  0  0
 74 80  1  0  0  0
 75 85  1  0  0  0
 76 86  1  0  0  0
 77 78  2  0  0  0
 77 79  1  0  0  0
 77148  1  0  0  0
 78 81  1  0  0  0
 78149  1  0  0  0
 79 83  2  0  0  0
 80 84  1  0  0  0
 80150  1  0  0  0
 80151  1  0  0  0
 81 82  1  0  0  0
 81152  1  0  0  0
 81153  1  0  0  0
 82154  1  0  0  0
 82155  1  0  0  0
 83156  1  0  0  0
 84157  1  0  0  0
 85158  1  0  0  0
M  ISO  4   1 100  68 101  82 101  84 100
M  END
> <chiral flag>
0

> <version>
0

> <s_m_source_file>
/data/baiqing/PycharmProjects/Reinvent-master-3.2/result/LINK_invent/BTK/process_docking_weight1_custom_product_contain_oxygen_bond_distance_aromatic_linkinvent_7_9_3/rearranged_h_0118.sdf

> <i_m_source_file_index>
11

> <r_mmod_Potential_Energy-OPLS-2005>
-70.8968963623047

> <r_mmod_Stretch_Energy-OPLS-2005>
36.9295234680176

> <r_mmod_Bend_Energy-OPLS-2005>
107.447303771973

> <r_mmod_Torsional_Energy-OPLS-2005>
221.525680541992

> <r_mmod_Improper_Torsional_Energy-OPLS-2005>
4.86394119262695

> <r_mmod_Van_der_Waal_Energy-OPLS-2005>
179.853744506836

> <r_mmod_Electrostatic_Energy-OPLS-2005>
-397.573150634766

> <r_mmod_Solvation_Energy-OPLS-2005>
-236.957443237305

> <b_mmod_Minimization_Converged-OPLS-2005>
0

> <r_mmod_RMS_Derivative-OPLS-2005>
1.48190402984619

$$$$
11
                    3D
 Structure written by MMmdl.
168177  0  0  1  0            999 V2000
  -30.6410  -14.6651   20.4807 C   0  0  0  0  0  0
  -30.4329  -12.3773   19.4647 C   0  0  0  0  0  0
  -29.5181  -12.4966   18.2269 C   0  0  0  0  0  0
  -28.0352  -12.3446   18.6276 C   0  0  0  0  0  0
  -27.6453  -13.2266   19.8470 C   0  0  2  0  0  0
  -28.6765  -13.1110   20.9855 C   0  0  0  0  0  0
  -25.2521  -13.8180   20.5661 C   0  0  0  0  0  0
  -24.1805  -13.0425   20.9158 C   0  0  0  0  0  0
  -24.6381  -11.6904   20.8693 C   0  0  0  0  0  0
  -23.9055  -10.4282   21.0375 C   0  0  0  0  0  0
  -24.3608   -9.4203   21.9155 C   0  0  0  0  0  0
  -23.6286   -8.2235   22.0737 C   0  0  0  0  0  0
  -22.4266   -8.0269   21.3532 C   0  0  0  0  0  0
  -21.9892   -9.0234   20.4630 C   0  0  0  0  0  0
  -22.7219  -10.2114   20.3034 C   0  0  0  0  0  0
  -21.6855   -6.0726   22.5282 C   0  0  0  0  0  0
  -21.4023   -6.5632   23.8217 C   0  0  0  0  0  0
  -21.3661   -5.6782   24.9176 C   0  0  0  0  0  0
  -21.6040   -4.3042   24.7226 C   0  0  0  0  0  0
  -21.8816   -3.8137   23.4343 C   0  0  0  0  0  0
  -21.9187   -4.6952   22.3408 C   0  0  0  0  0  0
  -22.7831  -13.5220   21.1839 C   0  0  0  0  0  0
  -22.1652   -4.2143   21.0983 F   0  0  0  0  0  0
  -21.5620   -3.4524   25.7737 F   0  0  0  0  0  0
  -29.9972  -13.4058   20.4253 N   0  0  0  0  0  0
  -26.2939  -12.9382   20.3199 N   0  0  0  0  0  0
  -25.9307  -11.6520   20.5663 N   0  0  0  0  0  0
  -22.0471  -12.8233   22.0409 N   0  0  0  0  0  0
  -25.4224  -15.1903   20.4143 N   0  0  0  0  0  0
  -31.8185  -14.8305   20.1513 O   0  0  0  0  0  0
  -21.6629   -6.8862   21.4243 O   0  0  0  0  0  0
  -22.3517  -14.5523   20.6675 O   0  0  0  0  0  0
  -24.6286  -31.8573   23.2007 C   0  0  0  0  0  0
  -25.9130  -32.4745   23.8343 C   0  0  1  0  0  0
  -27.2230  -27.3123   20.1251 C   0  0  0  0  0  0
  -25.5948  -33.8547   24.2287 N   0  0  0  0  0  0
  -23.4222  -30.4815   21.5418 C   0  0  2  0  0  0
  -24.8704  -28.9345   20.1099 C   0  0  0  0  0  0
  -22.7466  -29.4627   22.4899 C   0  0  0  0  0  0
  -18.0287  -28.1353   22.8507 C   0  0  0  0  0  0
  -24.1482  -36.7288   23.2640 C   0  0  0  0  0  0
  -25.9626  -30.7880   21.3716 C   0  0  0  0  0  0
  -26.0393  -29.4144   20.7154 C   0  0  0  0  0  0
  -27.2237  -28.6162   20.7104 C   0  0  0  0  0  0
  -26.0351  -26.8869   19.4955 C   0  0  0  0  0  0
  -24.8705  -27.6768   19.4876 C   0  0  0  0  0  0
  -23.6375  -29.8138   20.1574 C   0  0  0  0  0  0
  -25.4097  -36.3058   24.0341 C   0  0  1  0  0  0
  -20.5893  -28.3682   23.1265 C   0  0  2  0  0  0
  -20.6763  -26.9402   22.5391 C   0  0  0  0  0  0
  -19.5741  -26.6379   21.5187 C   0  0  0  0  0  0
  -18.1929  -26.7909   22.1617 C   0  0  0  0  0  0
  -19.1541  -28.8831   23.2895 C   0  0  0  0  0  0
  -18.9458  -30.1425   23.8928 C   0  0  0  0  0  0
  -17.6462  -30.6570   24.0563 C   0  0  0  0  0  0
  -25.9047  -34.9428   23.5112 C   0  0  0  0  0  0
  -16.5356  -29.9068   23.6316 C   0  0  0  0  0  0
  -16.7278  -28.6460   23.0389 C   0  0  0  0  0  0
  -26.4533  -31.6536   25.0697 C   0  0  0  0  0  0
  -25.3780  -31.3661   26.1423 C   0  0  0  0  0  0
  -27.0369  -30.2960   24.6124 C   0  0  0  0  0  0
  -27.6090  -32.4263   25.7474 C   0  0  0  0  0  0
  -27.5572  -37.1793   24.8472 C   0  0  0  0  0  0
  -21.4177  -29.3050   22.3649 N   0  0  0  0  0  0
  -26.4278  -37.3754   23.9416 N   0  0  0  0  0  0
  -24.6898  -31.0591   22.0952 N   0  0  0  0  0  0
  -23.4179  -28.8165   23.2987 O   0  0  0  0  0  0
  -28.3211  -26.4385   20.1510 O   0  0  0  0  0  0
  -26.5598  -34.8912   22.4672 O   0  0  0  0  0  0
  -23.5452  -32.1356   23.7349 O   0  0  0  0  0  0
  -31.0621  -17.0726   22.3064 C   0  0  0  0  0  0
  -29.6311  -18.3046   20.7779 C   0  0  0  0  0  0
  -31.3515  -18.2678   22.9805 C   0  0  0  0  0  0
  -30.7377  -19.4932   22.5991 C   0  0  0  0  0  0
  -29.9395  -19.5781   21.4060 C   0  0  0  0  0  0
  -30.1548  -17.0307   21.2358 C   0  0  0  0  0  0
  -27.5615  -22.4722   20.2931 C   0  0  0  0  0  0
  -26.2749  -22.5740   20.6737 C   0  0  0  0  0  0
  -28.1879  -21.0440   20.2063 C   0  0  0  0  0  0
  -29.9218  -23.2631   20.0789 C   0  0  0  0  0  0
  -30.1815  -22.1485   21.1430 C   0  0  0  0  0  0
  -28.4330  -23.7161   19.9027 C   0  0  1  0  0  0
  -32.3114  -18.1779   24.1599 C   0  0  0  0  0  0
  -30.8778  -20.6680   23.5698 C   0  0  0  0  0  0
  -28.1901  -23.9960   18.4053 C   0  0  0  0  0  0
  -28.0910  -25.0787   20.7112 C   0  0  0  0  0  0
  -29.4745  -20.8673   20.8983 N   0  0  0  0  0  0
  -29.7534  -15.7534   20.7781 O   0  0  0  0  0  0
  -31.4804  -12.4965   19.1823 H   0  0  0  0  0  0
  -30.3499  -11.3845   19.9103 H   0  0  0  0  0  0
  -29.7860  -11.7393   17.4892 H   0  0  0  0  0  0
  -29.6750  -13.4632   17.7447 H   0  0  0  0  0  0
  -27.8638  -11.2936   18.8620 H   0  0  0  0  0  0
  -27.3938  -12.5711   17.7756 H   0  0  0  0  0  0
  -27.6576  -14.2590   19.4966 H   0  0  0  0  0  0
  -28.6700  -12.1073   21.4136 H   0  0  0  0  0  0
  -28.4301  -13.7930   21.8015 H   0  0  0  0  0  0
  -25.2753   -9.5678   22.4722 H   0  0  0  0  0  0
  -23.9987   -7.4633   22.7474 H   0  0  0  0  0  0
  -21.0810   -8.8747   19.8957 H   0  0  0  0  0  0
  -22.3664  -10.9637   19.6136 H   0  0  0  0  0  0
  -21.2031   -7.6142   23.9725 H   0  0  0  0  0  0
  -21.1484   -6.0506   25.9078 H   0  0  0  0  0  0
  -22.0595   -2.7599   23.2846 H   0  0  0  0  0  0
  -22.4088  -11.9931   22.4868 H   0  0  0  0  0  0
  -21.1076  -13.1251   22.2570 H   0  0  0  0  0  0
  -24.6594  -15.8463   20.5416 H   0  0  0  0  0  0
  -26.2876  -15.6351   20.1343 H   0  0  0  0  0  0
  -26.7194  -32.5424   23.1091 H   0  0  0  0  0  0
  -25.0135  -33.9677   25.0461 H   0  0  0  0  0  0
  -22.7187  -31.3039   21.3954 H   0  0  0  0  0  0
  -23.3730  -35.9636   23.3282 H   0  0  0  0  0  0
  -24.3595  -36.8914   22.2060 H   0  0  0  0  0  0
  -23.7245  -37.6498   23.6661 H   0  0  0  0  0  0
  -26.0913  -31.5500   20.6017 H   0  0  0  0  0  0
  -26.8448  -30.8409   21.9971 H   0  0  0  0  0  0
  -28.1218  -28.9788   21.1900 H   0  0  0  0  0  0
  -25.9951  -25.9202   19.0191 H   0  0  0  0  0  0
  -23.9767  -27.3042   19.0072 H   0  0  0  0  0  0
  -23.7592  -30.5878   19.3979 H   0  0  0  0  0  0
  -22.7573  -29.2427   19.8553 H   0  0  0  0  0  0
  -25.1266  -36.1912   25.0834 H   0  0  0  0  0  0
  -21.0018  -28.3254   24.1376 H   0  0  0  0  0  0
  -20.5609  -26.2305   23.3595 H   0  0  0  0  0  0
  -21.6634  -26.7391   22.1220 H   0  0  0  0  0  0
  -19.6903  -25.6288   21.1212 H   0  0  0  0  0  0
  -19.6669  -27.3184   20.6708 H   0  0  0  0  0  0
  -17.4191  -26.6674   21.4023 H   0  0  0  0  0  0
  -18.0351  -26.0023   22.8984 H   0  0  0  0  0  0
  -19.7935  -30.7222   24.2331 H   0  0  0  0  0  0
  -17.5014  -31.6255   24.5146 H   0  0  0  0  0  0
  -15.5355  -30.2984   23.7598 H   0  0  0  0  0  0
  -15.8678  -28.0750   22.7155 H   0  0  0  0  0  0
  -24.5985  -30.6973   25.7755 H   0  0  0  0  0  0
  -24.8949  -32.2822   26.4828 H   0  0  0  0  0  0
  -25.8135  -30.8864   27.0196 H   0  0  0  0  0  0
  -26.2925  -29.6693   24.1196 H   0  0  0  0  0  0
  -27.4133  -29.7221   25.4598 H   0  0  0  0  0  0
  -27.8772  -30.4232   23.9291 H   0  0  0  0  0  0
  -27.2706  -33.3571   26.2030 H   0  0  0  0  0  0
  -28.3928  -32.6791   25.0321 H   0  0  0  0  0  0
  -28.0727  -31.8386   26.5403 H   0  0  0  0  0  0
  -28.2583  -38.0093   24.7499 H   0  0  0  0  0  0
  -28.1069  -36.2624   24.6296 H   0  0  0  0  0  0
  -27.2308  -37.1442   25.8882 H   0  0  0  0  0  0
  -20.9326  -29.8815   21.6911 H   0  0  0  0  0  0
  -26.0156  -38.2835   24.1391 H   0  0  0  0  0  0
  -31.4948  -16.1506   22.6699 H   0  0  0  0  0  0
  -28.9653  -18.2978   19.9281 H   0  0  0  0  0  0
  -25.7035  -21.6930   20.9284 H   0  0  0  0  0  0
  -25.7429  -23.5104   20.7140 H   0  0  0  0  0  0
  -28.3390  -20.8143   19.1504 H   0  0  0  0  0  0
  -27.4765  -20.3056   20.5797 H   0  0  0  0  0  0
  -30.3121  -22.8902   19.1312 H   0  0  0  0  0  0
  -30.5375  -24.1342   20.3069 H   0  0  0  0  0  0
  -29.8809  -22.5600   22.1050 H   0  0  0  0  0  0
  -31.2555  -21.9622   21.1805 H   0  0  0  0  0  0
  -32.9030  -17.2612   24.1257 H   0  0  0  0  0  0
  -31.7604  -18.1794   25.1007 H   0  0  0  0  0  0
  -33.0155  -19.0104   24.1621 H   0  0  0  0  0  0
  -31.1244  -20.3609   24.5836 H   0  0  0  0  0  0
  -29.9227  -21.1818   23.6758 H   0  0  0  0  0  0
  -31.6483  -21.3705   23.2593 H   0  0  0  0  0  0
  -28.4341  -23.1292   17.7917 H   0  0  0  0  0  0
  -28.7991  -24.8278   18.0501 H   0  0  0  0  0  0
  -27.1492  -24.2397   18.2031 H   0  0  0  0  0  0
  -28.6613  -25.0459   21.6403 H   0  0  0  0  0  0
  -27.0662  -25.0530   21.0704 H   0  0  0  0  0  0
  1 25  1  0  0  0
  1 30  2  0  0  0
  1 88  1  0  0  0
  2  3  1  0  0  0
  2 25  1  0  0  0
  2 89  1  0  0  0
  2 90  1  0  0  0
  3  4  1  0  0  0
  3 91  1  0  0  0
  3 92  1  0  0  0
  4  5  1  0  0  0
  4 93  1  0  0  0
  4 94  1  0  0  0
  5  6  1  0  0  0
  5 26  1  0  0  0
  5 95  1  0  0  0
  6 25  1  0  0  0
  6 96  1  0  0  0
  6 97  1  0  0  0
  7  8  2  0  0  0
  7 26  1  0  0  0
  7 29  1  0  0  0
  8  9  1  0  0  0
  8 22  1  0  0  0
  9 10  1  0  0  0
  9 27  2  0  0  0
 10 11  2  0  0  0
 10 15  1  0  0  0
 11 12  1  0  0  0
 11 98  1  0  0  0
 12 13  2  0  0  0
 12 99  1  0  0  0
 13 14  1  0  0  0
 13 31  1  0  0  0
 14 15  2  0  0  0
 14100  1  0  0  0
 15101  1  0  0  0
 16 17  2  0  0  0
 16 21  1  0  0  0
 16 31  1  0  0  0
 17 18  1  0  0  0
 17102  1  0  0  0
 18 19  2  0  0  0
 18103  1  0  0  0
 19 20  1  0  0  0
 19 24  1  0  0  0
 20 21  2  0  0  0
 20104  1  0  0  0
 21 23  1  0  0  0
 22 28  1  0  0  0
 22 32  2  0  0  0
 26 27  1  0  0  0
 28105  1  0  0  0
 28106  1  0  0  0
 29107  1  0  0  0
 29108  1  0  0  0
 33 34  1  0  0  0
 33 66  1  0  0  0
 33 70  2  0  0  0
 34 36  1  0  0  0
 34 59  1  0  0  0
 34109  1  0  0  0
 35 44  2  0  0  0
 35 45  1  0  0  0
 35 68  1  0  0  0
 36 56  1  0  0  0
 36110  1  0  0  0
 37 39  1  0  0  0
 37 47  1  0  0  0
 37 66  1  0  0  0
 37111  1  0  0  0
 38 43  2  0  0  0
 38 46  1  0  0  0
 38 47  1  0  0  0
 39 64  1  0  0  0
 39 67  2  0  0  0
 40 52  1  0  0  0
 40 53  2  0  0  0
 40 58  1  0  0  0
 41112  1  0  0  0
 41113  1  0  0  0
 41114  1  0  0  0
 41 48  1  0  0  0
 42 43  1  0  0  0
 42 66  1  0  0  0
 42115  1  0  0  0
 42116  1  0  0  0
 43 44  1  0  0  0
 44117  1  0  0  0
 45 46  2  0  0  0
 45118  1  0  0  0
 46119  1  0  0  0
 47120  1  0  0  0
 47121  1  0  0  0
 48 56  1  0  0  0
 48 65  1  0  0  0
 48122  1  0  0  0
 49 50  1  0  0  0
 49 53  1  0  0  0
 49 64  1  0  0  0
 49123  1  0  0  0
 50 51  1  0  0  0
 50124  1  0  0  0
 50125  1  0  0  0
 51 52  1  0  0  0
 51126  1  0  0  0
 51127  1  0  0  0
 52128  1  0  0  0
 52129  1  0  0  0
 53 54  1  0  0  0
 54 55  2  0  0  0
 54130  1  0  0  0
 55 57  1  0  0  0
 55131  1  0  0  0
 56 69  2  0  0  0
 57 58  2  0  0  0
 57132  1  0  0  0
 58133  1  0  0  0
 59 60  1  0  0  0
 59 61  1  0  0  0
 59 62  1  0  0  0
 60134  1  0  0  0
 60135  1  0  0  0
 60136  1  0  0  0
 61137  1  0  0  0
 61138  1  0  0  0
 61139  1  0  0  0
 62140  1  0  0  0
 62141  1  0  0  0
 62142  1  0  0  0
 63 65  1  0  0  0
 63143  1  0  0  0
 63144  1  0  0  0
 63145  1  0  0  0
 64146  1  0  0  0
 65147  1  0  0  0
 68 86  1  0  0  0
 71 73  2  0  0  0
 71 76  1  0  0  0
 71148  1  0  0  0
 72 75  1  0  0  0
 72 76  2  0  0  0
 72149  1  0  0  0
 73 74  1  0  0  0
 73 83  1  0  0  0
 74 75  2  0  0  0
 74 84  1  0  0  0
 75 87  1  0  0  0
 76 88  1  0  0  0
 77 78  2  0  0  0
 77 79  1  0  0  0
 77 82  1  0  0  0
 78150  1  0  0  0
 78151  1  0  0  0
 79 87  1  0  0  0
 79152  1  0  0  0
 79153  1  0  0  0
 80 81  1  0  0  0
 80 82  1  0  0  0
 80154  1  0  0  0
 80155  1  0  0  0
 81 87  1  0  0  0
 81156  1  0  0  0
 81157  1  0  0  0
 82 85  1  0  0  0
 82 86  1  0  0  0
 83158  1  0  0  0
 83159  1  0  0  0
 83160  1  0  0  0
 84161  1  0  0  0
 84162  1  0  0  0
 84163  1  0  0  0
 85164  1  0  0  0
 85165  1  0  0  0
 85166  1  0  0  0
 86167  1  0  0  0
 86168  1  0  0  0
M  ISO  4   1 100  68 101  86 101  88 100
M  END
> <chiral flag>
0

> <version>
0

> <s_m_source_file>
/data/baiqing/PycharmProjects/Reinvent-master-3.2/result/LINK_invent/BTK/process_docking_weight1_custom_product_contain_oxygen_bond_distance_aromatic_linkinvent_7_9_3/rearranged_h_0118.sdf

> <i_m_source_file_index>
12

> <r_mmod_Potential_Energy-OPLS-2005>
219.624298095703

> <r_mmod_Stretch_Energy-OPLS-2005>
108.698272705078

> <r_mmod_Bend_Energy-OPLS-2005>
167.922027587891

> <r_mmod_Torsional_Energy-OPLS-2005>
243.605514526367

> <r_mmod_Improper_Torsional_Energy-OPLS-2005>
4.3411750793457

> <r_mmod_Van_der_Waal_Energy-OPLS-2005>
171.318557739258

> <r_mmod_Electrostatic_Energy-OPLS-2005>
-332.384735107422

> <r_mmod_Solvation_Energy-OPLS-2005>
-198.756973266602

> <b_mmod_Minimization_Converged-OPLS-2005>
0

> <r_mmod_RMS_Derivative-OPLS-2005>
1.94887065887451

$$$$
12
                    3D
 Structure written by MMmdl.
155163  0  0  1  0            999 V2000
  -30.7245  -14.5712   20.4450 C   0  0  0  0  0  0
  -30.4034  -12.3478   19.4486 C   0  0  0  0  0  0
  -29.4924  -12.5173   18.2170 C   0  0  0  0  0  0
  -28.0132  -12.3756   18.6200 C   0  0  0  0  0  0
  -27.6467  -13.2408   19.8572 C   0  0  2  0  0  0
  -28.6968  -13.1253   20.9837 C   0  0  0  0  0  0
  -25.2519  -13.8254   20.5727 C   0  0  0  0  0  0
  -24.1808  -13.0477   20.9202 C   0  0  0  0  0  0
  -24.6434  -11.6958   20.8758 C   0  0  0  0  0  0
  -23.9124  -10.4311   21.0408 C   0  0  0  0  0  0
  -24.3681   -9.4219   21.9179 C   0  0  0  0  0  0
  -23.6335   -8.2258   22.0751 C   0  0  0  0  0  0
  -22.4313   -8.0296   21.3540 C   0  0  0  0  0  0
  -21.9964   -9.0270   20.4638 C   0  0  0  0  0  0
  -22.7303  -10.2148   20.3053 C   0  0  0  0  0  0
  -21.6865   -6.0743   22.5279 C   0  0  0  0  0  0
  -21.4013   -6.5643   23.8212 C   0  0  0  0  0  0
  -21.3659   -5.6805   24.9174 C   0  0  0  0  0  0
  -21.6050   -4.3066   24.7236 C   0  0  0  0  0  0
  -21.8824   -3.8154   23.4355 C   0  0  0  0  0  0
  -21.9192   -4.6964   22.3407 C   0  0  0  0  0  0
  -22.7812  -13.5229   21.1843 C   0  0  0  0  0  0
  -22.1661   -4.2157   21.0985 F   0  0  0  0  0  0
  -21.5627   -3.4552   25.7744 F   0  0  0  0  0  0
  -30.0210  -13.3985   20.4120 N   0  0  0  0  0  0
  -26.2972  -12.9487   20.3343 N   0  0  0  0  0  0
  -25.9363  -11.6608   20.5781 N   0  0  0  0  0  0
  -22.0481  -12.8167   22.0401 N   0  0  0  0  0  0
  -25.4225  -15.1983   20.4182 N   0  0  0  0  0  0
  -31.9180  -14.5667   20.1334 O   0  0  0  0  0  0
  -21.6664   -6.8894   21.4250 O   0  0  0  0  0  0
  -22.3464  -14.5515   20.6691 O   0  0  0  0  0  0
  -24.6170  -31.8673   23.2073 C   0  0  0  0  0  0
  -25.9055  -32.4816   23.8390 C   0  0  1  0  0  0
  -27.2268  -27.3929   20.0997 C   0  0  0  0  0  0
  -25.5898  -33.8623   24.2314 N   0  0  0  0  0  0
  -23.4037  -30.4878   21.5515 C   0  0  2  0  0  0
  -24.8460  -28.9457   20.1099 C   0  0  0  0  0  0
  -22.7408  -29.4667   22.5028 C   0  0  0  0  0  0
  -18.0264  -28.1395   22.8480 C   0  0  0  0  0  0
  -24.1464  -36.7302   23.2624 C   0  0  0  0  0  0
  -25.9346  -30.8142   21.3670 C   0  0  0  0  0  0
  -26.0050  -29.4454   20.7148 C   0  0  0  0  0  0
  -27.1921  -28.6739   20.7103 C   0  0  0  0  0  0
  -26.0501  -26.9213   19.4766 C   0  0  0  0  0  0
  -24.8669  -27.6873   19.4841 C   0  0  0  0  0  0
  -23.6078  -29.8145   20.1671 C   0  0  0  0  0  0
  -25.4082  -36.3121   24.0343 C   0  0  1  0  0  0
  -20.5852  -28.3690   23.1329 C   0  0  2  0  0  0
  -20.6772  -26.9430   22.5439 C   0  0  0  0  0  0
  -19.5777  -26.6411   21.5207 C   0  0  0  0  0  0
  -18.1931  -26.7957   22.1566 C   0  0  0  0  0  0
  -19.1512  -28.8852   23.2908 C   0  0  0  0  0  0
  -18.9446  -30.1444   23.8955 C   0  0  0  0  0  0
  -17.6455  -30.6605   24.0574 C   0  0  0  0  0  0
  -25.9054  -34.9493   23.5149 C   0  0  0  0  0  0
  -16.5347  -29.9119   23.6322 C   0  0  0  0  0  0
  -16.7252  -28.6517   23.0374 C   0  0  0  0  0  0
  -26.4453  -31.6605   25.0745 C   0  0  0  0  0  0
  -25.3703  -31.3713   26.1490 C   0  0  0  0  0  0
  -27.0255  -30.3035   24.6138 C   0  0  0  0  0  0
  -27.6046  -32.4310   25.7506 C   0  0  0  0  0  0
  -27.5645  -37.1723   24.8383 C   0  0  0  0  0  0
  -21.4140  -29.3050   22.3740 N   0  0  0  0  0  0
  -26.4228  -37.3862   23.9529 N   0  0  0  0  0  0
  -24.6698  -31.0748   22.0982 N   0  0  0  0  0  0
  -23.4164  -28.8224   23.3099 O   0  0  0  0  0  0
  -28.3956  -26.6481   20.1611 O   0  0  0  0  0  0
  -26.5650  -34.8952   22.4737 O   0  0  0  0  0  0
  -23.5370  -32.1448   23.7460 O   0  0  0  0  0  0
  -29.0594  -19.1564   20.4737 C   0  0  0  0  0  0
  -30.3015  -18.4719   20.2540 C   0  0  0  0  0  0
  -31.2299  -19.4470   19.9738 C   0  0  0  0  0  0
  -29.3330  -20.4986   20.2955 C   0  0  0  0  0  0
  -30.6610  -17.0128   20.2842 C   0  0  0  0  0  0
  -30.0017  -15.8598   20.6128 C   0  0  0  0  0  0
  -28.2238  -24.1066   20.1227 C   0  0  0  0  0  0
  -33.5677  -19.8241   20.8661 C   0  0  0  0  0  0
  -32.6993  -19.4483   19.6613 C   0  0  0  0  0  0
  -28.5763  -25.4354   19.3827 C   0  0  0  0  0  0
  -29.0062  -22.8201   19.7101 C   0  0  0  0  0  0
  -27.3415  -24.0699   20.9894 O   0  0  0  0  0  0
  -30.6510  -20.6866   20.0117 O   0  0  0  0  0  0
  -28.5494  -21.6230   20.3991 O   0  0  0  0  0  0
  -31.4503  -12.4044   19.1448 H   0  0  0  0  0  0
  -30.2764  -11.3596   19.8914 H   0  0  0  0  0  0
  -29.7479  -11.7893   17.4468 H   0  0  0  0  0  0
  -29.6569  -13.5016   17.7748 H   0  0  0  0  0  0
  -27.8205  -11.3215   18.8228 H   0  0  0  0  0  0
  -27.3714  -12.6478   17.7805 H   0  0  0  0  0  0
  -27.6575  -14.2763   19.5171 H   0  0  0  0  0  0
  -28.6805  -12.1258   21.4187 H   0  0  0  0  0  0
  -28.4703  -13.8139   21.7973 H   0  0  0  0  0  0
  -25.2842   -9.5660   22.4740 H   0  0  0  0  0  0
  -24.0029   -7.4656   22.7482 H   0  0  0  0  0  0
  -21.0889   -8.8820   19.8933 H   0  0  0  0  0  0
  -22.3801  -10.9693   19.6156 H   0  0  0  0  0  0
  -21.2015   -7.6153   23.9718 H   0  0  0  0  0  0
  -21.1466   -6.0530   25.9074 H   0  0  0  0  0  0
  -22.0600   -2.7617   23.2873 H   0  0  0  0  0  0
  -22.4124  -11.9842   22.4759 H   0  0  0  0  0  0
  -21.1082  -13.1126   22.2622 H   0  0  0  0  0  0
  -24.6662  -15.8621   20.5440 H   0  0  0  0  0  0
  -26.2860  -15.6359   20.1218 H   0  0  0  0  0  0
  -26.7118  -32.5486   23.1140 H   0  0  0  0  0  0
  -24.9959  -33.9784   25.0397 H   0  0  0  0  0  0
  -22.6924  -31.3045   21.4129 H   0  0  0  0  0  0
  -23.3839  -35.9503   23.3037 H   0  0  0  0  0  0
  -24.3616  -36.9203   22.2098 H   0  0  0  0  0  0
  -23.7016  -37.6333   23.6812 H   0  0  0  0  0  0
  -26.0610  -31.5716   20.5923 H   0  0  0  0  0  0
  -26.8176  -30.8646   21.9924 H   0  0  0  0  0  0
  -28.0818  -29.0581   21.1875 H   0  0  0  0  0  0
  -26.0209  -25.9537   18.9990 H   0  0  0  0  0  0
  -23.9745  -27.3044   19.0080 H   0  0  0  0  0  0
  -23.7059  -30.5857   19.4031 H   0  0  0  0  0  0
  -22.7286  -29.2326   19.8823 H   0  0  0  0  0  0
  -25.1214  -36.1948   25.0816 H   0  0  0  0  0  0
  -20.9910  -28.3276   24.1463 H   0  0  0  0  0  0
  -20.5657  -26.2322   23.3637 H   0  0  0  0  0  0
  -21.6660  -26.7508   22.1257 H   0  0  0  0  0  0
  -19.6980  -25.6320   21.1259 H   0  0  0  0  0  0
  -19.6759  -27.3214   20.6734 H   0  0  0  0  0  0
  -17.4237  -26.6746   21.3926 H   0  0  0  0  0  0
  -18.0294  -26.0068   22.8917 H   0  0  0  0  0  0
  -19.7918  -30.7227   24.2391 H   0  0  0  0  0  0
  -17.5018  -31.6291   24.5167 H   0  0  0  0  0  0
  -15.5362  -30.3064   23.7620 H   0  0  0  0  0  0
  -15.8628  -28.0846   22.7139 H   0  0  0  0  0  0
  -24.5883  -30.7055   25.7823 H   0  0  0  0  0  0
  -24.8873  -32.2853   26.4953 H   0  0  0  0  0  0
  -25.8032  -30.8868   27.0250 H   0  0  0  0  0  0
  -26.2787  -29.6833   24.1158 H   0  0  0  0  0  0
  -27.3960  -29.7244   25.4607 H   0  0  0  0  0  0
  -27.8663  -30.4340   23.9322 H   0  0  0  0  0  0
  -27.2690  -33.3599   26.2130 H   0  0  0  0  0  0
  -28.3827  -32.6888   25.0309 H   0  0  0  0  0  0
  -28.0741  -31.8400   26.5382 H   0  0  0  0  0  0
  -28.2351  -38.0320   24.7972 H   0  0  0  0  0  0
  -28.1456  -36.2948   24.5508 H   0  0  0  0  0  0
  -27.2494  -37.0506   25.8762 H   0  0  0  0  0  0
  -20.9343  -29.8684   21.6855 H   0  0  0  0  0  0
  -26.0099  -38.2859   24.1846 H   0  0  0  0  0  0
  -28.0988  -18.7252   20.7140 H   0  0  0  0  0  0
  -31.6753  -16.8790   19.9414 H   0  0  0  0  0  0
  -28.9826  -15.8976   20.9667 H   0  0  0  0  0  0
  -34.6242  -19.8714   20.5960 H   0  0  0  0  0  0
  -33.4624  -19.0892   21.6649 H   0  0  0  0  0  0
  -33.2869  -20.7990   21.2654 H   0  0  0  0  0  0
  -32.8971  -20.1460   18.8471 H   0  0  0  0  0  0
  -33.0148  -18.4778   19.2821 H   0  0  0  0  0  0
  -28.0631  -25.4963   18.4234 H   0  0  0  0  0  0
  -29.6391  -25.3961   19.1483 H   0  0  0  0  0  0
  -30.0639  -22.9985   19.9064 H   0  0  0  0  0  0
  -28.8982  -22.6758   18.6341 H   0  0  0  0  0  0
  1 25  1  0  0  0
  1 30  2  0  0  0
  1 76  1  0  0  0
  2  3  1  0  0  0
  2 25  1  0  0  0
  2 85  1  0  0  0
  2 86  1  0  0  0
  3  4  1  0  0  0
  3 87  1  0  0  0
  3 88  1  0  0  0
  4  5  1  0  0  0
  4 89  1  0  0  0
  4 90  1  0  0  0
  5  6  1  0  0  0
  5 26  1  0  0  0
  5 91  1  0  0  0
  6 25  1  0  0  0
  6 92  1  0  0  0
  6 93  1  0  0  0
  7  8  2  0  0  0
  7 26  1  0  0  0
  7 29  1  0  0  0
  8  9  1  0  0  0
  8 22  1  0  0  0
  9 10  1  0  0  0
  9 27  2  0  0  0
 10 11  2  0  0  0
 10 15  1  0  0  0
 11 12  1  0  0  0
 11 94  1  0  0  0
 12 13  2  0  0  0
 12 95  1  0  0  0
 13 14  1  0  0  0
 13 31  1  0  0  0
 14 15  2  0  0  0
 14 96  1  0  0  0
 15 97  1  0  0  0
 16 17  2  0  0  0
 16 21  1  0  0  0
 16 31  1  0  0  0
 17 18  1  0  0  0
 17 98  1  0  0  0
 18 19  2  0  0  0
 18 99  1  0  0  0
 19 20  1  0  0  0
 19 24  1  0  0  0
 20 21  2  0  0  0
 20100  1  0  0  0
 21 23  1  0  0  0
 22 28  1  0  0  0
 22 32  2  0  0  0
 26 27  1  0  0  0
 28101  1  0  0  0
 28102  1  0  0  0
 29103  1  0  0  0
 29104  1  0  0  0
 33 34  1  0  0  0
 33 66  1  0  0  0
 33 70  2  0  0  0
 34 36  1  0  0  0
 34 59  1  0  0  0
 34105  1  0  0  0
 35 44  2  0  0  0
 35 45  1  0  0  0
 35 68  1  0  0  0
 36 56  1  0  0  0
 36106  1  0  0  0
 37 39  1  0  0  0
 37 47  1  0  0  0
 37 66  1  0  0  0
 37107  1  0  0  0
 38 43  2  0  0  0
 38 46  1  0  0  0
 38 47  1  0  0  0
 39 64  1  0  0  0
 39 67  2  0  0  0
 40 52  1  0  0  0
 40 53  2  0  0  0
 40 58  1  0  0  0
 41108  1  0  0  0
 41109  1  0  0  0
 41110  1  0  0  0
 41 48  1  0  0  0
 42 43  1  0  0  0
 42 66  1  0  0  0
 42111  1  0  0  0
 42112  1  0  0  0
 43 44  1  0  0  0
 44113  1  0  0  0
 45 46  2  0  0  0
 45114  1  0  0  0
 46115  1  0  0  0
 47116  1  0  0  0
 47117  1  0  0  0
 48 56  1  0  0  0
 48 65  1  0  0  0
 48118  1  0  0  0
 49 50  1  0  0  0
 49 53  1  0  0  0
 49 64  1  0  0  0
 49119  1  0  0  0
 50 51  1  0  0  0
 50120  1  0  0  0
 50121  1  0  0  0
 51 52  1  0  0  0
 51122  1  0  0  0
 51123  1  0  0  0
 52124  1  0  0  0
 52125  1  0  0  0
 53 54  1  0  0  0
 54 55  2  0  0  0
 54126  1  0  0  0
 55 57  1  0  0  0
 55127  1  0  0  0
 56 69  2  0  0  0
 57 58  2  0  0  0
 57128  1  0  0  0
 58129  1  0  0  0
 59 60  1  0  0  0
 59 61  1  0  0  0
 59 62  1  0  0  0
 60130  1  0  0  0
 60131  1  0  0  0
 60132  1  0  0  0
 61133  1  0  0  0
 61134  1  0  0  0
 61135  1  0  0  0
 62136  1  0  0  0
 62137  1  0  0  0
 62138  1  0  0  0
 63 65  1  0  0  0
 63139  1  0  0  0
 63140  1  0  0  0
 63141  1  0  0  0
 64142  1  0  0  0
 65143  1  0  0  0
 68 80  1  0  0  0
 71 72  1  0  0  0
 71 74  2  0  0  0
 71144  1  0  0  0
 72 73  2  0  0  0
 72 75  1  0  0  0
 73 79  1  0  0  0
 73 83  1  0  0  0
 74 83  1  0  0  0
 74 84  1  0  0  0
 75 76  2  0  0  0
 75145  1  0  0  0
 76146  1  0  0  0
 77 80  1  0  0  0
 77 81  1  0  0  0
 77 82  2  0  0  0
 78 79  1  0  0  0
 78147  1  0  0  0
 78148  1  0  0  0
 78149  1  0  0  0
 79150  1  0  0  0
 79151  1  0  0  0
 80152  1  0  0  0
 80153  1  0  0  0
 81 84  1  0  0  0
 81154  1  0  0  0
 81155  1  0  0  0
M  ISO  4   1 100  68 101  76 100  80 101
M  END
> <chiral flag>
0

> <version>
0

> <s_m_source_file>
/data/baiqing/PycharmProjects/Reinvent-master-3.2/result/LINK_invent/BTK/process_docking_weight1_custom_product_contain_oxygen_bond_distance_aromatic_linkinvent_7_9_3/rearranged_h_0118.sdf

> <i_m_source_file_index>
13

> <r_mmod_Potential_Energy-OPLS-2005>
17.2912998199463

> <r_mmod_Stretch_Energy-OPLS-2005>
51.8887786865234

> <r_mmod_Bend_Energy-OPLS-2005>
145.547958374023

> <r_mmod_Torsional_Energy-OPLS-2005>
189.938766479492

> <r_mmod_Improper_Torsional_Energy-OPLS-2005>
5.29356908798218

> <r_mmod_Van_der_Waal_Energy-OPLS-2005>
131.884460449219

> <r_mmod_Electrostatic_Energy-OPLS-2005>
-314.536712646484

> <r_mmod_Solvation_Energy-OPLS-2005>
-227.086715698242

> <b_mmod_Minimization_Converged-OPLS-2005>
0

> <r_mmod_RMS_Derivative-OPLS-2005>
3.33265399932861

$$$$
13
                    3D
 Structure written by MMmdl.
153161  0  0  1  0            999 V2000
  -30.6063  -14.6761   20.4751 C   0  0  0  0  0  0
  -30.4438  -12.4122   19.4504 C   0  0  0  0  0  0
  -29.5081  -12.5056   18.2238 C   0  0  0  0  0  0
  -28.0323  -12.3352   18.6395 C   0  0  0  0  0  0
  -27.6493  -13.2131   19.8601 C   0  0  2  0  0  0
  -28.6999  -13.0919   20.9876 C   0  0  0  0  0  0
  -25.2533  -13.8113   20.5727 C   0  0  0  0  0  0
  -24.1803  -13.0386   20.9207 C   0  0  0  0  0  0
  -24.6384  -11.6868   20.8745 C   0  0  0  0  0  0
  -23.9056  -10.4262   21.0407 C   0  0  0  0  0  0
  -24.3610   -9.4184   21.9186 C   0  0  0  0  0  0
  -23.6282   -8.2224   22.0755 C   0  0  0  0  0  0
  -22.4265   -8.0268   21.3544 C   0  0  0  0  0  0
  -21.9899   -9.0241   20.4647 C   0  0  0  0  0  0
  -22.7230  -10.2116   20.3055 C   0  0  0  0  0  0
  -21.6847   -6.0728   22.5280 C   0  0  0  0  0  0
  -21.4010   -6.5635   23.8213 C   0  0  0  0  0  0
  -21.3658   -5.6790   24.9175 C   0  0  0  0  0  0
  -21.6044   -4.3052   24.7227 C   0  0  0  0  0  0
  -21.8820   -3.8143   23.4349 C   0  0  0  0  0  0
  -21.9191   -4.6958   22.3404 C   0  0  0  0  0  0
  -22.7830  -13.5196   21.1864 C   0  0  0  0  0  0
  -22.1660   -4.2144   21.0981 F   0  0  0  0  0  0
  -21.5629   -3.4537   25.7741 F   0  0  0  0  0  0
  -30.0099  -13.4416   20.4147 N   0  0  0  0  0  0
  -26.2970  -12.9309   20.3330 N   0  0  0  0  0  0
  -25.9314  -11.6467   20.5762 N   0  0  0  0  0  0
  -22.0468  -12.8201   22.0424 N   0  0  0  0  0  0
  -25.4185  -15.1829   20.4206 N   0  0  0  0  0  0
  -31.7879  -14.8359   20.1549 O   0  0  0  0  0  0
  -21.6628   -6.8868   21.4241 O   0  0  0  0  0  0
  -22.3527  -14.5509   20.6711 O   0  0  0  0  0  0
  -24.6260  -31.8592   23.2024 C   0  0  0  0  0  0
  -25.9106  -32.4777   23.8355 C   0  0  1  0  0  0
  -27.2300  -27.3163   20.1217 C   0  0  0  0  0  0
  -25.5920  -33.8579   24.2280 N   0  0  0  0  0  0
  -23.4212  -30.4815   21.5444 C   0  0  2  0  0  0
  -24.8706  -28.9346   20.1122 C   0  0  0  0  0  0
  -22.7477  -29.4616   22.4933 C   0  0  0  0  0  0
  -18.0287  -28.1384   22.8486 C   0  0  0  0  0  0
  -24.1489  -36.7295   23.2639 C   0  0  0  0  0  0
  -25.9622  -30.7874   21.3763 C   0  0  0  0  0  0
  -26.0379  -29.4129   20.7221 C   0  0  0  0  0  0
  -27.2203  -28.6133   20.7218 C   0  0  0  0  0  0
  -26.0442  -26.8958   19.4784 C   0  0  0  0  0  0
  -24.8749  -27.6801   19.4824 C   0  0  0  0  0  0
  -23.6379  -29.8148   20.1602 C   0  0  0  0  0  0
  -25.4113  -36.3084   24.0330 C   0  0  1  0  0  0
  -20.5887  -28.3688   23.1281 C   0  0  2  0  0  0
  -20.6775  -26.9410   22.5411 C   0  0  0  0  0  0
  -19.5752  -26.6382   21.5212 C   0  0  0  0  0  0
  -18.1932  -26.7926   22.1624 C   0  0  0  0  0  0
  -19.1539  -28.8853   23.2879 C   0  0  0  0  0  0
  -18.9462  -30.1454   23.8896 C   0  0  0  0  0  0
  -17.6462  -30.6585   24.0563 C   0  0  0  0  0  0
  -25.9048  -34.9452   23.5106 C   0  0  0  0  0  0
  -16.5353  -29.9084   23.6329 C   0  0  0  0  0  0
  -16.7275  -28.6501   23.0350 C   0  0  0  0  0  0
  -26.4492  -31.6588   25.0725 C   0  0  0  0  0  0
  -25.3727  -31.3727   26.1454 C   0  0  0  0  0  0
  -27.0335  -30.3011   24.6183 C   0  0  0  0  0  0
  -27.6052  -32.4324   25.7494 C   0  0  0  0  0  0
  -27.5580  -37.1801   24.8464 C   0  0  0  0  0  0
  -21.4190  -29.3039   22.3674 N   0  0  0  0  0  0
  -26.4292  -37.3777   23.9408 N   0  0  0  0  0  0
  -24.6884  -31.0596   22.0979 N   0  0  0  0  0  0
  -23.4196  -28.8157   23.3019 O   0  0  0  0  0  0
  -28.3400  -26.4551   20.1423 O   0  0  0  0  0  0
  -26.5619  -34.8919   22.4673 O   0  0  0  0  0  0
  -23.5422  -32.1393   23.7345 O   0  0  0  0  0  0
  -28.9162  -19.3659   19.7641 C   0  0  0  0  0  0
  -30.7830  -17.9648   21.3155 C   0  0  0  0  0  0
  -28.9535  -17.9347   19.7499 C   0  0  0  0  0  0
  -29.8004  -20.1416   20.5557 C   0  0  0  0  0  0
  -29.8765  -17.1874   20.5473 C   0  0  0  0  0  0
  -30.7465  -19.3944   21.3166 C   0  0  0  0  0  0
  -28.9829  -24.0361   20.0464 C   0  0  0  0  0  0
  -28.1290  -25.0710   20.3472 C   0  0  0  0  0  0
  -27.9674  -17.2225   18.8422 C   0  0  0  0  0  0
  -28.6938  -22.4949   20.1940 C   0  0  0  0  0  0
  -29.7489  -15.7289   20.6846 N   0  0  0  0  0  0
  -29.8035  -21.5827   20.6136 N   0  0  0  0  0  0
  -31.6322  -20.0687   22.0915 F   0  0  0  0  0  0
  -31.4825  -12.5493   19.1445 H   0  0  0  0  0  0
  -30.3913  -11.4212   19.9039 H   0  0  0  0  0  0
  -29.7774  -11.7489   17.4857 H   0  0  0  0  0  0
  -29.6405  -13.4713   17.7331 H   0  0  0  0  0  0
  -27.8784  -11.2829   18.8809 H   0  0  0  0  0  0
  -27.3746  -12.5519   17.7969 H   0  0  0  0  0  0
  -27.6539  -14.2417   19.5049 H   0  0  0  0  0  0
  -28.7220  -12.0762   21.3853 H   0  0  0  0  0  0
  -28.4459  -13.7373   21.8302 H   0  0  0  0  0  0
  -25.2755   -9.5659   22.4759 H   0  0  0  0  0  0
  -23.9989   -7.4614   22.7473 H   0  0  0  0  0  0
  -21.0829   -8.8762   19.8954 H   0  0  0  0  0  0
  -22.3692  -10.9657   19.6165 H   0  0  0  0  0  0
  -21.2001   -7.6144   23.9714 H   0  0  0  0  0  0
  -21.1480   -6.0521   25.9078 H   0  0  0  0  0  0
  -22.0601   -2.7605   23.2851 H   0  0  0  0  0  0
  -22.4077  -11.9860   22.4815 H   0  0  0  0  0  0
  -21.1092  -13.1239   22.2633 H   0  0  0  0  0  0
  -24.6464  -15.8303   20.5373 H   0  0  0  0  0  0
  -26.2649  -15.6300   20.1002 H   0  0  0  0  0  0
  -26.7174  -32.5450   23.1104 H   0  0  0  0  0  0
  -25.0064  -33.9724   25.0422 H   0  0  0  0  0  0
  -22.7152  -31.3019   21.3998 H   0  0  0  0  0  0
  -23.3749  -35.9630   23.3304 H   0  0  0  0  0  0
  -24.3581  -36.8913   22.2053 H   0  0  0  0  0  0
  -23.7244  -37.6499   23.6659 H   0  0  0  0  0  0
  -26.0937  -31.5488   20.6062 H   0  0  0  0  0  0
  -26.8425  -30.8384   22.0055 H   0  0  0  0  0  0
  -28.1161  -28.9736   21.2078 H   0  0  0  0  0  0
  -26.0111  -25.9369   18.9807 H   0  0  0  0  0  0
  -23.9825  -27.3094   18.9972 H   0  0  0  0  0  0
  -23.7574  -30.5907   19.4032 H   0  0  0  0  0  0
  -22.7584  -29.2436   19.8576 H   0  0  0  0  0  0
  -25.1293  -36.1937   25.0822 H   0  0  0  0  0  0
  -20.9980  -28.3264   24.1401 H   0  0  0  0  0  0
  -20.5672  -26.2298   23.3612 H   0  0  0  0  0  0
  -21.6645  -26.7437   22.1207 H   0  0  0  0  0  0
  -19.6914  -25.6293   21.1242 H   0  0  0  0  0  0
  -19.6690  -27.3192   20.6742 H   0  0  0  0  0  0
  -17.4201  -26.6672   21.4027 H   0  0  0  0  0  0
  -18.0334  -26.0069   22.9021 H   0  0  0  0  0  0
  -19.7938  -30.7270   24.2266 H   0  0  0  0  0  0
  -17.5016  -31.6265   24.5164 H   0  0  0  0  0  0
  -15.5354  -30.2986   23.7652 H   0  0  0  0  0  0
  -15.8675  -28.0820   22.7065 H   0  0  0  0  0  0
  -24.5905  -30.7072   25.7787 H   0  0  0  0  0  0
  -24.8916  -32.2893   26.4876 H   0  0  0  0  0  0
  -25.8055  -30.8911   27.0231 H   0  0  0  0  0  0
  -26.2910  -29.6762   24.1206 H   0  0  0  0  0  0
  -27.4029  -29.7267   25.4688 H   0  0  0  0  0  0
  -27.8782  -30.4295   23.9410 H   0  0  0  0  0  0
  -27.2662  -33.3622   26.2074 H   0  0  0  0  0  0
  -28.3860  -32.6887   25.0321 H   0  0  0  0  0  0
  -28.0723  -31.8449   26.5409 H   0  0  0  0  0  0
  -28.2598  -38.0098   24.7511 H   0  0  0  0  0  0
  -28.1076  -36.2630   24.6288 H   0  0  0  0  0  0
  -27.2299  -37.1449   25.8867 H   0  0  0  0  0  0
  -20.9370  -29.8762   21.6883 H   0  0  0  0  0  0
  -26.0174  -38.2853   24.1408 H   0  0  0  0  0  0
  -28.1864  -19.8699   19.1478 H   0  0  0  0  0  0
  -31.4981  -17.4690   21.9545 H   0  0  0  0  0  0
  -29.9425  -24.2861   19.6162 H   0  0  0  0  0  0
  -27.1588  -24.8728   20.7830 H   0  0  0  0  0  0
  -27.7623  -17.8202   17.9535 H   0  0  0  0  0  0
  -27.0241  -17.0689   19.3611 H   0  0  0  0  0  0
  -28.3494  -16.2624   18.4962 H   0  0  0  0  0  0
  -28.3409  -22.1583   19.2184 H   0  0  0  0  0  0
  -27.8532  -22.3650   20.8777 H   0  0  0  0  0  0
  -28.8015  -15.4105   20.8125 H   0  0  0  0  0  0
  -30.4490  -21.9570   21.3061 H   0  0  0  0  0  0
  1 25  1  0  0  0
  1 30  2  0  0  0
  1 81  1  0  0  0
  2  3  1  0  0  0
  2 25  1  0  0  0
  2 84  1  0  0  0
  2 85  1  0  0  0
  3  4  1  0  0  0
  3 86  1  0  0  0
  3 87  1  0  0  0
  4  5  1  0  0  0
  4 88  1  0  0  0
  4 89  1  0  0  0
  5  6  1  0  0  0
  5 26  1  0  0  0
  5 90  1  0  0  0
  6 25  1  0  0  0
  6 91  1  0  0  0
  6 92  1  0  0  0
  7  8  2  0  0  0
  7 26  1  0  0  0
  7 29  1  0  0  0
  8  9  1  0  0  0
  8 22  1  0  0  0
  9 10  1  0  0  0
  9 27  2  0  0  0
 10 11  2  0  0  0
 10 15  1  0  0  0
 11 12  1  0  0  0
 11 93  1  0  0  0
 12 13  2  0  0  0
 12 94  1  0  0  0
 13 14  1  0  0  0
 13 31  1  0  0  0
 14 15  2  0  0  0
 14 95  1  0  0  0
 15 96  1  0  0  0
 16 17  2  0  0  0
 16 21  1  0  0  0
 16 31  1  0  0  0
 17 18  1  0  0  0
 17 97  1  0  0  0
 18 19  2  0  0  0
 18 98  1  0  0  0
 19 20  1  0  0  0
 19 24  1  0  0  0
 20 21  2  0  0  0
 20 99  1  0  0  0
 21 23  1  0  0  0
 22 28  1  0  0  0
 22 32  2  0  0  0
 26 27  1  0  0  0
 28100  1  0  0  0
 28101  1  0  0  0
 29102  1  0  0  0
 29103  1  0  0  0
 33 34  1  0  0  0
 33 66  1  0  0  0
 33 70  2  0  0  0
 34 36  1  0  0  0
 34 59  1  0  0  0
 34104  1  0  0  0
 35 44  2  0  0  0
 35 45  1  0  0  0
 35 68  1  0  0  0
 36 56  1  0  0  0
 36105  1  0  0  0
 37 39  1  0  0  0
 37 47  1  0  0  0
 37 66  1  0  0  0
 37106  1  0  0  0
 38 43  2  0  0  0
 38 46  1  0  0  0
 38 47  1  0  0  0
 39 64  1  0  0  0
 39 67  2  0  0  0
 40 52  1  0  0  0
 40 53  2  0  0  0
 40 58  1  0  0  0
 41107  1  0  0  0
 41108  1  0  0  0
 41109  1  0  0  0
 41 48  1  0  0  0
 42 43  1  0  0  0
 42 66  1  0  0  0
 42110  1  0  0  0
 42111  1  0  0  0
 43 44  1  0  0  0
 44112  1  0  0  0
 45 46  2  0  0  0
 45113  1  0  0  0
 46114  1  0  0  0
 47115  1  0  0  0
 47116  1  0  0  0
 48 56  1  0  0  0
 48 65  1  0  0  0
 48117  1  0  0  0
 49 50  1  0  0  0
 49 53  1  0  0  0
 49 64  1  0  0  0
 49118  1  0  0  0
 50 51  1  0  0  0
 50119  1  0  0  0
 50120  1  0  0  0
 51 52  1  0  0  0
 51121  1  0  0  0
 51122  1  0  0  0
 52123  1  0  0  0
 52124  1  0  0  0
 53 54  1  0  0  0
 54 55  2  0  0  0
 54125  1  0  0  0
 55 57  1  0  0  0
 55126  1  0  0  0
 56 69  2  0  0  0
 57 58  2  0  0  0
 57127  1  0  0  0
 58128  1  0  0  0
 59 60  1  0  0  0
 59 61  1  0  0  0
 59 62  1  0  0  0
 60129  1  0  0  0
 60130  1  0  0  0
 60131  1  0  0  0
 61132  1  0  0  0
 61133  1  0  0  0
 61134  1  0  0  0
 62135  1  0  0  0
 62136  1  0  0  0
 62137  1  0  0  0
 63 65  1  0  0  0
 63138  1  0  0  0
 63139  1  0  0  0
 63140  1  0  0  0
 64141  1  0  0  0
 65142  1  0  0  0
 68 78  1  0  0  0
 71 73  2  0  0  0
 71 74  1  0  0  0
 71143  1  0  0  0
 72 75  2  0  0  0
 72 76  1  0  0  0
 72144  1  0  0  0
 73 75  1  0  0  0
 73 79  1  0  0  0
 74 76  2  0  0  0
 74 82  1  0  0  0
 75 81  1  0  0  0
 76 83  1  0  0  0
 77 78  2  0  0  0
 77 80  1  0  0  0
 77145  1  0  0  0
 78146  1  0  0  0
 79147  1  0  0  0
 79148  1  0  0  0
 79149  1  0  0  0
 80 82  1  0  0  0
 80150  1  0  0  0
 80151  1  0  0  0
 81152  1  0  0  0
 82153  1  0  0  0
M  ISO  4   1 100  68 101  78 101  81 100
M  END
> <chiral flag>
0

> <version>
0

> <s_m_source_file>
/data/baiqing/PycharmProjects/Reinvent-master-3.2/result/LINK_invent/BTK/process_docking_weight1_custom_product_contain_oxygen_bond_distance_aromatic_linkinvent_7_9_3/rearranged_h_0118.sdf

> <i_m_source_file_index>
14

> <r_mmod_Potential_Energy-OPLS-2005>
76.4484710693359

> <r_mmod_Stretch_Energy-OPLS-2005>
78.5390853881836

> <r_mmod_Bend_Energy-OPLS-2005>
139.324859619141

> <r_mmod_Torsional_Energy-OPLS-2005>
221.390075683594

> <r_mmod_Improper_Torsional_Energy-OPLS-2005>
7.9669713973999

> <r_mmod_Van_der_Waal_Energy-OPLS-2005>
138.422119140625

> <r_mmod_Electrostatic_Energy-OPLS-2005>
-355.576843261719

> <r_mmod_Solvation_Energy-OPLS-2005>
-210.680862426758

> <b_mmod_Minimization_Converged-OPLS-2005>
0

> <r_mmod_RMS_Derivative-OPLS-2005>
0.121873244643211

$$$$
14
                    3D
 Structure written by MMmdl.
163171  0  0  1  0            999 V2000
  -30.6641  -14.5550   20.5400 C   0  0  0  0  0  0
  -30.4319  -12.3536   19.4235 C   0  0  0  0  0  0
  -29.4950  -12.4988   18.2051 C   0  0  0  0  0  0
  -28.0193  -12.3448   18.6248 C   0  0  0  0  0  0
  -27.6548  -13.2081   19.8624 C   0  0  2  0  0  0
  -28.7023  -13.0313   20.9836 C   0  0  0  0  0  0
  -25.2570  -13.8153   20.5674 C   0  0  0  0  0  0
  -24.1831  -13.0429   20.9178 C   0  0  0  0  0  0
  -24.6387  -11.6895   20.8740 C   0  0  0  0  0  0
  -23.9052  -10.4282   21.0407 C   0  0  0  0  0  0
  -24.3605   -9.4198   21.9187 C   0  0  0  0  0  0
  -23.6284   -8.2235   22.0757 C   0  0  0  0  0  0
  -22.4267   -8.0273   21.3544 C   0  0  0  0  0  0
  -21.9898   -9.0244   20.4646 C   0  0  0  0  0  0
  -22.7225  -10.2123   20.3053 C   0  0  0  0  0  0
  -21.6853   -6.0721   22.5277 C   0  0  0  0  0  0
  -21.4012   -6.5629   23.8206 C   0  0  0  0  0  0
  -21.3657   -5.6789   24.9175 C   0  0  0  0  0  0
  -21.6048   -4.3052   24.7232 C   0  0  0  0  0  0
  -21.8819   -3.8136   23.4354 C   0  0  0  0  0  0
  -21.9191   -4.6949   22.3406 C   0  0  0  0  0  0
  -22.7852  -13.5222   21.1847 C   0  0  0  0  0  0
  -22.1661   -4.2131   21.0985 F   0  0  0  0  0  0
  -21.5630   -3.4539   25.7747 F   0  0  0  0  0  0
  -30.0194  -13.3588   20.4164 N   0  0  0  0  0  0
  -26.2996  -12.9322   20.3323 N   0  0  0  0  0  0
  -25.9312  -11.6480   20.5759 N   0  0  0  0  0  0
  -22.0500  -12.8215   22.0408 N   0  0  0  0  0  0
  -25.4289  -15.1871   20.4060 N   0  0  0  0  0  0
  -31.8256  -14.7220   20.1610 O   0  0  0  0  0  0
  -21.6636   -6.8863   21.4237 O   0  0  0  0  0  0
  -22.3540  -14.5534   20.6701 O   0  0  0  0  0  0
  -24.6197  -31.8624   23.2045 C   0  0  0  0  0  0
  -25.9073  -32.4780   23.8362 C   0  0  1  0  0  0
  -27.2408  -27.3793   20.0989 C   0  0  0  0  0  0
  -25.5909  -33.8587   24.2296 N   0  0  0  0  0  0
  -23.4092  -30.4837   21.5477 C   0  0  2  0  0  0
  -24.8552  -28.9393   20.1167 C   0  0  0  0  0  0
  -22.7427  -29.4627   22.4994 C   0  0  0  0  0  0
  -18.0263  -28.1361   22.8473 C   0  0  0  0  0  0
  -24.1492  -36.7303   23.2639 C   0  0  0  0  0  0
  -25.9419  -30.8118   21.3622 C   0  0  0  0  0  0
  -26.0190  -29.4404   20.7116 C   0  0  0  0  0  0
  -27.2091  -28.6693   20.6971 C   0  0  0  0  0  0
  -26.0470  -26.9005   19.5094 C   0  0  0  0  0  0
  -24.8672  -27.6704   19.5147 C   0  0  0  0  0  0
  -23.6168  -29.8091   20.1656 C   0  0  0  0  0  0
  -25.4110  -36.3087   24.0330 C   0  0  1  0  0  0
  -20.5852  -28.3646   23.1306 C   0  0  2  0  0  0
  -20.6749  -26.9375   22.5409 C   0  0  0  0  0  0
  -19.5737  -26.6359   21.5188 C   0  0  0  0  0  0
  -18.1917  -26.7900   22.1598 C   0  0  0  0  0  0
  -19.1515  -28.8824   23.2879 C   0  0  0  0  0  0
  -18.9453  -30.1434   23.8885 C   0  0  0  0  0  0
  -17.6453  -30.6570   24.0549 C   0  0  0  0  0  0
  -25.9045  -34.9454   23.5112 C   0  0  0  0  0  0
  -16.5342  -29.9059   23.6333 C   0  0  0  0  0  0
  -16.7249  -28.6480   23.0346 C   0  0  0  0  0  0
  -26.4480  -31.6578   25.0713 C   0  0  0  0  0  0
  -25.3733  -31.3663   26.1453 C   0  0  0  0  0  0
  -27.0322  -30.3029   24.6100 C   0  0  0  0  0  0
  -27.6075  -32.4291   25.7457 C   0  0  0  0  0  0
  -27.5586  -37.1787   24.8453 C   0  0  0  0  0  0
  -21.4151  -29.3017   22.3730 N   0  0  0  0  0  0
  -26.4287  -37.3783   23.9414 N   0  0  0  0  0  0
  -24.6763  -31.0679   22.0966 N   0  0  0  0  0  0
  -23.4175  -28.8180   23.3064 O   0  0  0  0  0  0
  -28.4286  -26.6524   20.1192 O   0  0  0  0  0  0
  -26.5609  -34.8901   22.4679 O   0  0  0  0  0  0
  -23.5377  -32.1397   23.7413 O   0  0  0  0  0  0
  -30.2361  -19.0877   18.1590 C   0  0  0  0  0  0
  -30.2489  -17.9724   19.0208 C   0  0  0  0  0  0
  -29.8556  -19.4678   20.8936 C   0  0  0  0  0  0
  -30.0765  -20.4073   18.6497 C   0  0  0  0  0  0
  -30.1033  -18.1469   20.4090 C   0  0  0  0  0  0
  -29.8010  -20.6055   20.0325 C   0  0  0  0  0  0
  -30.2458  -21.5604   17.7405 C   0  0  0  0  0  0
  -30.2302  -21.5417   16.3919 C   0  0  0  0  0  0
  -30.4272  -22.7721   15.6109 C   0  0  0  0  0  0
  -30.6195  -22.6326   14.1084 C   0  0  0  0  0  0
  -30.3193  -16.9562   21.3765 C   0  0  0  0  0  0
  -28.4673  -24.1581   20.6628 C   0  0  0  0  0  0
  -28.5374  -25.2976   19.5930 C   0  0  0  0  0  0
  -28.4848  -22.6787   20.1287 C   0  0  0  0  0  0
  -29.9004  -15.5914   20.9641 N   0  0  0  0  0  0
  -30.4393  -23.9019   16.1102 O   0  0  0  0  0  0
  -29.6101  -21.8784   20.5802 O   0  0  0  0  0  0
  -31.4724  -12.4741   19.1169 H   0  0  0  0  0  0
  -30.3598  -11.3517   19.8494 H   0  0  0  0  0  0
  -29.7454  -11.7553   17.4466 H   0  0  0  0  0  0
  -29.6443  -13.4739   17.7389 H   0  0  0  0  0  0
  -27.8487  -11.2908   18.8493 H   0  0  0  0  0  0
  -27.3610  -12.5863   17.7893 H   0  0  0  0  0  0
  -27.6831  -14.2477   19.5352 H   0  0  0  0  0  0
  -28.7029  -12.0017   21.3451 H   0  0  0  0  0  0
  -28.4595  -13.6477   21.8506 H   0  0  0  0  0  0
  -25.2749   -9.5674   22.4761 H   0  0  0  0  0  0
  -23.9990   -7.4624   22.7478 H   0  0  0  0  0  0
  -21.0824   -8.8755   19.8956 H   0  0  0  0  0  0
  -22.3680  -10.9656   19.6159 H   0  0  0  0  0  0
  -21.2005   -7.6138   23.9703 H   0  0  0  0  0  0
  -21.1482   -6.0524   25.9075 H   0  0  0  0  0  0
  -22.0602   -2.7597   23.2866 H   0  0  0  0  0  0
  -22.4120  -11.9866   22.4773 H   0  0  0  0  0  0
  -21.1123  -13.1240   22.2627 H   0  0  0  0  0  0
  -24.6605  -15.8412   20.5076 H   0  0  0  0  0  0
  -26.2750  -15.6239   20.0630 H   0  0  0  0  0  0
  -26.7142  -32.5477   23.1125 H   0  0  0  0  0  0
  -25.0085  -33.9753   25.0463 H   0  0  0  0  0  0
  -22.7005  -31.3024   21.4043 H   0  0  0  0  0  0
  -23.3748  -35.9641   23.3290 H   0  0  0  0  0  0
  -24.3602  -36.8937   22.2057 H   0  0  0  0  0  0
  -23.7235  -37.6503   23.6665 H   0  0  0  0  0  0
  -26.0566  -31.5716   20.5886 H   0  0  0  0  0  0
  -26.8288  -30.8696   21.9817 H   0  0  0  0  0  0
  -28.1085  -29.0562   21.1552 H   0  0  0  0  0  0
  -25.9896  -25.9285   19.0473 H   0  0  0  0  0  0
  -23.9696  -27.2749   19.0591 H   0  0  0  0  0  0
  -23.7177  -30.5778   19.3971 H   0  0  0  0  0  0
  -22.7421  -29.2230   19.8817 H   0  0  0  0  0  0
  -25.1275  -36.1950   25.0816 H   0  0  0  0  0  0
  -20.9935  -28.3196   24.1422 H   0  0  0  0  0  0
  -20.5629  -26.2245   23.3584 H   0  0  0  0  0  0
  -21.6630  -26.7405   22.1219 H   0  0  0  0  0  0
  -19.6911  -25.6268   21.1222 H   0  0  0  0  0  0
  -19.6693  -27.3168   20.6713 H   0  0  0  0  0  0
  -17.4183  -26.6627   21.4006 H   0  0  0  0  0  0
  -18.0346  -26.0025   22.8984 H   0  0  0  0  0  0
  -19.7936  -30.7246   24.2245 H   0  0  0  0  0  0
  -17.5008  -31.6257   24.5139 H   0  0  0  0  0  0
  -15.5345  -30.2953   23.7682 H   0  0  0  0  0  0
  -15.8639  -28.0804   22.7069 H   0  0  0  0  0  0
  -24.5944  -30.6966   25.7787 H   0  0  0  0  0  0
  -24.8864  -32.2779   26.4917 H   0  0  0  0  0  0
  -25.8081  -30.8836   27.0211 H   0  0  0  0  0  0
  -26.2869  -29.6764   24.1181 H   0  0  0  0  0  0
  -27.4130  -29.7296   25.4560 H   0  0  0  0  0  0
  -27.8673  -30.4370   23.9222 H   0  0  0  0  0  0
  -27.2760  -33.3620   26.2036 H   0  0  0  0  0  0
  -28.3878  -32.6800   25.0255 H   0  0  0  0  0  0
  -28.0735  -31.8382   26.5359 H   0  0  0  0  0  0
  -28.2564  -38.0125   24.7579 H   0  0  0  0  0  0
  -28.1117  -36.2660   24.6186 H   0  0  0  0  0  0
  -27.2315  -37.1337   25.8856 H   0  0  0  0  0  0
  -20.9317  -29.8761   21.6968 H   0  0  0  0  0  0
  -26.0166  -38.2853   24.1449 H   0  0  0  0  0  0
  -30.4276  -18.9097   17.1117 H   0  0  0  0  0  0
  -30.4415  -16.9896   18.6128 H   0  0  0  0  0  0
  -29.7373  -19.6214   21.9565 H   0  0  0  0  0  0
  -30.4310  -22.5066   18.2293 H   0  0  0  0  0  0
  -30.0692  -20.6301   15.8365 H   0  0  0  0  0  0
  -31.3542  -21.8568   13.8934 H   0  0  0  0  0  0
  -30.9759  -23.5705   13.6817 H   0  0  0  0  0  0
  -29.6796  -22.3669   13.6252 H   0  0  0  0  0  0
  -29.7924  -17.1793   22.3052 H   0  0  0  0  0  0
  -31.3775  -16.9372   21.6426 H   0  0  0  0  0  0
  -27.5466  -24.2953   21.2314 H   0  0  0  0  0  0
  -29.2731  -24.2913   21.3844 H   0  0  0  0  0  0
  -27.8510  -25.1059   18.7718 H   0  0  0  0  0  0
  -29.5197  -25.2387   19.1229 H   0  0  0  0  0  0
  -28.3703  -22.6881   19.0475 H   0  0  0  0  0  0
  -27.5878  -22.1780   20.4950 H   0  0  0  0  0  0
  -28.9392  -15.3586   21.1598 H   0  0  0  0  0  0
  1 25  1  0  0  0
  1 30  2  0  0  0
  1 85  1  0  0  0
  2  3  1  0  0  0
  2 25  1  0  0  0
  2 88  1  0  0  0
  2 89  1  0  0  0
  3  4  1  0  0  0
  3 90  1  0  0  0
  3 91  1  0  0  0
  4  5  1  0  0  0
  4 92  1  0  0  0
  4 93  1  0  0  0
  5  6  1  0  0  0
  5 26  1  0  0  0
  5 94  1  0  0  0
  6 25  1  0  0  0
  6 95  1  0  0  0
  6 96  1  0  0  0
  7  8  2  0  0  0
  7 26  1  0  0  0
  7 29  1  0  0  0
  8  9  1  0  0  0
  8 22  1  0  0  0
  9 10  1  0  0  0
  9 27  2  0  0  0
 10 11  2  0  0  0
 10 15  1  0  0  0
 11 12  1  0  0  0
 11 97  1  0  0  0
 12 13  2  0  0  0
 12 98  1  0  0  0
 13 14  1  0  0  0
 13 31  1  0  0  0
 14 15  2  0  0  0
 14 99  1  0  0  0
 15100  1  0  0  0
 16 17  2  0  0  0
 16 21  1  0  0  0
 16 31  1  0  0  0
 17 18  1  0  0  0
 17101  1  0  0  0
 18 19  2  0  0  0
 18102  1  0  0  0
 19 20  1  0  0  0
 19 24  1  0  0  0
 20 21  2  0  0  0
 20103  1  0  0  0
 21 23  1  0  0  0
 22 28  1  0  0  0
 22 32  2  0  0  0
 26 27  1  0  0  0
 28104  1  0  0  0
 28105  1  0  0  0
 29106  1  0  0  0
 29107  1  0  0  0
 33 34  1  0  0  0
 33 66  1  0  0  0
 33 70  2  0  0  0
 34 36  1  0  0  0
 34 59  1  0  0  0
 34108  1  0  0  0
 35 44  2  0  0  0
 35 45  1  0  0  0
 35 68  1  0  0  0
 36 56  1  0  0  0
 36109  1  0  0  0
 37 39  1  0  0  0
 37 47  1  0  0  0
 37 66  1  0  0  0
 37110  1  0  0  0
 38 43  2  0  0  0
 38 46  1  0  0  0
 38 47  1  0  0  0
 39 64  1  0  0  0
 39 67  2  0  0  0
 40 52  1  0  0  0
 40 53  2  0  0  0
 40 58  1  0  0  0
 41111  1  0  0  0
 41112  1  0  0  0
 41113  1  0  0  0
 41 48  1  0  0  0
 42 43  1  0  0  0
 42 66  1  0  0  0
 42114  1  0  0  0
 42115  1  0  0  0
 43 44  1  0  0  0
 44116  1  0  0  0
 45 46  2  0  0  0
 45117  1  0  0  0
 46118  1  0  0  0
 47119  1  0  0  0
 47120  1  0  0  0
 48 56  1  0  0  0
 48 65  1  0  0  0
 48121  1  0  0  0
 49 50  1  0  0  0
 49 53  1  0  0  0
 49 64  1  0  0  0
 49122  1  0  0  0
 50 51  1  0  0  0
 50123  1  0  0  0
 50124  1  0  0  0
 51 52  1  0  0  0
 51125  1  0  0  0
 51126  1  0  0  0
 52127  1  0  0  0
 52128  1  0  0  0
 53 54  1  0  0  0
 54 55  2  0  0  0
 54129  1  0  0  0
 55 57  1  0  0  0
 55130  1  0  0  0
 56 69  2  0  0  0
 57 58  2  0  0  0
 57131  1  0  0  0
 58132  1  0  0  0
 59 60  1  0  0  0
 59 61  1  0  0  0
 59 62  1  0  0  0
 60133  1  0  0  0
 60134  1  0  0  0
 60135  1  0  0  0
 61136  1  0  0  0
 61137  1  0  0  0
 61138  1  0  0  0
 62139  1  0  0  0
 62140  1  0  0  0
 62141  1  0  0  0
 63 65  1  0  0  0
 63142  1  0  0  0
 63143  1  0  0  0
 63144  1  0  0  0
 64145  1  0  0  0
 65146  1  0  0  0
 68 83  1  0  0  0
 71 72  2  0  0  0
 71 74  1  0  0  0
 71147  1  0  0  0
 72 75  1  0  0  0
 72148  1  0  0  0
 73 75  2  0  0  0
 73 76  1  0  0  0
 73149  1  0  0  0
 74 76  2  0  0  0
 74 77  1  0  0  0
 75 81  1  0  0  0
 76 87  1  0  0  0
 77 78  2  0  0  0
 77150  1  0  0  0
 78 79  1  0  0  0
 78151  1  0  0  0
 79 80  1  0  0  0
 79 86  2  0  0  0
 80152  1  0  0  0
 80153  1  0  0  0
 80154  1  0  0  0
 81 85  1  0  0  0
 81155  1  0  0  0
 81156  1  0  0  0
 82 83  1  0  0  0
 82 84  1  0  0  0
 82157  1  0  0  0
 82158  1  0  0  0
 83159  1  0  0  0
 83160  1  0  0  0
 84 87  1  0  0  0
 84161  1  0  0  0
 84162  1  0  0  0
 85163  1  0  0  0
M  ISO  4   1 100  68 101  83 101  85 100
M  END
> <chiral flag>
0

> <version>
0

> <s_m_source_file>
/data/baiqing/PycharmProjects/Reinvent-master-3.2/result/LINK_invent/BTK/process_docking_weight1_custom_product_contain_oxygen_bond_distance_aromatic_linkinvent_7_9_3/rearranged_h_0118.sdf

> <i_m_source_file_index>
15

> <r_mmod_Potential_Energy-OPLS-2005>
-89.9907836914062

> <r_mmod_Stretch_Energy-OPLS-2005>
54.9760971069336

> <r_mmod_Bend_Energy-OPLS-2005>
126.11693572998

> <r_mmod_Torsional_Energy-OPLS-2005>
233.773284912109

> <r_mmod_Improper_Torsional_Energy-OPLS-2005>
4.44399881362915

> <r_mmod_Van_der_Waal_Energy-OPLS-2005>
150.922714233398

> <r_mmod_Electrostatic_Energy-OPLS-2005>
-455.328369140625

> <r_mmod_Solvation_Energy-OPLS-2005>
-229.760833740234

> <b_mmod_Minimization_Converged-OPLS-2005>
0

> <r_mmod_RMS_Derivative-OPLS-2005>
1.64686095714569

$$$$
15
                    3D
 Structure written by MMmdl.
161169  0  0  1  0            999 V2000
  -30.7469  -14.4787   20.6038 C   0  0  0  0  0  0
  -30.4110  -12.3338   19.4180 C   0  0  0  0  0  0
  -29.4886  -12.5205   18.1993 C   0  0  0  0  0  0
  -28.0133  -12.3688   18.6130 C   0  0  0  0  0  0
  -27.6538  -13.2171   19.8619 C   0  0  2  0  0  0
  -28.6940  -13.0329   20.9843 C   0  0  0  0  0  0
  -25.2566  -13.8178   20.5683 C   0  0  0  0  0  0
  -24.1829  -13.0443   20.9170 C   0  0  0  0  0  0
  -24.6383  -11.6913   20.8725 C   0  0  0  0  0  0
  -23.9058  -10.4292   21.0403 C   0  0  0  0  0  0
  -24.3613   -9.4206   21.9183 C   0  0  0  0  0  0
  -23.6278   -8.2252   22.0759 C   0  0  0  0  0  0
  -22.4265   -8.0282   21.3551 C   0  0  0  0  0  0
  -21.9897   -9.0256   20.4656 C   0  0  0  0  0  0
  -22.7229  -10.2131   20.3052 C   0  0  0  0  0  0
  -21.6847   -6.0729   22.5278 C   0  0  0  0  0  0
  -21.4011   -6.5633   23.8212 C   0  0  0  0  0  0
  -21.3659   -5.6789   24.9174 C   0  0  0  0  0  0
  -21.6036   -4.3049   24.7221 C   0  0  0  0  0  0
  -21.8817   -3.8145   23.4338 C   0  0  0  0  0  0
  -21.9198   -4.6964   22.3397 C   0  0  0  0  0  0
  -22.7865  -13.5263   21.1846 C   0  0  0  0  0  0
  -22.1687   -4.2165   21.0980 F   0  0  0  0  0  0
  -21.5624   -3.4519   25.7722 F   0  0  0  0  0  0
  -30.0219  -13.3351   20.4264 N   0  0  0  0  0  0
  -26.2991  -12.9359   20.3310 N   0  0  0  0  0  0
  -25.9310  -11.6512   20.5730 N   0  0  0  0  0  0
  -22.0505  -12.8251   22.0392 N   0  0  0  0  0  0
  -25.4297  -15.1898   20.4137 N   0  0  0  0  0  0
  -31.8838  -14.5934   20.1475 O   0  0  0  0  0  0
  -21.6632   -6.8877   21.4244 O   0  0  0  0  0  0
  -22.3580  -14.5583   20.6714 O   0  0  0  0  0  0
  -24.6166  -31.8664   23.2086 C   0  0  0  0  0  0
  -25.9054  -32.4810   23.8386 C   0  0  1  0  0  0
  -27.2302  -27.4127   20.0833 C   0  0  0  0  0  0
  -25.5897  -33.8613   24.2314 N   0  0  0  0  0  0
  -23.4046  -30.4918   21.5500 C   0  0  2  0  0  0
  -24.8472  -28.9570   20.1129 C   0  0  0  0  0  0
  -22.7415  -29.4659   22.4978 C   0  0  0  0  0  0
  -18.0274  -28.1377   22.8485 C   0  0  0  0  0  0
  -24.1485  -36.7318   23.2638 C   0  0  0  0  0  0
  -25.9361  -30.8239   21.3651 C   0  0  0  0  0  0
  -26.0109  -29.4574   20.7095 C   0  0  0  0  0  0
  -27.2029  -28.6921   20.6942 C   0  0  0  0  0  0
  -26.0381  -26.9318   19.4887 C   0  0  0  0  0  0
  -24.8562  -27.6931   19.5019 C   0  0  0  0  0  0
  -23.6121  -29.8273   20.1640 C   0  0  0  0  0  0
  -25.4106  -36.3108   24.0333 C   0  0  1  0  0  0
  -20.5865  -28.3672   23.1305 C   0  0  2  0  0  0
  -20.6761  -26.9407   22.5408 C   0  0  0  0  0  0
  -19.5739  -26.6386   21.5202 C   0  0  0  0  0  0
  -18.1922  -26.7921   22.1617 C   0  0  0  0  0  0
  -19.1523  -28.8839   23.2893 C   0  0  0  0  0  0
  -18.9455  -30.1443   23.8913 C   0  0  0  0  0  0
  -17.6460  -30.6581   24.0569 C   0  0  0  0  0  0
  -25.9034  -34.9474   23.5124 C   0  0  0  0  0  0
  -16.5351  -29.9090   23.6324 C   0  0  0  0  0  0
  -16.7265  -28.6502   23.0349 C   0  0  0  0  0  0
  -26.4479  -31.6595   25.0722 C   0  0  0  0  0  0
  -25.3740  -31.3718   26.1467 C   0  0  0  0  0  0
  -27.0305  -30.3031   24.6111 C   0  0  0  0  0  0
  -27.6051  -32.4320   25.7484 C   0  0  0  0  0  0
  -27.5579  -37.1811   24.8465 C   0  0  0  0  0  0
  -21.4143  -29.3036   22.3710 N   0  0  0  0  0  0
  -26.4294  -37.3791   23.9404 N   0  0  0  0  0  0
  -24.6709  -31.0754   22.0993 N   0  0  0  0  0  0
  -23.4177  -28.8195   23.3029 O   0  0  0  0  0  0
  -28.3907  -26.6537   20.1097 O   0  0  0  0  0  0
  -26.5605  -34.8928   22.4690 O   0  0  0  0  0  0
  -23.5356  -32.1425   23.7469 O   0  0  0  0  0  0
  -28.2882  -18.7552   21.3924 C   0  0  0  0  0  0
  -28.7705  -17.4587   21.6673 C   0  0  0  0  0  0
  -29.6393  -18.8141   19.4048 C   0  0  0  0  0  0
  -30.1178  -17.4972   19.6496 C   0  0  0  0  0  0
  -28.7282  -19.4684   20.2653 C   0  0  0  0  0  0
  -29.7083  -16.7864   20.8351 C   0  0  0  0  0  0
  -33.5750  -16.7950   18.1908 C   0  0  0  0  0  0
  -32.5378  -17.2791   18.8914 C   0  0  0  0  0  0
  -28.2385  -24.2510   19.8551 C   0  0  0  0  0  0
  -28.4493  -25.4945   19.3628 C   0  0  0  0  0  0
  -28.8414  -21.7190   19.5528 C   0  0  0  0  0  0
  -30.3690  -15.3553   22.7792 C   0  0  0  0  0  0
  -31.0820  -16.9760   18.5871 C   0  0  0  0  0  0
  -28.1900  -22.9885   18.9882 C   0  0  0  0  0  0
  -28.1554  -20.7270   19.9829 N   0  0  0  0  0  0
  -30.1814  -15.4876   21.3229 N   0  0  0  0  0  0
  -31.4557  -12.4216   19.1130 H   0  0  0  0  0  0
  -30.3065  -11.3293   19.8319 H   0  0  0  0  0  0
  -29.7352  -11.8005   17.4166 H   0  0  0  0  0  0
  -29.6465  -13.5100   17.7670 H   0  0  0  0  0  0
  -27.8346  -11.3123   18.8145 H   0  0  0  0  0  0
  -27.3603  -12.6348   17.7814 H   0  0  0  0  0  0
  -27.6878  -14.2617   19.5512 H   0  0  0  0  0  0
  -28.6769  -12.0094   21.3610 H   0  0  0  0  0  0
  -28.4365  -13.6629   21.8349 H   0  0  0  0  0  0
  -25.2762   -9.5666   22.4754 H   0  0  0  0  0  0
  -23.9974   -7.4628   22.7468 H   0  0  0  0  0  0
  -21.0821   -8.8760   19.8961 H   0  0  0  0  0  0
  -22.3680  -10.9658   19.6153 H   0  0  0  0  0  0
  -21.2008   -7.6145   23.9711 H   0  0  0  0  0  0
  -21.1496   -6.0525   25.9078 H   0  0  0  0  0  0
  -22.0599   -2.7604   23.2833 H   0  0  0  0  0  0
  -22.4123  -11.9915   22.4774 H   0  0  0  0  0  0
  -21.1132  -13.1303   22.2608 H   0  0  0  0  0  0
  -24.6660  -15.8453   20.5346 H   0  0  0  0  0  0
  -26.2918  -15.6335   20.1229 H   0  0  0  0  0  0
  -26.7118  -32.5512   23.1140 H   0  0  0  0  0  0
  -25.0038  -33.9767   25.0453 H   0  0  0  0  0  0
  -22.6942  -31.3087   21.4130 H   0  0  0  0  0  0
  -23.3736  -35.9663   23.3318 H   0  0  0  0  0  0
  -24.3580  -36.8918   22.2048 H   0  0  0  0  0  0
  -23.7247  -37.6533   23.6646 H   0  0  0  0  0  0
  -26.0518  -31.5892   20.5960 H   0  0  0  0  0  0
  -26.8229  -30.8753   21.9850 H   0  0  0  0  0  0
  -28.1015  -29.0744   21.1586 H   0  0  0  0  0  0
  -25.9985  -25.9610   19.0166 H   0  0  0  0  0  0
  -23.9599  -27.3000   19.0424 H   0  0  0  0  0  0
  -23.7218  -30.6026   19.4047 H   0  0  0  0  0  0
  -22.7342  -29.2495   19.8698 H   0  0  0  0  0  0
  -25.1279  -36.1977   25.0824 H   0  0  0  0  0  0
  -20.9956  -28.3242   24.1425 H   0  0  0  0  0  0
  -20.5653  -26.2285   23.3599 H   0  0  0  0  0  0
  -21.6639  -26.7438   22.1217 H   0  0  0  0  0  0
  -19.6909  -25.6299   21.1228 H   0  0  0  0  0  0
  -19.6678  -27.3200   20.6735 H   0  0  0  0  0  0
  -17.4188  -26.6662   21.4028 H   0  0  0  0  0  0
  -18.0336  -26.0063   22.9013 H   0  0  0  0  0  0
  -19.7934  -30.7250   24.2293 H   0  0  0  0  0  0
  -17.5020  -31.6264   24.5164 H   0  0  0  0  0  0
  -15.5354  -30.3004   23.7636 H   0  0  0  0  0  0
  -15.8660  -28.0830   22.7062 H   0  0  0  0  0  0
  -24.5909  -30.7065   25.7819 H   0  0  0  0  0  0
  -24.8934  -32.2880   26.4912 H   0  0  0  0  0  0
  -25.8085  -30.8898   27.0229 H   0  0  0  0  0  0
  -26.2850  -29.6794   24.1161 H   0  0  0  0  0  0
  -27.4063  -29.7271   25.4576 H   0  0  0  0  0  0
  -27.8695  -30.4343   23.9271 H   0  0  0  0  0  0
  -27.2664  -33.3606   26.2091 H   0  0  0  0  0  0
  -28.3845  -32.6896   25.0302 H   0  0  0  0  0  0
  -28.0736  -31.8427   26.5374 H   0  0  0  0  0  0
  -28.2610  -38.0096   24.7499 H   0  0  0  0  0  0
  -28.1060  -36.2628   24.6304 H   0  0  0  0  0  0
  -27.2302  -37.1482   25.8872 H   0  0  0  0  0  0
  -20.9301  -29.8772   21.6947 H   0  0  0  0  0  0
  -26.0186  -38.2872   24.1397 H   0  0  0  0  0  0
  -27.5657  -19.2011   22.0629 H   0  0  0  0  0  0
  -28.3901  -16.9848   22.5586 H   0  0  0  0  0  0
  -29.9698  -19.3310   18.5143 H   0  0  0  0  0  0
  -34.5922  -17.0471   18.4557 H   0  0  0  0  0  0
  -33.4274  -16.1371   17.3453 H   0  0  0  0  0  0
  -32.7324  -17.9393   19.7255 H   0  0  0  0  0  0
  -28.0391  -24.1211   20.9101 H   0  0  0  0  0  0
  -28.6571  -25.7012   18.3214 H   0  0  0  0  0  0
  -29.9343  -21.7048   19.5025 H   0  0  0  0  0  0
  -30.7896  -16.2737   23.1921 H   0  0  0  0  0  0
  -31.0442  -14.5438   23.0648 H   0  0  0  0  0  0
  -29.4194  -15.1648   23.2797 H   0  0  0  0  0  0
  -30.8589  -17.4757   17.6432 H   0  0  0  0  0  0
  -30.9147  -15.9292   18.3492 H   0  0  0  0  0  0
  -28.6385  -23.2025   18.0174 H   0  0  0  0  0  0
  -27.1400  -22.7741   18.7850 H   0  0  0  0  0  0
  1 25  1  0  0  0
  1 30  2  0  0  0
  1 86  1  0  0  0
  2  3  1  0  0  0
  2 25  1  0  0  0
  2 87  1  0  0  0
  2 88  1  0  0  0
  3  4  1  0  0  0
  3 89  1  0  0  0
  3 90  1  0  0  0
  4  5  1  0  0  0
  4 91  1  0  0  0
  4 92  1  0  0  0
  5  6  1  0  0  0
  5 26  1  0  0  0
  5 93  1  0  0  0
  6 25  1  0  0  0
  6 94  1  0  0  0
  6 95  1  0  0  0
  7  8  2  0  0  0
  7 26  1  0  0  0
  7 29  1  0  0  0
  8  9  1  0  0  0
  8 22  1  0  0  0
  9 10  1  0  0  0
  9 27  2  0  0  0
 10 11  2  0  0  0
 10 15  1  0  0  0
 11 12  1  0  0  0
 11 96  1  0  0  0
 12 13  2  0  0  0
 12 97  1  0  0  0
 13 14  1  0  0  0
 13 31  1  0  0  0
 14 15  2  0  0  0
 14 98  1  0  0  0
 15 99  1  0  0  0
 16 17  2  0  0  0
 16 21  1  0  0  0
 16 31  1  0  0  0
 17 18  1  0  0  0
 17100  1  0  0  0
 18 19  2  0  0  0
 18101  1  0  0  0
 19 20  1  0  0  0
 19 24  1  0  0  0
 20 21  2  0  0  0
 20102  1  0  0  0
 21 23  1  0  0  0
 22 28  1  0  0  0
 22 32  2  0  0  0
 26 27  1  0  0  0
 28103  1  0  0  0
 28104  1  0  0  0
 29105  1  0  0  0
 29106  1  0  0  0
 33 34  1  0  0  0
 33 66  1  0  0  0
 33 70  2  0  0  0
 34 36  1  0  0  0
 34 59  1  0  0  0
 34107  1  0  0  0
 35 44  2  0  0  0
 35 45  1  0  0  0
 35 68  1  0  0  0
 36 56  1  0  0  0
 36108  1  0  0  0
 37 39  1  0  0  0
 37 47  1  0  0  0
 37 66  1  0  0  0
 37109  1  0  0  0
 38 43  2  0  0  0
 38 46  1  0  0  0
 38 47  1  0  0  0
 39 64  1  0  0  0
 39 67  2  0  0  0
 40 52  1  0  0  0
 40 53  2  0  0  0
 40 58  1  0  0  0
 41110  1  0  0  0
 41111  1  0  0  0
 41112  1  0  0  0
 41 48  1  0  0  0
 42 43  1  0  0  0
 42 66  1  0  0  0
 42113  1  0  0  0
 42114  1  0  0  0
 43 44  1  0  0  0
 44115  1  0  0  0
 45 46  2  0  0  0
 45116  1  0  0  0
 46117  1  0  0  0
 47118  1  0  0  0
 47119  1  0  0  0
 48 56  1  0  0  0
 48 65  1  0  0  0
 48120  1  0  0  0
 49 50  1  0  0  0
 49 53  1  0  0  0
 49 64  1  0  0  0
 49121  1  0  0  0
 50 51  1  0  0  0
 50122  1  0  0  0
 50123  1  0  0  0
 51 52  1  0  0  0
 51124  1  0  0  0
 51125  1  0  0  0
 52126  1  0  0  0
 52127  1  0  0  0
 53 54  1  0  0  0
 54 55  2  0  0  0
 54128  1  0  0  0
 55 57  1  0  0  0
 55129  1  0  0  0
 56 69  2  0  0  0
 57 58  2  0  0  0
 57130  1  0  0  0
 58131  1  0  0  0
 59 60  1  0  0  0
 59 61  1  0  0  0
 59 62  1  0  0  0
 60132  1  0  0  0
 60133  1  0  0  0
 60134  1  0  0  0
 61135  1  0  0  0
 61136  1  0  0  0
 61137  1  0  0  0
 62138  1  0  0  0
 62139  1  0  0  0
 62140  1  0  0  0
 63 65  1  0  0  0
 63141  1  0  0  0
 63142  1  0  0  0
 63143  1  0  0  0
 64144  1  0  0  0
 65145  1  0  0  0
 68 80  1  0  0  0
 71 72  2  0  0  0
 71 75  1  0  0  0
 71146  1  0  0  0
 72 76  1  0  0  0
 72147  1  0  0  0
 73 74  1  0  0  0
 73 75  2  0  0  0
 73148  1  0  0  0
 74 76  2  0  0  0
 74 83  1  0  0  0
 75 85  1  0  0  0
 76 86  1  0  0  0
 77 78  2  0  0  0
 77149  1  0  0  0
 77150  1  0  0  0
 78 83  1  0  0  0
 78151  1  0  0  0
 79 80  2  0  0  0
 79 84  1  0  0  0
 79152  1  0  0  0
 80153  1  0  0  0
 81 84  1  0  0  0
 81 85  2  0  0  0
 81154  1  0  0  0
 82 86  1  0  0  0
 82155  1  0  0  0
 82156  1  0  0  0
 82157  1  0  0  0
 83158  1  0  0  0
 83159  1  0  0  0
 84160  1  0  0  0
 84161  1  0  0  0
M  ISO  4   1 100  68 101  80 101  86 100
M  END
> <chiral flag>
0

> <version>
0

> <s_m_source_file>
/data/baiqing/PycharmProjects/Reinvent-master-3.2/result/LINK_invent/BTK/process_docking_weight1_custom_product_contain_oxygen_bond_distance_aromatic_linkinvent_7_9_3/rearranged_h_0118.sdf

> <i_m_source_file_index>
16

> <r_mmod_Potential_Energy-OPLS-2005>
175.257675170898

> <r_mmod_Stretch_Energy-OPLS-2005>
50.3355293273926

> <r_mmod_Bend_Energy-OPLS-2005>
131.05876159668

> <r_mmod_Torsional_Energy-OPLS-2005>
307.909606933594

> <r_mmod_Improper_Torsional_Energy-OPLS-2005>
3.40296912193298

> <r_mmod_Van_der_Waal_Energy-OPLS-2005>
162.980514526367

> <r_mmod_Electrostatic_Energy-OPLS-2005>
-313.287200927734

> <r_mmod_Solvation_Energy-OPLS-2005>
-184.837341308594

> <b_mmod_Minimization_Converged-OPLS-2005>
0

> <r_mmod_RMS_Derivative-OPLS-2005>
1.92861652374268

$$$$
16
                    3D
 Structure written by MMmdl.
160168  0  0  1  0            999 V2000
  -30.6251  -14.6570   20.6119 C   0  0  0  0  0  0
  -30.4435  -12.4404   19.4380 C   0  0  0  0  0  0
  -29.5049  -12.5574   18.2177 C   0  0  0  0  0  0
  -28.0301  -12.3706   18.6276 C   0  0  0  0  0  0
  -27.6576  -13.2175   19.8721 C   0  0  2  0  0  0
  -28.7008  -13.0355   20.9944 C   0  0  0  0  0  0
  -25.2558  -13.8168   20.5691 C   0  0  0  0  0  0
  -24.1815  -13.0430   20.9170 C   0  0  0  0  0  0
  -24.6381  -11.6906   20.8714 C   0  0  0  0  0  0
  -23.9041  -10.4292   21.0391 C   0  0  0  0  0  0
  -24.3607   -9.4214   21.9169 C   0  0  0  0  0  0
  -23.6302   -8.2234   22.0731 C   0  0  0  0  0  0
  -22.4277   -8.0275   21.3538 C   0  0  0  0  0  0
  -21.9910   -9.0232   20.4630 C   0  0  0  0  0  0
  -22.7219  -10.2123   20.3035 C   0  0  0  0  0  0
  -21.6840   -6.0737   22.5279 C   0  0  0  0  0  0
  -21.4001   -6.5641   23.8222 C   0  0  0  0  0  0
  -21.3668   -5.6787   24.9178 C   0  0  0  0  0  0
  -21.6057   -4.3051   24.7226 C   0  0  0  0  0  0
  -21.8821   -3.8147   23.4337 C   0  0  0  0  0  0
  -21.9183   -4.6968   22.3399 C   0  0  0  0  0  0
  -22.7830  -13.5223   21.1858 C   0  0  0  0  0  0
  -22.1657   -4.2161   21.0974 F   0  0  0  0  0  0
  -21.5641   -3.4531   25.7731 F   0  0  0  0  0  0
  -30.0153  -13.4305   20.4513 N   0  0  0  0  0  0
  -26.3001  -12.9354   20.3346 N   0  0  0  0  0  0
  -25.9316  -11.6501   20.5735 N   0  0  0  0  0  0
  -22.0478  -12.8217   22.0425 N   0  0  0  0  0  0
  -25.4271  -15.1894   20.4161 N   0  0  0  0  0  0
  -31.6735  -14.9151   20.0121 O   0  0  0  0  0  0
  -21.6627   -6.8878   21.4245 O   0  0  0  0  0  0
  -22.3514  -14.5529   20.6712 O   0  0  0  0  0  0
  -24.6292  -31.8579   23.1996 C   0  0  0  0  0  0
  -25.9129  -32.4770   23.8339 C   0  0  1  0  0  0
  -27.2204  -27.2833   20.1278 C   0  0  0  0  0  0
  -25.5933  -33.8572   24.2270 N   0  0  0  0  0  0
  -23.4250  -30.4795   21.5436 C   0  0  2  0  0  0
  -24.8726  -28.9262   20.1141 C   0  0  0  0  0  0
  -22.7486  -29.4619   22.4930 C   0  0  0  0  0  0
  -18.0291  -28.1376   22.8495 C   0  0  0  0  0  0
  -24.1490  -36.7282   23.2642 C   0  0  0  0  0  0
  -25.9700  -30.7752   21.3785 C   0  0  0  0  0  0
  -26.0438  -29.3989   20.7212 C   0  0  0  0  0  0
  -27.2238  -28.5904   20.7155 C   0  0  0  0  0  0
  -26.0316  -26.8751   19.4867 C   0  0  0  0  0  0
  -24.8695  -27.6704   19.4862 C   0  0  0  0  0  0
  -23.6423  -29.8107   20.1609 C   0  0  0  0  0  0
  -25.4119  -36.3083   24.0336 C   0  0  1  0  0  0
  -20.5890  -28.3693   23.1277 C   0  0  2  0  0  0
  -20.6777  -26.9412   22.5408 C   0  0  0  0  0  0
  -19.5751  -26.6377   21.5212 C   0  0  0  0  0  0
  -18.1930  -26.7922   22.1624 C   0  0  0  0  0  0
  -19.1541  -28.8848   23.2879 C   0  0  0  0  0  0
  -18.9465  -30.1448   23.8901 C   0  0  0  0  0  0
  -17.6465  -30.6586   24.0555 C   0  0  0  0  0  0
  -25.9062  -34.9453   23.5108 C   0  0  0  0  0  0
  -16.5355  -29.9085   23.6326 C   0  0  0  0  0  0
  -16.7276  -28.6491   23.0368 C   0  0  0  0  0  0
  -26.4491  -31.6584   25.0723 C   0  0  0  0  0  0
  -25.3706  -31.3730   26.1436 C   0  0  0  0  0  0
  -27.0337  -30.3002   24.6206 C   0  0  0  0  0  0
  -27.6055  -32.4317   25.7491 C   0  0  0  0  0  0
  -27.5589  -37.1793   24.8462 C   0  0  0  0  0  0
  -21.4193  -29.3051   22.3672 N   0  0  0  0  0  0
  -26.4293  -37.3785   23.9416 N   0  0  0  0  0  0
  -24.6937  -31.0549   22.0971 N   0  0  0  0  0  0
  -23.4190  -28.8171   23.3036 O   0  0  0  0  0  0
  -28.3094  -26.3877   20.1473 O   0  0  0  0  0  0
  -26.5633  -34.8924   22.4675 O   0  0  0  0  0  0
  -23.5447  -32.1409   23.7288 O   0  0  0  0  0  0
  -28.3534  -18.9329   22.0548 C   0  0  0  0  0  0
  -29.7043  -20.4769   20.1995 C   0  0  0  0  0  0
  -29.3812  -18.2583   21.3474 C   0  0  0  0  0  0
  -30.0329  -19.0700   20.3631 C   0  0  0  0  0  0
  -28.0043  -20.2961   21.8864 C   0  0  0  0  0  0
  -28.6956  -21.1422   20.9708 C   0  0  0  0  0  0
  -29.6138  -16.8250   21.8715 C   0  0  0  0  0  0
  -30.0467  -15.5209   21.6746 C   0  0  0  0  0  0
  -31.1371  -18.4645   19.5192 C   0  0  0  0  0  0
  -28.3247  -25.2284   22.2456 C   0  0  0  0  0  0
  -25.9946  -21.5821   22.1621 C   0  0  0  0  0  0
  -28.8307  -23.6788   20.2505 C   0  0  0  0  0  0
  -28.0783  -25.0302   20.7415 C   0  0  2  0  0  0
  -26.9971  -20.7393   22.7183 O   0  0  0  0  0  0
  -28.2987  -22.5077   20.9673 O   0  0  0  0  0  0
  -31.4803  -12.5892   19.1329 H   0  0  0  0  0  0
  -30.4022  -11.4334   19.8568 H   0  0  0  0  0  0
  -29.7819  -11.8266   17.4562 H   0  0  0  0  0  0
  -29.6290  -13.5410   17.7605 H   0  0  0  0  0  0
  -27.8722  -11.3127   18.8401 H   0  0  0  0  0  0
  -27.3712  -12.6201   17.7956 H   0  0  0  0  0  0
  -27.6882  -14.2627   19.5625 H   0  0  0  0  0  0
  -28.7311  -11.9959   21.3233 H   0  0  0  0  0  0
  -28.3984  -13.5995   21.8746 H   0  0  0  0  0  0
  -25.2747   -9.5704   22.4745 H   0  0  0  0  0  0
  -24.0029   -7.4622   22.7440 H   0  0  0  0  0  0
  -21.0841   -8.8733   19.8939 H   0  0  0  0  0  0
  -22.3661  -10.9655   19.6145 H   0  0  0  0  0  0
  -21.1984   -7.6142   23.9732 H   0  0  0  0  0  0
  -21.1499   -6.0509   25.9093 H   0  0  0  0  0  0
  -22.0596   -2.7610   23.2816 H   0  0  0  0  0  0
  -22.4088  -11.9870   22.4814 H   0  0  0  0  0  0
  -21.1095  -13.1250   22.2640 H   0  0  0  0  0  0
  -24.6658  -15.8484   20.5370 H   0  0  0  0  0  0
  -26.2957  -15.6336   20.1447 H   0  0  0  0  0  0
  -26.7191  -32.5428   23.1077 H   0  0  0  0  0  0
  -25.0062  -33.9709   25.0404 H   0  0  0  0  0  0
  -22.7224  -31.3023   21.3967 H   0  0  0  0  0  0
  -23.3770  -35.9594   23.3290 H   0  0  0  0  0  0
  -24.3581  -36.8914   22.2057 H   0  0  0  0  0  0
  -23.7215  -37.6472   23.6666 H   0  0  0  0  0  0
  -26.1081  -31.5362   20.6092 H   0  0  0  0  0  0
  -26.8491  -30.8231   22.0099 H   0  0  0  0  0  0
  -28.1234  -28.9460   21.1980 H   0  0  0  0  0  0
  -25.9912  -25.9149   18.9922 H   0  0  0  0  0  0
  -23.9744  -27.3071   19.0002 H   0  0  0  0  0  0
  -23.7625  -30.5851   19.4025 H   0  0  0  0  0  0
  -22.7619  -29.2400   19.8598 H   0  0  0  0  0  0
  -25.1291  -36.1937   25.0830 H   0  0  0  0  0  0
  -20.9988  -28.3270   24.1395 H   0  0  0  0  0  0
  -20.5676  -26.2306   23.3613 H   0  0  0  0  0  0
  -21.6648  -26.7439   22.1206 H   0  0  0  0  0  0
  -19.6915  -25.6285   21.1246 H   0  0  0  0  0  0
  -19.6683  -27.3177   20.6734 H   0  0  0  0  0  0
  -17.4205  -26.6683   21.4019 H   0  0  0  0  0  0
  -18.0323  -26.0051   22.9005 H   0  0  0  0  0  0
  -19.7942  -30.7250   24.2285 H   0  0  0  0  0  0
  -17.5027  -31.6274   24.5142 H   0  0  0  0  0  0
  -15.5356  -30.2989   23.7645 H   0  0  0  0  0  0
  -15.8676  -28.0799   22.7105 H   0  0  0  0  0  0
  -24.5871  -30.7103   25.7739 H   0  0  0  0  0  0
  -24.8904  -32.2898   26.4870 H   0  0  0  0  0  0
  -25.8004  -30.8879   27.0210 H   0  0  0  0  0  0
  -26.2925  -29.6751   24.1218 H   0  0  0  0  0  0
  -27.4003  -29.7260   25.4725 H   0  0  0  0  0  0
  -27.8806  -30.4272   23.9461 H   0  0  0  0  0  0
  -27.2682  -33.3619   26.2072 H   0  0  0  0  0  0
  -28.3863  -32.6879   25.0317 H   0  0  0  0  0  0
  -28.0734  -31.8443   26.5400 H   0  0  0  0  0  0
  -28.2588  -38.0111   24.7552 H   0  0  0  0  0  0
  -28.1103  -36.2646   24.6231 H   0  0  0  0  0  0
  -27.2312  -37.1377   25.8864 H   0  0  0  0  0  0
  -20.9377  -29.8768   21.6871 H   0  0  0  0  0  0
  -26.0176  -38.2859   24.1428 H   0  0  0  0  0  0
  -27.7935  -18.3862   22.8015 H   0  0  0  0  0  0
  -30.2560  -21.0603   19.4759 H   0  0  0  0  0  0
  -29.3135  -16.8462   22.9108 H   0  0  0  0  0  0
  -29.9513  -14.9468   22.5855 H   0  0  0  0  0  0
  -31.5831  -19.2040   18.8534 H   0  0  0  0  0  0
  -30.7467  -17.6511   18.9066 H   0  0  0  0  0  0
  -31.9275  -18.0625   20.1538 H   0  0  0  0  0  0
  -28.1666  -24.3056   22.8041 H   0  0  0  0  0  0
  -27.6504  -25.9772   22.6622 H   0  0  0  0  0  0
  -29.3481  -25.5553   22.4310 H   0  0  0  0  0  0
  -25.8398  -21.3999   21.0975 H   0  0  0  0  0  0
  -26.2351  -22.6340   22.3152 H   0  0  0  0  0  0
  -25.0473  -21.3925   22.6663 H   0  0  0  0  0  0
  -29.9057  -23.7554   20.4139 H   0  0  0  0  0  0
  -28.6757  -23.5273   19.1814 H   0  0  0  0  0  0
  -27.0211  -24.7876   20.6388 H   0  0  0  0  0  0
  1 25  1  0  0  0
  1 30  2  0  0  0
  1 78  1  0  0  0
  2  3  1  0  0  0
  2 25  1  0  0  0
  2 86  1  0  0  0
  2 87  1  0  0  0
  3  4  1  0  0  0
  3 88  1  0  0  0
  3 89  1  0  0  0
  4  5  1  0  0  0
  4 90  1  0  0  0
  4 91  1  0  0  0
  5  6  1  0  0  0
  5 26  1  0  0  0
  5 92  1  0  0  0
  6 25  1  0  0  0
  6 93  1  0  0  0
  6 94  1  0  0  0
  7  8  2  0  0  0
  7 26  1  0  0  0
  7 29  1  0  0  0
  8  9  1  0  0  0
  8 22  1  0  0  0
  9 10  1  0  0  0
  9 27  2  0  0  0
 10 11  2  0  0  0
 10 15  1  0  0  0
 11 12  1  0  0  0
 11 95  1  0  0  0
 12 13  2  0  0  0
 12 96  1  0  0  0
 13 14  1  0  0  0
 13 31  1  0  0  0
 14 15  2  0  0  0
 14 97  1  0  0  0
 15 98  1  0  0  0
 16 17  2  0  0  0
 16 21  1  0  0  0
 16 31  1  0  0  0
 17 18  1  0  0  0
 17 99  1  0  0  0
 18 19  2  0  0  0
 18100  1  0  0  0
 19 20  1  0  0  0
 19 24  1  0  0  0
 20 21  2  0  0  0
 20101  1  0  0  0
 21 23  1  0  0  0
 22 28  1  0  0  0
 22 32  2  0  0  0
 26 27  1  0  0  0
 28102  1  0  0  0
 28103  1  0  0  0
 29104  1  0  0  0
 29105  1  0  0  0
 33 34  1  0  0  0
 33 66  1  0  0  0
 33 70  2  0  0  0
 34 36  1  0  0  0
 34 59  1  0  0  0
 34106  1  0  0  0
 35 44  2  0  0  0
 35 45  1  0  0  0
 35 68  1  0  0  0
 36 56  1  0  0  0
 36107  1  0  0  0
 37 39  1  0  0  0
 37 47  1  0  0  0
 37 66  1  0  0  0
 37108  1  0  0  0
 38 43  2  0  0  0
 38 46  1  0  0  0
 38 47  1  0  0  0
 39 64  1  0  0  0
 39 67  2  0  0  0
 40 52  1  0  0  0
 40 53  2  0  0  0
 40 58  1  0  0  0
 41109  1  0  0  0
 41110  1  0  0  0
 41111  1  0  0  0
 41 48  1  0  0  0
 42 43  1  0  0  0
 42 66  1  0  0  0
 42112  1  0  0  0
 42113  1  0  0  0
 43 44  1  0  0  0
 44114  1  0  0  0
 45 46  2  0  0  0
 45115  1  0  0  0
 46116  1  0  0  0
 47117  1  0  0  0
 47118  1  0  0  0
 48 56  1  0  0  0
 48 65  1  0  0  0
 48119  1  0  0  0
 49 50  1  0  0  0
 49 53  1  0  0  0
 49 64  1  0  0  0
 49120  1  0  0  0
 50 51  1  0  0  0
 50121  1  0  0  0
 50122  1  0  0  0
 51 52  1  0  0  0
 51123  1  0  0  0
 51124  1  0  0  0
 52125  1  0  0  0
 52126  1  0  0  0
 53 54  1  0  0  0
 54 55  2  0  0  0
 54127  1  0  0  0
 55 57  1  0  0  0
 55128  1  0  0  0
 56 69  2  0  0  0
 57 58  2  0  0  0
 57129  1  0  0  0
 58130  1  0  0  0
 59 60  1  0  0  0
 59 61  1  0  0  0
 59 62  1  0  0  0
 60131  1  0  0  0
 60132  1  0  0  0
 60133  1  0  0  0
 61134  1  0  0  0
 61135  1  0  0  0
 61136  1  0  0  0
 62137  1  0  0  0
 62138  1  0  0  0
 62139  1  0  0  0
 63 65  1  0  0  0
 63140  1  0  0  0
 63141  1  0  0  0
 63142  1  0  0  0
 64143  1  0  0  0
 65144  1  0  0  0
 68 83  1  0  0  0
 71 73  2  0  0  0
 71 75  1  0  0  0
 71145  1  0  0  0
 72 74  2  0  0  0
 72 76  1  0  0  0
 72146  1  0  0  0
 73 74  1  0  0  0
 73 77  1  0  0  0
 74 79  1  0  0  0
 75 76  2  0  0  0
 75 84  1  0  0  0
 76 85  1  0  0  0
 77 78  2  0  0  0
 77147  1  0  0  0
 78148  1  0  0  0
 79149  1  0  0  0
 79150  1  0  0  0
 79151  1  0  0  0
 80152  1  0  0  0
 80153  1  0  0  0
 80154  1  0  0  0
 80 83  1  0  0  0
 81 84  1  0  0  0
 81155  1  0  0  0
 81156  1  0  0  0
 81157  1  0  0  0
 82 83  1  0  0  0
 82 85  1  0  0  0
 82158  1  0  0  0
 82159  1  0  0  0
 83160  1  0  0  0
M  ISO  4   1 100  68 101  78 100  83 101
M  END
> <chiral flag>
0

> <version>
0

> <s_m_source_file>
/data/baiqing/PycharmProjects/Reinvent-master-3.2/result/LINK_invent/BTK/process_docking_weight1_custom_product_contain_oxygen_bond_distance_aromatic_linkinvent_7_9_3/rearranged_h_0118.sdf

> <i_m_source_file_index>
17

> <r_mmod_Potential_Energy-OPLS-2005>
316.055236816406

> <r_mmod_Stretch_Energy-OPLS-2005>
105.085876464844

> <r_mmod_Bend_Energy-OPLS-2005>
321.70849609375

> <r_mmod_Torsional_Energy-OPLS-2005>
223.837951660156

> <r_mmod_Improper_Torsional_Energy-OPLS-2005>
4.15868616104126

> <r_mmod_Van_der_Waal_Energy-OPLS-2005>
143.406997680664

> <r_mmod_Electrostatic_Energy-OPLS-2005>
-349.882629394531

> <r_mmod_Solvation_Energy-OPLS-2005>
-194.905120849609

> <b_mmod_Minimization_Converged-OPLS-2005>
0

> <r_mmod_RMS_Derivative-OPLS-2005>
1.67372167110443

$$$$
17
                    3D
 Structure written by MMmdl.
158166  0  0  1  0            999 V2000
  -30.6831  -14.4921   20.5155 C   0  0  0  0  0  0
  -30.4252  -12.3026   19.4223 C   0  0  0  0  0  0
  -29.4954  -12.4837   18.2038 C   0  0  0  0  0  0
  -28.0165  -12.3476   18.6194 C   0  0  0  0  0  0
  -27.6575  -13.2014   19.8657 C   0  0  2  0  0  0
  -28.7035  -13.0100   20.9891 C   0  0  0  0  0  0
  -25.2591  -13.8147   20.5672 C   0  0  0  0  0  0
  -24.1831  -13.0440   20.9156 C   0  0  0  0  0  0
  -24.6378  -11.6899   20.8725 C   0  0  0  0  0  0
  -23.9052  -10.4287   21.0405 C   0  0  0  0  0  0
  -24.3607   -9.4197   21.9180 C   0  0  0  0  0  0
  -23.6279   -8.2235   22.0753 C   0  0  0  0  0  0
  -22.4262   -8.0279   21.3547 C   0  0  0  0  0  0
  -21.9897   -9.0255   20.4653 C   0  0  0  0  0  0
  -22.7227  -10.2130   20.3056 C   0  0  0  0  0  0
  -21.6849   -6.0729   22.5275 C   0  0  0  0  0  0
  -21.4016   -6.5637   23.8208 C   0  0  0  0  0  0
  -21.3649   -5.6792   24.9172 C   0  0  0  0  0  0
  -21.6040   -4.3056   24.7228 C   0  0  0  0  0  0
  -21.8818   -3.8143   23.4353 C   0  0  0  0  0  0
  -21.9188   -4.6955   22.3405 C   0  0  0  0  0  0
  -22.7852  -13.5238   21.1824 C   0  0  0  0  0  0
  -22.1657   -4.2138   21.0984 F   0  0  0  0  0  0
  -21.5624   -3.4540   25.7744 F   0  0  0  0  0  0
  -30.0302  -13.3023   20.4255 N   0  0  0  0  0  0
  -26.3007  -12.9298   20.3325 N   0  0  0  0  0  0
  -25.9299  -11.6468   20.5744 N   0  0  0  0  0  0
  -22.0493  -12.8250   22.0396 N   0  0  0  0  0  0
  -25.4371  -15.1862   20.4101 N   0  0  0  0  0  0
  -31.8567  -14.6394   20.1577 O   0  0  0  0  0  0
  -21.6634   -6.8873   21.4240 O   0  0  0  0  0  0
  -22.3544  -14.5549   20.6673 O   0  0  0  0  0  0
  -24.6132  -31.8701   23.2129 C   0  0  0  0  0  0
  -25.9033  -32.4841   23.8424 C   0  0  1  0  0  0
  -27.2319  -27.4373   20.0889 C   0  0  0  0  0  0
  -25.5905  -33.8641   24.2362 N   0  0  0  0  0  0
  -23.3997  -30.4942   21.5546 C   0  0  2  0  0  0
  -24.8441  -28.9626   20.1155 C   0  0  0  0  0  0
  -22.7398  -29.4667   22.5016 C   0  0  0  0  0  0
  -18.0266  -28.1390   22.8479 C   0  0  0  0  0  0
  -24.1483  -36.7306   23.2635 C   0  0  0  0  0  0
  -25.9288  -30.8368   21.3633 C   0  0  0  0  0  0
  -26.0056  -29.4718   20.7087 C   0  0  0  0  0  0
  -27.2000  -28.7164   20.6902 C   0  0  0  0  0  0
  -26.0476  -26.9430   19.4910 C   0  0  0  0  0  0
  -24.8602  -27.6970   19.5058 C   0  0  0  0  0  0
  -23.6055  -29.8284   20.1685 C   0  0  0  0  0  0
  -25.4107  -36.3118   24.0344 C   0  0  1  0  0  0
  -20.5851  -28.3666   23.1338 C   0  0  2  0  0  0
  -20.6766  -26.9417   22.5415 C   0  0  0  0  0  0
  -19.5753  -26.6397   21.5203 C   0  0  0  0  0  0
  -18.1927  -26.7938   22.1608 C   0  0  0  0  0  0
  -19.1512  -28.8844   23.2907 C   0  0  0  0  0  0
  -18.9444  -30.1447   23.8917 C   0  0  0  0  0  0
  -17.6452  -30.6599   24.0560 C   0  0  0  0  0  0
  -25.9030  -34.9483   23.5145 C   0  0  0  0  0  0
  -16.5339  -29.9103   23.6324 C   0  0  0  0  0  0
  -16.7254  -28.6519   23.0343 C   0  0  0  0  0  0
  -26.4478  -31.6609   25.0739 C   0  0  0  0  0  0
  -25.3756  -31.3696   26.1493 C   0  0  0  0  0  0
  -27.0305  -30.3058   24.6095 C   0  0  0  0  0  0
  -27.6076  -32.4313   25.7496 C   0  0  0  0  0  0
  -27.5579  -37.1813   24.8474 C   0  0  0  0  0  0
  -21.4127  -29.3034   22.3745 N   0  0  0  0  0  0
  -26.4294  -37.3801   23.9415 N   0  0  0  0  0  0
  -24.6662  -31.0804   22.1025 N   0  0  0  0  0  0
  -23.4167  -28.8198   23.3050 O   0  0  0  0  0  0
  -28.4144  -26.7201   20.1196 O   0  0  0  0  0  0
  -26.5582  -34.8923   22.4698 O   0  0  0  0  0  0
  -23.5331  -32.1446   23.7532 O   0  0  0  0  0  0
  -28.6389  -18.7176   21.3177 C   0  0  0  0  0  0
  -29.2131  -20.0191   21.4082 C   0  0  0  0  0  0
  -29.5887  -17.8123   21.7079 C   0  0  0  0  0  0
  -30.4953  -19.8145   21.8656 C   0  0  0  0  0  0
  -27.6409  -24.5869   21.0729 C   0  0  0  0  0  0
  -27.9322  -23.4189   21.6820 C   0  0  0  0  0  0
  -31.6641  -20.6853   22.1897 C   0  0  0  0  0  0
  -29.6872  -16.3279   19.3086 C   0  0  0  0  0  0
  -29.6223  -16.3039   21.8176 C   0  0  0  0  0  0
  -28.3827  -25.2945   19.9408 C   0  0  0  0  0  0
  -29.0761  -22.4505   21.4231 C   0  0  0  0  0  0
  -29.8627  -15.5696   20.5566 N   0  0  0  0  0  0
  -30.7254  -18.4779   22.0456 O   0  0  0  0  0  0
  -28.5430  -21.1773   21.0624 O   0  0  0  0  0  0
  -31.4698  -12.4021   19.1195 H   0  0  0  0  0  0
  -30.3277  -11.2974   19.8347 H   0  0  0  0  0  0
  -29.7400  -11.7493   17.4349 H   0  0  0  0  0  0
  -29.6598  -13.4599   17.7475 H   0  0  0  0  0  0
  -27.8302  -11.2938   18.8285 H   0  0  0  0  0  0
  -27.3678  -12.6093   17.7824 H   0  0  0  0  0  0
  -27.6890  -14.2414   19.5446 H   0  0  0  0  0  0
  -28.6770  -11.9863   21.3653 H   0  0  0  0  0  0
  -28.4792  -13.6466   21.8454 H   0  0  0  0  0  0
  -25.2758   -9.5663   22.4749 H   0  0  0  0  0  0
  -23.9984   -7.4622   22.7467 H   0  0  0  0  0  0
  -21.0827   -8.8786   19.8959 H   0  0  0  0  0  0
  -22.3698  -10.9672   19.6162 H   0  0  0  0  0  0
  -21.2025   -7.6146   23.9717 H   0  0  0  0  0  0
  -21.1462   -6.0521   25.9074 H   0  0  0  0  0  0
  -22.0608   -2.7606   23.2861 H   0  0  0  0  0  0
  -22.4121  -11.9921   22.4795 H   0  0  0  0  0  0
  -21.1109  -13.1279   22.2597 H   0  0  0  0  0  0
  -24.6806  -15.8526   20.5200 H   0  0  0  0  0  0
  -26.3025  -15.6143   20.1087 H   0  0  0  0  0  0
  -26.7101  -32.5548   23.1184 H   0  0  0  0  0  0
  -25.0078  -33.9837   25.0523 H   0  0  0  0  0  0
  -22.6877  -31.3118   21.4207 H   0  0  0  0  0  0
  -23.3749  -35.9632   23.3311 H   0  0  0  0  0  0
  -24.3568  -36.8896   22.2041 H   0  0  0  0  0  0
  -23.7230  -37.6516   23.6637 H   0  0  0  0  0  0
  -26.0371  -31.6050   20.5962 H   0  0  0  0  0  0
  -26.8187  -30.8925   21.9786 H   0  0  0  0  0  0
  -28.0977  -29.1042   21.1508 H   0  0  0  0  0  0
  -26.0136  -25.9750   19.0149 H   0  0  0  0  0  0
  -23.9650  -27.2969   19.0504 H   0  0  0  0  0  0
  -23.7113  -30.6062   19.4120 H   0  0  0  0  0  0
  -22.7284  -29.2506   19.8715 H   0  0  0  0  0  0
  -25.1278  -36.1980   25.0837 H   0  0  0  0  0  0
  -20.9939  -28.3225   24.1462 H   0  0  0  0  0  0
  -20.5672  -26.2279   23.3590 H   0  0  0  0  0  0
  -21.6646  -26.7482   22.1214 H   0  0  0  0  0  0
  -19.6922  -25.6308   21.1237 H   0  0  0  0  0  0
  -19.6704  -27.3204   20.6729 H   0  0  0  0  0  0
  -17.4199  -26.6661   21.4012 H   0  0  0  0  0  0
  -18.0346  -26.0098   22.9021 H   0  0  0  0  0  0
  -19.7919  -30.7253   24.2313 H   0  0  0  0  0  0
  -17.5008  -31.6284   24.5155 H   0  0  0  0  0  0
  -15.5342  -30.3009   23.7666 H   0  0  0  0  0  0
  -15.8645  -28.0848   22.7065 H   0  0  0  0  0  0
  -24.5932  -30.7048   25.7817 H   0  0  0  0  0  0
  -24.8942  -32.2841   26.4973 H   0  0  0  0  0  0
  -25.8112  -30.8837   27.0231 H   0  0  0  0  0  0
  -26.2842  -29.6833   24.1144 H   0  0  0  0  0  0
  -27.4082  -29.7286   25.4542 H   0  0  0  0  0  0
  -27.8677  -30.4395   23.9239 H   0  0  0  0  0  0
  -27.2729  -33.3603   26.2131 H   0  0  0  0  0  0
  -28.3863  -32.6884   25.0301 H   0  0  0  0  0  0
  -28.0779  -31.8391   26.5360 H   0  0  0  0  0  0
  -28.2619  -38.0089   24.7507 H   0  0  0  0  0  0
  -28.1051  -36.2622   24.6317 H   0  0  0  0  0  0
  -27.2300  -37.1485   25.8880 H   0  0  0  0  0  0
  -20.9282  -29.8760   21.6973 H   0  0  0  0  0  0
  -26.0177  -38.2878   24.1411 H   0  0  0  0  0  0
  -27.6405  -18.4685   20.9874 H   0  0  0  0  0  0
  -26.7518  -25.0980   21.4160 H   0  0  0  0  0  0
  -27.2636  -23.1014   22.4702 H   0  0  0  0  0  0
  -31.5540  -21.1334   23.1776 H   0  0  0  0  0  0
  -31.7781  -21.4850   21.4602 H   0  0  0  0  0  0
  -32.5888  -20.1085   22.1903 H   0  0  0  0  0  0
  -28.6988  -16.7871   19.2712 H   0  0  0  0  0  0
  -29.7701  -15.6907   18.4273 H   0  0  0  0  0  0
  -30.4397  -17.1121   19.2125 H   0  0  0  0  0  0
  -28.6665  -15.9641   22.2162 H   0  0  0  0  0  0
  -30.3670  -16.0194   22.5642 H   0  0  0  0  0  0
  -27.9470  -25.0293   18.9774 H   0  0  0  0  0  0
  -29.4134  -24.9436   19.9018 H   0  0  0  0  0  0
  -29.6447  -22.3992   22.3501 H   0  0  0  0  0  0
  -29.7408  -22.8081   20.6367 H   0  0  0  0  0  0
  1 25  1  0  0  0
  1 30  2  0  0  0
  1 82  1  0  0  0
  2  3  1  0  0  0
  2 25  1  0  0  0
  2 85  1  0  0  0
  2 86  1  0  0  0
  3  4  1  0  0  0
  3 87  1  0  0  0
  3 88  1  0  0  0
  4  5  1  0  0  0
  4 89  1  0  0  0
  4 90  1  0  0  0
  5  6  1  0  0  0
  5 26  1  0  0  0
  5 91  1  0  0  0
  6 25  1  0  0  0
  6 92  1  0  0  0
  6 93  1  0  0  0
  7  8  2  0  0  0
  7 26  1  0  0  0
  7 29  1  0  0  0
  8  9  1  0  0  0
  8 22  1  0  0  0
  9 10  1  0  0  0
  9 27  2  0  0  0
 10 11  2  0  0  0
 10 15  1  0  0  0
 11 12  1  0  0  0
 11 94  1  0  0  0
 12 13  2  0  0  0
 12 95  1  0  0  0
 13 14  1  0  0  0
 13 31  1  0  0  0
 14 15  2  0  0  0
 14 96  1  0  0  0
 15 97  1  0  0  0
 16 17  2  0  0  0
 16 21  1  0  0  0
 16 31  1  0  0  0
 17 18  1  0  0  0
 17 98  1  0  0  0
 18 19  2  0  0  0
 18 99  1  0  0  0
 19 20  1  0  0  0
 19 24  1  0  0  0
 20 21  2  0  0  0
 20100  1  0  0  0
 21 23  1  0  0  0
 22 28  1  0  0  0
 22 32  2  0  0  0
 26 27  1  0  0  0
 28101  1  0  0  0
 28102  1  0  0  0
 29103  1  0  0  0
 29104  1  0  0  0
 33 34  1  0  0  0
 33 66  1  0  0  0
 33 70  2  0  0  0
 34 36  1  0  0  0
 34 59  1  0  0  0
 34105  1  0  0  0
 35 44  2  0  0  0
 35 45  1  0  0  0
 35 68  1  0  0  0
 36 56  1  0  0  0
 36106  1  0  0  0
 37 39  1  0  0  0
 37 47  1  0  0  0
 37 66  1  0  0  0
 37107  1  0  0  0
 38 43  2  0  0  0
 38 46  1  0  0  0
 38 47  1  0  0  0
 39 64  1  0  0  0
 39 67  2  0  0  0
 40 52  1  0  0  0
 40 53  2  0  0  0
 40 58  1  0  0  0
 41108  1  0  0  0
 41109  1  0  0  0
 41110  1  0  0  0
 41 48  1  0  0  0
 42 43  1  0  0  0
 42 66  1  0  0  0
 42111  1  0  0  0
 42112  1  0  0  0
 43 44  1  0  0  0
 44113  1  0  0  0
 45 46  2  0  0  0
 45114  1  0  0  0
 46115  1  0  0  0
 47116  1  0  0  0
 47117  1  0  0  0
 48 56  1  0  0  0
 48 65  1  0  0  0
 48118  1  0  0  0
 49 50  1  0  0  0
 49 53  1  0  0  0
 49 64  1  0  0  0
 49119  1  0  0  0
 50 51  1  0  0  0
 50120  1  0  0  0
 50121  1  0  0  0
 51 52  1  0  0  0
 51122  1  0  0  0
 51123  1  0  0  0
 52124  1  0  0  0
 52125  1  0  0  0
 53 54  1  0  0  0
 54 55  2  0  0  0
 54126  1  0  0  0
 55 57  1  0  0  0
 55127  1  0  0  0
 56 69  2  0  0  0
 57 58  2  0  0  0
 57128  1  0  0  0
 58129  1  0  0  0
 59 60  1  0  0  0
 59 61  1  0  0  0
 59 62  1  0  0  0
 60130  1  0  0  0
 60131  1  0  0  0
 60132  1  0  0  0
 61133  1  0  0  0
 61134  1  0  0  0
 61135  1  0  0  0
 62136  1  0  0  0
 62137  1  0  0  0
 62138  1  0  0  0
 63 65  1  0  0  0
 63139  1  0  0  0
 63140  1  0  0  0
 63141  1  0  0  0
 64142  1  0  0  0
 65143  1  0  0  0
 68 80  1  0  0  0
 71 72  1  0  0  0
 71 73  2  0  0  0
 71144  1  0  0  0
 72 74  2  0  0  0
 72 84  1  0  0  0
 73 79  1  0  0  0
 73 83  1  0  0  0
 74 77  1  0  0  0
 74 83  1  0  0  0
 75 76  2  0  0  0
 75 80  1  0  0  0
 75145  1  0  0  0
 76 81  1  0  0  0
 76146  1  0  0  0
 77147  1  0  0  0
 77148  1  0  0  0
 77149  1  0  0  0
 78 82  1  0  0  0
 78150  1  0  0  0
 78151  1  0  0  0
 78152  1  0  0  0
 79 82  1  0  0  0
 79153  1  0  0  0
 79154  1  0  0  0
 80155  1  0  0  0
 80156  1  0  0  0
 81 84  1  0  0  0
 81157  1  0  0  0
 81158  1  0  0  0
M  ISO  4   1 100  68 101  80 101  82 100
M  END
> <chiral flag>
0

> <version>
0

> <s_m_source_file>
/data/baiqing/PycharmProjects/Reinvent-master-3.2/result/LINK_invent/BTK/process_docking_weight1_custom_product_contain_oxygen_bond_distance_aromatic_linkinvent_7_9_3/rearranged_h_0118.sdf

> <i_m_source_file_index>
18

> <r_mmod_Potential_Energy-OPLS-2005>
38.2704467773438

> <r_mmod_Stretch_Energy-OPLS-2005>
36.3363418579102

> <r_mmod_Bend_Energy-OPLS-2005>
110.30948638916

> <r_mmod_Torsional_Energy-OPLS-2005>
269.723052978516

> <r_mmod_Improper_Torsional_Energy-OPLS-2005>
15.6094331741333

> <r_mmod_Van_der_Waal_Energy-OPLS-2005>
133.710021972656

> <r_mmod_Electrostatic_Energy-OPLS-2005>
-343.005432128906

> <r_mmod_Solvation_Energy-OPLS-2005>
-201.430511474609

> <b_mmod_Minimization_Converged-OPLS-2005>
0

> <r_mmod_RMS_Derivative-OPLS-2005>
1.78957033157349

$$$$
18
                    3D
 Structure written by MMmdl.
158166  0  0  1  0            999 V2000
  -30.6864  -14.4828   20.5702 C   0  0  0  0  0  0
  -30.4283  -12.3108   19.4243 C   0  0  0  0  0  0
  -29.4992  -12.5118   18.2083 C   0  0  0  0  0  0
  -28.0188  -12.3709   18.6171 C   0  0  0  0  0  0
  -27.6638  -13.2048   19.8768 C   0  0  2  0  0  0
  -28.7045  -12.9765   20.9967 C   0  0  0  0  0  0
  -25.2589  -13.8145   20.5661 C   0  0  0  0  0  0
  -24.1837  -13.0431   20.9161 C   0  0  0  0  0  0
  -24.6388  -11.6899   20.8717 C   0  0  0  0  0  0
  -23.9053  -10.4291   21.0385 C   0  0  0  0  0  0
  -24.3601   -9.4213   21.9169 C   0  0  0  0  0  0
  -23.6278   -8.2254   22.0745 C   0  0  0  0  0  0
  -22.4260   -8.0287   21.3542 C   0  0  0  0  0  0
  -21.9896   -9.0255   20.4637 C   0  0  0  0  0  0
  -22.7227  -10.2129   20.3034 C   0  0  0  0  0  0
  -21.6859   -6.0727   22.5276 C   0  0  0  0  0  0
  -21.4018   -6.5629   23.8213 C   0  0  0  0  0  0
  -21.3650   -5.6783   24.9173 C   0  0  0  0  0  0
  -21.6036   -4.3047   24.7230 C   0  0  0  0  0  0
  -21.8823   -3.8137   23.4352 C   0  0  0  0  0  0
  -21.9197   -4.6955   22.3405 C   0  0  0  0  0  0
  -22.7866  -13.5245   21.1842 C   0  0  0  0  0  0
  -22.1667   -4.2137   21.0983 F   0  0  0  0  0  0
  -21.5619   -3.4533   25.7745 F   0  0  0  0  0  0
  -30.0380  -13.2897   20.4512 N   0  0  0  0  0  0
  -26.3034  -12.9315   20.3364 N   0  0  0  0  0  0
  -25.9314  -11.6475   20.5739 N   0  0  0  0  0  0
  -22.0490  -12.8241   22.0389 N   0  0  0  0  0  0
  -25.4300  -15.1852   20.4065 N   0  0  0  0  0  0
  -31.8096  -14.6725   20.0966 O   0  0  0  0  0  0
  -21.6637   -6.8876   21.4242 O   0  0  0  0  0  0
  -22.3561  -14.5568   20.6718 O   0  0  0  0  0  0
  -24.6149  -31.8678   23.2097 C   0  0  0  0  0  0
  -25.9045  -32.4816   23.8392 C   0  0  1  0  0  0
  -27.2365  -27.4354   20.1037 C   0  0  0  0  0  0
  -25.5905  -33.8612   24.2327 N   0  0  0  0  0  0
  -23.4035  -30.4906   21.5490 C   0  0  2  0  0  0
  -24.8530  -28.9528   20.1164 C   0  0  0  0  0  0
  -22.7410  -29.4661   22.4982 C   0  0  0  0  0  0
  -18.0280  -28.1388   22.8487 C   0  0  0  0  0  0
  -24.1478  -36.7293   23.2638 C   0  0  0  0  0  0
  -25.9316  -30.8333   21.3634 C   0  0  0  0  0  0
  -26.0109  -29.4649   20.7172 C   0  0  0  0  0  0
  -27.2073  -28.7111   20.7143 C   0  0  0  0  0  0
  -26.0692  -26.9376   19.4939 C   0  0  0  0  0  0
  -24.8757  -27.6859   19.5044 C   0  0  0  0  0  0
  -23.6140  -29.8206   20.1641 C   0  0  0  0  0  0
  -25.4096  -36.3092   24.0337 C   0  0  1  0  0  0
  -20.5867  -28.3676   23.1308 C   0  0  2  0  0  0
  -20.6768  -26.9409   22.5417 C   0  0  0  0  0  0
  -19.5748  -26.6392   21.5210 C   0  0  0  0  0  0
  -18.1923  -26.7933   22.1617 C   0  0  0  0  0  0
  -19.1527  -28.8843   23.2899 C   0  0  0  0  0  0
  -18.9459  -30.1443   23.8926 C   0  0  0  0  0  0
  -17.6463  -30.6583   24.0578 C   0  0  0  0  0  0
  -25.9033  -34.9464   23.5126 C   0  0  0  0  0  0
  -16.5355  -29.9097   23.6320 C   0  0  0  0  0  0
  -16.7270  -28.6512   23.0341 C   0  0  0  0  0  0
  -26.4472  -31.6585   25.0714 C   0  0  0  0  0  0
  -25.3743  -31.3686   26.1467 C   0  0  0  0  0  0
  -27.0304  -30.3033   24.6073 C   0  0  0  0  0  0
  -27.6048  -32.4297   25.7487 C   0  0  0  0  0  0
  -27.5567  -37.1799   24.8464 C   0  0  0  0  0  0
  -21.4140  -29.3037   22.3706 N   0  0  0  0  0  0
  -26.4274  -37.3782   23.9416 N   0  0  0  0  0  0
  -24.6681  -31.0780   22.0996 N   0  0  0  0  0  0
  -23.4177  -28.8208   23.3033 O   0  0  0  0  0  0
  -28.3800  -26.6701   20.0710 O   0  0  0  0  0  0
  -26.5597  -34.8921   22.4688 O   0  0  0  0  0  0
  -23.5342  -32.1440   23.7488 O   0  0  0  0  0  0
  -28.9261  -19.0777   21.3869 C   0  0  0  0  0  0
  -31.0333  -17.5749   20.3219 C   0  0  0  0  0  0
  -28.9444  -17.6683   21.5769 C   0  0  0  0  0  0
  -30.0036  -16.8925   21.0182 C   0  0  0  0  0  0
  -29.9480  -19.7518   20.6751 C   0  0  0  0  0  0
  -31.0039  -18.9747   20.1550 C   0  0  0  0  0  0
  -26.6756  -17.5691   22.6913 C   0  0  0  0  0  0
  -27.8440  -17.0122   22.3240 C   0  0  0  0  0  0
  -28.2088  -24.4494   21.2282 C   0  0  0  0  0  0
  -29.2553  -23.4541   20.6608 C   0  0  0  0  0  0
  -28.6464  -25.9399   21.2752 C   0  0  0  0  0  0
  -28.9347  -21.9615   20.9455 C   0  0  0  0  0  0
  -29.9633  -15.4583   21.1628 N   0  0  0  0  0  0
  -29.9880  -21.1238   20.4541 O   0  0  0  0  0  0
  -32.0060  -19.5807   19.4727 F   0  0  0  0  0  0
  -31.4721  -12.4128   19.1227 H   0  0  0  0  0  0
  -30.3305  -11.2973   19.8175 H   0  0  0  0  0  0
  -29.7400  -11.7915   17.4253 H   0  0  0  0  0  0
  -29.6682  -13.4992   17.7765 H   0  0  0  0  0  0
  -27.8265  -11.3146   18.8052 H   0  0  0  0  0  0
  -27.3725  -12.6531   17.7853 H   0  0  0  0  0  0
  -27.7096  -14.2542   19.5848 H   0  0  0  0  0  0
  -28.6820  -11.9361   21.3246 H   0  0  0  0  0  0
  -28.4579  -13.5604   21.8841 H   0  0  0  0  0  0
  -25.2739   -9.5695   22.4751 H   0  0  0  0  0  0
  -23.9986   -7.4642   22.7460 H   0  0  0  0  0  0
  -21.0830   -8.8769   19.8936 H   0  0  0  0  0  0
  -22.3686  -10.9663   19.6139 H   0  0  0  0  0  0
  -21.2018   -7.6135   23.9718 H   0  0  0  0  0  0
  -21.1456   -6.0507   25.9074 H   0  0  0  0  0  0
  -22.0608   -2.7601   23.2863 H   0  0  0  0  0  0
  -22.4092  -11.9900   22.4774 H   0  0  0  0  0  0
  -21.1098  -13.1272   22.2558 H   0  0  0  0  0  0
  -24.6729  -15.8436   20.5474 H   0  0  0  0  0  0
  -26.3000  -15.6358   20.1526 H   0  0  0  0  0  0
  -26.7126  -32.5540   23.1168 H   0  0  0  0  0  0
  -25.0062  -33.9773   25.0475 H   0  0  0  0  0  0
  -22.6921  -31.3070   21.4081 H   0  0  0  0  0  0
  -23.3738  -35.9629   23.3310 H   0  0  0  0  0  0
  -24.3576  -36.8898   22.2051 H   0  0  0  0  0  0
  -23.7237  -37.6499   23.6655 H   0  0  0  0  0  0
  -26.0418  -31.5952   20.5901 H   0  0  0  0  0  0
  -26.8205  -30.8925   21.9797 H   0  0  0  0  0  0
  -28.1027  -29.1021   21.1777 H   0  0  0  0  0  0
  -26.0853  -25.9668   19.0190 H   0  0  0  0  0  0
  -23.9858  -27.2831   19.0403 H   0  0  0  0  0  0
  -23.7240  -30.5954   19.4045 H   0  0  0  0  0  0
  -22.7381  -29.2410   19.8673 H   0  0  0  0  0  0
  -25.1269  -36.1948   25.0830 H   0  0  0  0  0  0
  -20.9968  -28.3260   24.1425 H   0  0  0  0  0  0
  -20.5661  -26.2293   23.3612 H   0  0  0  0  0  0
  -21.6645  -26.7451   22.1218 H   0  0  0  0  0  0
  -19.6912  -25.6307   21.1228 H   0  0  0  0  0  0
  -19.6676  -27.3215   20.6749 H   0  0  0  0  0  0
  -17.4193  -26.6685   21.4020 H   0  0  0  0  0  0
  -18.0319  -26.0070   22.9007 H   0  0  0  0  0  0
  -19.7938  -30.7243   24.2314 H   0  0  0  0  0  0
  -17.5025  -31.6260   24.5190 H   0  0  0  0  0  0
  -15.5360  -30.3017   23.7619 H   0  0  0  0  0  0
  -15.8668  -28.0842   22.7046 H   0  0  0  0  0  0
  -24.5917  -30.7030   25.7809 H   0  0  0  0  0  0
  -24.8934  -32.2840   26.4923 H   0  0  0  0  0  0
  -25.8099  -30.8853   27.0220 H   0  0  0  0  0  0
  -26.2843  -29.6797   24.1134 H   0  0  0  0  0  0
  -27.4102  -29.7258   25.4510 H   0  0  0  0  0  0
  -27.8662  -30.4363   23.9199 H   0  0  0  0  0  0
  -27.2668  -33.3586   26.2093 H   0  0  0  0  0  0
  -28.3850  -32.6869   25.0311 H   0  0  0  0  0  0
  -28.0725  -31.8403   26.5384 H   0  0  0  0  0  0
  -28.2586  -38.0093   24.7512 H   0  0  0  0  0  0
  -28.1056  -36.2627   24.6276 H   0  0  0  0  0  0
  -27.2292  -37.1441   25.8869 H   0  0  0  0  0  0
  -20.9309  -29.8750   21.6912 H   0  0  0  0  0  0
  -26.0151  -38.2850   24.1436 H   0  0  0  0  0  0
  -28.1174  -19.6532   21.8046 H   0  0  0  0  0  0
  -31.8682  -17.0508   19.8855 H   0  0  0  0  0  0
  -25.9506  -16.9914   23.2474 H   0  0  0  0  0  0
  -26.4044  -18.5869   22.4566 H   0  0  0  0  0  0
  -27.9938  -15.9865   22.6261 H   0  0  0  0  0  0
  -27.9989  -24.1487   22.2552 H   0  0  0  0  0  0
  -27.2604  -24.3503   20.6996 H   0  0  0  0  0  0
  -30.2278  -23.6795   21.1001 H   0  0  0  0  0  0
  -29.3640  -23.6133   19.5873 H   0  0  0  0  0  0
  -29.7126  -26.0089   21.4922 H   0  0  0  0  0  0
  -28.1557  -26.4229   22.1226 H   0  0  0  0  0  0
  -27.9901  -21.6841   20.4750 H   0  0  0  0  0  0
  -28.8254  -21.8188   22.0214 H   0  0  0  0  0  0
  -29.1211  -15.1082   21.5915 H   0  0  0  0  0  0
  1 25  1  0  0  0
  1 30  2  0  0  0
  1 83  1  0  0  0
  2  3  1  0  0  0
  2 25  1  0  0  0
  2 86  1  0  0  0
  2 87  1  0  0  0
  3  4  1  0  0  0
  3 88  1  0  0  0
  3 89  1  0  0  0
  4  5  1  0  0  0
  4 90  1  0  0  0
  4 91  1  0  0  0
  5  6  1  0  0  0
  5 26  1  0  0  0
  5 92  1  0  0  0
  6 25  1  0  0  0
  6 93  1  0  0  0
  6 94  1  0  0  0
  7  8  2  0  0  0
  7 26  1  0  0  0
  7 29  1  0  0  0
  8  9  1  0  0  0
  8 22  1  0  0  0
  9 10  1  0  0  0
  9 27  2  0  0  0
 10 11  2  0  0  0
 10 15  1  0  0  0
 11 12  1  0  0  0
 11 95  1  0  0  0
 12 13  2  0  0  0
 12 96  1  0  0  0
 13 14  1  0  0  0
 13 31  1  0  0  0
 14 15  2  0  0  0
 14 97  1  0  0  0
 15 98  1  0  0  0
 16 17  2  0  0  0
 16 21  1  0  0  0
 16 31  1  0  0  0
 17 18  1  0  0  0
 17 99  1  0  0  0
 18 19  2  0  0  0
 18100  1  0  0  0
 19 20  1  0  0  0
 19 24  1  0  0  0
 20 21  2  0  0  0
 20101  1  0  0  0
 21 23  1  0  0  0
 22 28  1  0  0  0
 22 32  2  0  0  0
 26 27  1  0  0  0
 28102  1  0  0  0
 28103  1  0  0  0
 29104  1  0  0  0
 29105  1  0  0  0
 33 34  1  0  0  0
 33 66  1  0  0  0
 33 70  2  0  0  0
 34 36  1  0  0  0
 34 59  1  0  0  0
 34106  1  0  0  0
 35 44  2  0  0  0
 35 45  1  0  0  0
 35 68  1  0  0  0
 36 56  1  0  0  0
 36107  1  0  0  0
 37 39  1  0  0  0
 37 47  1  0  0  0
 37 66  1  0  0  0
 37108  1  0  0  0
 38 43  2  0  0  0
 38 46  1  0  0  0
 38 47  1  0  0  0
 39 64  1  0  0  0
 39 67  2  0  0  0
 40 52  1  0  0  0
 40 53  2  0  0  0
 40 58  1  0  0  0
 41109  1  0  0  0
 41110  1  0  0  0
 41111  1  0  0  0
 41 48  1  0  0  0
 42 43  1  0  0  0
 42 66  1  0  0  0
 42112  1  0  0  0
 42113  1  0  0  0
 43 44  1  0  0  0
 44114  1  0  0  0
 45 46  2  0  0  0
 45115  1  0  0  0
 46116  1  0  0  0
 47117  1  0  0  0
 47118  1  0  0  0
 48 56  1  0  0  0
 48 65  1  0  0  0
 48119  1  0  0  0
 49 50  1  0  0  0
 49 53  1  0  0  0
 49 64  1  0  0  0
 49120  1  0  0  0
 50 51  1  0  0  0
 50121  1  0  0  0
 50122  1  0  0  0
 51 52  1  0  0  0
 51123  1  0  0  0
 51124  1  0  0  0
 52125  1  0  0  0
 52126  1  0  0  0
 53 54  1  0  0  0
 54 55  2  0  0  0
 54127  1  0  0  0
 55 57  1  0  0  0
 55128  1  0  0  0
 56 69  2  0  0  0
 57 58  2  0  0  0
 57129  1  0  0  0
 58130  1  0  0  0
 59 60  1  0  0  0
 59 61  1  0  0  0
 59 62  1  0  0  0
 60131  1  0  0  0
 60132  1  0  0  0
 60133  1  0  0  0
 61134  1  0  0  0
 61135  1  0  0  0
 61136  1  0  0  0
 62137  1  0  0  0
 62138  1  0  0  0
 62139  1  0  0  0
 63 65  1  0  0  0
 63140  1  0  0  0
 63141  1  0  0  0
 63142  1  0  0  0
 64143  1  0  0  0
 65144  1  0  0  0
 68 81  1  0  0  0
 71 73  2  0  0  0
 71 75  1  0  0  0
 71145  1  0  0  0
 72 74  2  0  0  0
 72 76  1  0  0  0
 72146  1  0  0  0
 73 74  1  0  0  0
 73 78  1  0  0  0
 74 83  1  0  0  0
 75 76  2  0  0  0
 75 84  1  0  0  0
 76 85  1  0  0  0
 77 78  2  0  0  0
 77147  1  0  0  0
 77148  1  0  0  0
 78149  1  0  0  0
 79 80  1  0  0  0
 79 81  1  0  0  0
 79150  1  0  0  0
 79151  1  0  0  0
 80 82  1  0  0  0
 80152  1  0  0  0
 80153  1  0  0  0
 81154  1  0  0  0
 81155  1  0  0  0
 82 84  1  0  0  0
 82156  1  0  0  0
 82157  1  0  0  0
 83158  1  0  0  0
M  ISO  4   1 100  68 101  81 101  83 100
M  END
> <chiral flag>
0

> <version>
0

> <s_m_source_file>
/data/baiqing/PycharmProjects/Reinvent-master-3.2/result/LINK_invent/BTK/process_docking_weight1_custom_product_contain_oxygen_bond_distance_aromatic_linkinvent_7_9_3/rearranged_h_0118.sdf

> <i_m_source_file_index>
19

> <r_mmod_Potential_Energy-OPLS-2005>
-16.9548473358154

> <r_mmod_Stretch_Energy-OPLS-2005>
41.776008605957

> <r_mmod_Bend_Energy-OPLS-2005>
109.530906677246

> <r_mmod_Torsional_Energy-OPLS-2005>
239.141326904297

> <r_mmod_Improper_Torsional_Energy-OPLS-2005>
3.28620719909668

> <r_mmod_Van_der_Waal_Energy-OPLS-2005>
155.269409179688

> <r_mmod_Electrostatic_Energy-OPLS-2005>
-372.859802246094

> <r_mmod_Solvation_Energy-OPLS-2005>
-205.40771484375

> <b_mmod_Minimization_Converged-OPLS-2005>
0

> <r_mmod_RMS_Derivative-OPLS-2005>
1.26698184013367

$$$$
19
                    3D
 Structure written by MMmdl.
157166  0  0  1  0            999 V2000
  -30.7254  -14.4929   20.5387 C   0  0  0  0  0  0
  -30.4091  -12.3035   19.4457 C   0  0  0  0  0  0
  -29.4989  -12.5086   18.2183 C   0  0  0  0  0  0
  -28.0179  -12.3714   18.6194 C   0  0  0  0  0  0
  -27.6576  -13.2205   19.8687 C   0  0  2  0  0  0
  -28.6984  -13.0439   20.9958 C   0  0  0  0  0  0
  -25.2564  -13.8193   20.5683 C   0  0  0  0  0  0
  -24.1825  -13.0455   20.9167 C   0  0  0  0  0  0
  -24.6394  -11.6927   20.8717 C   0  0  0  0  0  0
  -23.9063  -10.4305   21.0389 C   0  0  0  0  0  0
  -24.3620   -9.4227   21.9176 C   0  0  0  0  0  0
  -23.6300   -8.2257   22.0748 C   0  0  0  0  0  0
  -22.4278   -8.0286   21.3543 C   0  0  0  0  0  0
  -21.9910   -9.0253   20.4641 C   0  0  0  0  0  0
  -22.7230  -10.2139   20.3046 C   0  0  0  0  0  0
  -21.6853   -6.0740   22.5272 C   0  0  0  0  0  0
  -21.4011   -6.5644   23.8207 C   0  0  0  0  0  0
  -21.3664   -5.6797   24.9170 C   0  0  0  0  0  0
  -21.6047   -4.3056   24.7217 C   0  0  0  0  0  0
  -21.8819   -3.8150   23.4338 C   0  0  0  0  0  0
  -21.9197   -4.6969   22.3396 C   0  0  0  0  0  0
  -22.7845  -13.5242   21.1843 C   0  0  0  0  0  0
  -22.1662   -4.2155   21.0974 F   0  0  0  0  0  0
  -21.5641   -3.4543   25.7734 F   0  0  0  0  0  0
  -30.0327  -13.3214   20.4428 N   0  0  0  0  0  0
  -26.3005  -12.9385   20.3342 N   0  0  0  0  0  0
  -25.9326  -11.6529   20.5748 N   0  0  0  0  0  0
  -22.0496  -12.8225   22.0401 N   0  0  0  0  0  0
  -25.4310  -15.1914   20.4117 N   0  0  0  0  0  0
  -31.8798  -14.5496   20.1020 O   0  0  0  0  0  0
  -21.6648   -6.8881   21.4234 O   0  0  0  0  0  0
  -22.3522  -14.5552   20.6709 O   0  0  0  0  0  0
  -24.6156  -31.8685   23.2100 C   0  0  0  0  0  0
  -25.9045  -32.4827   23.8399 C   0  0  1  0  0  0
  -27.2289  -27.4190   20.1004 C   0  0  0  0  0  0
  -25.5894  -33.8625   24.2327 N   0  0  0  0  0  0
  -23.4038  -30.4934   21.5519 C   0  0  2  0  0  0
  -24.8491  -28.9638   20.1128 C   0  0  0  0  0  0
  -22.7419  -29.4665   22.4991 C   0  0  0  0  0  0
  -18.0273  -28.1388   22.8482 C   0  0  0  0  0  0
  -24.1484  -36.7315   23.2637 C   0  0  0  0  0  0
  -25.9348  -30.8319   21.3639 C   0  0  0  0  0  0
  -26.0125  -29.4670   20.7077 C   0  0  0  0  0  0
  -27.2064  -28.7048   20.6940 C   0  0  0  0  0  0
  -26.0422  -26.9438   19.4893 C   0  0  0  0  0  0
  -24.8603  -27.7031   19.4984 C   0  0  0  0  0  0
  -23.6109  -29.8298   20.1656 C   0  0  0  0  0  0
  -25.4107  -36.3116   24.0336 C   0  0  1  0  0  0
  -20.5864  -28.3674   23.1311 C   0  0  2  0  0  0
  -20.6768  -26.9407   22.5418 C   0  0  0  0  0  0
  -19.5746  -26.6383   21.5217 C   0  0  0  0  0  0
  -18.1920  -26.7935   22.1620 C   0  0  0  0  0  0
  -19.1523  -28.8848   23.2894 C   0  0  0  0  0  0
  -18.9452  -30.1457   23.8902 C   0  0  0  0  0  0
  -17.6453  -30.6590   24.0570 C   0  0  0  0  0  0
  -25.9033  -34.9480   23.5130 C   0  0  0  0  0  0
  -16.5345  -29.9092   23.6332 C   0  0  0  0  0  0
  -16.7262  -28.6516   23.0336 C   0  0  0  0  0  0
  -26.4458  -31.6599   25.0729 C   0  0  0  0  0  0
  -25.3714  -31.3707   26.1469 C   0  0  0  0  0  0
  -27.0286  -30.3039   24.6109 C   0  0  0  0  0  0
  -27.6040  -32.4306   25.7497 C   0  0  0  0  0  0
  -27.5580  -37.1812   24.8461 C   0  0  0  0  0  0
  -21.4146  -29.3039   22.3724 N   0  0  0  0  0  0
  -26.4292  -37.3799   23.9408 N   0  0  0  0  0  0
  -24.6702  -31.0782   22.1006 N   0  0  0  0  0  0
  -23.4184  -28.8204   23.3035 O   0  0  0  0  0  0
  -28.3811  -26.6481   20.1435 O   0  0  0  0  0  0
  -26.5603  -34.8928   22.4696 O   0  0  0  0  0  0
  -23.5345  -32.1446   23.7488 O   0  0  0  0  0  0
  -28.7715  -18.5395   21.2931 C   0  0  0  0  0  0
  -28.6699  -19.9719   21.2821 C   0  0  0  0  0  0
  -30.0525  -18.0872   21.1017 C   0  0  0  0  0  0
  -29.8693  -20.6233   21.0870 C   0  0  0  0  0  0
  -30.6375  -24.7676   20.2661 C   0  0  0  0  0  0
  -29.3800  -24.3728   20.5417 C   0  0  0  0  0  0
  -31.7864  -23.9029   20.5642 C   0  0  0  0  0  0
  -30.6013  -16.7393   20.9545 C   0  0  0  0  0  0
  -31.5320  -22.4812   21.0940 C   0  0  0  0  0  0
  -29.0686  -23.0068   21.1837 C   0  0  2  0  0  0
  -28.7803  -23.1891   22.6845 C   0  0  0  0  0  0
  -28.1697  -25.2182   20.1399 C   0  0  0  0  0  0
  -29.9885  -15.6044   20.9833 N   0  0  0  0  0  0
  -30.1395  -22.0128   20.9873 N   0  0  0  0  0  0
  -32.9485  -24.2807   20.3989 O   0  0  0  0  0  0
  -31.1550  -19.4351   20.9479 S   0  0  0  0  0  0
  -31.4584  -12.3539   19.1503 H   0  0  0  0  0  0
  -30.2719  -11.3030   19.8603 H   0  0  0  0  0  0
  -29.7435  -11.7863   17.4387 H   0  0  0  0  0  0
  -29.6754  -13.4957   17.7881 H   0  0  0  0  0  0
  -27.8261  -11.3163   18.8166 H   0  0  0  0  0  0
  -27.3745  -12.6459   17.7829 H   0  0  0  0  0  0
  -27.6913  -14.2644   19.5560 H   0  0  0  0  0  0
  -28.6686  -12.0258   21.3862 H   0  0  0  0  0  0
  -28.4651  -13.6939   21.8408 H   0  0  0  0  0  0
  -25.2762   -9.5719   22.4752 H   0  0  0  0  0  0
  -24.0019   -7.4653   22.7462 H   0  0  0  0  0  0
  -21.0848   -8.8752   19.8946 H   0  0  0  0  0  0
  -22.3670  -10.9672   19.6157 H   0  0  0  0  0  0
  -21.1985   -7.6149   23.9712 H   0  0  0  0  0  0
  -21.1496   -6.0525   25.9075 H   0  0  0  0  0  0
  -22.0596   -2.7613   23.2834 H   0  0  0  0  0  0
  -22.4116  -11.9888   22.4791 H   0  0  0  0  0  0
  -21.1109  -13.1239   22.2606 H   0  0  0  0  0  0
  -24.6776  -15.8597   20.5307 H   0  0  0  0  0  0
  -26.3056  -15.6216   20.1354 H   0  0  0  0  0  0
  -26.7123  -32.5531   23.1167 H   0  0  0  0  0  0
  -25.0029  -33.9796   25.0461 H   0  0  0  0  0  0
  -22.6932  -31.3111   21.4152 H   0  0  0  0  0  0
  -23.3748  -35.9645   23.3305 H   0  0  0  0  0  0
  -24.3577  -36.8930   22.2050 H   0  0  0  0  0  0
  -23.7233  -37.6518   23.6652 H   0  0  0  0  0  0
  -26.0469  -31.5990   20.5964 H   0  0  0  0  0  0
  -26.8225  -30.8849   21.9823 H   0  0  0  0  0  0
  -28.1023  -29.0882   21.1624 H   0  0  0  0  0  0
  -25.9999  -25.9823   19.0002 H   0  0  0  0  0  0
  -23.9666  -27.3121   19.0318 H   0  0  0  0  0  0
  -23.7165  -30.6062   19.4072 H   0  0  0  0  0  0
  -22.7346  -29.2496   19.8700 H   0  0  0  0  0  0
  -25.1284  -36.1982   25.0830 H   0  0  0  0  0  0
  -20.9947  -28.3240   24.1436 H   0  0  0  0  0  0
  -20.5673  -26.2283   23.3610 H   0  0  0  0  0  0
  -21.6641  -26.7459   22.1207 H   0  0  0  0  0  0
  -19.6906  -25.6293   21.1246 H   0  0  0  0  0  0
  -19.6688  -27.3199   20.6754 H   0  0  0  0  0  0
  -17.4192  -26.6685   21.4019 H   0  0  0  0  0  0
  -18.0315  -26.0080   22.9017 H   0  0  0  0  0  0
  -19.7929  -30.7277   24.2259 H   0  0  0  0  0  0
  -17.5012  -31.6271   24.5169 H   0  0  0  0  0  0
  -15.5350  -30.2998   23.7658 H   0  0  0  0  0  0
  -15.8660  -28.0853   22.7028 H   0  0  0  0  0  0
  -24.5888  -30.7060   25.7791 H   0  0  0  0  0  0
  -24.8901  -32.2863   26.4918 H   0  0  0  0  0  0
  -25.8046  -30.8863   27.0228 H   0  0  0  0  0  0
  -26.2843  -29.6818   24.1121 H   0  0  0  0  0  0
  -27.4009  -29.7254   25.4574 H   0  0  0  0  0  0
  -27.8695  -30.4359   23.9297 H   0  0  0  0  0  0
  -27.2668  -33.3589   26.2120 H   0  0  0  0  0  0
  -28.3828  -32.6889   25.0310 H   0  0  0  0  0  0
  -28.0729  -31.8397   26.5374 H   0  0  0  0  0  0
  -28.2596  -38.0112   24.7518 H   0  0  0  0  0  0
  -28.1079  -36.2645   24.6271 H   0  0  0  0  0  0
  -27.2304  -37.1441   25.8867 H   0  0  0  0  0  0
  -20.9303  -29.8768   21.6956 H   0  0  0  0  0  0
  -26.0181  -38.2874   24.1422 H   0  0  0  0  0  0
  -27.9088  -17.9008   21.4161 H   0  0  0  0  0  0
  -27.7147  -20.4607   21.4082 H   0  0  0  0  0  0
  -30.8299  -25.7167   19.7895 H   0  0  0  0  0  0
  -31.6812  -16.7836   20.7764 H   0  0  0  0  0  0
  -31.8499  -22.4383   22.1365 H   0  0  0  0  0  0
  -32.1974  -21.8252   20.5334 H   0  0  0  0  0  0
  -28.1701  -22.6310   20.6907 H   0  0  0  0  0  0
  -29.6521  -23.5777   23.2136 H   0  0  0  0  0  0
  -28.5025  -22.2483   23.1602 H   0  0  0  0  0  0
  -27.9603  -23.8875   22.8546 H   0  0  0  0  0  0
  -27.3561  -24.9782   20.8269 H   0  0  0  0  0  0
  -27.8714  -24.8827   19.1460 H   0  0  0  0  0  0
  1 25  1  0  0  0
  1 30  2  0  0  0
  1 83  1  0  0  0
  2  3  1  0  0  0
  2 25  1  0  0  0
  2 87  1  0  0  0
  2 88  1  0  0  0
  3  4  1  0  0  0
  3 89  1  0  0  0
  3 90  1  0  0  0
  4  5  1  0  0  0
  4 91  1  0  0  0
  4 92  1  0  0  0
  5  6  1  0  0  0
  5 26  1  0  0  0
  5 93  1  0  0  0
  6 25  1  0  0  0
  6 94  1  0  0  0
  6 95  1  0  0  0
  7  8  2  0  0  0
  7 26  1  0  0  0
  7 29  1  0  0  0
  8  9  1  0  0  0
  8 22  1  0  0  0
  9 10  1  0  0  0
  9 27  2  0  0  0
 10 11  2  0  0  0
 10 15  1  0  0  0
 11 12  1  0  0  0
 11 96  1  0  0  0
 12 13  2  0  0  0
 12 97  1  0  0  0
 13 14  1  0  0  0
 13 31  1  0  0  0
 14 15  2  0  0  0
 14 98  1  0  0  0
 15 99  1  0  0  0
 16 17  2  0  0  0
 16 21  1  0  0  0
 16 31  1  0  0  0
 17 18  1  0  0  0
 17100  1  0  0  0
 18 19  2  0  0  0
 18101  1  0  0  0
 19 20  1  0  0  0
 19 24  1  0  0  0
 20 21  2  0  0  0
 20102  1  0  0  0
 21 23  1  0  0  0
 22 28  1  0  0  0
 22 32  2  0  0  0
 26 27  1  0  0  0
 28103  1  0  0  0
 28104  1  0  0  0
 29105  1  0  0  0
 29106  1  0  0  0
 33 34  1  0  0  0
 33 66  1  0  0  0
 33 70  2  0  0  0
 34 36  1  0  0  0
 34 59  1  0  0  0
 34107  1  0  0  0
 35 44  2  0  0  0
 35 45  1  0  0  0
 35 68  1  0  0  0
 36 56  1  0  0  0
 36108  1  0  0  0
 37 39  1  0  0  0
 37 47  1  0  0  0
 37 66  1  0  0  0
 37109  1  0  0  0
 38 43  2  0  0  0
 38 46  1  0  0  0
 38 47  1  0  0  0
 39 64  1  0  0  0
 39 67  2  0  0  0
 40 52  1  0  0  0
 40 53  2  0  0  0
 40 58  1  0  0  0
 41110  1  0  0  0
 41111  1  0  0  0
 41112  1  0  0  0
 41 48  1  0  0  0
 42 43  1  0  0  0
 42 66  1  0  0  0
 42113  1  0  0  0
 42114  1  0  0  0
 43 44  1  0  0  0
 44115  1  0  0  0
 45 46  2  0  0  0
 45116  1  0  0  0
 46117  1  0  0  0
 47118  1  0  0  0
 47119  1  0  0  0
 48 56  1  0  0  0
 48 65  1  0  0  0
 48120  1  0  0  0
 49 50  1  0  0  0
 49 53  1  0  0  0
 49 64  1  0  0  0
 49121  1  0  0  0
 50 51  1  0  0  0
 50122  1  0  0  0
 50123  1  0  0  0
 51 52  1  0  0  0
 51124  1  0  0  0
 51125  1  0  0  0
 52126  1  0  0  0
 52127  1  0  0  0
 53 54  1  0  0  0
 54 55  2  0  0  0
 54128  1  0  0  0
 55 57  1  0  0  0
 55129  1  0  0  0
 56 69  2  0  0  0
 57 58  2  0  0  0
 57130  1  0  0  0
 58131  1  0  0  0
 59 60  1  0  0  0
 59 61  1  0  0  0
 59 62  1  0  0  0
 60132  1  0  0  0
 60133  1  0  0  0
 60134  1  0  0  0
 61135  1  0  0  0
 61136  1  0  0  0
 61137  1  0  0  0
 62138  1  0  0  0
 62139  1  0  0  0
 62140  1  0  0  0
 63 65  1  0  0  0
 63141  1  0  0  0
 63142  1  0  0  0
 63143  1  0  0  0
 64144  1  0  0  0
 65145  1  0  0  0
 68 82  1  0  0  0
 71 72  1  0  0  0
 71 73  2  0  0  0
 71146  1  0  0  0
 72 74  2  0  0  0
 72147  1  0  0  0
 73 78  1  0  0  0
 73 86  1  0  0  0
 74 84  1  0  0  0
 74 86  1  0  0  0
 75 76  2  0  0  0
 75 77  1  0  0  0
 75148  1  0  0  0
 76 80  1  0  0  0
 76 82  1  0  0  0
 77 79  1  0  0  0
 77 85  2  0  0  0
 78 83  2  0  0  0
 78149  1  0  0  0
 79 84  1  0  0  0
 79150  1  0  0  0
 79151  1  0  0  0
 80 81  1  0  0  0
 80 84  1  0  0  0
 80152  1  0  0  0
 81153  1  0  0  0
 81154  1  0  0  0
 81155  1  0  0  0
 82156  1  0  0  0
 82157  1  0  0  0
M  ISO  4   1 100  68 101  82 101  83 100
M  END
> <chiral flag>
0

> <version>
0

> <s_m_source_file>
/data/baiqing/PycharmProjects/Reinvent-master-3.2/result/LINK_invent/BTK/process_docking_weight1_custom_product_contain_oxygen_bond_distance_aromatic_linkinvent_7_9_3/rearranged_h_0118.sdf

> <i_m_source_file_index>
20

> <r_mmod_Potential_Energy-OPLS-2005>
-50.5813293457031

> <r_mmod_Stretch_Energy-OPLS-2005>
44.5417518615723

> <r_mmod_Bend_Energy-OPLS-2005>
105.725624084473

> <r_mmod_Torsional_Energy-OPLS-2005>
171.292282104492

> <r_mmod_Improper_Torsional_Energy-OPLS-2005>
4.68926858901978

> <r_mmod_Van_der_Waal_Energy-OPLS-2005>
163.339202880859

> <r_mmod_Electrostatic_Energy-OPLS-2005>
-349.561767578125

> <r_mmod_Solvation_Energy-OPLS-2005>
-210.194381713867

> <b_mmod_Minimization_Converged-OPLS-2005>
0

> <r_mmod_RMS_Derivative-OPLS-2005>
1.16109991073608

$$$$
20
                    3D
 Structure written by MMmdl.
157165  0  0  1  0            999 V2000
  -29.8403  -15.6513   20.2758 C   0  0  0  0  0  0
  -30.3531  -13.1204   19.5384 C   0  0  0  0  0  0
  -29.5148  -12.6363   18.3203 C   0  0  0  0  0  0
  -28.0857  -12.2544   18.7447 C   0  0  0  0  0  0
  -27.5311  -13.2557   19.7829 C   0  0  2  0  0  0
  -28.4962  -13.5299   20.9334 C   0  0  0  0  0  0
  -25.2051  -13.8153   20.5670 C   0  0  0  0  0  0
  -24.1492  -13.0367   20.9363 C   0  0  0  0  0  0
  -24.6148  -11.6859   20.8834 C   0  0  0  0  0  0
  -23.8927  -10.4240   21.0483 C   0  0  0  0  0  0
  -24.3547   -9.4162   21.9229 C   0  0  0  0  0  0
  -23.6250   -8.2182   22.0765 C   0  0  0  0  0  0
  -22.4234   -8.0231   21.3552 C   0  0  0  0  0  0
  -21.9847   -9.0187   20.4654 C   0  0  0  0  0  0
  -22.7141  -10.2081   20.3086 C   0  0  0  0  0  0
  -21.6829   -6.0709   22.5282 C   0  0  0  0  0  0
  -21.4000   -6.5628   23.8212 C   0  0  0  0  0  0
  -21.3649   -5.6788   24.9177 C   0  0  0  0  0  0
  -21.6039   -4.3050   24.7232 C   0  0  0  0  0  0
  -21.8820   -3.8135   23.4358 C   0  0  0  0  0  0
  -21.9187   -4.6943   22.3410 C   0  0  0  0  0  0
  -22.7552  -13.5161   21.2001 C   0  0  0  0  0  0
  -22.1660   -4.2136   21.0986 F   0  0  0  0  0  0
  -21.5628   -3.4534   25.7747 F   0  0  0  0  0  0
  -29.5935  -14.2235   20.2799 N   0  0  0  0  0  0
  -26.2264  -12.9314   20.2879 N   0  0  0  0  0  0
  -25.8996  -11.6474   20.5584 N   0  0  0  0  0  0
  -22.0204  -12.8167   22.0560 N   0  0  0  0  0  0
  -25.3731  -15.1886   20.4005 N   0  0  0  0  0  0
  -31.0854  -15.7774   20.1431 O   0  0  0  0  0  0
  -21.6610   -6.8837   21.4238 O   0  0  0  0  0  0
  -22.3287  -14.5469   20.6812 O   0  0  0  0  0  0
  -24.5730  -31.7274   22.9904 C   0  0  0  0  0  0
  -25.8652  -32.3924   23.6564 C   0  0  1  0  0  0
  -27.9461  -27.9598   20.1230 C   0  0  0  0  0  0
  -25.5227  -33.7825   24.0585 N   0  0  0  0  0  0
  -23.9844  -29.3389   22.5080 C   0  0  2  0  0  0
  -25.5886  -27.8054   20.0138 C   0  0  0  0  0  0
  -22.6509  -29.1523   23.0738 C   0  0  0  0  0  0
  -17.9604  -28.1485   22.8588 C   0  0  0  0  0  0
  -24.1481  -36.7047   23.2696 C   0  0  0  0  0  0
  -25.4790  -30.8162   20.5109 C   0  0  0  0  0  0
  -26.0741  -29.3251   19.6278 C   0  0  0  0  0  0
  -27.4840  -29.2048   19.6712 C   0  0  0  0  0  0
  -27.3499  -26.8863   19.3900 C   0  0  0  0  0  0
  -26.0129  -26.9343   19.1047 C   0  0  0  0  0  0
  -24.4897  -27.5776   21.7176 C   0  0  0  0  0  0
  -25.4192  -36.2624   24.0130 C   0  0  1  0  0  0
  -20.4004  -28.5185   22.6118 C   0  0  2  0  0  0
  -20.6113  -26.9957   22.5162 C   0  0  0  0  0  0
  -19.4980  -26.4583   21.6136 C   0  0  0  0  0  0
  -18.1075  -26.7746   22.1949 C   0  0  0  0  0  0
  -19.0840  -28.9395   23.1940 C   0  0  0  0  0  0
  -18.9260  -30.1768   23.8497 C   0  0  0  0  0  0
  -17.6308  -30.6656   24.0970 C   0  0  0  0  0  0
  -25.9114  -34.9077   23.4462 C   0  0  0  0  0  0
  -16.5075  -29.9092   23.7117 C   0  0  0  0  0  0
  -16.6715  -28.6473   23.1130 C   0  0  0  0  0  0
  -26.4242  -31.6791   24.9910 C   0  0  0  0  0  0
  -25.3402  -31.4259   26.0694 C   0  0  0  0  0  0
  -27.0970  -30.3237   24.7257 C   0  0  0  0  0  0
  -27.5425  -32.5274   25.6579 C   0  0  0  0  0  0
  -27.5533  -37.1587   24.8453 C   0  0  0  0  0  0
  -21.5069  -29.4422   22.4869 N   0  0  0  0  0  0
  -26.4248  -37.3473   23.9394 N   0  0  0  0  0  0
  -24.5656  -30.7837   21.9355 N   0  0  0  0  0  0
  -22.7211  -28.4704   24.0664 O   0  0  0  0  0  0
  -27.5048  -27.9776   21.4363 O   0  0  0  0  0  0
  -26.6231  -34.8890   22.4423 O   0  0  0  0  0  0
  -23.5199  -32.0006   23.5839 O   0  0  0  0  0  0
  -26.7690  -21.4798   20.1842 C   0  0  0  0  0  0
  -25.7989  -19.3818   19.5435 C   0  0  0  0  0  0
  -24.4880  -21.5917   19.4640 C   0  0  0  0  0  0
  -27.0282  -19.8754   20.0396 C   0  0  0  0  0  0
  -25.5012  -22.4713   19.9233 C   0  0  0  0  0  0
  -24.6312  -20.1740   19.2766 C   0  0  0  0  0  0
  -23.8362  -25.1675   19.9649 C   0  0  0  0  0  0
  -28.4160  -18.5960   20.2620 C   0  0  0  0  0  0
  -23.2900  -27.0173   19.5866 C   0  0  0  0  0  0
  -23.7352  -28.9970   20.1852 C   0  0  0  0  0  0
  -26.2565  -28.9730   21.8864 C   0  0  0  0  0  0
  -25.0645  -24.1700   19.9161 N   0  0  0  0  0  0
  -28.7598  -16.8148   20.2720 N   0  0  0  0  0  0
  -22.8471  -24.5666   20.3841 O   0  0  0  0  0  0
  -23.5547  -19.5175   18.7802 F   0  0  0  0  0  0
  -31.3105  -13.4955   19.1786 H   0  0  0  0  0  0
  -30.5964  -12.2943   20.2087 H   0  0  0  0  0  0
  -30.0038  -11.8005   17.8193 H   0  0  0  0  0  0
  -29.4580  -13.4434   17.5889 H   0  0  0  0  0  0
  -28.1161  -11.2566   19.1852 H   0  0  0  0  0  0
  -27.4290  -12.1884   17.8767 H   0  0  0  0  0  0
  -27.4003  -14.1801   19.2165 H   0  0  0  0  0  0
  -28.7916  -12.6190   21.4564 H   0  0  0  0  0  0
  -28.0389  -14.1925   21.6722 H   0  0  0  0  0  0
  -25.2688   -9.5653   22.4807 H   0  0  0  0  0  0
  -23.9968   -7.4565   22.7470 H   0  0  0  0  0  0
  -21.0784   -8.8687   19.8954 H   0  0  0  0  0  0
  -22.3599  -10.9624   19.6199 H   0  0  0  0  0  0
  -21.1994   -7.6137   23.9712 H   0  0  0  0  0  0
  -21.1467   -6.0520   25.9082 H   0  0  0  0  0  0
  -22.0613   -2.7597   23.2856 H   0  0  0  0  0  0
  -22.3820  -11.9833   22.4967 H   0  0  0  0  0  0
  -21.0817  -13.1186   22.2767 H   0  0  0  0  0  0
  -24.5472  -15.7765   20.4339 H   0  0  0  0  0  0
  -26.0617  -15.5345   19.7479 H   0  0  0  0  0  0
  -26.6558  -32.3989   22.9053 H   0  0  0  0  0  0
  -24.8846  -33.8689   24.8354 H   0  0  0  0  0  0
  -24.5127  -29.3748   23.4657 H   0  0  0  0  0  0
  -23.3758  -35.9351   23.3201 H   0  0  0  0  0  0
  -24.3464  -36.8998   22.2144 H   0  0  0  0  0  0
  -23.7244  -37.6112   23.7038 H   0  0  0  0  0  0
  -24.8879  -31.3841   19.7929 H   0  0  0  0  0  0
  -26.3274  -31.4820   20.6751 H   0  0  0  0  0  0
  -28.0611  -30.0909   19.8948 H   0  0  0  0  0  0
  -27.9716  -26.1048   18.9754 H   0  0  0  0  0  0
  -25.5845  -26.1001   18.5922 H   0  0  0  0  0  0
  -23.6168  -26.9455   21.8124 H   0  0  0  0  0  0
  -25.0734  -26.9573   22.4027 H   0  0  0  0  0  0
  -25.1502  -36.1133   25.0603 H   0  0  0  0  0  0
  -20.1350  -28.7504   21.5801 H   0  0  0  0  0  0
  -20.5892  -26.5335   23.5026 H   0  0  0  0  0  0
  -21.5597  -26.7328   22.0659 H   0  0  0  0  0  0
  -19.6071  -25.3834   21.4706 H   0  0  0  0  0  0
  -19.5914  -26.8937   20.6175 H   0  0  0  0  0  0
  -17.3505  -26.6548   21.4176 H   0  0  0  0  0  0
  -17.8756  -26.0356   22.9641 H   0  0  0  0  0  0
  -19.7861  -30.7858   24.0934 H   0  0  0  0  0  0
  -17.4983  -31.6299   24.5700 H   0  0  0  0  0  0
  -15.5133  -30.2891   23.9037 H   0  0  0  0  0  0
  -15.8003  -28.0652   22.8450 H   0  0  0  0  0  0
  -24.5670  -30.7400   25.7232 H   0  0  0  0  0  0
  -24.8435  -32.3515   26.3623 H   0  0  0  0  0  0
  -25.7661  -30.9894   26.9738 H   0  0  0  0  0  0
  -26.3604  -29.5381   24.6294 H   0  0  0  0  0  0
  -27.6986  -30.0076   25.5803 H   0  0  0  0  0  0
  -27.7896  -30.3517   23.8873 H   0  0  0  0  0  0
  -27.1728  -33.4851   26.0236 H   0  0  0  0  0  0
  -28.3479  -32.7401   24.9547 H   0  0  0  0  0  0
  -27.9853  -32.0268   26.5199 H   0  0  0  0  0  0
  -28.2490  -37.9934   24.7533 H   0  0  0  0  0  0
  -28.1075  -36.2453   24.6267 H   0  0  0  0  0  0
  -27.2232  -37.1198   25.8842 H   0  0  0  0  0  0
  -21.5230  -30.0293   21.6635 H   0  0  0  0  0  0
  -26.0008  -38.2475   24.1461 H   0  0  0  0  0  0
  -27.6482  -22.0016   20.5316 H   0  0  0  0  0  0
  -25.7401  -18.3235   19.3309 H   0  0  0  0  0  0
  -23.5386  -22.0259   19.1863 H   0  0  0  0  0  0
  -28.8277  -18.8973   21.2247 H   0  0  0  0  0  0
  -29.1573  -18.9622   19.5533 H   0  0  0  0  0  0
  -22.2164  -26.9583   19.7583 H   0  0  0  0  0  0
  -23.3363  -27.0623   18.4984 H   0  0  0  0  0  0
  -22.8258  -29.5081   20.4787 H   0  0  0  0  0  0
  -23.7862  -29.5109   19.2169 H   0  0  0  0  0  0
  -26.2363  -28.5482   22.8890 H   0  0  0  0  0  0
  -26.7910  -29.8931   22.1208 H   0  0  0  0  0  0
  -25.8970  -24.7378   19.8070 H   0  0  0  0  0  0
  -27.8653  -16.3505   20.3320 H   0  0  0  0  0  0
  1 25  1  0  0  0
  1 30  2  0  0  0
  1 83  1  0  0  0
  2  3  1  0  0  0
  2 25  1  0  0  0
  2 86  1  0  0  0
  2 87  1  0  0  0
  3  4  1  0  0  0
  3 88  1  0  0  0
  3 89  1  0  0  0
  4  5  1  0  0  0
  4 90  1  0  0  0
  4 91  1  0  0  0
  5  6  1  0  0  0
  5 26  1  0  0  0
  5 92  1  0  0  0
  6 25  1  0  0  0
  6 93  1  0  0  0
  6 94  1  0  0  0
  7  8  2  0  0  0
  7 26  1  0  0  0
  7 29  1  0  0  0
  8  9  1  0  0  0
  8 22  1  0  0  0
  9 10  1  0  0  0
  9 27  2  0  0  0
 10 11  2  0  0  0
 10 15  1  0  0  0
 11 12  1  0  0  0
 11 95  1  0  0  0
 12 13  2  0  0  0
 12 96  1  0  0  0
 13 14  1  0  0  0
 13 31  1  0  0  0
 14 15  2  0  0  0
 14 97  1  0  0  0
 15 98  1  0  0  0
 16 17  2  0  0  0
 16 21  1  0  0  0
 16 31  1  0  0  0
 17 18  1  0  0  0
 17 99  1  0  0  0
 18 19  2  0  0  0
 18100  1  0  0  0
 19 20  1  0  0  0
 19 24  1  0  0  0
 20 21  2  0  0  0
 20101  1  0  0  0
 21 23  1  0  0  0
 22 28  1  0  0  0
 22 32  2  0  0  0
 26 27  1  0  0  0
 28102  1  0  0  0
 28103  1  0  0  0
 29104  1  0  0  0
 29105  1  0  0  0
 33 34  1  0  0  0
 33 66  1  0  0  0
 33 70  2  0  0  0
 34 36  1  0  0  0
 34 59  1  0  0  0
 34106  1  0  0  0
 35 44  2  0  0  0
 35 45  1  0  0  0
 35 68  1  0  0  0
 36 56  1  0  0  0
 36107  1  0  0  0
 37 39  1  0  0  0
 37 47  1  0  0  0
 37 66  1  0  0  0
 37108  1  0  0  0
 38 43  2  0  0  0
 38 46  1  0  0  0
 38 47  1  0  0  0
 39 64  1  0  0  0
 39 67  2  0  0  0
 40 52  1  0  0  0
 40 53  2  0  0  0
 40 58  1  0  0  0
 41109  1  0  0  0
 41110  1  0  0  0
 41111  1  0  0  0
 41 48  1  0  0  0
 42 43  1  0  0  0
 42 66  1  0  0  0
 42112  1  0  0  0
 42113  1  0  0  0
 43 44  1  0  0  0
 44114  1  0  0  0
 45 46  2  0  0  0
 45115  1  0  0  0
 46116  1  0  0  0
 47117  1  0  0  0
 47118  1  0  0  0
 48 56  1  0  0  0
 48 65  1  0  0  0
 48119  1  0  0  0
 49 50  1  0  0  0
 49 53  1  0  0  0
 49 64  1  0  0  0
 49120  1  0  0  0
 50 51  1  0  0  0
 50121  1  0  0  0
 50122  1  0  0  0
 51 52  1  0  0  0
 51123  1  0  0  0
 51124  1  0  0  0
 52125  1  0  0  0
 52126  1  0  0  0
 53 54  1  0  0  0
 54 55  2  0  0  0
 54127  1  0  0  0
 55 57  1  0  0  0
 55128  1  0  0  0
 56 69  2  0  0  0
 57 58  2  0  0  0
 57129  1  0  0  0
 58130  1  0  0  0
 59 60  1  0  0  0
 59 61  1  0  0  0
 59 62  1  0  0  0
 60131  1  0  0  0
 60132  1  0  0  0
 60133  1  0  0  0
 61134  1  0  0  0
 61135  1  0  0  0
 61136  1  0  0  0
 62137  1  0  0  0
 62138  1  0  0  0
 62139  1  0  0  0
 63 65  1  0  0  0
 63140  1  0  0  0
 63141  1  0  0  0
 63142  1  0  0  0
 64143  1  0  0  0
 65144  1  0  0  0
 68 81  1  0  0  0
 71 74  2  0  0  0
 71 75  1  0  0  0
 71145  1  0  0  0
 72 74  1  0  0  0
 72 76  2  0  0  0
 72146  1  0  0  0
 73 75  2  0  0  0
 73 76  1  0  0  0
 73147  1  0  0  0
 74 78  1  0  0  0
 75 82  1  0  0  0
 76 85  1  0  0  0
 77 79  1  0  0  0
 77 82  1  0  0  0
 77 84  2  0  0  0
 78 83  1  0  0  0
 78148  1  0  0  0
 78149  1  0  0  0
 79 80  1  0  0  0
 79150  1  0  0  0
 79151  1  0  0  0
 80 81  1  0  0  0
 80152  1  0  0  0
 80153  1  0  0  0
 81154  1  0  0  0
 81155  1  0  0  0
 82156  1  0  0  0
 83157  1  0  0  0
M  ISO  4   1 100  68 101  81 101  83 100
M  END
> <chiral flag>
0

> <version>
0

> <s_m_source_file>
/data/baiqing/PycharmProjects/Reinvent-master-3.2/result/LINK_invent/BTK/process_docking_weight1_custom_product_contain_oxygen_bond_distance_aromatic_linkinvent_7_9_3/rearranged_h_0118.sdf

> <i_m_source_file_index>
21

> <r_mmod_Potential_Energy-OPLS-2005>
12244.91015625

> <r_mmod_Stretch_Energy-OPLS-2005>
5460.3505859375

> <r_mmod_Bend_Energy-OPLS-2005>
1113.17114257812

> <r_mmod_Torsional_Energy-OPLS-2005>
695.621032714844

> <r_mmod_Improper_Torsional_Energy-OPLS-2005>
66.7023315429688

> <r_mmod_Van_der_Waal_Energy-OPLS-2005>
2164.72119140625

> <r_mmod_Electrostatic_Energy-OPLS-2005>
-446.911224365234

> <r_mmod_Solvation_Energy-OPLS-2005>
-238.173095703125

> <b_mmod_Minimization_Converged-OPLS-2005>
0

> <r_mmod_RMS_Derivative-OPLS-2005>
5.28622007369995

$$$$
21
                    3D
 Structure written by MMmdl.
148156  0  0  1  0            999 V2000
  -30.4934  -15.0807   20.4034 C   0  0  0  0  0  0
  -30.4538  -12.6870   19.4816 C   0  0  0  0  0  0
  -29.5215  -12.5290   18.2572 C   0  0  0  0  0  0
  -28.0685  -12.2819   18.7037 C   0  0  0  0  0  0
  -27.6229  -13.2498   19.8288 C   0  0  2  0  0  0
  -28.6721  -13.3478   20.9537 C   0  0  0  0  0  0
  -25.2475  -13.8206   20.5808 C   0  0  0  0  0  0
  -24.1770  -13.0416   20.9233 C   0  0  0  0  0  0
  -24.6383  -11.6909   20.8752 C   0  0  0  0  0  0
  -23.9080  -10.4275   21.0400 C   0  0  0  0  0  0
  -24.3630   -9.4198   21.9177 C   0  0  0  0  0  0
  -23.6295   -8.2244   22.0751 C   0  0  0  0  0  0
  -22.4276   -8.0274   21.3546 C   0  0  0  0  0  0
  -21.9914   -9.0254   20.4650 C   0  0  0  0  0  0
  -22.7251  -10.2130   20.3056 C   0  0  0  0  0  0
  -21.6851   -6.0721   22.5273 C   0  0  0  0  0  0
  -21.4010   -6.5631   23.8199 C   0  0  0  0  0  0
  -21.3663   -5.6795   24.9166 C   0  0  0  0  0  0
  -21.6049   -4.3053   24.7223 C   0  0  0  0  0  0
  -21.8822   -3.8140   23.4342 C   0  0  0  0  0  0
  -21.9190   -4.6952   22.3398 C   0  0  0  0  0  0
  -22.7793  -13.5188   21.1872 C   0  0  0  0  0  0
  -22.1661   -4.2140   21.0973 F   0  0  0  0  0  0
  -21.5634   -3.4535   25.7730 F   0  0  0  0  0  0
  -29.9201  -13.8021   20.3225 N   0  0  0  0  0  0
  -26.2882  -12.9441   20.3286 N   0  0  0  0  0  0
  -25.9320  -11.6572   20.5765 N   0  0  0  0  0  0
  -22.0455  -12.8179   22.0435 N   0  0  0  0  0  0
  -25.4166  -15.1950   20.4385 N   0  0  0  0  0  0
  -31.7214  -15.1268   20.2662 O   0  0  0  0  0  0
  -21.6644   -6.8872   21.4237 O   0  0  0  0  0  0
  -22.3483  -14.5497   20.6710 O   0  0  0  0  0  0
  -24.6505  -31.8389   23.1797 C   0  0  0  0  0  0
  -25.9225  -32.4668   23.8239 C   0  0  1  0  0  0
  -27.2210  -27.0517   20.1847 C   0  0  0  0  0  0
  -25.5958  -33.8473   24.2150 N   0  0  0  0  0  0
  -23.4606  -30.4525   21.5259 C   0  0  2  0  0  0
  -24.9077  -28.8568   20.1219 C   0  0  0  0  0  0
  -22.7613  -29.4509   22.4818 C   0  0  0  0  0  0
  -18.0321  -28.1445   22.8510 C   0  0  0  0  0  0
  -24.1477  -36.7235   23.2641 C   0  0  0  0  0  0
  -26.0197  -30.6887   21.3862 C   0  0  0  0  0  0
  -26.0896  -29.2845   20.7428 C   0  0  0  0  0  0
  -27.2433  -28.4034   20.7489 C   0  0  0  0  0  0
  -26.0122  -26.7393   19.5227 C   0  0  0  0  0  0
  -24.8875  -27.5992   19.4947 C   0  0  0  0  0  0
  -23.6927  -29.7732   20.1497 C   0  0  0  0  0  0
  -25.4115  -36.3007   24.0313 C   0  0  1  0  0  0
  -20.5949  -28.3746   23.1244 C   0  0  2  0  0  0
  -20.6808  -26.9443   22.5410 C   0  0  0  0  0  0
  -19.5768  -26.6408   21.5232 C   0  0  0  0  0  0
  -18.1950  -26.7991   22.1641 C   0  0  0  0  0  0
  -19.1594  -28.8904   23.2869 C   0  0  0  0  0  0
  -18.9506  -30.1510   23.8892 C   0  0  0  0  0  0
  -17.6508  -30.6623   24.0590 C   0  0  0  0  0  0
  -25.9075  -34.9395   23.5036 C   0  0  0  0  0  0
  -16.5393  -29.9128   23.6353 C   0  0  0  0  0  0
  -16.7308  -28.6548   23.0362 C   0  0  0  0  0  0
  -26.4524  -31.6578   25.0697 C   0  0  0  0  0  0
  -25.3691  -31.3810   26.1368 C   0  0  0  0  0  0
  -27.0394  -30.2999   24.6274 C   0  0  0  0  0  0
  -27.6053  -32.4346   25.7478 C   0  0  0  0  0  0
  -27.5562  -37.1768   24.8468 C   0  0  0  0  0  0
  -21.4302  -29.3058   22.3587 N   0  0  0  0  0  0
  -26.4269  -37.3741   23.9422 N   0  0  0  0  0  0
  -24.7312  -31.0174   22.0860 N   0  0  0  0  0  0
  -23.4211  -28.8067   23.3004 O   0  0  0  0  0  0
  -28.3018  -26.0679   20.1725 O   0  0  0  0  0  0
  -26.5683  -34.8911   22.4620 O   0  0  0  0  0  0
  -23.5601  -32.1248   23.6987 O   0  0  0  0  0  0
  -29.1556  -18.8682   19.8841 C   0  0  0  0  0  0
  -29.3205  -20.2832   20.4359 C   0  0  0  0  0  0
  -30.0604  -20.1526   21.5978 C   0  0  0  0  0  0
  -29.7669  -17.7184   20.5174 C   0  0  0  0  0  0
  -28.7719  -21.6643   19.7441 C   0  0  0  0  0  0
  -28.4344  -23.0796   19.7411 C   0  0  0  0  0  0
  -30.4887  -21.2203   22.5625 C   0  0  0  0  0  0
  -28.2811  -24.5198   20.5889 C   0  0  0  0  0  0
  -29.6755  -16.2697   20.2953 N   0  0  0  0  0  0
  -30.5967  -18.4562   21.8893 S   0  0  0  0  0  0
  -31.4665  -12.8986   19.1345 H   0  0  0  0  0  0
  -30.5183  -11.7609   20.0552 H   0  0  0  0  0  0
  -29.8621  -11.7112   17.6212 H   0  0  0  0  0  0
  -29.5673  -13.4322   17.6479 H   0  0  0  0  0  0
  -28.0086  -11.2553   19.0680 H   0  0  0  0  0  0
  -27.3874  -12.3433   17.8527 H   0  0  0  0  0  0
  -27.5616  -14.2302   19.3558 H   0  0  0  0  0  0
  -28.8080  -12.3950   21.4677 H   0  0  0  0  0  0
  -28.3532  -14.0689   21.7095 H   0  0  0  0  0  0
  -25.2765   -9.5676   22.4759 H   0  0  0  0  0  0
  -23.9984   -7.4646   22.7482 H   0  0  0  0  0  0
  -21.0828   -8.8782   19.8974 H   0  0  0  0  0  0
  -22.3690  -10.9672   19.6175 H   0  0  0  0  0  0
  -21.2009   -7.6140   23.9699 H   0  0  0  0  0  0
  -21.1481   -6.0521   25.9071 H   0  0  0  0  0  0
  -22.0600   -2.7598   23.2843 H   0  0  0  0  0  0
  -22.4052  -11.9802   22.4781 H   0  0  0  0  0  0
  -21.1094  -13.1229   22.2683 H   0  0  0  0  0  0
  -24.6664  -15.8521   20.6234 H   0  0  0  0  0  0
  -26.2851  -15.6527   20.1966 H   0  0  0  0  0  0
  -26.7275  -32.5256   23.0963 H   0  0  0  0  0  0
  -25.0103  -33.9604   25.0291 H   0  0  0  0  0  0
  -22.7674  -31.2802   21.3634 H   0  0  0  0  0  0
  -23.3751  -35.9547   23.3303 H   0  0  0  0  0  0
  -24.3588  -36.8865   22.2056 H   0  0  0  0  0  0
  -23.7226  -37.6420   23.6695 H   0  0  0  0  0  0
  -26.1778  -31.4320   20.6034 H   0  0  0  0  0  0
  -26.8905  -30.7525   22.0276 H   0  0  0  0  0  0
  -28.1502  -28.7360   21.2357 H   0  0  0  0  0  0
  -25.9216  -25.7849   19.0233 H   0  0  0  0  0  0
  -23.9900  -27.2721   18.9886 H   0  0  0  0  0  0
  -23.8468  -30.5427   19.3935 H   0  0  0  0  0  0
  -22.8026  -29.2252   19.8345 H   0  0  0  0  0  0
  -25.1321  -36.1804   25.0814 H   0  0  0  0  0  0
  -21.0067  -28.3309   24.1364 H   0  0  0  0  0  0
  -20.5728  -26.2344   23.3628 H   0  0  0  0  0  0
  -21.6668  -26.7452   22.1201 H   0  0  0  0  0  0
  -19.6932  -25.6307   21.1278 H   0  0  0  0  0  0
  -19.6729  -27.3206   20.6763 H   0  0  0  0  0  0
  -17.4234  -26.6760   21.4024 H   0  0  0  0  0  0
  -18.0329  -26.0144   22.9057 H   0  0  0  0  0  0
  -19.7978  -30.7359   24.2220 H   0  0  0  0  0  0
  -17.5055  -31.6303   24.5215 H   0  0  0  0  0  0
  -15.5386  -30.3046   23.7693 H   0  0  0  0  0  0
  -15.8717  -28.0886   22.7077 H   0  0  0  0  0  0
  -24.5875  -30.7161   25.7690 H   0  0  0  0  0  0
  -24.8865  -32.2995   26.4706 H   0  0  0  0  0  0
  -25.7934  -30.9040   27.0206 H   0  0  0  0  0  0
  -26.3011  -29.6728   24.1257 H   0  0  0  0  0  0
  -27.4019  -29.7307   25.4835 H   0  0  0  0  0  0
  -27.8910  -30.4304   23.9596 H   0  0  0  0  0  0
  -27.2687  -33.3713   26.1946 H   0  0  0  0  0  0
  -28.3918  -32.6785   25.0330 H   0  0  0  0  0  0
  -28.0646  -31.8524   26.5477 H   0  0  0  0  0  0
  -28.2558  -38.0078   24.7546 H   0  0  0  0  0  0
  -28.1076  -36.2625   24.6254 H   0  0  0  0  0  0
  -27.2314  -37.1357   25.8874 H   0  0  0  0  0  0
  -20.9503  -29.8746   21.6770 H   0  0  0  0  0  0
  -26.0111  -38.2790   24.1475 H   0  0  0  0  0  0
  -28.5648  -18.7547   18.9857 H   0  0  0  0  0  0
  -28.5813  -21.3462   18.7269 H   0  0  0  0  0  0
  -28.1184  -23.3282   18.7322 H   0  0  0  0  0  0
  -31.3207  -21.8029   22.1652 H   0  0  0  0  0  0
  -30.8214  -20.7921   23.5114 H   0  0  0  0  0  0
  -29.6733  -21.9060   22.7948 H   0  0  0  0  0  0
  -27.2649  -24.4808   20.2014 H   0  0  0  0  0  0
  -29.2376  -24.6310   20.0727 H   0  0  0  0  0  0
  -28.7496  -15.9983   20.0005 H   0  0  0  0  0  0
  1 25  1  0  0  0
  1 30  2  0  0  0
  1 79  1  0  0  0
  2  3  1  0  0  0
  2 25  1  0  0  0
  2 81  1  0  0  0
  2 82  1  0  0  0
  3  4  1  0  0  0
  3 83  1  0  0  0
  3 84  1  0  0  0
  4  5  1  0  0  0
  4 85  1  0  0  0
  4 86  1  0  0  0
  5  6  1  0  0  0
  5 26  1  0  0  0
  5 87  1  0  0  0
  6 25  1  0  0  0
  6 88  1  0  0  0
  6 89  1  0  0  0
  7  8  2  0  0  0
  7 26  1  0  0  0
  7 29  1  0  0  0
  8  9  1  0  0  0
  8 22  1  0  0  0
  9 10  1  0  0  0
  9 27  2  0  0  0
 10 11  2  0  0  0
 10 15  1  0  0  0
 11 12  1  0  0  0
 11 90  1  0  0  0
 12 13  2  0  0  0
 12 91  1  0  0  0
 13 14  1  0  0  0
 13 31  1  0  0  0
 14 15  2  0  0  0
 14 92  1  0  0  0
 15 93  1  0  0  0
 16 17  2  0  0  0
 16 21  1  0  0  0
 16 31  1  0  0  0
 17 18  1  0  0  0
 17 94  1  0  0  0
 18 19  2  0  0  0
 18 95  1  0  0  0
 19 20  1  0  0  0
 19 24  1  0  0  0
 20 21  2  0  0  0
 20 96  1  0  0  0
 21 23  1  0  0  0
 22 28  1  0  0  0
 22 32  2  0  0  0
 26 27  1  0  0  0
 28 97  1  0  0  0
 28 98  1  0  0  0
 29 99  1  0  0  0
 29100  1  0  0  0
 33 34  1  0  0  0
 33 66  1  0  0  0
 33 70  2  0  0  0
 34 36  1  0  0  0
 34 59  1  0  0  0
 34101  1  0  0  0
 35 44  2  0  0  0
 35 45  1  0  0  0
 35 68  1  0  0  0
 36 56  1  0  0  0
 36102  1  0  0  0
 37 39  1  0  0  0
 37 47  1  0  0  0
 37 66  1  0  0  0
 37103  1  0  0  0
 38 43  2  0  0  0
 38 46  1  0  0  0
 38 47  1  0  0  0
 39 64  1  0  0  0
 39 67  2  0  0  0
 40 52  1  0  0  0
 40 53  2  0  0  0
 40 58  1  0  0  0
 41104  1  0  0  0
 41105  1  0  0  0
 41106  1  0  0  0
 41 48  1  0  0  0
 42 43  1  0  0  0
 42 66  1  0  0  0
 42107  1  0  0  0
 42108  1  0  0  0
 43 44  1  0  0  0
 44109  1  0  0  0
 45 46  2  0  0  0
 45110  1  0  0  0
 46111  1  0  0  0
 47112  1  0  0  0
 47113  1  0  0  0
 48 56  1  0  0  0
 48 65  1  0  0  0
 48114  1  0  0  0
 49 50  1  0  0  0
 49 53  1  0  0  0
 49 64  1  0  0  0
 49115  1  0  0  0
 50 51  1  0  0  0
 50116  1  0  0  0
 50117  1  0  0  0
 51 52  1  0  0  0
 51118  1  0  0  0
 51119  1  0  0  0
 52120  1  0  0  0
 52121  1  0  0  0
 53 54  1  0  0  0
 54 55  2  0  0  0
 54122  1  0  0  0
 55 57  1  0  0  0
 55123  1  0  0  0
 56 69  2  0  0  0
 57 58  2  0  0  0
 57124  1  0  0  0
 58125  1  0  0  0
 59 60  1  0  0  0
 59 61  1  0  0  0
 59 62  1  0  0  0
 60126  1  0  0  0
 60127  1  0  0  0
 60128  1  0  0  0
 61129  1  0  0  0
 61130  1  0  0  0
 61131  1  0  0  0
 62132  1  0  0  0
 62133  1  0  0  0
 62134  1  0  0  0
 63 65  1  0  0  0
 63135  1  0  0  0
 63136  1  0  0  0
 63137  1  0  0  0
 64138  1  0  0  0
 65139  1  0  0  0
 68 78  1  0  0  0
 71 72  1  0  0  0
 71 74  2  0  0  0
 71140  1  0  0  0
 72 73  2  0  0  0
 72 75  1  0  0  0
 73 77  1  0  0  0
 73 80  1  0  0  0
 74 79  1  0  0  0
 74 80  1  0  0  0
 75 76  2  0  0  0
 75141  1  0  0  0
 76 78  1  0  0  0
 76142  1  0  0  0
 77143  1  0  0  0
 77144  1  0  0  0
 77145  1  0  0  0
 78146  1  0  0  0
 78147  1  0  0  0
 79148  1  0  0  0
M  ISO  4   1 100  68 101  78 101  79 100
M  END
> <chiral flag>
0

> <version>
0

> <s_m_source_file>
/data/baiqing/PycharmProjects/Reinvent-master-3.2/result/LINK_invent/BTK/process_docking_weight1_custom_product_contain_oxygen_bond_distance_aromatic_linkinvent_7_9_3/rearranged_h_0118.sdf

> <i_m_source_file_index>
22

> <r_mmod_Potential_Energy-OPLS-2005>
1021.9765625

> <r_mmod_Stretch_Energy-OPLS-2005>
329.410308837891

> <r_mmod_Bend_Energy-OPLS-2005>
617.268493652344

> <r_mmod_Torsional_Energy-OPLS-2005>
241.701309204102

> <r_mmod_Improper_Torsional_Energy-OPLS-2005>
9.07544326782227

> <r_mmod_Van_der_Waal_Energy-OPLS-2005>
109.229866027832

> <r_mmod_Electrostatic_Energy-OPLS-2005>
-354.460083007812

> <r_mmod_Solvation_Energy-OPLS-2005>
-212.992813110352

> <b_mmod_Minimization_Converged-OPLS-2005>
0

> <r_mmod_RMS_Derivative-OPLS-2005>
4.11588478088379

$$$$
22
                    3D
 Structure written by MMmdl.
150158  0  0  1  0            999 V2000
  -30.4975  -14.9790   20.4105 C   0  0  0  0  0  0
  -30.4476  -12.6042   19.4996 C   0  0  0  0  0  0
  -29.5213  -12.5309   18.2597 C   0  0  0  0  0  0
  -28.0573  -12.2909   18.6786 C   0  0  0  0  0  0
  -27.6285  -13.2227   19.8392 C   0  0  2  0  0  0
  -28.6724  -13.2215   20.9752 C   0  0  0  0  0  0
  -25.2483  -13.8133   20.5696 C   0  0  0  0  0  0
  -24.1746  -13.0405   20.9160 C   0  0  0  0  0  0
  -24.6336  -11.6879   20.8717 C   0  0  0  0  0  0
  -23.9019  -10.4273   21.0402 C   0  0  0  0  0  0
  -24.3587   -9.4195   21.9183 C   0  0  0  0  0  0
  -23.6274   -8.2224   22.0747 C   0  0  0  0  0  0
  -22.4253   -8.0263   21.3539 C   0  0  0  0  0  0
  -21.9882   -9.0221   20.4633 C   0  0  0  0  0  0
  -22.7193  -10.2109   20.3049 C   0  0  0  0  0  0
  -21.6847   -6.0724   22.5275 C   0  0  0  0  0  0
  -21.4005   -6.5633   23.8203 C   0  0  0  0  0  0
  -21.3661   -5.6789   24.9170 C   0  0  0  0  0  0
  -21.6043   -4.3048   24.7223 C   0  0  0  0  0  0
  -21.8825   -3.8139   23.4344 C   0  0  0  0  0  0
  -21.9187   -4.6954   22.3401 C   0  0  0  0  0  0
  -22.7786  -13.5204   21.1866 C   0  0  0  0  0  0
  -22.1657   -4.2143   21.0977 F   0  0  0  0  0  0
  -21.5636   -3.4532   25.7737 F   0  0  0  0  0  0
  -29.9419  -13.6890   20.3956 N   0  0  0  0  0  0
  -26.2868  -12.9307   20.3245 N   0  0  0  0  0  0
  -25.9263  -11.6460   20.5729 N   0  0  0  0  0  0
  -22.0462  -12.8170   22.0437 N   0  0  0  0  0  0
  -25.4311  -15.1837   20.4243 N   0  0  0  0  0  0
  -31.7007  -15.0526   20.1247 O   0  0  0  0  0  0
  -21.6623   -6.8858   21.4234 O   0  0  0  0  0  0
  -22.3452  -14.5515   20.6748 O   0  0  0  0  0  0
  -24.6447  -31.8432   23.1878 C   0  0  0  0  0  0
  -25.9206  -32.4707   23.8278 C   0  0  1  0  0  0
  -27.2164  -27.1253   20.1526 C   0  0  0  0  0  0
  -25.5961  -33.8517   24.2203 N   0  0  0  0  0  0
  -23.4502  -30.4632   21.5339 C   0  0  2  0  0  0
  -24.9002  -28.8918   20.1103 C   0  0  0  0  0  0
  -22.7586  -29.4536   22.4857 C   0  0  0  0  0  0
  -18.0295  -28.1401   22.8463 C   0  0  0  0  0  0
  -24.1483  -36.7261   23.2640 C   0  0  0  0  0  0
  -26.0077  -30.7154   21.3866 C   0  0  0  0  0  0
  -26.0796  -29.3266   20.7274 C   0  0  0  0  0  0
  -27.2394  -28.4596   20.7303 C   0  0  0  0  0  0
  -26.0066  -26.7969   19.4978 C   0  0  0  0  0  0
  -24.8777  -27.6412   19.4803 C   0  0  0  0  0  0
  -23.6784  -29.7956   20.1526 C   0  0  0  0  0  0
  -25.4115  -36.3037   24.0315 C   0  0  1  0  0  0
  -20.5910  -28.3725   23.1240 C   0  0  2  0  0  0
  -20.6780  -26.9425   22.5407 C   0  0  0  0  0  0
  -19.5755  -26.6382   21.5214 C   0  0  0  0  0  0
  -18.1934  -26.7937   22.1616 C   0  0  0  0  0  0
  -19.1555  -28.8880   23.2840 C   0  0  0  0  0  0
  -18.9479  -30.1473   23.8869 C   0  0  0  0  0  0
  -17.6479  -30.6599   24.0552 C   0  0  0  0  0  0
  -25.9073  -34.9415   23.5071 C   0  0  0  0  0  0
  -16.5365  -29.9091   23.6342 C   0  0  0  0  0  0
  -16.7278  -28.6516   23.0353 C   0  0  0  0  0  0
  -26.4522  -31.6568   25.0716 C   0  0  0  0  0  0
  -25.3697  -31.3757   26.1410 C   0  0  0  0  0  0
  -27.0392  -30.2969   24.6287 C   0  0  0  0  0  0
  -27.6073  -32.4314   25.7482 C   0  0  0  0  0  0
  -27.5567  -37.1786   24.8469 C   0  0  0  0  0  0
  -21.4269  -29.3056   22.3623 N   0  0  0  0  0  0
  -26.4275  -37.3759   23.9414 N   0  0  0  0  0  0
  -24.7214  -31.0279   22.0916 N   0  0  0  0  0  0
  -23.4229  -28.8070   23.3006 O   0  0  0  0  0  0
  -28.2583  -26.1231   20.2239 O   0  0  0  0  0  0
  -26.5663  -34.8902   22.4649 O   0  0  0  0  0  0
  -23.5559  -32.1313   23.7087 O   0  0  0  0  0  0
  -30.9238  -20.7102   20.1150 C   0  0  0  0  0  0
  -31.3316  -18.2615   20.1919 C   0  0  0  0  0  0
  -29.5338  -20.5804   20.3077 C   0  0  0  0  0  0
  -29.9752  -17.9367   20.4164 C   0  0  0  0  0  0
  -29.1029  -19.1614   20.4690 C   0  0  0  0  0  0
  -31.7872  -19.5934   20.0527 C   0  0  0  0  0  0
  -28.6567  -21.9290   20.2949 C   0  0  0  0  0  0
  -28.9322  -23.3245   20.2144 C   0  0  0  0  0  0
  -29.5496  -16.3713   20.6006 C   0  0  0  0  0  0
  -27.9072  -24.6086   20.0889 C   0  0  0  0  0  0
  -28.3312  -16.2209   20.9041 N   0  0  0  0  0  0
  -27.7647  -18.9900   20.6887 O   0  0  0  0  0  0
  -33.1084  -19.8091   19.8460 F   0  0  0  0  0  0
  -31.4738  -12.7840   19.1780 H   0  0  0  0  0  0
  -30.4672  -11.6468   20.0213 H   0  0  0  0  0  0
  -29.8512  -11.7406   17.5839 H   0  0  0  0  0  0
  -29.5896  -13.4636   17.6984 H   0  0  0  0  0  0
  -27.9708  -11.2510   18.9959 H   0  0  0  0  0  0
  -27.3877  -12.4046   17.8249 H   0  0  0  0  0  0
  -27.5933  -14.2191   19.4021 H   0  0  0  0  0  0
  -28.7771  -12.2216   21.3967 H   0  0  0  0  0  0
  -28.3603  -13.8506   21.8080 H   0  0  0  0  0  0
  -25.2737   -9.5680   22.4746 H   0  0  0  0  0  0
  -23.9986   -7.4621   22.7467 H   0  0  0  0  0  0
  -21.0818   -8.8726   19.8939 H   0  0  0  0  0  0
  -22.3644  -10.9644   19.6153 H   0  0  0  0  0  0
  -21.1990   -7.6139   23.9707 H   0  0  0  0  0  0
  -21.1482   -6.0515   25.9070 H   0  0  0  0  0  0
  -22.0605   -2.7602   23.2840 H   0  0  0  0  0  0
  -22.4098  -11.9800   22.4753 H   0  0  0  0  0  0
  -21.1105  -13.1199   22.2753 H   0  0  0  0  0  0
  -24.7153  -15.8647   20.6491 H   0  0  0  0  0  0
  -26.3674  -15.5835   20.3756 H   0  0  0  0  0  0
  -26.7261  -32.5320   23.0994 H   0  0  0  0  0  0
  -25.0106  -33.9646   25.0349 H   0  0  0  0  0  0
  -22.7536  -31.2888   21.3773 H   0  0  0  0  0  0
  -23.3763  -35.9580   23.3287 H   0  0  0  0  0  0
  -24.3573  -36.8910   22.2060 H   0  0  0  0  0  0
  -23.7213  -37.6442   23.6691 H   0  0  0  0  0  0
  -26.1615  -31.4667   20.6113 H   0  0  0  0  0  0
  -26.8796  -30.7712   22.0265 H   0  0  0  0  0  0
  -28.1358  -28.7846   21.2386 H   0  0  0  0  0  0
  -25.8827  -25.8423   19.0115 H   0  0  0  0  0  0
  -23.9766  -27.3011   18.9889 H   0  0  0  0  0  0
  -23.8191  -30.5719   19.4006 H   0  0  0  0  0  0
  -22.7937  -29.2403   19.8377 H   0  0  0  0  0  0
  -25.1287  -36.1877   25.0807 H   0  0  0  0  0  0
  -20.9984  -28.3295   24.1369 H   0  0  0  0  0  0
  -20.5685  -26.2322   23.3627 H   0  0  0  0  0  0
  -21.6637  -26.7451   22.1183 H   0  0  0  0  0  0
  -19.6922  -25.6290   21.1249 H   0  0  0  0  0  0
  -19.6685  -27.3181   20.6734 H   0  0  0  0  0  0
  -17.4198  -26.6679   21.4019 H   0  0  0  0  0  0
  -18.0320  -26.0099   22.9038 H   0  0  0  0  0  0
  -19.7963  -30.7289   24.2227 H   0  0  0  0  0  0
  -17.5036  -31.6276   24.5164 H   0  0  0  0  0  0
  -15.5358  -30.2984   23.7694 H   0  0  0  0  0  0
  -15.8675  -28.0823   22.7091 H   0  0  0  0  0  0
  -24.5893  -30.7088   25.7718 H   0  0  0  0  0  0
  -24.8867  -32.2938   26.4775 H   0  0  0  0  0  0
  -25.7966  -30.8968   27.0232 H   0  0  0  0  0  0
  -26.3010  -29.6693   24.1289 H   0  0  0  0  0  0
  -27.4009  -29.7272   25.4859 H   0  0  0  0  0  0
  -27.8902  -30.4223   23.9589 H   0  0  0  0  0  0
  -27.2734  -33.3695   26.1925 H   0  0  0  0  0  0
  -28.3949  -32.6739   25.0334 H   0  0  0  0  0  0
  -28.0653  -31.8512   26.5503 H   0  0  0  0  0  0
  -28.2571  -38.0093   24.7534 H   0  0  0  0  0  0
  -28.1067  -36.2634   24.6261 H   0  0  0  0  0  0
  -27.2297  -37.1373   25.8871 H   0  0  0  0  0  0
  -20.9486  -29.8816   21.6831 H   0  0  0  0  0  0
  -26.0145  -38.2822   24.1454 H   0  0  0  0  0  0
  -31.3529  -21.6941   19.9924 H   0  0  0  0  0  0
  -32.0719  -17.4791   20.1337 H   0  0  0  0  0  0
  -27.5971  -21.7180   20.3200 H   0  0  0  0  0  0
  -29.9728  -23.6118   20.1864 H   0  0  0  0  0  0
  -27.0667  -24.3999   20.7528 H   0  0  0  0  0  0
  -27.5165  -24.4914   19.0787 H   0  0  0  0  0  0
  -27.8984  -17.1440   20.9615 H   0  0  0  0  0  0
  -27.3023  -19.8158   20.7789 H   0  0  0  0  0  0
  1 25  1  0  0  0
  1 30  2  0  0  0
  1 79  1  0  0  0
  2  3  1  0  0  0
  2 25  1  0  0  0
  2 84  1  0  0  0
  2 85  1  0  0  0
  3  4  1  0  0  0
  3 86  1  0  0  0
  3 87  1  0  0  0
  4  5  1  0  0  0
  4 88  1  0  0  0
  4 89  1  0  0  0
  5  6  1  0  0  0
  5 26  1  0  0  0
  5 90  1  0  0  0
  6 25  1  0  0  0
  6 91  1  0  0  0
  6 92  1  0  0  0
  7  8  2  0  0  0
  7 26  1  0  0  0
  7 29  1  0  0  0
  8  9  1  0  0  0
  8 22  1  0  0  0
  9 10  1  0  0  0
  9 27  2  0  0  0
 10 11  2  0  0  0
 10 15  1  0  0  0
 11 12  1  0  0  0
 11 93  1  0  0  0
 12 13  2  0  0  0
 12 94  1  0  0  0
 13 14  1  0  0  0
 13 31  1  0  0  0
 14 15  2  0  0  0
 14 95  1  0  0  0
 15 96  1  0  0  0
 16 17  2  0  0  0
 16 21  1  0  0  0
 16 31  1  0  0  0
 17 18  1  0  0  0
 17 97  1  0  0  0
 18 19  2  0  0  0
 18 98  1  0  0  0
 19 20  1  0  0  0
 19 24  1  0  0  0
 20 21  2  0  0  0
 20 99  1  0  0  0
 21 23  1  0  0  0
 22 28  1  0  0  0
 22 32  2  0  0  0
 26 27  1  0  0  0
 28100  1  0  0  0
 28101  1  0  0  0
 29102  1  0  0  0
 29103  1  0  0  0
 33 34  1  0  0  0
 33 66  1  0  0  0
 33 70  2  0  0  0
 34 36  1  0  0  0
 34 59  1  0  0  0
 34104  1  0  0  0
 35 44  2  0  0  0
 35 45  1  0  0  0
 35 68  1  0  0  0
 36 56  1  0  0  0
 36105  1  0  0  0
 37 39  1  0  0  0
 37 47  1  0  0  0
 37 66  1  0  0  0
 37106  1  0  0  0
 38 43  2  0  0  0
 38 46  1  0  0  0
 38 47  1  0  0  0
 39 64  1  0  0  0
 39 67  2  0  0  0
 40 52  1  0  0  0
 40 53  2  0  0  0
 40 58  1  0  0  0
 41107  1  0  0  0
 41108  1  0  0  0
 41109  1  0  0  0
 41 48  1  0  0  0
 42 43  1  0  0  0
 42 66  1  0  0  0
 42110  1  0  0  0
 42111  1  0  0  0
 43 44  1  0  0  0
 44112  1  0  0  0
 45 46  2  0  0  0
 45113  1  0  0  0
 46114  1  0  0  0
 47115  1  0  0  0
 47116  1  0  0  0
 48 56  1  0  0  0
 48 65  1  0  0  0
 48117  1  0  0  0
 49 50  1  0  0  0
 49 53  1  0  0  0
 49 64  1  0  0  0
 49118  1  0  0  0
 50 51  1  0  0  0
 50119  1  0  0  0
 50120  1  0  0  0
 51 52  1  0  0  0
 51121  1  0  0  0
 51122  1  0  0  0
 52123  1  0  0  0
 52124  1  0  0  0
 53 54  1  0  0  0
 54 55  2  0  0  0
 54125  1  0  0  0
 55 57  1  0  0  0
 55126  1  0  0  0
 56 69  2  0  0  0
 57 58  2  0  0  0
 57127  1  0  0  0
 58128  1  0  0  0
 59 60  1  0  0  0
 59 61  1  0  0  0
 59 62  1  0  0  0
 60129  1  0  0  0
 60130  1  0  0  0
 60131  1  0  0  0
 61132  1  0  0  0
 61133  1  0  0  0
 61134  1  0  0  0
 62135  1  0  0  0
 62136  1  0  0  0
 62137  1  0  0  0
 63 65  1  0  0  0
 63138  1  0  0  0
 63139  1  0  0  0
 63140  1  0  0  0
 64141  1  0  0  0
 65142  1  0  0  0
 68 80  1  0  0  0
 71 73  2  0  0  0
 71 76  1  0  0  0
 71143  1  0  0  0
 72 74  1  0  0  0
 72 76  2  0  0  0
 72144  1  0  0  0
 73 75  1  0  0  0
 73 77  1  0  0  0
 74 75  2  0  0  0
 74 79  1  0  0  0
 75 82  1  0  0  0
 76 83  1  0  0  0
 77 78  2  0  0  0
 77145  1  0  0  0
 78 80  1  0  0  0
 78146  1  0  0  0
 79 81  2  0  0  0
 80147  1  0  0  0
 80148  1  0  0  0
 81149  1  0  0  0
 82150  1  0  0  0
M  ISO  4   1 100  68 101  79 100  80 101
M  END
> <chiral flag>
0

> <version>
0

> <s_m_source_file>
/data/baiqing/PycharmProjects/Reinvent-master-3.2/result/LINK_invent/BTK/process_docking_weight1_custom_product_contain_oxygen_bond_distance_aromatic_linkinvent_7_9_3/rearranged_h_0118.sdf

> <i_m_source_file_index>
23

> <r_mmod_Potential_Energy-OPLS-2005>
607.643981933594

> <r_mmod_Stretch_Energy-OPLS-2005>
293.382995605469

> <r_mmod_Bend_Energy-OPLS-2005>
241.957473754883

> <r_mmod_Torsional_Energy-OPLS-2005>
188.101638793945

> <r_mmod_Improper_Torsional_Energy-OPLS-2005>
4.88801956176758

> <r_mmod_Van_der_Waal_Energy-OPLS-2005>
149.480377197266

> <r_mmod_Electrostatic_Energy-OPLS-2005>
-276.456237792969

> <r_mmod_Solvation_Energy-OPLS-2005>
-200.196701049805

> <b_mmod_Minimization_Converged-OPLS-2005>
0

> <r_mmod_RMS_Derivative-OPLS-2005>
2.23492169380188

$$$$
23
                    3D
 Structure written by MMmdl.
158166  0  0  1  0            999 V2000
  -30.6856  -14.5104   20.5812 C   0  0  0  0  0  0
  -30.4312  -12.3406   19.4157 C   0  0  0  0  0  0
  -29.4945  -12.4960   18.1995 C   0  0  0  0  0  0
  -28.0178  -12.3485   18.6214 C   0  0  0  0  0  0
  -27.6589  -13.2025   19.8662 C   0  0  2  0  0  0
  -28.7039  -13.0012   20.9864 C   0  0  0  0  0  0
  -25.2623  -13.8149   20.5743 C   0  0  0  0  0  0
  -24.1855  -13.0432   20.9200 C   0  0  0  0  0  0
  -24.6389  -11.6899   20.8724 C   0  0  0  0  0  0
  -23.9038  -10.4293   21.0409 C   0  0  0  0  0  0
  -24.3594   -9.4204   21.9186 C   0  0  0  0  0  0
  -23.6292   -8.2238   22.0756 C   0  0  0  0  0  0
  -22.4273   -8.0274   21.3550 C   0  0  0  0  0  0
  -21.9911   -9.0234   20.4640 C   0  0  0  0  0  0
  -22.7222  -10.2128   20.3050 C   0  0  0  0  0  0
  -21.6841   -6.0727   22.5291 C   0  0  0  0  0  0
  -21.3992   -6.5628   23.8221 C   0  0  0  0  0  0
  -21.3665   -5.6780   24.9192 C   0  0  0  0  0  0
  -21.6062   -4.3048   24.7232 C   0  0  0  0  0  0
  -21.8820   -3.8132   23.4349 C   0  0  0  0  0  0
  -21.9182   -4.6951   22.3406 C   0  0  0  0  0  0
  -22.7871  -13.5245   21.1861 C   0  0  0  0  0  0
  -22.1651   -4.2136   21.0979 F   0  0  0  0  0  0
  -21.5651   -3.4523   25.7742 F   0  0  0  0  0  0
  -30.0238  -13.3288   20.4284 N   0  0  0  0  0  0
  -26.3010  -12.9308   20.3329 N   0  0  0  0  0  0
  -25.9308  -11.6461   20.5730 N   0  0  0  0  0  0
  -22.0472  -12.8242   22.0390 N   0  0  0  0  0  0
  -25.4408  -15.1886   20.4288 N   0  0  0  0  0  0
  -31.8267  -14.6936   20.1493 O   0  0  0  0  0  0
  -21.6639   -6.8877   21.4256 O   0  0  0  0  0  0
  -22.3575  -14.5554   20.6718 O   0  0  0  0  0  0
  -24.6122  -31.8697   23.2125 C   0  0  0  0  0  0
  -25.8991  -32.4834   23.8426 C   0  0  1  0  0  0
  -27.2078  -27.4080   20.0996 C   0  0  0  0  0  0
  -25.5907  -33.8639   24.2357 N   0  0  0  0  0  0
  -23.4037  -30.5002   21.5508 C   0  0  2  0  0  0
  -24.8462  -28.9817   20.1008 C   0  0  0  0  0  0
  -22.7432  -29.4658   22.4911 C   0  0  0  0  0  0
  -18.0284  -28.1385   22.8484 C   0  0  0  0  0  0
  -24.1501  -36.7296   23.2642 C   0  0  0  0  0  0
  -25.9389  -30.8308   21.3690 C   0  0  0  0  0  0
  -26.0130  -29.4703   20.7014 C   0  0  0  0  0  0
  -27.2006  -28.6955   20.6921 C   0  0  0  0  0  0
  -26.0252  -26.9630   19.4569 C   0  0  0  0  0  0
  -24.8507  -27.7316   19.4676 C   0  0  0  0  0  0
  -23.6136  -29.8537   20.1588 C   0  0  0  0  0  0
  -25.4122  -36.3122   24.0362 C   0  0  1  0  0  0
  -20.5890  -28.3668   23.1292 C   0  0  2  0  0  0
  -20.6794  -26.9400   22.5403 C   0  0  0  0  0  0
  -19.5777  -26.6390   21.5200 C   0  0  0  0  0  0
  -18.1946  -26.7933   22.1596 C   0  0  0  0  0  0
  -19.1542  -28.8833   23.2896 C   0  0  0  0  0  0
  -18.9470  -30.1442   23.8914 C   0  0  0  0  0  0
  -17.6471  -30.6591   24.0555 C   0  0  0  0  0  0
  -25.9045  -34.9491   23.5145 C   0  0  0  0  0  0
  -16.5358  -29.9097   23.6321 C   0  0  0  0  0  0
  -16.7274  -28.6516   23.0342 C   0  0  0  0  0  0
  -26.4460  -31.6596   25.0723 C   0  0  0  0  0  0
  -25.3779  -31.3660   26.1499 C   0  0  0  0  0  0
  -27.0232  -30.3044   24.6024 C   0  0  0  0  0  0
  -27.6036  -32.4326   25.7469 C   0  0  0  0  0  0
  -27.5593  -37.1810   24.8474 C   0  0  0  0  0  0
  -21.4151  -29.3038   22.3679 N   0  0  0  0  0  0
  -26.4304  -37.3807   23.9420 N   0  0  0  0  0  0
  -24.6702  -31.0813   22.1013 N   0  0  0  0  0  0
  -23.4212  -28.8175   23.2923 O   0  0  0  0  0  0
  -28.3126  -26.5730   20.1955 O   0  0  0  0  0  0
  -26.5581  -34.8925   22.4694 O   0  0  0  0  0  0
  -23.5311  -32.1424   23.7539 O   0  0  0  0  0  0
  -27.5074  -18.9329   22.9293 C   0  0  0  0  0  0
  -27.8152  -20.2324   22.4924 C   0  0  0  0  0  0
  -29.7742  -19.3523   21.3824 C   0  0  0  0  0  0
  -28.3135  -17.8152   22.6035 C   0  0  0  0  0  0
  -29.4610  -18.0161   21.7760 C   0  0  0  0  0  0
  -28.9775  -20.4746   21.7293 C   0  0  0  0  0  0
  -27.3291  -16.3605   24.4016 C   0  0  0  0  0  0
  -27.9410  -16.5206   23.2148 C   0  0  0  0  0  0
  -30.4540  -16.9042   21.3341 C   0  0  0  0  0  0
  -29.0407  -24.2088   20.9464 C   0  0  0  0  0  0
  -27.9525  -25.1837   20.4290 C   0  0  0  0  0  0
  -28.4390  -22.8394   21.3916 C   0  0  0  0  0  0
  -29.9701  -15.5273   21.1092 N   0  0  0  0  0  0
  -29.3799  -21.7469   21.3276 O   0  0  0  0  0  0
  -31.4709  -12.4645   19.1081 H   0  0  0  0  0  0
  -30.3565  -11.3320   19.8248 H   0  0  0  0  0  0
  -29.7429  -11.7494   17.4433 H   0  0  0  0  0  0
  -29.6490  -13.4682   17.7303 H   0  0  0  0  0  0
  -27.8471  -11.2929   18.8391 H   0  0  0  0  0  0
  -27.3562  -12.5937   17.7890 H   0  0  0  0  0  0
  -27.6988  -14.2461   19.5512 H   0  0  0  0  0  0
  -28.7028  -11.9655   21.3301 H   0  0  0  0  0  0
  -28.4592  -13.5894   21.8687 H   0  0  0  0  0  0
  -25.2749   -9.5681   22.4742 H   0  0  0  0  0  0
  -23.9996   -7.4624   22.7469 H   0  0  0  0  0  0
  -21.0848   -8.8734   19.8947 H   0  0  0  0  0  0
  -22.3680  -10.9643   19.6136 H   0  0  0  0  0  0
  -21.1961   -7.6134   23.9719 H   0  0  0  0  0  0
  -21.1505   -6.0514   25.9101 H   0  0  0  0  0  0
  -22.0596   -2.7589   23.2844 H   0  0  0  0  0  0
  -22.4034  -11.9885   22.4774 H   0  0  0  0  0  0
  -21.1074  -13.1279   22.2535 H   0  0  0  0  0  0
  -24.6987  -15.8519   20.6229 H   0  0  0  0  0  0
  -26.3128  -15.6318   20.1681 H   0  0  0  0  0  0
  -26.7043  -32.5521   23.1171 H   0  0  0  0  0  0
  -25.0145  -33.9861   25.0563 H   0  0  0  0  0  0
  -22.6898  -31.3162   21.4229 H   0  0  0  0  0  0
  -23.3790  -35.9598   23.3314 H   0  0  0  0  0  0
  -24.3623  -36.8886   22.2054 H   0  0  0  0  0  0
  -23.7206  -37.6497   23.6627 H   0  0  0  0  0  0
  -26.0651  -31.6068   20.6129 H   0  0  0  0  0  0
  -26.8223  -30.8697   21.9928 H   0  0  0  0  0  0
  -28.0953  -29.0655   21.1730 H   0  0  0  0  0  0
  -25.9781  -26.0126   18.9487 H   0  0  0  0  0  0
  -23.9563  -27.3603   18.9821 H   0  0  0  0  0  0
  -23.7331  -30.6426   19.4135 H   0  0  0  0  0  0
  -22.7327  -29.2898   19.8474 H   0  0  0  0  0  0
  -25.1298  -36.2012   25.0862 H   0  0  0  0  0  0
  -21.0017  -28.3230   24.1394 H   0  0  0  0  0  0
  -20.5708  -26.2266   23.3591 H   0  0  0  0  0  0
  -21.6654  -26.7467   22.1167 H   0  0  0  0  0  0
  -19.6951  -25.6308   21.1210 H   0  0  0  0  0  0
  -19.6727  -27.3203   20.6738 H   0  0  0  0  0  0
  -17.4230  -26.6679   21.3981 H   0  0  0  0  0  0
  -18.0344  -26.0074   22.9000 H   0  0  0  0  0  0
  -19.7946  -30.7247   24.2297 H   0  0  0  0  0  0
  -17.5032  -31.6269   24.5158 H   0  0  0  0  0  0
  -15.5355  -30.3007   23.7659 H   0  0  0  0  0  0
  -15.8671  -28.0852   22.7041 H   0  0  0  0  0  0
  -24.5980  -30.6968   25.7864 H   0  0  0  0  0  0
  -24.8932  -32.2778   26.4996 H   0  0  0  0  0  0
  -25.8213  -30.8835   27.0219 H   0  0  0  0  0  0
  -26.2699  -29.6851   24.1127 H   0  0  0  0  0  0
  -27.4080  -29.7230   25.4407 H   0  0  0  0  0  0
  -27.8541  -30.4384   23.9089 H   0  0  0  0  0  0
  -27.2663  -33.3655   26.2012 H   0  0  0  0  0  0
  -28.3848  -32.6846   25.0284 H   0  0  0  0  0  0
  -28.0675  -31.8462   26.5409 H   0  0  0  0  0  0
  -28.2608  -38.0106   24.7535 H   0  0  0  0  0  0
  -28.1100  -36.2646   24.6302 H   0  0  0  0  0  0
  -27.2323  -37.1457   25.8879 H   0  0  0  0  0  0
  -20.9284  -29.8795   21.6957 H   0  0  0  0  0  0
  -26.0206  -38.2892   24.1432 H   0  0  0  0  0  0
  -26.6220  -18.8049   23.5344 H   0  0  0  0  0  0
  -27.1490  -21.0283   22.7859 H   0  0  0  0  0  0
  -30.6638  -19.5301   20.7959 H   0  0  0  0  0  0
  -27.0626  -15.3736   24.7524 H   0  0  0  0  0  0
  -27.0836  -17.1931   25.0450 H   0  0  0  0  0  0
  -28.1265  -15.6222   22.6609 H   0  0  0  0  0  0
  -31.2665  -16.8744   22.0627 H   0  0  0  0  0  0
  -30.9149  -17.2293   20.3989 H   0  0  0  0  0  0
  -29.5818  -24.6592   21.7789 H   0  0  0  0  0  0
  -29.7690  -24.0472   20.1542 H   0  0  0  0  0  0
  -27.1228  -25.1499   21.1399 H   0  0  0  0  0  0
  -27.5858  -24.7526   19.4976 H   0  0  0  0  0  0
  -27.5945  -22.5861   20.7469 H   0  0  0  0  0  0
  -28.0357  -22.9676   22.3988 H   0  0  0  0  0  0
  -29.0112  -15.3315   21.3409 H   0  0  0  0  0  0
  1 25  1  0  0  0
  1 30  2  0  0  0
  1 83  1  0  0  0
  2  3  1  0  0  0
  2 25  1  0  0  0
  2 85  1  0  0  0
  2 86  1  0  0  0
  3  4  1  0  0  0
  3 87  1  0  0  0
  3 88  1  0  0  0
  4  5  1  0  0  0
  4 89  1  0  0  0
  4 90  1  0  0  0
  5  6  1  0  0  0
  5 26  1  0  0  0
  5 91  1  0  0  0
  6 25  1  0  0  0
  6 92  1  0  0  0
  6 93  1  0  0  0
  7  8  2  0  0  0
  7 26  1  0  0  0
  7 29  1  0  0  0
  8  9  1  0  0  0
  8 22  1  0  0  0
  9 10  1  0  0  0
  9 27  2  0  0  0
 10 11  2  0  0  0
 10 15  1  0  0  0
 11 12  1  0  0  0
 11 94  1  0  0  0
 12 13  2  0  0  0
 12 95  1  0  0  0
 13 14  1  0  0  0
 13 31  1  0  0  0
 14 15  2  0  0  0
 14 96  1  0  0  0
 15 97  1  0  0  0
 16 17  2  0  0  0
 16 21  1  0  0  0
 16 31  1  0  0  0
 17 18  1  0  0  0
 17 98  1  0  0  0
 18 19  2  0  0  0
 18 99  1  0  0  0
 19 20  1  0  0  0
 19 24  1  0  0  0
 20 21  2  0  0  0
 20100  1  0  0  0
 21 23  1  0  0  0
 22 28  1  0  0  0
 22 32  2  0  0  0
 26 27  1  0  0  0
 28101  1  0  0  0
 28102  1  0  0  0
 29103  1  0  0  0
 29104  1  0  0  0
 33 34  1  0  0  0
 33 66  1  0  0  0
 33 70  2  0  0  0
 34 36  1  0  0  0
 34 59  1  0  0  0
 34105  1  0  0  0
 35 44  2  0  0  0
 35 45  1  0  0  0
 35 68  1  0  0  0
 36 56  1  0  0  0
 36106  1  0  0  0
 37 39  1  0  0  0
 37 47  1  0  0  0
 37 66  1  0  0  0
 37107  1  0  0  0
 38 43  2  0  0  0
 38 46  1  0  0  0
 38 47  1  0  0  0
 39 64  1  0  0  0
 39 67  2  0  0  0
 40 52  1  0  0  0
 40 53  2  0  0  0
 40 58  1  0  0  0
 41108  1  0  0  0
 41109  1  0  0  0
 41110  1  0  0  0
 41 48  1  0  0  0
 42 43  1  0  0  0
 42 66  1  0  0  0
 42111  1  0  0  0
 42112  1  0  0  0
 43 44  1  0  0  0
 44113  1  0  0  0
 45 46  2  0  0  0
 45114  1  0  0  0
 46115  1  0  0  0
 47116  1  0  0  0
 47117  1  0  0  0
 48 56  1  0  0  0
 48 65  1  0  0  0
 48118  1  0  0  0
 49 50  1  0  0  0
 49 53  1  0  0  0
 49 64  1  0  0  0
 49119  1  0  0  0
 50 51  1  0  0  0
 50120  1  0  0  0
 50121  1  0  0  0
 51 52  1  0  0  0
 51122  1  0  0  0
 51123  1  0  0  0
 52124  1  0  0  0
 52125  1  0  0  0
 53 54  1  0  0  0
 54 55  2  0  0  0
 54126  1  0  0  0
 55 57  1  0  0  0
 55127  1  0  0  0
 56 69  2  0  0  0
 57 58  2  0  0  0
 57128  1  0  0  0
 58129  1  0  0  0
 59 60  1  0  0  0
 59 61  1  0  0  0
 59 62  1  0  0  0
 60130  1  0  0  0
 60131  1  0  0  0
 60132  1  0  0  0
 61133  1  0  0  0
 61134  1  0  0  0
 61135  1  0  0  0
 62136  1  0  0  0
 62137  1  0  0  0
 62138  1  0  0  0
 63 65  1  0  0  0
 63139  1  0  0  0
 63140  1  0  0  0
 63141  1  0  0  0
 64142  1  0  0  0
 65143  1  0  0  0
 68 81  1  0  0  0
 71 72  2  0  0  0
 71 74  1  0  0  0
 71144  1  0  0  0
 72 76  1  0  0  0
 72145  1  0  0  0
 73 75  1  0  0  0
 73 76  2  0  0  0
 73146  1  0  0  0
 74 75  2  0  0  0
 74 78  1  0  0  0
 75 79  1  0  0  0
 76 84  1  0  0  0
 77 78  2  0  0  0
 77147  1  0  0  0
 77148  1  0  0  0
 78149  1  0  0  0
 79 83  1  0  0  0
 79150  1  0  0  0
 79151  1  0  0  0
 80 81  1  0  0  0
 80 82  1  0  0  0
 80152  1  0  0  0
 80153  1  0  0  0
 81154  1  0  0  0
 81155  1  0  0  0
 82 84  1  0  0  0
 82156  1  0  0  0
 82157  1  0  0  0
 83158  1  0  0  0
M  ISO  4   1 100  68 101  81 101  83 100
M  END
> <chiral flag>
0

> <version>
0

> <s_m_source_file>
/data/baiqing/PycharmProjects/Reinvent-master-3.2/result/LINK_invent/BTK/process_docking_weight1_custom_product_contain_oxygen_bond_distance_aromatic_linkinvent_7_9_3/rearranged_h_0118.sdf

> <i_m_source_file_index>
24

> <r_mmod_Potential_Energy-OPLS-2005>
-52.635440826416

> <r_mmod_Stretch_Energy-OPLS-2005>
48.1096839904785

> <r_mmod_Bend_Energy-OPLS-2005>
115.038711547852

> <r_mmod_Torsional_Energy-OPLS-2005>
220.05110168457

> <r_mmod_Improper_Torsional_Energy-OPLS-2005>
3.45088887214661

> <r_mmod_Van_der_Waal_Energy-OPLS-2005>
164.587707519531

> <r_mmod_Electrostatic_Energy-OPLS-2005>
-419.925415039062

> <r_mmod_Solvation_Energy-OPLS-2005>
-208.197906494141

> <b_mmod_Minimization_Converged-OPLS-2005>
0

> <r_mmod_RMS_Derivative-OPLS-2005>
3.83387398719788

$$$$
24
                    3D
 Structure written by MMmdl.
161169  0  0  1  0            999 V2000
  -30.7477  -14.4687   20.6416 C   0  0  0  0  0  0
  -30.4304  -12.3255   19.4234 C   0  0  0  0  0  0
  -29.5036  -12.5072   18.2051 C   0  0  0  0  0  0
  -28.0215  -12.3790   18.6090 C   0  0  0  0  0  0
  -27.6662  -13.2015   19.8787 C   0  0  2  0  0  0
  -28.7099  -12.9963   20.9974 C   0  0  0  0  0  0
  -25.2666  -13.8140   20.5759 C   0  0  0  0  0  0
  -24.1880  -13.0428   20.9161 C   0  0  0  0  0  0
  -24.6413  -11.6886   20.8725 C   0  0  0  0  0  0
  -23.9057  -10.4273   21.0407 C   0  0  0  0  0  0
  -24.3606   -9.4197   21.9199 C   0  0  0  0  0  0
  -23.6248   -8.2259   22.0792 C   0  0  0  0  0  0
  -22.4253   -8.0284   21.3571 C   0  0  0  0  0  0
  -21.9889   -9.0251   20.4679 C   0  0  0  0  0  0
  -22.7224  -10.2118   20.3053 C   0  0  0  0  0  0
  -21.6848   -6.0728   22.5262 C   0  0  0  0  0  0
  -21.4020   -6.5623   23.8192 C   0  0  0  0  0  0
  -21.3658   -5.6776   24.9151 C   0  0  0  0  0  0
  -21.6061   -4.3038   24.7205 C   0  0  0  0  0  0
  -21.8815   -3.8126   23.4325 C   0  0  0  0  0  0
  -21.9202   -4.6950   22.3384 C   0  0  0  0  0  0
  -22.7894  -13.5267   21.1757 C   0  0  0  0  0  0
  -22.1672   -4.2136   21.0972 F   0  0  0  0  0  0
  -21.5624   -3.4537   25.7722 F   0  0  0  0  0  0
  -30.0442  -13.3091   20.4532 N   0  0  0  0  0  0
  -26.3070  -12.9277   20.3399 N   0  0  0  0  0  0
  -25.9348  -11.6454   20.5755 N   0  0  0  0  0  0
  -22.0457  -12.8335   22.0302 N   0  0  0  0  0  0
  -25.4482  -15.1853   20.4311 N   0  0  0  0  0  0
  -31.7886  -14.7089   20.0198 O   0  0  0  0  0  0
  -21.6619   -6.8882   21.4236 O   0  0  0  0  0  0
  -22.3626  -14.5583   20.6568 O   0  0  0  0  0  0
  -24.6223  -31.8644   23.2134 C   0  0  0  0  0  0
  -25.9117  -32.4808   23.8424 C   0  0  1  0  0  0
  -27.2197  -27.3937   20.1142 C   0  0  0  0  0  0
  -25.6008  -33.8619   24.2355 N   0  0  0  0  0  0
  -23.4083  -30.4930   21.5524 C   0  0  2  0  0  0
  -24.8494  -28.9612   20.1172 C   0  0  0  0  0  0
  -22.7412  -29.4643   22.4959 C   0  0  0  0  0  0
  -18.0275  -28.1363   22.8520 C   0  0  0  0  0  0
  -24.1464  -36.7320   23.2627 C   0  0  0  0  0  0
  -25.9397  -30.8280   21.3650 C   0  0  0  0  0  0
  -26.0142  -29.4582   20.7144 C   0  0  0  0  0  0
  -27.2017  -28.6845   20.7037 C   0  0  0  0  0  0
  -26.0305  -26.9294   19.4994 C   0  0  0  0  0  0
  -24.8541  -27.6978   19.5067 C   0  0  0  0  0  0
  -23.6200  -29.8398   20.1622 C   0  0  0  0  0  0
  -25.4114  -36.3139   24.0303 C   0  0  1  0  0  0
  -20.5869  -28.3669   23.1313 C   0  0  2  0  0  0
  -20.6766  -26.9404   22.5430 C   0  0  0  0  0  0
  -19.5738  -26.6384   21.5244 C   0  0  0  0  0  0
  -18.1912  -26.7918   22.1628 C   0  0  0  0  0  0
  -19.1524  -28.8821   23.2918 C   0  0  0  0  0  0
  -18.9457  -30.1426   23.8923 C   0  0  0  0  0  0
  -17.6475  -30.6587   24.0558 C   0  0  0  0  0  0
  -25.9057  -34.9481   23.5106 C   0  0  0  0  0  0
  -16.5350  -29.9105   23.6318 C   0  0  0  0  0  0
  -16.7275  -28.6500   23.0371 C   0  0  0  0  0  0
  -26.4536  -31.6568   25.0748 C   0  0  0  0  0  0
  -25.3805  -31.3672   26.1516 C   0  0  0  0  0  0
  -27.0386  -30.3020   24.6105 C   0  0  0  0  0  0
  -27.6083  -32.4296   25.7525 C   0  0  0  0  0  0
  -27.5568  -37.1818   24.8474 C   0  0  0  0  0  0
  -21.4126  -29.3054   22.3697 N   0  0  0  0  0  0
  -26.4293  -37.3845   23.9409 N   0  0  0  0  0  0
  -24.6751  -31.0741   22.1044 N   0  0  0  0  0  0
  -23.4153  -28.8217   23.3044 O   0  0  0  0  0  0
  -28.3726  -26.6214   20.1469 O   0  0  0  0  0  0
  -26.5593  -34.8943   22.4657 O   0  0  0  0  0  0
  -23.5398  -32.1401   23.7513 O   0  0  0  0  0  0
  -29.4271  -18.8134   20.0923 C   0  0  0  0  0  0
  -30.6755  -17.6847   22.2989 C   0  0  0  0  0  0
  -29.5020  -17.3929   20.1940 C   0  0  0  0  0  0
  -30.1525  -16.7894   21.3248 C   0  0  0  0  0  0
  -29.9716  -19.6844   21.0690 C   0  0  0  0  0  0
  -30.6022  -19.0819   22.1730 C   0  0  0  0  0  0
  -27.7684  -17.0391   18.4113 C   0  0  0  0  0  0
  -28.8232  -16.6196   19.1337 C   0  0  0  0  0  0
  -30.5207  -14.9120   22.9525 C   0  0  0  0  0  0
  -29.5760  -24.4341   20.1617 C   0  0  0  0  0  0
  -29.5845  -23.0143   19.5077 C   0  0  0  0  0  0
  -28.2151  -25.1774   20.1598 C   0  0  0  0  0  0
  -28.9768  -21.8099   20.2828 C   0  0  0  0  0  0
  -30.2770  -15.3495   21.5656 N   0  0  0  0  0  0
  -29.9799  -21.0771   21.0096 O   0  0  0  0  0  0
  -31.1489  -19.8565   23.1421 F   0  0  0  0  0  0
  -31.4777  -12.4192   19.1235 H   0  0  0  0  0  0
  -30.3355  -11.3147   19.8204 H   0  0  0  0  0  0
  -29.7454  -11.7659   17.4403 H   0  0  0  0  0  0
  -29.6857  -13.4798   17.7456 H   0  0  0  0  0  0
  -27.8106  -11.3213   18.7788 H   0  0  0  0  0  0
  -27.3846  -12.6800   17.7751 H   0  0  0  0  0  0
  -27.6910  -14.2484   19.5957 H   0  0  0  0  0  0
  -28.6969  -11.9646   21.3529 H   0  0  0  0  0  0
  -28.4509  -13.6055   21.8616 H   0  0  0  0  0  0
  -25.2764   -9.5639   22.4766 H   0  0  0  0  0  0
  -23.9923   -7.4675   22.7549 H   0  0  0  0  0  0
  -21.0812   -8.8772   19.9017 H   0  0  0  0  0  0
  -22.3712  -10.9644   19.6130 H   0  0  0  0  0  0
  -21.2029   -7.6130   23.9682 H   0  0  0  0  0  0
  -21.1486   -6.0514   25.9051 H   0  0  0  0  0  0
  -22.0616   -2.7589   23.2817 H   0  0  0  0  0  0
  -22.3951  -11.9985   22.4764 H   0  0  0  0  0  0
  -21.1081  -13.1468   22.2412 H   0  0  0  0  0  0
  -24.7049  -15.8549   20.5890 H   0  0  0  0  0  0
  -26.3298  -15.6201   20.1827 H   0  0  0  0  0  0
  -26.7192  -32.5509   23.1180 H   0  0  0  0  0  0
  -25.0193  -33.9795   25.0523 H   0  0  0  0  0  0
  -22.7042  -31.3158   21.4177 H   0  0  0  0  0  0
  -23.3740  -35.9640   23.3314 H   0  0  0  0  0  0
  -24.3556  -36.8957   22.2052 H   0  0  0  0  0  0
  -23.7191  -37.6487   23.6669 H   0  0  0  0  0  0
  -26.0499  -31.5943   20.5957 H   0  0  0  0  0  0
  -26.8253  -30.8830   21.9851 H   0  0  0  0  0  0
  -28.0996  -29.0640   21.1700 H   0  0  0  0  0  0
  -25.9733  -25.9770   18.9979 H   0  0  0  0  0  0
  -23.9573  -27.3067   19.0425 H   0  0  0  0  0  0
  -23.7524  -30.6244   19.4164 H   0  0  0  0  0  0
  -22.7356  -29.2833   19.8466 H   0  0  0  0  0  0
  -25.1282  -36.2007   25.0788 H   0  0  0  0  0  0
  -20.9949  -28.3269   24.1449 H   0  0  0  0  0  0
  -20.5688  -26.2304   23.3639 H   0  0  0  0  0  0
  -21.6626  -26.7483   22.1174 H   0  0  0  0  0  0
  -19.6888  -25.6328   21.1239 H   0  0  0  0  0  0
  -19.6639  -27.3225   20.6801 H   0  0  0  0  0  0
  -17.4179  -26.6740   21.4004 H   0  0  0  0  0  0
  -18.0225  -26.0048   22.8981 H   0  0  0  0  0  0
  -19.7945  -30.7211   24.2278 H   0  0  0  0  0  0
  -17.5050  -31.6277   24.5155 H   0  0  0  0  0  0
  -15.5346  -30.3026   23.7590 H   0  0  0  0  0  0
  -15.8673  -28.0806   22.7093 H   0  0  0  0  0  0
  -24.6035  -30.6938   25.7895 H   0  0  0  0  0  0
  -24.8958  -32.2819   26.4926 H   0  0  0  0  0  0
  -25.8192  -30.8915   27.0307 H   0  0  0  0  0  0
  -26.2922  -29.6762   24.1201 H   0  0  0  0  0  0
  -27.4234  -29.7280   25.4553 H   0  0  0  0  0  0
  -27.8719  -30.4340   23.9200 H   0  0  0  0  0  0
  -27.2653  -33.3590   26.2068 H   0  0  0  0  0  0
  -28.3903  -32.6838   25.0365 H   0  0  0  0  0  0
  -28.0724  -31.8460   26.5494 H   0  0  0  0  0  0
  -28.2562  -38.0126   24.7546 H   0  0  0  0  0  0
  -28.1055  -36.2654   24.6253 H   0  0  0  0  0  0
  -27.2278  -37.1420   25.8868 H   0  0  0  0  0  0
  -20.9302  -29.8828   21.6949 H   0  0  0  0  0  0
  -26.0158  -38.2883   24.1541 H   0  0  0  0  0  0
  -28.9663  -19.2294   19.2126 H   0  0  0  0  0  0
  -31.1638  -17.3363   23.1926 H   0  0  0  0  0  0
  -27.3456  -16.4145   17.6389 H   0  0  0  0  0  0
  -27.3004  -18.0002   18.5680 H   0  0  0  0  0  0
  -29.2222  -15.6526   18.8877 H   0  0  0  0  0  0
  -31.4815  -15.2841   23.3134 H   0  0  0  0  0  0
  -30.5751  -13.8264   23.0628 H   0  0  0  0  0  0
  -29.7237  -15.2642   23.6091 H   0  0  0  0  0  0
  -30.2536  -25.0466   19.5627 H   0  0  0  0  0  0
  -30.0182  -24.4154   21.1603 H   0  0  0  0  0  0
  -30.6109  -22.7567   19.2387 H   0  0  0  0  0  0
  -29.0630  -23.0896   18.5531 H   0  0  0  0  0  0
  -27.6219  -24.8679   21.0293 H   0  0  0  0  0  0
  -27.6779  -24.8447   19.2714 H   0  0  0  0  0  0
  -28.4523  -21.1881   19.5619 H   0  0  0  0  0  0
  -28.2107  -22.1552   20.9779 H   0  0  0  0  0  0
  1 25  1  0  0  0
  1 30  2  0  0  0
  1 84  1  0  0  0
  2  3  1  0  0  0
  2 25  1  0  0  0
  2 87  1  0  0  0
  2 88  1  0  0  0
  3  4  1  0  0  0
  3 89  1  0  0  0
  3 90  1  0  0  0
  4  5  1  0  0  0
  4 91  1  0  0  0
  4 92  1  0  0  0
  5  6  1  0  0  0
  5 26  1  0  0  0
  5 93  1  0  0  0
  6 25  1  0  0  0
  6 94  1  0  0  0
  6 95  1  0  0  0
  7  8  2  0  0  0
  7 26  1  0  0  0
  7 29  1  0  0  0
  8  9  1  0  0  0
  8 22  1  0  0  0
  9 10  1  0  0  0
  9 27  2  0  0  0
 10 11  2  0  0  0
 10 15  1  0  0  0
 11 12  1  0  0  0
 11 96  1  0  0  0
 12 13  2  0  0  0
 12 97  1  0  0  0
 13 14  1  0  0  0
 13 31  1  0  0  0
 14 15  2  0  0  0
 14 98  1  0  0  0
 15 99  1  0  0  0
 16 17  2  0  0  0
 16 21  1  0  0  0
 16 31  1  0  0  0
 17 18  1  0  0  0
 17100  1  0  0  0
 18 19  2  0  0  0
 18101  1  0  0  0
 19 20  1  0  0  0
 19 24  1  0  0  0
 20 21  2  0  0  0
 20102  1  0  0  0
 21 23  1  0  0  0
 22 28  1  0  0  0
 22 32  2  0  0  0
 26 27  1  0  0  0
 28103  1  0  0  0
 28104  1  0  0  0
 29105  1  0  0  0
 29106  1  0  0  0
 33 34  1  0  0  0
 33 66  1  0  0  0
 33 70  2  0  0  0
 34 36  1  0  0  0
 34 59  1  0  0  0
 34107  1  0  0  0
 35 44  2  0  0  0
 35 45  1  0  0  0
 35 68  1  0  0  0
 36 56  1  0  0  0
 36108  1  0  0  0
 37 39  1  0  0  0
 37 47  1  0  0  0
 37 66  1  0  0  0
 37109  1  0  0  0
 38 43  2  0  0  0
 38 46  1  0  0  0
 38 47  1  0  0  0
 39 64  1  0  0  0
 39 67  2  0  0  0
 40 52  1  0  0  0
 40 53  2  0  0  0
 40 58  1  0  0  0
 41110  1  0  0  0
 41111  1  0  0  0
 41112  1  0  0  0
 41 48  1  0  0  0
 42 43  1  0  0  0
 42 66  1  0  0  0
 42113  1  0  0  0
 42114  1  0  0  0
 43 44  1  0  0  0
 44115  1  0  0  0
 45 46  2  0  0  0
 45116  1  0  0  0
 46117  1  0  0  0
 47118  1  0  0  0
 47119  1  0  0  0
 48 56  1  0  0  0
 48 65  1  0  0  0
 48120  1  0  0  0
 49 50  1  0  0  0
 49 53  1  0  0  0
 49 64  1  0  0  0
 49121  1  0  0  0
 50 51  1  0  0  0
 50122  1  0  0  0
 50123  1  0  0  0
 51 52  1  0  0  0
 51124  1  0  0  0
 51125  1  0  0  0
 52126  1  0  0  0
 52127  1  0  0  0
 53 54  1  0  0  0
 54 55  2  0  0  0
 54128  1  0  0  0
 55 57  1  0  0  0
 55129  1  0  0  0
 56 69  2  0  0  0
 57 58  2  0  0  0
 57130  1  0  0  0
 58131  1  0  0  0
 59 60  1  0  0  0
 59 61  1  0  0  0
 59 62  1  0  0  0
 60132  1  0  0  0
 60133  1  0  0  0
 60134  1  0  0  0
 61135  1  0  0  0
 61136  1  0  0  0
 61137  1  0  0  0
 62138  1  0  0  0
 62139  1  0  0  0
 62140  1  0  0  0
 63 65  1  0  0  0
 63141  1  0  0  0
 63142  1  0  0  0
 63143  1  0  0  0
 64144  1  0  0  0
 65145  1  0  0  0
 68 82  1  0  0  0
 71 73  2  0  0  0
 71 75  1  0  0  0
 71146  1  0  0  0
 72 74  2  0  0  0
 72 76  1  0  0  0
 72147  1  0  0  0
 73 74  1  0  0  0
 73 78  1  0  0  0
 74 84  1  0  0  0
 75 76  2  0  0  0
 75 85  1  0  0  0
 76 86  1  0  0  0
 77 78  2  0  0  0
 77148  1  0  0  0
 77149  1  0  0  0
 78150  1  0  0  0
 79 84  1  0  0  0
 79151  1  0  0  0
 79152  1  0  0  0
 79153  1  0  0  0
 80 81  1  0  0  0
 80 82  1  0  0  0
 80154  1  0  0  0
 80155  1  0  0  0
 81 83  1  0  0  0
 81156  1  0  0  0
 81157  1  0  0  0
 82158  1  0  0  0
 82159  1  0  0  0
 83 85  1  0  0  0
 83160  1  0  0  0
 83161  1  0  0  0
M  ISO  4   1 100  68 101  82 101  84 100
M  END
> <chiral flag>
0

> <version>
0

> <s_m_source_file>
/data/baiqing/PycharmProjects/Reinvent-master-3.2/result/LINK_invent/BTK/process_docking_weight1_custom_product_contain_oxygen_bond_distance_aromatic_linkinvent_7_9_3/rearranged_h_0118.sdf

> <i_m_source_file_index>
25

> <r_mmod_Potential_Energy-OPLS-2005>
194.064575195312

> <r_mmod_Stretch_Energy-OPLS-2005>
55.4300956726074

> <r_mmod_Bend_Energy-OPLS-2005>
131.473236083984

> <r_mmod_Torsional_Energy-OPLS-2005>
310.326904296875

> <r_mmod_Improper_Torsional_Energy-OPLS-2005>
3.8502357006073

> <r_mmod_Van_der_Waal_Energy-OPLS-2005>
169.136199951172

> <r_mmod_Electrostatic_Energy-OPLS-2005>
-301.865295410156

> <r_mmod_Solvation_Energy-OPLS-2005>
-190.251434326172

> <b_mmod_Minimization_Converged-OPLS-2005>
0

> <r_mmod_RMS_Derivative-OPLS-2005>
5.45854187011719

$$$$
25
                    3D
 Structure written by MMmdl.
152160  0  0  1  0            999 V2000
  -30.6066  -14.7316   20.4981 C   0  0  0  0  0  0
  -30.4416  -12.4488   19.4702 C   0  0  0  0  0  0
  -29.5116  -12.5148   18.2372 C   0  0  0  0  0  0
  -28.0388  -12.3342   18.6524 C   0  0  0  0  0  0
  -27.6491  -13.2273   19.8602 C   0  0  2  0  0  0
  -28.6954  -13.1251   20.9917 C   0  0  0  0  0  0
  -25.2543  -13.8194   20.5723 C   0  0  0  0  0  0
  -24.1814  -13.0439   20.9202 C   0  0  0  0  0  0
  -24.6405  -11.6918   20.8752 C   0  0  0  0  0  0
  -23.9073  -10.4294   21.0408 C   0  0  0  0  0  0
  -24.3620   -9.4205   21.9186 C   0  0  0  0  0  0
  -23.6291   -8.2240   22.0763 C   0  0  0  0  0  0
  -22.4272   -8.0285   21.3548 C   0  0  0  0  0  0
  -21.9912   -9.0264   20.4649 C   0  0  0  0  0  0
  -22.7245  -10.2139   20.3053 C   0  0  0  0  0  0
  -21.6850   -6.0737   22.5281 C   0  0  0  0  0  0
  -21.4016   -6.5645   23.8215 C   0  0  0  0  0  0
  -21.3656   -5.6796   24.9174 C   0  0  0  0  0  0
  -21.6038   -4.3059   24.7223 C   0  0  0  0  0  0
  -21.8819   -3.8149   23.4345 C   0  0  0  0  0  0
  -21.9192   -4.6964   22.3401 C   0  0  0  0  0  0
  -22.7831  -13.5220   21.1860 C   0  0  0  0  0  0
  -22.1662   -4.2149   21.0979 F   0  0  0  0  0  0
  -21.5621   -3.4549   25.7738 F   0  0  0  0  0  0
  -30.0003  -13.4925   20.4250 N   0  0  0  0  0  0
  -26.2979  -12.9393   20.3330 N   0  0  0  0  0  0
  -25.9339  -11.6537   20.5773 N   0  0  0  0  0  0
  -22.0484  -12.8201   22.0423 N   0  0  0  0  0  0
  -25.4240  -15.1921   20.4175 N   0  0  0  0  0  0
  -31.7632  -14.8480   20.0793 O   0  0  0  0  0  0
  -21.6629   -6.8885   21.4244 O   0  0  0  0  0  0
  -22.3506  -14.5529   20.6716 O   0  0  0  0  0  0
  -24.6326  -31.8555   23.1985 C   0  0  0  0  0  0
  -25.9151  -32.4754   23.8332 C   0  0  1  0  0  0
  -27.2207  -27.2581   20.1146 C   0  0  0  0  0  0
  -25.5944  -33.8556   24.2259 N   0  0  0  0  0  0
  -23.4290  -30.4792   21.5427 C   0  0  2  0  0  0
  -24.8758  -28.9292   20.1073 C   0  0  0  0  0  0
  -22.7509  -29.4605   22.4909 C   0  0  0  0  0  0
  -18.0293  -28.1384   22.8482 C   0  0  0  0  0  0
  -24.1491  -36.7279   23.2638 C   0  0  0  0  0  0
  -25.9767  -30.7635   21.3826 C   0  0  0  0  0  0
  -26.0477  -29.3870   20.7220 C   0  0  0  0  0  0
  -27.2196  -28.5623   20.7200 C   0  0  0  0  0  0
  -26.0273  -26.8826   19.4529 C   0  0  0  0  0  0
  -24.8714  -27.6848   19.4632 C   0  0  0  0  0  0
  -23.6465  -29.8160   20.1581 C   0  0  0  0  0  0
  -25.4118  -36.3069   24.0327 C   0  0  1  0  0  0
  -20.5898  -28.3699   23.1261 C   0  0  2  0  0  0
  -20.6773  -26.9412   22.5404 C   0  0  0  0  0  0
  -19.5752  -26.6383   21.5203 C   0  0  0  0  0  0
  -18.1934  -26.7927   22.1616 C   0  0  0  0  0  0
  -19.1549  -28.8857   23.2868 C   0  0  0  0  0  0
  -18.9468  -30.1455   23.8888 C   0  0  0  0  0  0
  -17.6465  -30.6582   24.0559 C   0  0  0  0  0  0
  -25.9064  -34.9440   23.5095 C   0  0  0  0  0  0
  -16.5359  -29.9079   23.6329 C   0  0  0  0  0  0
  -16.7280  -28.6499   23.0354 C   0  0  0  0  0  0
  -26.4512  -31.6573   25.0719 C   0  0  0  0  0  0
  -25.3729  -31.3715   26.1432 C   0  0  0  0  0  0
  -27.0363  -30.2987   24.6214 C   0  0  0  0  0  0
  -27.6068  -32.4314   25.7489 C   0  0  0  0  0  0
  -27.5584  -37.1796   24.8468 C   0  0  0  0  0  0
  -21.4216  -29.3048   22.3654 N   0  0  0  0  0  0
  -26.4295  -37.3770   23.9411 N   0  0  0  0  0  0
  -24.6983  -31.0512   22.0968 N   0  0  0  0  0  0
  -23.4205  -28.8141   23.3009 O   0  0  0  0  0  0
  -28.3111  -26.3542   20.1917 O   0  0  0  0  0  0
  -26.5636  -34.8918   22.4665 O   0  0  0  0  0  0
  -23.5474  -32.1390   23.7266 O   0  0  0  0  0  0
  -29.7380  -19.2295   18.8192 C   0  0  0  0  0  0
  -29.9044  -17.8054   18.9281 C   0  0  0  0  0  0
  -29.6030  -19.7524   20.0792 C   0  0  0  0  0  0
  -29.8725  -17.4333   20.2503 C   0  0  0  0  0  0
  -30.0451  -17.2584   16.4967 C   0  0  0  0  0  0
  -30.0414  -16.8877   17.7877 C   0  0  0  0  0  0
  -29.3840  -21.1500   20.5647 C   0  0  0  0  0  0
  -29.0627  -22.3320   19.9080 C   0  0  0  0  0  0
  -28.9346  -23.7517   20.5074 C   0  0  0  0  0  0
  -29.8626  -16.0569   21.0307 C   0  0  0  0  0  0
  -28.1269  -24.9177   19.7636 C   0  0  0  0  0  0
  -29.4446  -24.0175   21.6003 O   0  0  0  0  0  0
  -29.6790  -18.6469   20.9596 O   0  0  0  0  0  0
  -31.4807  -12.5764   19.1625 H   0  0  0  0  0  0
  -30.3922  -11.4641   19.9379 H   0  0  0  0  0  0
  -29.7912  -11.7491   17.5127 H   0  0  0  0  0  0
  -29.6362  -13.4736   17.7327 H   0  0  0  0  0  0
  -27.9002  -11.2839   18.9145 H   0  0  0  0  0  0
  -27.3778  -12.5243   17.8059 H   0  0  0  0  0  0
  -27.6543  -14.2553   19.4976 H   0  0  0  0  0  0
  -28.7274  -12.1101   21.3903 H   0  0  0  0  0  0
  -28.4281  -13.7599   21.8366 H   0  0  0  0  0  0
  -25.2773   -9.5672   22.4747 H   0  0  0  0  0  0
  -24.0001   -7.4623   22.7478 H   0  0  0  0  0  0
  -21.0851   -8.8776   19.8944 H   0  0  0  0  0  0
  -22.3711  -10.9676   19.6150 H   0  0  0  0  0  0
  -21.2012   -7.6154   23.9720 H   0  0  0  0  0  0
  -21.1477   -6.0528   25.9078 H   0  0  0  0  0  0
  -22.0600   -2.7609   23.2847 H   0  0  0  0  0  0
  -22.4121  -11.9856   22.4785 H   0  0  0  0  0  0
  -21.1101  -13.1213   22.2651 H   0  0  0  0  0  0
  -24.6582  -15.8473   20.5303 H   0  0  0  0  0  0
  -26.2788  -15.6352   20.1066 H   0  0  0  0  0  0
  -26.7216  -32.5398   23.1071 H   0  0  0  0  0  0
  -25.0085  -33.9692   25.0402 H   0  0  0  0  0  0
  -22.7261  -31.3020   21.3978 H   0  0  0  0  0  0
  -23.3764  -35.9602   23.3296 H   0  0  0  0  0  0
  -24.3582  -36.8908   22.2053 H   0  0  0  0  0  0
  -23.7238  -37.6474   23.6669 H   0  0  0  0  0  0
  -26.1213  -31.5242   20.6139 H   0  0  0  0  0  0
  -26.8532  -30.8089   22.0173 H   0  0  0  0  0  0
  -28.1137  -28.9048   21.2220 H   0  0  0  0  0  0
  -25.9436  -25.9486   18.9198 H   0  0  0  0  0  0
  -23.9788  -27.3331   18.9645 H   0  0  0  0  0  0
  -23.7703  -30.5941   19.4040 H   0  0  0  0  0  0
  -22.7637  -29.2511   19.8525 H   0  0  0  0  0  0
  -25.1298  -36.1917   25.0820 H   0  0  0  0  0  0
  -20.9989  -28.3277   24.1381 H   0  0  0  0  0  0
  -20.5654  -26.2311   23.3614 H   0  0  0  0  0  0
  -21.6646  -26.7418   22.1215 H   0  0  0  0  0  0
  -19.6911  -25.6294   21.1236 H   0  0  0  0  0  0
  -19.6686  -27.3190   20.6732 H   0  0  0  0  0  0
  -17.4200  -26.6681   21.4019 H   0  0  0  0  0  0
  -18.0328  -26.0066   22.9007 H   0  0  0  0  0  0
  -19.7943  -30.7272   24.2259 H   0  0  0  0  0  0
  -17.5020  -31.6261   24.5167 H   0  0  0  0  0  0
  -15.5359  -30.2977   23.7654 H   0  0  0  0  0  0
  -15.8682  -28.0809   22.7073 H   0  0  0  0  0  0
  -24.5940  -30.7019   25.7762 H   0  0  0  0  0  0
  -24.8870  -32.2869   26.4817 H   0  0  0  0  0  0
  -25.8048  -30.8934   27.0233 H   0  0  0  0  0  0
  -26.2946  -29.6721   24.1245 H   0  0  0  0  0  0
  -27.4048  -29.7263   25.4738 H   0  0  0  0  0  0
  -27.8827  -30.4258   23.9461 H   0  0  0  0  0  0
  -27.2692  -33.3635   26.2033 H   0  0  0  0  0  0
  -28.3893  -32.6837   25.0319 H   0  0  0  0  0  0
  -28.0721  -31.8455   26.5426 H   0  0  0  0  0  0
  -28.2600  -38.0094   24.7518 H   0  0  0  0  0  0
  -28.1083  -36.2626   24.6292 H   0  0  0  0  0  0
  -27.2303  -37.1442   25.8871 H   0  0  0  0  0  0
  -20.9400  -29.8782   21.6869 H   0  0  0  0  0  0
  -26.0173  -38.2846   24.1410 H   0  0  0  0  0  0
  -29.7134  -19.8149   17.9108 H   0  0  0  0  0  0
  -30.1466  -16.5221   15.7115 H   0  0  0  0  0  0
  -29.9485  -18.2903   16.1938 H   0  0  0  0  0  0
  -30.1460  -15.8368   18.0111 H   0  0  0  0  0  0
  -29.5325  -21.2471   21.6310 H   0  0  0  0  0  0
  -28.8935  -22.2747   18.8432 H   0  0  0  0  0  0
  -28.8167  -15.8132   21.1984 H   0  0  0  0  0  0
  -30.2630  -16.2369   22.0278 H   0  0  0  0  0  0
  -27.0901  -24.6263   19.9157 H   0  0  0  0  0  0
  -28.3187  -24.8460   18.6930 H   0  0  0  0  0  0
  1 25  1  0  0  0
  1 30  2  0  0  0
  1 80  1  0  0  0
  2  3  1  0  0  0
  2 25  1  0  0  0
  2 84  1  0  0  0
  2 85  1  0  0  0
  3  4  1  0  0  0
  3 86  1  0  0  0
  3 87  1  0  0  0
  4  5  1  0  0  0
  4 88  1  0  0  0
  4 89  1  0  0  0
  5  6  1  0  0  0
  5 26  1  0  0  0
  5 90  1  0  0  0
  6 25  1  0  0  0
  6 91  1  0  0  0
  6 92  1  0  0  0
  7  8  2  0  0  0
  7 26  1  0  0  0
  7 29  1  0  0  0
  8  9  1  0  0  0
  8 22  1  0  0  0
  9 10  1  0  0  0
  9 27  2  0  0  0
 10 11  2  0  0  0
 10 15  1  0  0  0
 11 12  1  0  0  0
 11 93  1  0  0  0
 12 13  2  0  0  0
 12 94  1  0  0  0
 13 14  1  0  0  0
 13 31  1  0  0  0
 14 15  2  0  0  0
 14 95  1  0  0  0
 15 96  1  0  0  0
 16 17  2  0  0  0
 16 21  1  0  0  0
 16 31  1  0  0  0
 17 18  1  0  0  0
 17 97  1  0  0  0
 18 19  2  0  0  0
 18 98  1  0  0  0
 19 20  1  0  0  0
 19 24  1  0  0  0
 20 21  2  0  0  0
 20 99  1  0  0  0
 21 23  1  0  0  0
 22 28  1  0  0  0
 22 32  2  0  0  0
 26 27  1  0  0  0
 28100  1  0  0  0
 28101  1  0  0  0
 29102  1  0  0  0
 29103  1  0  0  0
 33 34  1  0  0  0
 33 66  1  0  0  0
 33 70  2  0  0  0
 34 36  1  0  0  0
 34 59  1  0  0  0
 34104  1  0  0  0
 35 44  2  0  0  0
 35 45  1  0  0  0
 35 68  1  0  0  0
 36 56  1  0  0  0
 36105  1  0  0  0
 37 39  1  0  0  0
 37 47  1  0  0  0
 37 66  1  0  0  0
 37106  1  0  0  0
 38 43  2  0  0  0
 38 46  1  0  0  0
 38 47  1  0  0  0
 39 64  1  0  0  0
 39 67  2  0  0  0
 40 52  1  0  0  0
 40 53  2  0  0  0
 40 58  1  0  0  0
 41107  1  0  0  0
 41108  1  0  0  0
 41109  1  0  0  0
 41 48  1  0  0  0
 42 43  1  0  0  0
 42 66  1  0  0  0
 42110  1  0  0  0
 42111  1  0  0  0
 43 44  1  0  0  0
 44112  1  0  0  0
 45 46  2  0  0  0
 45113  1  0  0  0
 46114  1  0  0  0
 47115  1  0  0  0
 47116  1  0  0  0
 48 56  1  0  0  0
 48 65  1  0  0  0
 48117  1  0  0  0
 49 50  1  0  0  0
 49 53  1  0  0  0
 49 64  1  0  0  0
 49118  1  0  0  0
 50 51  1  0  0  0
 50119  1  0  0  0
 50120  1  0  0  0
 51 52  1  0  0  0
 51121  1  0  0  0
 51122  1  0  0  0
 52123  1  0  0  0
 52124  1  0  0  0
 53 54  1  0  0  0
 54 55  2  0  0  0
 54125  1  0  0  0
 55 57  1  0  0  0
 55126  1  0  0  0
 56 69  2  0  0  0
 57 58  2  0  0  0
 57127  1  0  0  0
 58128  1  0  0  0
 59 60  1  0  0  0
 59 61  1  0  0  0
 59 62  1  0  0  0
 60129  1  0  0  0
 60130  1  0  0  0
 60131  1  0  0  0
 61132  1  0  0  0
 61133  1  0  0  0
 61134  1  0  0  0
 62135  1  0  0  0
 62136  1  0  0  0
 62137  1  0  0  0
 63 65  1  0  0  0
 63138  1  0  0  0
 63139  1  0  0  0
 63140  1  0  0  0
 64141  1  0  0  0
 65142  1  0  0  0
 68 81  1  0  0  0
 71 72  1  0  0  0
 71 73  2  0  0  0
 71143  1  0  0  0
 72 74  2  0  0  0
 72 76  1  0  0  0
 73 77  1  0  0  0
 73 83  1  0  0  0
 74 80  1  0  0  0
 74 83  1  0  0  0
 75 76  2  0  0  0
 75144  1  0  0  0
 75145  1  0  0  0
 76146  1  0  0  0
 77 78  2  0  0  0
 77147  1  0  0  0
 78 79  1  0  0  0
 78148  1  0  0  0
 79 81  1  0  0  0
 79 82  2  0  0  0
 80149  1  0  0  0
 80150  1  0  0  0
 81151  1  0  0  0
 81152  1  0  0  0
M  ISO  4   1 100  68 101  80 100  81 101
M  END
> <chiral flag>
0

> <version>
0

> <s_m_source_file>
/data/baiqing/PycharmProjects/Reinvent-master-3.2/result/LINK_invent/BTK/process_docking_weight1_custom_product_contain_oxygen_bond_distance_aromatic_linkinvent_7_9_3/rearranged_h_0118.sdf

> <i_m_source_file_index>
26

> <r_mmod_Potential_Energy-OPLS-2005>
125.574752807617

> <r_mmod_Stretch_Energy-OPLS-2005>
121.401611328125

> <r_mmod_Bend_Energy-OPLS-2005>
160.25358581543

> <r_mmod_Torsional_Energy-OPLS-2005>
175.891662597656

> <r_mmod_Improper_Torsional_Energy-OPLS-2005>
2.63163709640503

> <r_mmod_Van_der_Waal_Energy-OPLS-2005>
117.580383300781

> <r_mmod_Electrostatic_Energy-OPLS-2005>
-305.631256103516

> <r_mmod_Solvation_Energy-OPLS-2005>
-227.558792114258

> <b_mmod_Minimization_Converged-OPLS-2005>
0

> <r_mmod_RMS_Derivative-OPLS-2005>
1.1084691286087

$$$$
26
                    3D
 Structure written by MMmdl.
160168  0  0  1  0            999 V2000
  -30.7902  -14.4649   20.5973 C   0  0  0  0  0  0
  -30.4205  -12.3175   19.4382 C   0  0  0  0  0  0
  -29.5007  -12.5364   18.2191 C   0  0  0  0  0  0
  -28.0272  -12.3887   18.6388 C   0  0  0  0  0  0
  -27.6768  -13.2249   19.8977 C   0  0  2  0  0  0
  -28.7281  -13.0420   21.0209 C   0  0  0  0  0  0
  -25.2634  -13.8157   20.5705 C   0  0  0  0  0  0
  -24.1904  -13.0440   20.9185 C   0  0  0  0  0  0
  -24.6482  -11.6919   20.8770 C   0  0  0  0  0  0
  -23.9123  -10.4305   21.0408 C   0  0  0  0  0  0
  -24.3650   -9.4206   21.9175 C   0  0  0  0  0  0
  -23.6319   -8.2252   22.0757 C   0  0  0  0  0  0
  -22.4294   -8.0297   21.3546 C   0  0  0  0  0  0
  -21.9944   -9.0279   20.4637 C   0  0  0  0  0  0
  -22.7301  -10.2142   20.3051 C   0  0  0  0  0  0
  -21.6849   -6.0754   22.5271 C   0  0  0  0  0  0
  -21.4022   -6.5645   23.8206 C   0  0  0  0  0  0
  -21.3662   -5.6796   24.9175 C   0  0  0  0  0  0
  -21.6036   -4.3050   24.7211 C   0  0  0  0  0  0
  -21.8836   -3.8152   23.4323 C   0  0  0  0  0  0
  -21.9198   -4.6986   22.3389 C   0  0  0  0  0  0
  -22.7905  -13.5222   21.1796 C   0  0  0  0  0  0
  -22.1673   -4.2169   21.0964 F   0  0  0  0  0  0
  -21.5621   -3.4537   25.7714 F   0  0  0  0  0  0
  -30.0624  -13.3194   20.4615 N   0  0  0  0  0  0
  -26.3159  -12.9403   20.3575 N   0  0  0  0  0  0
  -25.9441  -11.6541   20.5906 N   0  0  0  0  0  0
  -22.0552  -12.8242   22.0363 N   0  0  0  0  0  0
  -25.4270  -15.1870   20.3928 N   0  0  0  0  0  0
  -31.8461  -14.6469   19.9886 O   0  0  0  0  0  0
  -21.6649   -6.8897   21.4238 O   0  0  0  0  0  0
  -22.3604  -14.5552   20.6639 O   0  0  0  0  0  0
  -24.6193  -31.8655   23.2083 C   0  0  0  0  0  0
  -25.9068  -32.4837   23.8398 C   0  0  1  0  0  0
  -27.2029  -27.3651   20.0733 C   0  0  0  0  0  0
  -25.5890  -33.8642   24.2308 N   0  0  0  0  0  0
  -23.4121  -30.4913   21.5490 C   0  0  2  0  0  0
  -24.8507  -28.9507   20.1172 C   0  0  0  0  0  0
  -22.7450  -29.4658   22.4988 C   0  0  0  0  0  0
  -18.0273  -28.1348   22.8499 C   0  0  0  0  0  0
  -24.1465  -36.7290   23.2649 C   0  0  0  0  0  0
  -25.9468  -30.8074   21.3679 C   0  0  0  0  0  0
  -26.0173  -29.4324   20.7199 C   0  0  0  0  0  0
  -27.1954  -28.6422   20.7069 C   0  0  0  0  0  0
  -26.0015  -26.9193   19.4739 C   0  0  0  0  0  0
  -24.8400  -27.7009   19.4912 C   0  0  0  0  0  0
  -23.6242  -29.8241   20.1657 C   0  0  0  0  0  0
  -25.4076  -36.3081   24.0339 C   0  0  1  0  0  0
  -20.5874  -28.3661   23.1143 C   0  0  2  0  0  0
  -20.6789  -26.9397   22.5109 C   0  0  0  0  0  0
  -19.5550  -26.6185   21.5236 C   0  0  0  0  0  0
  -18.1814  -26.7808   22.1791 C   0  0  0  0  0  0
  -19.1561  -28.8820   23.2803 C   0  0  0  0  0  0
  -18.9508  -30.1430   23.8832 C   0  0  0  0  0  0
  -17.6519  -30.6613   24.0503 C   0  0  0  0  0  0
  -25.9012  -34.9489   23.5089 C   0  0  0  0  0  0
  -16.5396  -29.9122   23.6303 C   0  0  0  0  0  0
  -16.7285  -28.6494   23.0398 C   0  0  0  0  0  0
  -26.4464  -31.6600   25.0727 C   0  0  0  0  0  0
  -25.3688  -31.3717   26.1432 C   0  0  0  0  0  0
  -27.0335  -30.3044   24.6116 C   0  0  0  0  0  0
  -27.5987  -32.4337   25.7509 C   0  0  0  0  0  0
  -27.5544  -37.1811   24.8479 C   0  0  0  0  0  0
  -21.4174  -29.3089   22.3679 N   0  0  0  0  0  0
  -26.4257  -37.3769   23.9429 N   0  0  0  0  0  0
  -24.6797  -31.0681   22.1026 N   0  0  0  0  0  0
  -23.4155  -28.8150   23.3039 O   0  0  0  0  0  0
  -28.3550  -26.5841   20.0640 O   0  0  0  0  0  0
  -26.5566  -34.8939   22.4649 O   0  0  0  0  0  0
  -23.5345  -32.1464   23.7403 O   0  0  0  0  0  0
  -28.9381  -19.9622   21.4227 C   0  0  0  0  0  0
  -31.2552  -18.8003   20.3802 C   0  0  0  0  0  0
  -29.2721  -18.6191   21.7794 C   0  0  0  0  0  0
  -30.4717  -18.0325   21.2740 C   0  0  0  0  0  0
  -29.7696  -20.7504   20.5849 C   0  0  0  0  0  0
  -30.9171  -20.1324   20.0484 C   0  0  0  0  0  0
  -27.2543  -18.2460   23.2531 C   0  0  0  0  0  0
  -27.0355  -24.3670   21.3584 C   0  0  0  0  0  0
  -28.4044  -17.8413   22.6921 C   0  0  0  0  0  0
  -27.8511  -24.0832   20.3123 C   0  0  0  0  0  0
  -31.0363  -16.6728   21.7652 C   0  0  0  0  0  0
  -28.2372  -22.6281   19.8878 C   0  0  0  0  0  0
  -28.3648  -25.2574   19.4349 C   0  0  0  0  0  0
  -29.5568  -22.1320   20.3083 N   0  0  0  0  0  0
  -30.3151  -15.4216   21.4190 N   0  0  0  0  0  0
  -31.7284  -20.8407   19.2240 F   0  0  0  0  0  0
  -31.4719  -12.3796   19.1421 H   0  0  0  0  0  0
  -30.2879  -11.3123   19.8398 H   0  0  0  0  0  0
  -29.7406  -11.8233   17.4298 H   0  0  0  0  0  0
  -29.6680  -13.5277   17.7961 H   0  0  0  0  0  0
  -27.8459  -11.3330   18.8356 H   0  0  0  0  0  0
  -27.3703  -12.6715   17.8147 H   0  0  0  0  0  0
  -27.7147  -14.2732   19.6001 H   0  0  0  0  0  0
  -28.7076  -12.0225   21.4138 H   0  0  0  0  0  0
  -28.4998  -13.6875   21.8697 H   0  0  0  0  0  0
  -25.2802   -9.5666   22.4757 H   0  0  0  0  0  0
  -24.0006   -7.4659   22.7487 H   0  0  0  0  0  0
  -21.0877   -8.8819   19.8951 H   0  0  0  0  0  0
  -22.3776  -10.9690   19.6155 H   0  0  0  0  0  0
  -21.2038   -7.6153   23.9718 H   0  0  0  0  0  0
  -21.1455   -6.0515   25.9063 H   0  0  0  0  0  0
  -22.0610   -2.7620   23.2814 H   0  0  0  0  0  0
  -22.4177  -11.9922   22.4776 H   0  0  0  0  0  0
  -21.1172  -13.1276   22.2556 H   0  0  0  0  0  0
  -24.6318  -15.8170   20.3943 H   0  0  0  0  0  0
  -26.2721  -15.6133   20.0342 H   0  0  0  0  0  0
  -26.7157  -32.5542   23.1189 H   0  0  0  0  0  0
  -24.9916  -33.9821   25.0371 H   0  0  0  0  0  0
  -22.7024  -31.3077   21.4022 H   0  0  0  0  0  0
  -23.3694  -35.9652   23.3312 H   0  0  0  0  0  0
  -24.3549  -36.8889   22.2069 H   0  0  0  0  0  0
  -23.7270  -37.6516   23.6646 H   0  0  0  0  0  0
  -26.0371  -31.5472   20.5749 H   0  0  0  0  0  0
  -26.8426  -30.8937   21.9729 H   0  0  0  0  0  0
  -28.0970  -28.9980   21.1868 H   0  0  0  0  0  0
  -25.9072  -25.9601   18.9927 H   0  0  0  0  0  0
  -23.9393  -27.3315   19.0226 H   0  0  0  0  0  0
  -23.7548  -30.5843   19.3928 H   0  0  0  0  0  0
  -22.7477  -29.2424   19.8755 H   0  0  0  0  0  0
  -25.1275  -36.1922   25.0832 H   0  0  0  0  0  0
  -20.9991  -28.3097   24.1231 H   0  0  0  0  0  0
  -20.6269  -26.2106   23.3243 H   0  0  0  0  0  0
  -21.6447  -26.7723   22.0316 H   0  0  0  0  0  0
  -19.6569  -25.6006   21.1367 H   0  0  0  0  0  0
  -19.6384  -27.2860   20.6653 H   0  0  0  0  0  0
  -17.3960  -26.6524   21.4319 H   0  0  0  0  0  0
  -18.0323  -26.0068   22.9331 H   0  0  0  0  0  0
  -19.8028  -30.7196   24.2200 H   0  0  0  0  0  0
  -17.5135  -31.6322   24.5086 H   0  0  0  0  0  0
  -15.5401  -30.3036   23.7603 H   0  0  0  0  0  0
  -15.8658  -28.0800   22.7186 H   0  0  0  0  0  0
  -24.5809  -30.7142   25.7735 H   0  0  0  0  0  0
  -24.8913  -32.2899   26.4867 H   0  0  0  0  0  0
  -25.7993  -30.8851   27.0189 H   0  0  0  0  0  0
  -26.2897  -29.6768   24.1188 H   0  0  0  0  0  0
  -27.4155  -29.7315   25.4580 H   0  0  0  0  0  0
  -27.8686  -30.4357   23.9231 H   0  0  0  0  0  0
  -27.2549  -33.3592   26.2127 H   0  0  0  0  0  0
  -28.3765  -32.6981   25.0348 H   0  0  0  0  0  0
  -28.0669  -31.8453   26.5409 H   0  0  0  0  0  0
  -28.2576  -38.0087   24.7448 H   0  0  0  0  0  0
  -28.1017  -36.2624   24.6330 H   0  0  0  0  0  0
  -27.2300  -37.1505   25.8896 H   0  0  0  0  0  0
  -20.9369  -29.8866   21.6931 H   0  0  0  0  0  0
  -26.0122  -38.2833   24.1394 H   0  0  0  0  0  0
  -28.0545  -20.4162   21.8365 H   0  0  0  0  0  0
  -32.1692  -18.3931   19.9712 H   0  0  0  0  0  0
  -26.6947  -17.5802   23.8952 H   0  0  0  0  0  0
  -26.8409  -19.2289   23.0976 H   0  0  0  0  0  0
  -26.3862  -24.2762   22.2151 H   0  0  0  0  0  0
  -26.9592  -23.3167   21.5743 H   0  0  0  0  0  0
  -28.7205  -16.8394   22.9380 H   0  0  0  0  0  0
  -31.1218  -16.7143   22.8534 H   0  0  0  0  0  0
  -32.0788  -16.6048   21.4464 H   0  0  0  0  0  0
  -28.1675  -22.5718   18.7997 H   0  0  0  0  0  0
  -27.4774  -21.9276   20.2447 H   0  0  0  0  0  0
  -27.8384  -25.2526   18.4762 H   0  0  0  0  0  0
  -29.4029  -25.0560   19.1594 H   0  0  0  0  0  0
  -30.3337  -22.5248   19.7758 H   0  0  0  0  0  0
  -29.4875  -15.1855   21.9443 H   0  0  0  0  0  0
  1 25  1  0  0  0
  1 30  2  0  0  0
  1 85  1  0  0  0
  2  3  1  0  0  0
  2 25  1  0  0  0
  2 87  1  0  0  0
  2 88  1  0  0  0
  3  4  1  0  0  0
  3 89  1  0  0  0
  3 90  1  0  0  0
  4  5  1  0  0  0
  4 91  1  0  0  0
  4 92  1  0  0  0
  5  6  1  0  0  0
  5 26  1  0  0  0
  5 93  1  0  0  0
  6 25  1  0  0  0
  6 94  1  0  0  0
  6 95  1  0  0  0
  7  8  2  0  0  0
  7 26  1  0  0  0
  7 29  1  0  0  0
  8  9  1  0  0  0
  8 22  1  0  0  0
  9 10  1  0  0  0
  9 27  2  0  0  0
 10 11  2  0  0  0
 10 15  1  0  0  0
 11 12  1  0  0  0
 11 96  1  0  0  0
 12 13  2  0  0  0
 12 97  1  0  0  0
 13 14  1  0  0  0
 13 31  1  0  0  0
 14 15  2  0  0  0
 14 98  1  0  0  0
 15 99  1  0  0  0
 16 17  2  0  0  0
 16 21  1  0  0  0
 16 31  1  0  0  0
 17 18  1  0  0  0
 17100  1  0  0  0
 18 19  2  0  0  0
 18101  1  0  0  0
 19 20  1  0  0  0
 19 24  1  0  0  0
 20 21  2  0  0  0
 20102  1  0  0  0
 21 23  1  0  0  0
 22 28  1  0  0  0
 22 32  2  0  0  0
 26 27  1  0  0  0
 28103  1  0  0  0
 28104  1  0  0  0
 29105  1  0  0  0
 29106  1  0  0  0
 33 34  1  0  0  0
 33 66  1  0  0  0
 33 70  2  0  0  0
 34 36  1  0  0  0
 34 59  1  0  0  0
 34107  1  0  0  0
 35 44  2  0  0  0
 35 45  1  0  0  0
 35 68  1  0  0  0
 36 56  1  0  0  0
 36108  1  0  0  0
 37 39  1  0  0  0
 37 47  1  0  0  0
 37 66  1  0  0  0
 37109  1  0  0  0
 38 43  2  0  0  0
 38 46  1  0  0  0
 38 47  1  0  0  0
 39 64  1  0  0  0
 39 67  2  0  0  0
 40 52  1  0  0  0
 40 53  2  0  0  0
 40 58  1  0  0  0
 41110  1  0  0  0
 41111  1  0  0  0
 41112  1  0  0  0
 41 48  1  0  0  0
 42 43  1  0  0  0
 42 66  1  0  0  0
 42113  1  0  0  0
 42114  1  0  0  0
 43 44  1  0  0  0
 44115  1  0  0  0
 45 46  2  0  0  0
 45116  1  0  0  0
 46117  1  0  0  0
 47118  1  0  0  0
 47119  1  0  0  0
 48 56  1  0  0  0
 48 65  1  0  0  0
 48120  1  0  0  0
 49 50  1  0  0  0
 49 53  1  0  0  0
 49 64  1  0  0  0
 49121  1  0  0  0
 50 51  1  0  0  0
 50122  1  0  0  0
 50123  1  0  0  0
 51 52  1  0  0  0
 51124  1  0  0  0
 51125  1  0  0  0
 52126  1  0  0  0
 52127  1  0  0  0
 53 54  1  0  0  0
 54 55  2  0  0  0
 54128  1  0  0  0
 55 57  1  0  0  0
 55129  1  0  0  0
 56 69  2  0  0  0
 57 58  2  0  0  0
 57130  1  0  0  0
 58131  1  0  0  0
 59 60  1  0  0  0
 59 61  1  0  0  0
 59 62  1  0  0  0
 60132  1  0  0  0
 60133  1  0  0  0
 60134  1  0  0  0
 61135  1  0  0  0
 61136  1  0  0  0
 61137  1  0  0  0
 62138  1  0  0  0
 62139  1  0  0  0
 62140  1  0  0  0
 63 65  1  0  0  0
 63141  1  0  0  0
 63142  1  0  0  0
 63143  1  0  0  0
 64144  1  0  0  0
 65145  1  0  0  0
 68 83  1  0  0  0
 71 73  2  0  0  0
 71 75  1  0  0  0
 71146  1  0  0  0
 72 74  2  0  0  0
 72 76  1  0  0  0
 72147  1  0  0  0
 73 74  1  0  0  0
 73 79  1  0  0  0
 74 81  1  0  0  0
 75 76  2  0  0  0
 75 84  1  0  0  0
 76 86  1  0  0  0
 77 79  2  0  0  0
 77148  1  0  0  0
 77149  1  0  0  0
 78 80  2  0  0  0
 78150  1  0  0  0
 78151  1  0  0  0
 79152  1  0  0  0
 80 82  1  0  0  0
 80 83  1  0  0  0
 81 85  1  0  0  0
 81153  1  0  0  0
 81154  1  0  0  0
 82 84  1  0  0  0
 82155  1  0  0  0
 82156  1  0  0  0
 83157  1  0  0  0
 83158  1  0  0  0
 84159  1  0  0  0
 85160  1  0  0  0
M  ISO  4   1 100  68 101  83 101  85 100
M  END
> <chiral flag>
0

> <version>
0

> <s_m_source_file>
/data/baiqing/PycharmProjects/Reinvent-master-3.2/result/LINK_invent/BTK/process_docking_weight1_custom_product_contain_oxygen_bond_distance_aromatic_linkinvent_7_9_3/rearranged_h_0118.sdf

> <i_m_source_file_index>
27

> <r_mmod_Potential_Energy-OPLS-2005>
186.003601074219

> <r_mmod_Stretch_Energy-OPLS-2005>
58.655460357666

> <r_mmod_Bend_Energy-OPLS-2005>
333.304107666016

> <r_mmod_Torsional_Energy-OPLS-2005>
195.216339111328

> <r_mmod_Improper_Torsional_Energy-OPLS-2005>
7.65827178955078

> <r_mmod_Van_der_Waal_Energy-OPLS-2005>
167.561508178711

> <r_mmod_Electrostatic_Energy-OPLS-2005>
-387.285583496094

> <r_mmod_Solvation_Energy-OPLS-2005>
-210.221954345703

> <b_mmod_Minimization_Converged-OPLS-2005>
0

> <r_mmod_RMS_Derivative-OPLS-2005>
7.60050487518311

$$$$
27
                    3D
 Structure written by MMmdl.
150158  0  0  1  0            999 V2000
  -30.5895  -14.7835   20.4424 C   0  0  0  0  0  0
  -30.4425  -12.4731   19.4883 C   0  0  0  0  0  0
  -29.5222  -12.5101   18.2451 C   0  0  0  0  0  0
  -28.0470  -12.3273   18.6510 C   0  0  0  0  0  0
  -27.6434  -13.2311   19.8465 C   0  0  2  0  0  0
  -28.6843  -13.1683   20.9839 C   0  0  0  0  0  0
  -25.2525  -13.8186   20.5676 C   0  0  0  0  0  0
  -24.1815  -13.0444   20.9177 C   0  0  0  0  0  0
  -24.6408  -11.6919   20.8723 C   0  0  0  0  0  0
  -23.9082  -10.4300   21.0403 C   0  0  0  0  0  0
  -24.3623   -9.4220   21.9186 C   0  0  0  0  0  0
  -23.6297   -8.2256   22.0759 C   0  0  0  0  0  0
  -22.4274   -8.0287   21.3554 C   0  0  0  0  0  0
  -21.9914   -9.0267   20.4654 C   0  0  0  0  0  0
  -22.7246  -10.2147   20.3063 C   0  0  0  0  0  0
  -21.6859   -6.0731   22.5283 C   0  0  0  0  0  0
  -21.4014   -6.5639   23.8213 C   0  0  0  0  0  0
  -21.3659   -5.6792   24.9176 C   0  0  0  0  0  0
  -21.6049   -4.3056   24.7228 C   0  0  0  0  0  0
  -21.8817   -3.8148   23.4349 C   0  0  0  0  0  0
  -21.9194   -4.6959   22.3404 C   0  0  0  0  0  0
  -22.7838  -13.5230   21.1853 C   0  0  0  0  0  0
  -22.1669   -4.2151   21.0982 F   0  0  0  0  0  0
  -21.5628   -3.4540   25.7741 F   0  0  0  0  0  0
  -29.9870  -13.5387   20.4151 N   0  0  0  0  0  0
  -26.2956  -12.9401   20.3231 N   0  0  0  0  0  0
  -25.9340  -11.6550   20.5719 N   0  0  0  0  0  0
  -22.0473  -12.8235   22.0403 N   0  0  0  0  0  0
  -25.4220  -15.1908   20.4123 N   0  0  0  0  0  0
  -31.7790  -14.8614   20.1193 O   0  0  0  0  0  0
  -21.6637   -6.8884   21.4251 O   0  0  0  0  0  0
  -22.3536  -14.5555   20.6718 O   0  0  0  0  0  0
  -24.6315  -31.8548   23.1971 C   0  0  0  0  0  0
  -25.9146  -32.4750   23.8314 C   0  0  1  0  0  0
  -27.2153  -27.2546   20.1417 C   0  0  0  0  0  0
  -25.5937  -33.8548   24.2245 N   0  0  0  0  0  0
  -23.4283  -30.4769   21.5407 C   0  0  2  0  0  0
  -24.8776  -28.9205   20.1070 C   0  0  0  0  0  0
  -22.7505  -29.4609   22.4906 C   0  0  0  0  0  0
  -18.0302  -28.1387   22.8484 C   0  0  0  0  0  0
  -24.1493  -36.7280   23.2640 C   0  0  0  0  0  0
  -25.9738  -30.7653   21.3774 C   0  0  0  0  0  0
  -26.0478  -29.3860   20.7231 C   0  0  0  0  0  0
  -27.2233  -28.5663   20.7271 C   0  0  0  0  0  0
  -26.0309  -26.8592   19.4893 C   0  0  0  0  0  0
  -24.8754  -27.6659   19.4768 C   0  0  0  0  0  0
  -23.6472  -29.8093   20.1566 C   0  0  0  0  0  0
  -25.4120  -36.3059   24.0321 C   0  0  1  0  0  0
  -20.5897  -28.3703   23.1265 C   0  0  2  0  0  0
  -20.6796  -26.9417   22.5411 C   0  0  0  0  0  0
  -19.5781  -26.6385   21.5208 C   0  0  0  0  0  0
  -18.1949  -26.7933   22.1608 C   0  0  0  0  0  0
  -19.1551  -28.8865   23.2864 C   0  0  0  0  0  0
  -18.9466  -30.1458   23.8887 C   0  0  0  0  0  0
  -17.6463  -30.6584   24.0559 C   0  0  0  0  0  0
  -25.9062  -34.9430   23.5087 C   0  0  0  0  0  0
  -16.5358  -29.9084   23.6330 C   0  0  0  0  0  0
  -16.7287  -28.6502   23.0354 C   0  0  0  0  0  0
  -26.4502  -31.6564   25.0690 C   0  0  0  0  0  0
  -25.3724  -31.3720   26.1412 C   0  0  0  0  0  0
  -27.0358  -30.2986   24.6168 C   0  0  0  0  0  0
  -27.6058  -32.4297   25.7474 C   0  0  0  0  0  0
  -27.5577  -37.1796   24.8468 C   0  0  0  0  0  0
  -21.4205  -29.3050   22.3643 N   0  0  0  0  0  0
  -26.4296  -37.3758   23.9397 N   0  0  0  0  0  0
  -24.6968  -31.0507   22.0947 N   0  0  0  0  0  0
  -23.4194  -28.8167   23.3024 O   0  0  0  0  0  0
  -28.2901  -26.3335   20.1560 O   0  0  0  0  0  0
  -26.5636  -34.8916   22.4655 O   0  0  0  0  0  0
  -23.5468  -32.1376   23.7262 O   0  0  0  0  0  0
  -29.7775  -20.0442   20.4573 C   0  0  0  0  0  0
  -27.6357  -19.9407   20.9670 C   0  0  0  0  0  0
  -28.6158  -20.8772   20.7604 C   0  0  0  0  0  0
  -29.4357  -18.6791   20.5649 C   0  0  0  0  0  0
  -28.3076  -22.3954   20.9456 C   0  0  0  0  0  0
  -30.1243  -17.3470   20.4540 C   0  0  0  0  0  0
  -29.7386  -16.0239   20.6687 C   0  0  0  0  0  0
  -28.7158  -23.6409   20.4715 C   0  0  0  0  0  0
  -26.9775  -25.0048   21.9047 C   0  0  0  0  0  0
  -28.2370  -25.0861   21.0101 C   0  0  1  0  0  0
  -28.1031  -18.6481   20.8680 O   0  0  0  0  0  0
  -31.4842  -12.6005   19.1867 H   0  0  0  0  0  0
  -30.3931  -11.4975   19.9738 H   0  0  0  0  0  0
  -29.8138  -11.7329   17.5371 H   0  0  0  0  0  0
  -29.6464  -13.4595   17.7214 H   0  0  0  0  0  0
  -27.9108  -11.2798   18.9223 H   0  0  0  0  0  0
  -27.3931  -12.5019   17.7964 H   0  0  0  0  0  0
  -27.6366  -14.2504   19.4627 H   0  0  0  0  0  0
  -28.7253  -12.1658   21.4129 H   0  0  0  0  0  0
  -28.4062  -13.8281   21.8056 H   0  0  0  0  0  0
  -25.2770   -9.5694   22.4759 H   0  0  0  0  0  0
  -24.0006   -7.4650   22.7482 H   0  0  0  0  0  0
  -21.0844   -8.8790   19.8962 H   0  0  0  0  0  0
  -22.3705  -10.9686   19.6171 H   0  0  0  0  0  0
  -21.2005   -7.6151   23.9714 H   0  0  0  0  0  0
  -21.1484   -6.0526   25.9079 H   0  0  0  0  0  0
  -22.0591   -2.7610   23.2851 H   0  0  0  0  0  0
  -22.4095  -11.9918   22.4830 H   0  0  0  0  0  0
  -21.1087  -13.1287   22.2588 H   0  0  0  0  0  0
  -24.6521  -15.8402   20.5239 H   0  0  0  0  0  0
  -26.2755  -15.6392   20.1043 H   0  0  0  0  0  0
  -26.7207  -32.5410   23.1051 H   0  0  0  0  0  0
  -25.0076  -33.9677   25.0388 H   0  0  0  0  0  0
  -22.7257  -31.2994   21.3950 H   0  0  0  0  0  0
  -23.3749  -35.9622   23.3307 H   0  0  0  0  0  0
  -24.3587  -36.8898   22.2054 H   0  0  0  0  0  0
  -23.7259  -37.6485   23.6667 H   0  0  0  0  0  0
  -26.1105  -31.5217   20.6023 H   0  0  0  0  0  0
  -26.8523  -30.8171   22.0090 H   0  0  0  0  0  0
  -28.1207  -28.9176   21.2171 H   0  0  0  0  0  0
  -25.9926  -25.8906   19.0115 H   0  0  0  0  0  0
  -23.9821  -27.3060   18.9856 H   0  0  0  0  0  0
  -23.7719  -30.5863   19.4012 H   0  0  0  0  0  0
  -22.7636  -29.2434   19.8545 H   0  0  0  0  0  0
  -25.1305  -36.1898   25.0814 H   0  0  0  0  0  0
  -20.9992  -28.3298   24.1384 H   0  0  0  0  0  0
  -20.5685  -26.2321   23.3616 H   0  0  0  0  0  0
  -21.6665  -26.7451   22.1210 H   0  0  0  0  0  0
  -19.6927  -25.6300   21.1241 H   0  0  0  0  0  0
  -19.6719  -27.3198   20.6740 H   0  0  0  0  0  0
  -17.4230  -26.6701   21.3995 H   0  0  0  0  0  0
  -18.0327  -26.0062   22.8988 H   0  0  0  0  0  0
  -19.7939  -30.7276   24.2257 H   0  0  0  0  0  0
  -17.5019  -31.6263   24.5164 H   0  0  0  0  0  0
  -15.5363  -30.2978   23.7655 H   0  0  0  0  0  0
  -15.8686  -28.0808   22.7078 H   0  0  0  0  0  0
  -24.5912  -30.7056   25.7739 H   0  0  0  0  0  0
  -24.8905  -32.2895   26.4804 H   0  0  0  0  0  0
  -25.8035  -30.8919   27.0212 H   0  0  0  0  0  0
  -26.2946  -29.6722   24.1198 H   0  0  0  0  0  0
  -27.4062  -29.7248   25.4676 H   0  0  0  0  0  0
  -27.8808  -30.4270   23.9402 H   0  0  0  0  0  0
  -27.2676  -33.3613   26.2039 H   0  0  0  0  0  0
  -28.3890  -32.6837   25.0309 H   0  0  0  0  0  0
  -28.0714  -31.8425   26.5408 H   0  0  0  0  0  0
  -28.2599  -38.0088   24.7491 H   0  0  0  0  0  0
  -28.1066  -36.2610   24.6321 H   0  0  0  0  0  0
  -27.2292  -37.1481   25.8874 H   0  0  0  0  0  0
  -20.9392  -29.8738   21.6811 H   0  0  0  0  0  0
  -26.0166  -38.2833   24.1383 H   0  0  0  0  0  0
  -30.7747  -20.4028   20.2456 H   0  0  0  0  0  0
  -26.5872  -20.0135   21.2240 H   0  0  0  0  0  0
  -27.5644  -22.4818   21.7229 H   0  0  0  0  0  0
  -31.1440  -17.4574   20.1110 H   0  0  0  0  0  0
  -28.7283  -15.8850   21.0171 H   0  0  0  0  0  0
  -29.4576  -23.6708   19.6873 H   0  0  0  0  0  0
  -26.1040  -24.6728   21.3431 H   0  0  0  0  0  0
  -27.1201  -24.3176   22.7381 H   0  0  0  0  0  0
  -26.7440  -25.9647   22.3648 H   0  0  0  0  0  0
  -29.0431  -25.3156   21.7094 H   0  0  0  0  0  0
  1 25  1  0  0  0
  1 30  2  0  0  0
  1 77  1  0  0  0
  2  3  1  0  0  0
  2 25  1  0  0  0
  2 82  1  0  0  0
  2 83  1  0  0  0
  3  4  1  0  0  0
  3 84  1  0  0  0
  3 85  1  0  0  0
  4  5  1  0  0  0
  4 86  1  0  0  0
  4 87  1  0  0  0
  5  6  1  0  0  0
  5 26  1  0  0  0
  5 88  1  0  0  0
  6 25  1  0  0  0
  6 89  1  0  0  0
  6 90  1  0  0  0
  7  8  2  0  0  0
  7 26  1  0  0  0
  7 29  1  0  0  0
  8  9  1  0  0  0
  8 22  1  0  0  0
  9 10  1  0  0  0
  9 27  2  0  0  0
 10 11  2  0  0  0
 10 15  1  0  0  0
 11 12  1  0  0  0
 11 91  1  0  0  0
 12 13  2  0  0  0
 12 92  1  0  0  0
 13 14  1  0  0  0
 13 31  1  0  0  0
 14 15  2  0  0  0
 14 93  1  0  0  0
 15 94  1  0  0  0
 16 17  2  0  0  0
 16 21  1  0  0  0
 16 31  1  0  0  0
 17 18  1  0  0  0
 17 95  1  0  0  0
 18 19  2  0  0  0
 18 96  1  0  0  0
 19 20  1  0  0  0
 19 24  1  0  0  0
 20 21  2  0  0  0
 20 97  1  0  0  0
 21 23  1  0  0  0
 22 28  1  0  0  0
 22 32  2  0  0  0
 26 27  1  0  0  0
 28 98  1  0  0  0
 28 99  1  0  0  0
 29100  1  0  0  0
 29101  1  0  0  0
 33 34  1  0  0  0
 33 66  1  0  0  0
 33 70  2  0  0  0
 34 36  1  0  0  0
 34 59  1  0  0  0
 34102  1  0  0  0
 35 44  2  0  0  0
 35 45  1  0  0  0
 35 68  1  0  0  0
 36 56  1  0  0  0
 36103  1  0  0  0
 37 39  1  0  0  0
 37 47  1  0  0  0
 37 66  1  0  0  0
 37104  1  0  0  0
 38 43  2  0  0  0
 38 46  1  0  0  0
 38 47  1  0  0  0
 39 64  1  0  0  0
 39 67  2  0  0  0
 40 52  1  0  0  0
 40 53  2  0  0  0
 40 58  1  0  0  0
 41105  1  0  0  0
 41106  1  0  0  0
 41107  1  0  0  0
 41 48  1  0  0  0
 42 43  1  0  0  0
 42 66  1  0  0  0
 42108  1  0  0  0
 42109  1  0  0  0
 43 44  1  0  0  0
 44110  1  0  0  0
 45 46  2  0  0  0
 45111  1  0  0  0
 46112  1  0  0  0
 47113  1  0  0  0
 47114  1  0  0  0
 48 56  1  0  0  0
 48 65  1  0  0  0
 48115  1  0  0  0
 49 50  1  0  0  0
 49 53  1  0  0  0
 49 64  1  0  0  0
 49116  1  0  0  0
 50 51  1  0  0  0
 50117  1  0  0  0
 50118  1  0  0  0
 51 52  1  0  0  0
 51119  1  0  0  0
 51120  1  0  0  0
 52121  1  0  0  0
 52122  1  0  0  0
 53 54  1  0  0  0
 54 55  2  0  0  0
 54123  1  0  0  0
 55 57  1  0  0  0
 55124  1  0  0  0
 56 69  2  0  0  0
 57 58  2  0  0  0
 57125  1  0  0  0
 58126  1  0  0  0
 59 60  1  0  0  0
 59 61  1  0  0  0
 59 62  1  0  0  0
 60127  1  0  0  0
 60128  1  0  0  0
 60129  1  0  0  0
 61130  1  0  0  0
 61131  1  0  0  0
 61132  1  0  0  0
 62133  1  0  0  0
 62134  1  0  0  0
 62135  1  0  0  0
 63 65  1  0  0  0
 63136  1  0  0  0
 63137  1  0  0  0
 63138  1  0  0  0
 64139  1  0  0  0
 65140  1  0  0  0
 68 80  1  0  0  0
 71 73  1  0  0  0
 71 74  2  0  0  0
 71141  1  0  0  0
 72 73  2  0  0  0
 72 81  1  0  0  0
 72142  1  0  0  0
 73 75  1  0  0  0
 74 76  1  0  0  0
 74 81  1  0  0  0
 75 78  2  0  0  0
 75143  1  0  0  0
 76 77  2  0  0  0
 76144  1  0  0  0
 77145  1  0  0  0
 78 80  1  0  0  0
 78146  1  0  0  0
 79147  1  0  0  0
 79148  1  0  0  0
 79149  1  0  0  0
 79 80  1  0  0  0
 80150  1  0  0  0
M  ISO  4   1 100  68 101  77 100  80 101
M  END
> <chiral flag>
0

> <version>
0

> <s_m_source_file>
/data/baiqing/PycharmProjects/Reinvent-master-3.2/result/LINK_invent/BTK/process_docking_weight1_custom_product_contain_oxygen_bond_distance_aromatic_linkinvent_7_9_3/rearranged_h_0118.sdf

> <i_m_source_file_index>
28

> <r_mmod_Potential_Energy-OPLS-2005>
214.58512878418

> <r_mmod_Stretch_Energy-OPLS-2005>
128.563217163086

> <r_mmod_Bend_Energy-OPLS-2005>
202.208099365234

> <r_mmod_Torsional_Energy-OPLS-2005>
213.341079711914

> <r_mmod_Improper_Torsional_Energy-OPLS-2005>
4.67194271087646

> <r_mmod_Van_der_Waal_Energy-OPLS-2005>
121.909118652344

> <r_mmod_Electrostatic_Energy-OPLS-2005>
-361.202239990234

> <r_mmod_Solvation_Energy-OPLS-2005>
-191.143707275391

> <b_mmod_Minimization_Converged-OPLS-2005>
0

> <r_mmod_RMS_Derivative-OPLS-2005>
2.300452709198

$$$$
28
                    3D
 Structure written by MMmdl.
150158  0  0  1  0            999 V2000
  -30.6291  -14.7846   20.4291 C   0  0  0  0  0  0
  -30.4208  -12.4713   19.4949 C   0  0  0  0  0  0
  -29.5118  -12.5088   18.2466 C   0  0  0  0  0  0
  -28.0383  -12.3284   18.6549 C   0  0  0  0  0  0
  -27.6351  -13.2427   19.8426 C   0  0  2  0  0  0
  -28.6764  -13.2192   20.9808 C   0  0  0  0  0  0
  -25.2485  -13.8220   20.5717 C   0  0  0  0  0  0
  -24.1786  -13.0448   20.9217 C   0  0  0  0  0  0
  -24.6392  -11.6929   20.8743 C   0  0  0  0  0  0
  -23.9076  -10.4298   21.0398 C   0  0  0  0  0  0
  -24.3628   -9.4213   21.9177 C   0  0  0  0  0  0
  -23.6303   -8.2245   22.0749 C   0  0  0  0  0  0
  -22.4283   -8.0279   21.3541 C   0  0  0  0  0  0
  -21.9916   -9.0250   20.4639 C   0  0  0  0  0  0
  -22.7245  -10.2133   20.3048 C   0  0  0  0  0  0
  -21.6858   -6.0733   22.5278 C   0  0  0  0  0  0
  -21.4017   -6.5638   23.8212 C   0  0  0  0  0  0
  -21.3663   -5.6791   24.9173 C   0  0  0  0  0  0
  -21.6047   -4.3055   24.7225 C   0  0  0  0  0  0
  -21.8817   -3.8146   23.4348 C   0  0  0  0  0  0
  -21.9195   -4.6961   22.3402 C   0  0  0  0  0  0
  -22.7804  -13.5216   21.1879 C   0  0  0  0  0  0
  -22.1661   -4.2147   21.0978 F   0  0  0  0  0  0
  -21.5633   -3.4538   25.7740 F   0  0  0  0  0  0
  -29.9797  -13.5627   20.4018 N   0  0  0  0  0  0
  -26.2910  -12.9449   20.3260 N   0  0  0  0  0  0
  -25.9327  -11.6581   20.5738 N   0  0  0  0  0  0
  -22.0464  -12.8190   22.0435 N   0  0  0  0  0  0
  -25.4178  -15.1947   20.4173 N   0  0  0  0  0  0
  -31.8257  -14.7918   20.1257 O   0  0  0  0  0  0
  -21.6649   -6.8875   21.4239 O   0  0  0  0  0  0
  -22.3481  -14.5520   20.6726 O   0  0  0  0  0  0
  -24.6355  -31.8540   23.1978 C   0  0  0  0  0  0
  -25.9169  -32.4740   23.8332 C   0  0  1  0  0  0
  -27.2070  -27.2269   20.1277 C   0  0  0  0  0  0
  -25.5953  -33.8544   24.2254 N   0  0  0  0  0  0
  -23.4327  -30.4798   21.5419 C   0  0  2  0  0  0
  -24.8784  -28.9292   20.1068 C   0  0  0  0  0  0
  -22.7520  -29.4608   22.4888 C   0  0  0  0  0  0
  -18.0296  -28.1402   22.8482 C   0  0  0  0  0  0
  -24.1495  -36.7275   23.2638 C   0  0  0  0  0  0
  -25.9836  -30.7565   21.3842 C   0  0  0  0  0  0
  -26.0537  -29.3777   20.7229 C   0  0  0  0  0  0
  -27.2211  -28.5398   20.7232 C   0  0  0  0  0  0
  -26.0068  -26.8672   19.4699 C   0  0  0  0  0  0
  -24.8626  -27.6839   19.4675 C   0  0  0  0  0  0
  -23.6527  -29.8210   20.1560 C   0  0  0  0  0  0
  -25.4121  -36.3057   24.0324 C   0  0  1  0  0  0
  -20.5902  -28.3722   23.1256 C   0  0  2  0  0  0
  -20.6787  -26.9437   22.5402 C   0  0  0  0  0  0
  -19.5759  -26.6395   21.5213 C   0  0  0  0  0  0
  -18.1940  -26.7942   22.1628 C   0  0  0  0  0  0
  -19.1549  -28.8878   23.2867 C   0  0  0  0  0  0
  -18.9468  -30.1473   23.8892 C   0  0  0  0  0  0
  -17.6467  -30.6598   24.0569 C   0  0  0  0  0  0
  -25.9069  -34.9429   23.5092 C   0  0  0  0  0  0
  -16.5356  -29.9098   23.6333 C   0  0  0  0  0  0
  -16.7279  -28.6515   23.0352 C   0  0  0  0  0  0
  -26.4525  -31.6562   25.0725 C   0  0  0  0  0  0
  -25.3735  -31.3715   26.1434 C   0  0  0  0  0  0
  -27.0365  -30.2965   24.6236 C   0  0  0  0  0  0
  -27.6087  -32.4294   25.7491 C   0  0  0  0  0  0
  -27.5583  -37.1791   24.8464 C   0  0  0  0  0  0
  -21.4220  -29.3065   22.3635 N   0  0  0  0  0  0
  -26.4288  -37.3763   23.9413 N   0  0  0  0  0  0
  -24.7035  -31.0484   22.0971 N   0  0  0  0  0  0
  -23.4203  -28.8143   23.2998 O   0  0  0  0  0  0
  -28.2680  -26.2785   20.2017 O   0  0  0  0  0  0
  -26.5641  -34.8907   22.4661 O   0  0  0  0  0  0
  -23.5496  -32.1381   23.7249 O   0  0  0  0  0  0
  -30.8827  -21.0410   20.9727 C   0  0  0  0  0  0
  -31.3540  -19.6924   21.0556 C   0  0  0  0  0  0
  -29.5898  -21.0514   20.5398 C   0  0  0  0  0  0
  -30.3441  -18.8410   20.6634 C   0  0  0  0  0  0
  -28.7125  -22.2379   20.2619 C   0  0  0  0  0  0
  -30.5007  -17.3381   20.5663 C   0  0  0  0  0  0
  -29.8681  -16.0949   20.6292 C   0  0  0  0  0  0
  -28.9364  -23.6173   20.3270 C   0  0  0  0  0  0
  -32.7456  -19.2988   21.4849 C   0  0  0  0  0  0
  -27.9335  -24.8129   19.9825 C   0  0  0  0  0  0
  -29.2223  -19.6730   20.3704 O   0  0  0  0  0  0
  -31.4660  -12.5647   19.1968 H   0  0  0  0  0  0
  -30.3453  -11.5052   19.9966 H   0  0  0  0  0  0
  -29.8025  -11.7291   17.5418 H   0  0  0  0  0  0
  -29.6371  -13.4594   17.7253 H   0  0  0  0  0  0
  -27.9029  -11.2819   18.9320 H   0  0  0  0  0  0
  -27.3813  -12.5029   17.8019 H   0  0  0  0  0  0
  -27.6177  -14.2569   19.4434 H   0  0  0  0  0  0
  -28.7145  -12.2366   21.4532 H   0  0  0  0  0  0
  -28.4050  -13.9257   21.7660 H   0  0  0  0  0  0
  -25.2772   -9.5695   22.4755 H   0  0  0  0  0  0
  -24.0016   -7.4638   22.7469 H   0  0  0  0  0  0
  -21.0848   -8.8760   19.8946 H   0  0  0  0  0  0
  -22.3692  -10.9668   19.6158 H   0  0  0  0  0  0
  -21.2004   -7.6145   23.9715 H   0  0  0  0  0  0
  -21.1490   -6.0521   25.9077 H   0  0  0  0  0  0
  -22.0593   -2.7608   23.2850 H   0  0  0  0  0  0
  -22.4100  -11.9856   22.4819 H   0  0  0  0  0  0
  -21.1073  -13.1186   22.2644 H   0  0  0  0  0  0
  -24.6548  -15.8512   20.5412 H   0  0  0  0  0  0
  -26.2735  -15.6371   20.1062 H   0  0  0  0  0  0
  -26.7231  -32.5381   23.1070 H   0  0  0  0  0  0
  -25.0091  -33.9680   25.0389 H   0  0  0  0  0  0
  -22.7312  -31.3039   21.3968 H   0  0  0  0  0  0
  -23.3762  -35.9600   23.3273 H   0  0  0  0  0  0
  -24.3596  -36.8927   22.2059 H   0  0  0  0  0  0
  -23.7238  -37.6462   23.6685 H   0  0  0  0  0  0
  -26.1277  -31.5169   20.6153 H   0  0  0  0  0  0
  -26.8594  -30.8039   22.0196 H   0  0  0  0  0  0
  -28.1159  -28.8742   21.2291 H   0  0  0  0  0  0
  -25.9064  -25.9217   18.9601 H   0  0  0  0  0  0
  -23.9655  -27.3391   18.9716 H   0  0  0  0  0  0
  -23.7834  -30.6014   19.4054 H   0  0  0  0  0  0
  -22.7692  -29.2608   19.8447 H   0  0  0  0  0  0
  -25.1300  -36.1900   25.0815 H   0  0  0  0  0  0
  -20.9999  -28.3310   24.1376 H   0  0  0  0  0  0
  -20.5706  -26.2335   23.3612 H   0  0  0  0  0  0
  -21.6656  -26.7474   22.1188 H   0  0  0  0  0  0
  -19.6930  -25.6304   21.1252 H   0  0  0  0  0  0
  -19.6693  -27.3201   20.6738 H   0  0  0  0  0  0
  -17.4210  -26.6683   21.4034 H   0  0  0  0  0  0
  -18.0349  -26.0087   22.9029 H   0  0  0  0  0  0
  -19.7944  -30.7294   24.2265 H   0  0  0  0  0  0
  -17.5019  -31.6278   24.5176 H   0  0  0  0  0  0
  -15.5362  -30.3005   23.7654 H   0  0  0  0  0  0
  -15.8676  -28.0835   22.7074 H   0  0  0  0  0  0
  -24.5926  -30.7051   25.7752 H   0  0  0  0  0  0
  -24.8913  -32.2878   26.4843 H   0  0  0  0  0  0
  -25.8043  -30.8898   27.0218 H   0  0  0  0  0  0
  -26.2951  -29.6696   24.1268 H   0  0  0  0  0  0
  -27.4029  -29.7248   25.4773 H   0  0  0  0  0  0
  -27.8843  -30.4210   23.9494 H   0  0  0  0  0  0
  -27.2725  -33.3624   26.2024 H   0  0  0  0  0  0
  -28.3922  -32.6791   25.0323 H   0  0  0  0  0  0
  -28.0722  -31.8430   26.5435 H   0  0  0  0  0  0
  -28.2578  -38.0107   24.7529 H   0  0  0  0  0  0
  -28.1096  -36.2638   24.6263 H   0  0  0  0  0  0
  -27.2304  -37.1407   25.8866 H   0  0  0  0  0  0
  -20.9409  -29.8785   21.6830 H   0  0  0  0  0  0
  -26.0158  -38.2830   24.1421 H   0  0  0  0  0  0
  -31.4516  -21.9324   21.1988 H   0  0  0  0  0  0
  -27.7178  -21.9532   19.9472 H   0  0  0  0  0  0
  -31.5476  -17.1806   20.3516 H   0  0  0  0  0  0
  -28.8073  -16.0626   20.8235 H   0  0  0  0  0  0
  -29.9183  -23.9465   20.6344 H   0  0  0  0  0  0
  -33.2891  -20.1594   21.8761 H   0  0  0  0  0  0
  -33.3085  -18.8987   20.6411 H   0  0  0  0  0  0
  -32.7080  -18.5390   22.2659 H   0  0  0  0  0  0
  -27.0122  -24.5846   20.5209 H   0  0  0  0  0  0
  -27.7082  -24.6904   18.9229 H   0  0  0  0  0  0
  1 25  1  0  0  0
  1 30  2  0  0  0
  1 77  1  0  0  0
  2  3  1  0  0  0
  2 25  1  0  0  0
  2 82  1  0  0  0
  2 83  1  0  0  0
  3  4  1  0  0  0
  3 84  1  0  0  0
  3 85  1  0  0  0
  4  5  1  0  0  0
  4 86  1  0  0  0
  4 87  1  0  0  0
  5  6  1  0  0  0
  5 26  1  0  0  0
  5 88  1  0  0  0
  6 25  1  0  0  0
  6 89  1  0  0  0
  6 90  1  0  0  0
  7  8  2  0  0  0
  7 26  1  0  0  0
  7 29  1  0  0  0
  8  9  1  0  0  0
  8 22  1  0  0  0
  9 10  1  0  0  0
  9 27  2  0  0  0
 10 11  2  0  0  0
 10 15  1  0  0  0
 11 12  1  0  0  0
 11 91  1  0  0  0
 12 13  2  0  0  0
 12 92  1  0  0  0
 13 14  1  0  0  0
 13 31  1  0  0  0
 14 15  2  0  0  0
 14 93  1  0  0  0
 15 94  1  0  0  0
 16 17  2  0  0  0
 16 21  1  0  0  0
 16 31  1  0  0  0
 17 18  1  0  0  0
 17 95  1  0  0  0
 18 19  2  0  0  0
 18 96  1  0  0  0
 19 20  1  0  0  0
 19 24  1  0  0  0
 20 21  2  0  0  0
 20 97  1  0  0  0
 21 23  1  0  0  0
 22 28  1  0  0  0
 22 32  2  0  0  0
 26 27  1  0  0  0
 28 98  1  0  0  0
 28 99  1  0  0  0
 29100  1  0  0  0
 29101  1  0  0  0
 33 34  1  0  0  0
 33 66  1  0  0  0
 33 70  2  0  0  0
 34 36  1  0  0  0
 34 59  1  0  0  0
 34102  1  0  0  0
 35 44  2  0  0  0
 35 45  1  0  0  0
 35 68  1  0  0  0
 36 56  1  0  0  0
 36103  1  0  0  0
 37 39  1  0  0  0
 37 47  1  0  0  0
 37 66  1  0  0  0
 37104  1  0  0  0
 38 43  2  0  0  0
 38 46  1  0  0  0
 38 47  1  0  0  0
 39 64  1  0  0  0
 39 67  2  0  0  0
 40 52  1  0  0  0
 40 53  2  0  0  0
 40 58  1  0  0  0
 41105  1  0  0  0
 41106  1  0  0  0
 41107  1  0  0  0
 41 48  1  0  0  0
 42 43  1  0  0  0
 42 66  1  0  0  0
 42108  1  0  0  0
 42109  1  0  0  0
 43 44  1  0  0  0
 44110  1  0  0  0
 45 46  2  0  0  0
 45111  1  0  0  0
 46112  1  0  0  0
 47113  1  0  0  0
 47114  1  0  0  0
 48 56  1  0  0  0
 48 65  1  0  0  0
 48115  1  0  0  0
 49 50  1  0  0  0
 49 53  1  0  0  0
 49 64  1  0  0  0
 49116  1  0  0  0
 50 51  1  0  0  0
 50117  1  0  0  0
 50118  1  0  0  0
 51 52  1  0  0  0
 51119  1  0  0  0
 51120  1  0  0  0
 52121  1  0  0  0
 52122  1  0  0  0
 53 54  1  0  0  0
 54 55  2  0  0  0
 54123  1  0  0  0
 55 57  1  0  0  0
 55124  1  0  0  0
 56 69  2  0  0  0
 57 58  2  0  0  0
 57125  1  0  0  0
 58126  1  0  0  0
 59 60  1  0  0  0
 59 61  1  0  0  0
 59 62  1  0  0  0
 60127  1  0  0  0
 60128  1  0  0  0
 60129  1  0  0  0
 61130  1  0  0  0
 61131  1  0  0  0
 61132  1  0  0  0
 62133  1  0  0  0
 62134  1  0  0  0
 62135  1  0  0  0
 63 65  1  0  0  0
 63136  1  0  0  0
 63137  1  0  0  0
 63138  1  0  0  0
 64139  1  0  0  0
 65140  1  0  0  0
 68 80  1  0  0  0
 71 72  1  0  0  0
 71 73  2  0  0  0
 71141  1  0  0  0
 72 74  2  0  0  0
 72 79  1  0  0  0
 73 75  1  0  0  0
 73 81  1  0  0  0
 74 76  1  0  0  0
 74 81  1  0  0  0
 75 78  2  0  0  0
 75142  1  0  0  0
 76 77  2  0  0  0
 76143  1  0  0  0
 77144  1  0  0  0
 78 80  1  0  0  0
 78145  1  0  0  0
 79146  1  0  0  0
 79147  1  0  0  0
 79148  1  0  0  0
 80149  1  0  0  0
 80150  1  0  0  0
M  ISO  4   1 100  68 101  77 100  80 101
M  END
> <chiral flag>
0

> <version>
0

> <s_m_source_file>
/data/baiqing/PycharmProjects/Reinvent-master-3.2/result/LINK_invent/BTK/process_docking_weight1_custom_product_contain_oxygen_bond_distance_aromatic_linkinvent_7_9_3/rearranged_h_0118.sdf

> <i_m_source_file_index>
29

> <r_mmod_Potential_Energy-OPLS-2005>
235.554595947266

> <r_mmod_Stretch_Energy-OPLS-2005>
140.023406982422

> <r_mmod_Bend_Energy-OPLS-2005>
212.098251342773

> <r_mmod_Torsional_Energy-OPLS-2005>
191.328140258789

> <r_mmod_Improper_Torsional_Energy-OPLS-2005>
3.83661341667175

> <r_mmod_Van_der_Waal_Energy-OPLS-2005>
128.959335327148

> <r_mmod_Electrostatic_Energy-OPLS-2005>
-353.026977539062

> <r_mmod_Solvation_Energy-OPLS-2005>
-196.735305786133

> <b_mmod_Minimization_Converged-OPLS-2005>
0

> <r_mmod_RMS_Derivative-OPLS-2005>
0.898528695106506

$$$$
29
                    3D
 Structure written by MMmdl.
159168  0  0  1  0            999 V2000
  -30.6065  -14.8162   20.4601 C   0  0  0  0  0  0
  -30.4215  -12.4980   19.4988 C   0  0  0  0  0  0
  -29.5175  -12.5373   18.2475 C   0  0  0  0  0  0
  -28.0396  -12.3624   18.6455 C   0  0  0  0  0  0
  -27.6366  -13.2510   19.8538 C   0  0  2  0  0  0
  -28.6787  -13.2066   20.9929 C   0  0  0  0  0  0
  -25.2466  -13.8227   20.5707 C   0  0  0  0  0  0
  -24.1782  -13.0440   20.9210 C   0  0  0  0  0  0
  -24.6406  -11.6926   20.8749 C   0  0  0  0  0  0
  -23.9092  -10.4298   21.0397 C   0  0  0  0  0  0
  -24.3643   -9.4208   21.9171 C   0  0  0  0  0  0
  -23.6313   -8.2250   22.0747 C   0  0  0  0  0  0
  -22.4289   -8.0290   21.3540 C   0  0  0  0  0  0
  -21.9924   -9.0264   20.4642 C   0  0  0  0  0  0
  -22.7267  -10.2136   20.3048 C   0  0  0  0  0  0
  -21.6852   -6.0739   22.5282 C   0  0  0  0  0  0
  -21.4017   -6.5641   23.8214 C   0  0  0  0  0  0
  -21.3665   -5.6795   24.9177 C   0  0  0  0  0  0
  -21.6041   -4.3053   24.7228 C   0  0  0  0  0  0
  -21.8821   -3.8145   23.4347 C   0  0  0  0  0  0
  -21.9197   -4.6966   22.3401 C   0  0  0  0  0  0
  -22.7801  -13.5205   21.1866 C   0  0  0  0  0  0
  -22.1660   -4.2154   21.0976 F   0  0  0  0  0  0
  -21.5632   -3.4539   25.7738 F   0  0  0  0  0  0
  -29.9713  -13.5850   20.4095 N   0  0  0  0  0  0
  -26.2907  -12.9473   20.3289 N   0  0  0  0  0  0
  -25.9341  -11.6588   20.5735 N   0  0  0  0  0  0
  -22.0460  -12.8201   22.0436 N   0  0  0  0  0  0
  -25.4101  -15.1963   20.4119 N   0  0  0  0  0  0
  -31.7968  -14.8442   20.1325 O   0  0  0  0  0  0
  -21.6640   -6.8894   21.4241 O   0  0  0  0  0  0
  -22.3478  -14.5511   20.6720 O   0  0  0  0  0  0
  -24.6386  -31.8510   23.1944 C   0  0  0  0  0  0
  -25.9191  -32.4729   23.8316 C   0  0  1  0  0  0
  -27.2113  -27.1992   20.1442 C   0  0  0  0  0  0
  -25.5961  -33.8531   24.2241 N   0  0  0  0  0  0
  -23.4412  -30.4714   21.5365 C   0  0  2  0  0  0
  -24.8943  -28.9172   20.1013 C   0  0  0  0  0  0
  -22.7552  -29.4575   22.4860 C   0  0  0  0  0  0
  -18.0311  -28.1397   22.8482 C   0  0  0  0  0  0
  -24.1472  -36.7255   23.2637 C   0  0  0  0  0  0
  -25.9921  -30.7420   21.3886 C   0  0  0  0  0  0
  -26.0667  -29.3599   20.7293 C   0  0  0  0  0  0
  -27.2316  -28.5114   20.7452 C   0  0  0  0  0  0
  -26.0278  -26.8554   19.4593 C   0  0  0  0  0  0
  -24.8842  -27.6760   19.4499 C   0  0  0  0  0  0
  -23.6661  -29.8091   20.1515 C   0  0  0  0  0  0
  -25.4101  -36.3051   24.0329 C   0  0  1  0  0  0
  -20.5916  -28.3724   23.1229 C   0  0  2  0  0  0
  -20.6771  -26.9429   22.5389 C   0  0  0  0  0  0
  -19.5740  -26.6385   21.5201 C   0  0  0  0  0  0
  -18.1934  -26.7940   22.1625 C   0  0  0  0  0  0
  -19.1561  -28.8881   23.2848 C   0  0  0  0  0  0
  -18.9481  -30.1475   23.8878 C   0  0  0  0  0  0
  -17.6473  -30.6590   24.0572 C   0  0  0  0  0  0
  -25.9068  -34.9425   23.5094 C   0  0  0  0  0  0
  -16.5371  -29.9088   23.6332 C   0  0  0  0  0  0
  -16.7294  -28.6505   23.0364 C   0  0  0  0  0  0
  -26.4524  -31.6578   25.0739 C   0  0  0  0  0  0
  -25.3723  -31.3759   26.1450 C   0  0  0  0  0  0
  -27.0374  -30.2970   24.6292 C   0  0  0  0  0  0
  -27.6057  -32.4328   25.7525 C   0  0  0  0  0  0
  -27.5574  -37.1775   24.8461 C   0  0  0  0  0  0
  -21.4244  -29.3058   22.3601 N   0  0  0  0  0  0
  -26.4264  -37.3761   23.9429 N   0  0  0  0  0  0
  -24.7095  -31.0409   22.0953 N   0  0  0  0  0  0
  -23.4216  -28.8120   23.2984 O   0  0  0  0  0  0
  -28.1836  -26.1566   20.2579 O   0  0  0  0  0  0
  -26.5626  -34.8929   22.4655 O   0  0  0  0  0  0
  -23.5515  -32.1376   23.7176 O   0  0  0  0  0  0
  -32.0599  -19.1388   20.2920 C   0  0  0  0  0  0
  -31.6217  -17.8145   20.4602 C   0  0  0  0  0  0
  -29.3555  -18.6447   20.5625 C   0  0  0  0  0  0
  -29.7749  -20.0584   20.4181 C   0  0  0  0  0  0
  -31.1776  -20.2392   20.2359 C   0  0  0  0  0  0
  -30.2548  -17.4727   20.5666 C   0  0  0  0  0  0
  -27.9737  -23.6012   21.1533 C   0  0  0  0  0  0
  -27.6996  -24.9708   20.9201 C   0  0  0  0  0  0
  -28.7901  -21.3076   20.3116 C   0  0  0  0  0  0
  -27.2542  -22.9982   22.3505 C   0  0  0  0  0  0
  -28.4024  -22.4423   23.2039 C   0  0  0  0  0  0
  -29.6151  -22.4452   22.2547 C   0  0  0  0  0  0
  -31.8097  -21.5937   19.9336 C   0  0  0  0  0  0
  -29.0067  -22.5749   20.9282 N   0  0  0  0  0  0
  -29.8744  -16.0053   20.6760 N   0  0  0  0  0  0
  -27.7714  -21.1238   19.6364 O   0  0  0  0  0  0
  -31.4681  -12.6004   19.2098 H   0  0  0  0  0  0
  -30.3474  -11.5274   19.9919 H   0  0  0  0  0  0
  -29.8127  -11.7649   17.5365 H   0  0  0  0  0  0
  -29.6494  -13.4903   17.7333 H   0  0  0  0  0  0
  -27.8870  -11.3112   18.8890 H   0  0  0  0  0  0
  -27.3954  -12.5766   17.7914 H   0  0  0  0  0  0
  -27.6234  -14.2736   19.4763 H   0  0  0  0  0  0
  -28.7288  -12.2091   21.4346 H   0  0  0  0  0  0
  -28.4055  -13.8866   21.8005 H   0  0  0  0  0  0
  -25.2789   -9.5677   22.4741 H   0  0  0  0  0  0
  -24.0017   -7.4639   22.7465 H   0  0  0  0  0  0
  -21.0854   -8.8797   19.8950 H   0  0  0  0  0  0
  -22.3735  -10.9676   19.6159 H   0  0  0  0  0  0
  -21.2007   -7.6150   23.9724 H   0  0  0  0  0  0
  -21.1480   -6.0517   25.9081 H   0  0  0  0  0  0
  -22.0597   -2.7607   23.2845 H   0  0  0  0  0  0
  -22.4085  -11.9871   22.4839 H   0  0  0  0  0  0
  -21.1066  -13.1204   22.2630 H   0  0  0  0  0  0
  -24.6352  -15.8433   20.5146 H   0  0  0  0  0  0
  -26.2483  -15.6385   20.0587 H   0  0  0  0  0  0
  -26.7268  -32.5381   23.1060 H   0  0  0  0  0  0
  -25.0130  -33.9637   25.0409 H   0  0  0  0  0  0
  -22.7411  -31.2955   21.3859 H   0  0  0  0  0  0
  -23.3746  -35.9575   23.3305 H   0  0  0  0  0  0
  -24.3558  -36.8866   22.2048 H   0  0  0  0  0  0
  -23.7214  -37.6455   23.6657 H   0  0  0  0  0  0
  -26.1422  -31.5002   20.6186 H   0  0  0  0  0  0
  -26.8622  -30.7912   22.0301 H   0  0  0  0  0  0
  -28.1157  -28.8263   21.2802 H   0  0  0  0  0  0
  -25.9664  -25.8907   18.9763 H   0  0  0  0  0  0
  -23.9930  -27.3333   18.9434 H   0  0  0  0  0  0
  -23.7967  -30.5868   19.3983 H   0  0  0  0  0  0
  -22.7835  -29.2463   19.8434 H   0  0  0  0  0  0
  -25.1269  -36.1890   25.0814 H   0  0  0  0  0  0
  -21.0020  -28.3334   24.1348 H   0  0  0  0  0  0
  -20.5615  -26.2368   23.3618 H   0  0  0  0  0  0
  -21.6643  -26.7403   22.1213 H   0  0  0  0  0  0
  -19.6885  -25.6290   21.1244 H   0  0  0  0  0  0
  -19.6651  -27.3181   20.6718 H   0  0  0  0  0  0
  -17.4180  -26.6691   21.4052 H   0  0  0  0  0  0
  -18.0343  -26.0084   22.9023 H   0  0  0  0  0  0
  -19.7959  -30.7294   24.2234 H   0  0  0  0  0  0
  -17.5036  -31.6267   24.5170 H   0  0  0  0  0  0
  -15.5371  -30.2979   23.7660 H   0  0  0  0  0  0
  -15.8706  -28.0808   22.7093 H   0  0  0  0  0  0
  -24.5905  -30.7095   25.7796 H   0  0  0  0  0  0
  -24.8923  -32.2944   26.4840 H   0  0  0  0  0  0
  -25.8035  -30.8978   27.0257 H   0  0  0  0  0  0
  -26.2995  -29.6709   24.1267 H   0  0  0  0  0  0
  -27.3960  -29.7249   25.4860 H   0  0  0  0  0  0
  -27.8914  -30.4192   23.9623 H   0  0  0  0  0  0
  -27.2642  -33.3625   26.2085 H   0  0  0  0  0  0
  -28.3891  -32.6886   25.0381 H   0  0  0  0  0  0
  -28.0706  -31.8477   26.5470 H   0  0  0  0  0  0
  -28.2556  -38.0105   24.7560 H   0  0  0  0  0  0
  -28.1104  -36.2646   24.6209 H   0  0  0  0  0  0
  -27.2315  -37.1336   25.8867 H   0  0  0  0  0  0
  -20.9460  -29.8807   21.6809 H   0  0  0  0  0  0
  -26.0146  -38.2823   24.1484 H   0  0  0  0  0  0
  -33.1225  -19.2995   20.1754 H   0  0  0  0  0  0
  -32.3943  -17.0646   20.4848 H   0  0  0  0  0  0
  -28.2945  -18.4586   20.6575 H   0  0  0  0  0  0
  -26.8455  -25.3047   21.4955 H   0  0  0  0  0  0
  -26.5711  -22.2124   22.0214 H   0  0  0  0  0  0
  -26.6657  -23.7149   22.9250 H   0  0  0  0  0  0
  -28.1686  -21.4401   23.5654 H   0  0  0  0  0  0
  -28.5956  -23.0696   24.0750 H   0  0  0  0  0  0
  -30.2460  -21.5753   22.4331 H   0  0  0  0  0  0
  -30.2376  -23.3238   22.4302 H   0  0  0  0  0  0
  -32.8236  -21.4741   19.5511 H   0  0  0  0  0  0
  -31.8868  -22.2067   20.8307 H   0  0  0  0  0  0
  -31.2520  -22.1403   19.1723 H   0  0  0  0  0  0
  -28.9048  -15.8350   20.8990 H   0  0  0  0  0  0
  1 25  1  0  0  0
  1 30  2  0  0  0
  1 85  1  0  0  0
  2  3  1  0  0  0
  2 25  1  0  0  0
  2 87  1  0  0  0
  2 88  1  0  0  0
  3  4  1  0  0  0
  3 89  1  0  0  0
  3 90  1  0  0  0
  4  5  1  0  0  0
  4 91  1  0  0  0
  4 92  1  0  0  0
  5  6  1  0  0  0
  5 26  1  0  0  0
  5 93  1  0  0  0
  6 25  1  0  0  0
  6 94  1  0  0  0
  6 95  1  0  0  0
  7  8  2  0  0  0
  7 26  1  0  0  0
  7 29  1  0  0  0
  8  9  1  0  0  0
  8 22  1  0  0  0
  9 10  1  0  0  0
  9 27  2  0  0  0
 10 11  2  0  0  0
 10 15  1  0  0  0
 11 12  1  0  0  0
 11 96  1  0  0  0
 12 13  2  0  0  0
 12 97  1  0  0  0
 13 14  1  0  0  0
 13 31  1  0  0  0
 14 15  2  0  0  0
 14 98  1  0  0  0
 15 99  1  0  0  0
 16 17  2  0  0  0
 16 21  1  0  0  0
 16 31  1  0  0  0
 17 18  1  0  0  0
 17100  1  0  0  0
 18 19  2  0  0  0
 18101  1  0  0  0
 19 20  1  0  0  0
 19 24  1  0  0  0
 20 21  2  0  0  0
 20102  1  0  0  0
 21 23  1  0  0  0
 22 28  1  0  0  0
 22 32  2  0  0  0
 26 27  1  0  0  0
 28103  1  0  0  0
 28104  1  0  0  0
 29105  1  0  0  0
 29106  1  0  0  0
 33 34  1  0  0  0
 33 66  1  0  0  0
 33 70  2  0  0  0
 34 36  1  0  0  0
 34 59  1  0  0  0
 34107  1  0  0  0
 35 44  2  0  0  0
 35 45  1  0  0  0
 35 68  1  0  0  0
 36 56  1  0  0  0
 36108  1  0  0  0
 37 39  1  0  0  0
 37 47  1  0  0  0
 37 66  1  0  0  0
 37109  1  0  0  0
 38 43  2  0  0  0
 38 46  1  0  0  0
 38 47  1  0  0  0
 39 64  1  0  0  0
 39 67  2  0  0  0
 40 52  1  0  0  0
 40 53  2  0  0  0
 40 58  1  0  0  0
 41110  1  0  0  0
 41111  1  0  0  0
 41112  1  0  0  0
 41 48  1  0  0  0
 42 43  1  0  0  0
 42 66  1  0  0  0
 42113  1  0  0  0
 42114  1  0  0  0
 43 44  1  0  0  0
 44115  1  0  0  0
 45 46  2  0  0  0
 45116  1  0  0  0
 46117  1  0  0  0
 47118  1  0  0  0
 47119  1  0  0  0
 48 56  1  0  0  0
 48 65  1  0  0  0
 48120  1  0  0  0
 49 50  1  0  0  0
 49 53  1  0  0  0
 49 64  1  0  0  0
 49121  1  0  0  0
 50 51  1  0  0  0
 50122  1  0  0  0
 50123  1  0  0  0
 51 52  1  0  0  0
 51124  1  0  0  0
 51125  1  0  0  0
 52126  1  0  0  0
 52127  1  0  0  0
 53 54  1  0  0  0
 54 55  2  0  0  0
 54128  1  0  0  0
 55 57  1  0  0  0
 55129  1  0  0  0
 56 69  2  0  0  0
 57 58  2  0  0  0
 57130  1  0  0  0
 58131  1  0  0  0
 59 60  1  0  0  0
 59 61  1  0  0  0
 59 62  1  0  0  0
 60132  1  0  0  0
 60133  1  0  0  0
 60134  1  0  0  0
 61135  1  0  0  0
 61136  1  0  0  0
 61137  1  0  0  0
 62138  1  0  0  0
 62139  1  0  0  0
 62140  1  0  0  0
 63 65  1  0  0  0
 63141  1  0  0  0
 63142  1  0  0  0
 63143  1  0  0  0
 64144  1  0  0  0
 65145  1  0  0  0
 68 78  1  0  0  0
 71 72  2  0  0  0
 71 75  1  0  0  0
 71146  1  0  0  0
 72 76  1  0  0  0
 72147  1  0  0  0
 73 74  1  0  0  0
 73 76  2  0  0  0
 73148  1  0  0  0
 74 75  2  0  0  0
 74 79  1  0  0  0
 75 83  1  0  0  0
 76 85  1  0  0  0
 77 78  2  0  0  0
 77 80  1  0  0  0
 77 84  1  0  0  0
 78149  1  0  0  0
 79 84  1  0  0  0
 79 86  2  0  0  0
 80 81  1  0  0  0
 80150  1  0  0  0
 80151  1  0  0  0
 81 82  1  0  0  0
 81152  1  0  0  0
 81153  1  0  0  0
 82 84  1  0  0  0
 82154  1  0  0  0
 82155  1  0  0  0
 83156  1  0  0  0
 83157  1  0  0  0
 83158  1  0  0  0
 85159  1  0  0  0
M  ISO  4   1 100  68 101  78 101  85 100
M  END
> <chiral flag>
0

> <version>
0

> <s_m_source_file>
/data/baiqing/PycharmProjects/Reinvent-master-3.2/result/LINK_invent/BTK/process_docking_weight1_custom_product_contain_oxygen_bond_distance_aromatic_linkinvent_7_9_3/rearranged_h_0118.sdf

> <i_m_source_file_index>
30

> <r_mmod_Potential_Energy-OPLS-2005>
653.170043945312

> <r_mmod_Stretch_Energy-OPLS-2005>
186.574096679688

> <r_mmod_Bend_Energy-OPLS-2005>
340.533569335938

> <r_mmod_Torsional_Energy-OPLS-2005>
326.550842285156

> <r_mmod_Improper_Torsional_Energy-OPLS-2005>
12.4731140136719

> <r_mmod_Van_der_Waal_Energy-OPLS-2005>
161.02717590332

> <r_mmod_Electrostatic_Energy-OPLS-2005>
-301.333221435547

> <r_mmod_Solvation_Energy-OPLS-2005>
-210.558303833008

> <b_mmod_Minimization_Converged-OPLS-2005>
0

> <r_mmod_RMS_Derivative-OPLS-2005>
2.56181311607361

$$$$
30
                    3D
 Structure written by MMmdl.
149157  0  0  1  0            999 V2000
  -30.3992  -15.2761   20.3761 C   0  0  0  0  0  0
  -30.4471  -12.8134   19.5310 C   0  0  0  0  0  0
  -29.5415  -12.5831   18.2927 C   0  0  0  0  0  0
  -28.0894  -12.3019   18.7175 C   0  0  0  0  0  0
  -27.6158  -13.2717   19.8278 C   0  0  2  0  0  0
  -28.6477  -13.4304   20.9653 C   0  0  0  0  0  0
  -25.2399  -13.8222   20.5710 C   0  0  0  0  0  0
  -24.1754  -13.0425   20.9258 C   0  0  0  0  0  0
  -24.6408  -11.6922   20.8766 C   0  0  0  0  0  0
  -23.9097  -10.4287   21.0412 C   0  0  0  0  0  0
  -24.3640   -9.4198   21.9189 C   0  0  0  0  0  0
  -23.6303   -8.2239   22.0756 C   0  0  0  0  0  0
  -22.4284   -8.0282   21.3546 C   0  0  0  0  0  0
  -21.9927   -9.0259   20.4648 C   0  0  0  0  0  0
  -22.7267  -10.2134   20.3061 C   0  0  0  0  0  0
  -21.6856   -6.0737   22.5277 C   0  0  0  0  0  0
  -21.4015   -6.5641   23.8211 C   0  0  0  0  0  0
  -21.3660   -5.6794   24.9172 C   0  0  0  0  0  0
  -21.6045   -4.3057   24.7223 C   0  0  0  0  0  0
  -21.8820   -3.8148   23.4345 C   0  0  0  0  0  0
  -21.9191   -4.6964   22.3400 C   0  0  0  0  0  0
  -22.7774  -13.5186   21.1905 C   0  0  0  0  0  0
  -22.1662   -4.2149   21.0978 F   0  0  0  0  0  0
  -21.5627   -3.4540   25.7737 F   0  0  0  0  0  0
  -29.8817  -13.9479   20.3502 N   0  0  0  0  0  0
  -26.2832  -12.9496   20.3211 N   0  0  0  0  0  0
  -25.9345  -11.6607   20.5729 N   0  0  0  0  0  0
  -22.0431  -12.8171   22.0459 N   0  0  0  0  0  0
  -25.3998  -15.1943   20.4081 N   0  0  0  0  0  0
  -31.6132  -15.3251   20.1245 O   0  0  0  0  0  0
  -21.6643   -6.8882   21.4241 O   0  0  0  0  0  0
  -22.3455  -14.5488   20.6743 O   0  0  0  0  0  0
  -24.6627  -31.8230   23.1703 C   0  0  0  0  0  0
  -25.9306  -32.4586   23.8171 C   0  0  1  0  0  0
  -27.2208  -26.9192   20.1938 C   0  0  0  0  0  0
  -25.5972  -33.8402   24.2072 N   0  0  0  0  0  0
  -23.4786  -30.4330   21.5193 C   0  0  2  0  0  0
  -24.9330  -28.8151   20.1169 C   0  0  0  0  0  0
  -22.7668  -29.4433   22.4784 C   0  0  0  0  0  0
  -18.0322  -28.1407   22.8466 C   0  0  0  0  0  0
  -24.1495  -36.7211   23.2645 C   0  0  0  0  0  0
  -26.0474  -30.6257   21.4036 C   0  0  0  0  0  0
  -26.1154  -29.2124   20.7540 C   0  0  0  0  0  0
  -27.2530  -28.2850   20.7689 C   0  0  0  0  0  0
  -26.0111  -26.6772   19.5049 C   0  0  0  0  0  0
  -24.9055  -27.5674   19.4729 C   0  0  0  0  0  0
  -23.7204  -29.7456   20.1470 C   0  0  0  0  0  0
  -25.4134  -36.2968   24.0298 C   0  0  1  0  0  0
  -20.5945  -28.3754   23.1188 C   0  0  2  0  0  0
  -20.6797  -26.9435   22.5402 C   0  0  0  0  0  0
  -19.5773  -26.6374   21.5213 C   0  0  0  0  0  0
  -18.1956  -26.7940   22.1621 C   0  0  0  0  0  0
  -19.1582  -28.8901   23.2814 C   0  0  0  0  0  0
  -18.9492  -30.1488   23.8852 C   0  0  0  0  0  0
  -17.6485  -30.6596   24.0552 C   0  0  0  0  0  0
  -25.9102  -34.9351   23.5009 C   0  0  0  0  0  0
  -16.5376  -29.9084   23.6339 C   0  0  0  0  0  0
  -16.7303  -28.6502   23.0363 C   0  0  0  0  0  0
  -26.4557  -31.6538   25.0705 C   0  0  0  0  0  0
  -25.3683  -31.3792   26.1362 C   0  0  0  0  0  0
  -27.0452  -30.2900   24.6452 C   0  0  0  0  0  0
  -27.6046  -32.4353   25.7508 C   0  0  0  0  0  0
  -27.5578  -37.1751   24.8459 C   0  0  0  0  0  0
  -21.4337  -29.3042   22.3535 N   0  0  0  0  0  0
  -26.4276  -37.3707   23.9417 N   0  0  0  0  0  0
  -24.7508  -30.9882   22.0845 N   0  0  0  0  0  0
  -23.4212  -28.8010   23.3033 O   0  0  0  0  0  0
  -28.2388  -25.8243   20.2176 O   0  0  0  0  0  0
  -26.5715  -34.8887   22.4608 O   0  0  0  0  0  0
  -23.5693  -32.1207   23.6787 O   0  0  0  0  0  0
  -30.1645  -20.6022   19.8862 C   0  0  0  0  0  0
  -30.3771  -19.1234   19.9457 C   0  0  0  0  0  0
  -28.0990  -20.3888   20.8070 C   0  0  0  0  0  0
  -29.0127  -21.4116   20.3072 C   0  0  0  0  0  0
  -28.2924  -18.9009   20.8952 C   0  0  0  0  0  0
  -29.4601  -18.1113   20.4560 C   0  0  0  0  0  0
  -25.8955  -18.4845   21.5778 C   0  0  0  0  0  0
  -28.9105  -23.1232   20.1988 C   0  0  0  0  0  0
  -27.1837  -18.1118   21.4733 C   0  0  0  0  0  0
  -28.0318  -24.3025   20.3375 C   0  0  0  0  0  0
  -29.5444  -16.4808   20.5262 N   0  0  0  0  0  0
  -31.4630  -13.0324   19.1998 H   0  0  0  0  0  0
  -30.5244  -11.9042   20.1295 H   0  0  0  0  0  0
  -29.9232  -11.7580   17.6900 H   0  0  0  0  0  0
  -29.5693  -13.4677   17.6548 H   0  0  0  0  0  0
  -28.0473  -11.2765   19.0866 H   0  0  0  0  0  0
  -27.4218  -12.3457   17.8562 H   0  0  0  0  0  0
  -27.5354  -14.2422   19.3368 H   0  0  0  0  0  0
  -28.8161  -12.4876   21.4878 H   0  0  0  0  0  0
  -28.2832  -14.1369   21.7125 H   0  0  0  0  0  0
  -25.2785   -9.5668   22.4766 H   0  0  0  0  0  0
  -24.0004   -7.4631   22.7480 H   0  0  0  0  0  0
  -21.0854   -8.8793   19.8957 H   0  0  0  0  0  0
  -22.3731  -10.9679   19.6174 H   0  0  0  0  0  0
  -21.2011   -7.6150   23.9713 H   0  0  0  0  0  0
  -21.1480   -6.0525   25.9075 H   0  0  0  0  0  0
  -22.0597   -2.7609   23.2847 H   0  0  0  0  0  0
  -22.4066  -11.9842   22.4852 H   0  0  0  0  0  0
  -21.1046  -13.1184   22.2671 H   0  0  0  0  0  0
  -24.6213  -15.8348   20.5129 H   0  0  0  0  0  0
  -26.2181  -15.6358   20.0121 H   0  0  0  0  0  0
  -26.7379  -32.5123   23.0888 H   0  0  0  0  0  0
  -25.0054  -33.9479   25.0178 H   0  0  0  0  0  0
  -22.7920  -31.2643   21.3461 H   0  0  0  0  0  0
  -23.3782  -35.9514   23.3234 H   0  0  0  0  0  0
  -24.3584  -36.8934   22.2075 H   0  0  0  0  0  0
  -23.7217  -37.6361   23.6752 H   0  0  0  0  0  0
  -26.2272  -31.3633   20.6205 H   0  0  0  0  0  0
  -26.9076  -30.6862   22.0582 H   0  0  0  0  0  0
  -28.1519  -28.5897   21.2865 H   0  0  0  0  0  0
  -25.8952  -25.7259   19.0054 H   0  0  0  0  0  0
  -24.0087  -27.2583   18.9534 H   0  0  0  0  0  0
  -23.8803  -30.5125   19.3884 H   0  0  0  0  0  0
  -22.8299  -29.2016   19.8275 H   0  0  0  0  0  0
  -25.1328  -36.1758   25.0786 H   0  0  0  0  0  0
  -21.0029  -28.3361   24.1314 H   0  0  0  0  0  0
  -20.5673  -26.2374   23.3644 H   0  0  0  0  0  0
  -21.6662  -26.7409   22.1212 H   0  0  0  0  0  0
  -19.6934  -25.6271   21.1276 H   0  0  0  0  0  0
  -19.6710  -27.3155   20.6721 H   0  0  0  0  0  0
  -17.4222  -26.6676   21.4028 H   0  0  0  0  0  0
  -18.0354  -26.0095   22.9031 H   0  0  0  0  0  0
  -19.7967  -30.7313   24.2210 H   0  0  0  0  0  0
  -17.5036  -31.6272   24.5162 H   0  0  0  0  0  0
  -15.5373  -30.2971   23.7686 H   0  0  0  0  0  0
  -15.8705  -28.0801   22.7112 H   0  0  0  0  0  0
  -24.5883  -30.7120   25.7677 H   0  0  0  0  0  0
  -24.8852  -32.2991   26.4663 H   0  0  0  0  0  0
  -25.7914  -30.9046   27.0225 H   0  0  0  0  0  0
  -26.3118  -29.6571   24.1443 H   0  0  0  0  0  0
  -27.3954  -29.7274   25.5117 H   0  0  0  0  0  0
  -27.9074  -30.4072   23.9885 H   0  0  0  0  0  0
  -27.2609  -33.3694   26.1966 H   0  0  0  0  0  0
  -28.3919  -32.6850   25.0383 H   0  0  0  0  0  0
  -28.0651  -31.8564   26.5525 H   0  0  0  0  0  0
  -28.2545  -38.0097   24.7551 H   0  0  0  0  0  0
  -28.1122  -36.2623   24.6224 H   0  0  0  0  0  0
  -27.2302  -37.1318   25.8861 H   0  0  0  0  0  0
  -20.9598  -29.8727   21.6654 H   0  0  0  0  0  0
  -26.0121  -38.2757   24.1455 H   0  0  0  0  0  0
  -30.9883  -21.1624   19.4663 H   0  0  0  0  0  0
  -31.3176  -18.7615   19.5554 H   0  0  0  0  0  0
  -27.1746  -20.7894   21.1933 H   0  0  0  0  0  0
  -25.1756  -17.8252   22.0423 H   0  0  0  0  0  0
  -25.5237  -19.4289   21.2102 H   0  0  0  0  0  0
  -29.8967  -23.4784   19.9361 H   0  0  0  0  0  0
  -27.4406  -17.1444   21.8798 H   0  0  0  0  0  0
  -26.9986  -24.1207   20.5992 H   0  0  0  0  0  0
  -28.6288  -16.1234   20.7500 H   0  0  0  0  0  0
  1 25  1  0  0  0
  1 30  2  0  0  0
  1 81  1  0  0  0
  2  3  1  0  0  0
  2 25  1  0  0  0
  2 82  1  0  0  0
  2 83  1  0  0  0
  3  4  1  0  0  0
  3 84  1  0  0  0
  3 85  1  0  0  0
  4  5  1  0  0  0
  4 86  1  0  0  0
  4 87  1  0  0  0
  5  6  1  0  0  0
  5 26  1  0  0  0
  5 88  1  0  0  0
  6 25  1  0  0  0
  6 89  1  0  0  0
  6 90  1  0  0  0
  7  8  2  0  0  0
  7 26  1  0  0  0
  7 29  1  0  0  0
  8  9  1  0  0  0
  8 22  1  0  0  0
  9 10  1  0  0  0
  9 27  2  0  0  0
 10 11  2  0  0  0
 10 15  1  0  0  0
 11 12  1  0  0  0
 11 91  1  0  0  0
 12 13  2  0  0  0
 12 92  1  0  0  0
 13 14  1  0  0  0
 13 31  1  0  0  0
 14 15  2  0  0  0
 14 93  1  0  0  0
 15 94  1  0  0  0
 16 17  2  0  0  0
 16 21  1  0  0  0
 16 31  1  0  0  0
 17 18  1  0  0  0
 17 95  1  0  0  0
 18 19  2  0  0  0
 18 96  1  0  0  0
 19 20  1  0  0  0
 19 24  1  0  0  0
 20 21  2  0  0  0
 20 97  1  0  0  0
 21 23  1  0  0  0
 22 28  1  0  0  0
 22 32  2  0  0  0
 26 27  1  0  0  0
 28 98  1  0  0  0
 28 99  1  0  0  0
 29100  1  0  0  0
 29101  1  0  0  0
 33 34  1  0  0  0
 33 66  1  0  0  0
 33 70  2  0  0  0
 34 36  1  0  0  0
 34 59  1  0  0  0
 34102  1  0  0  0
 35 44  2  0  0  0
 35 45  1  0  0  0
 35 68  1  0  0  0
 36 56  1  0  0  0
 36103  1  0  0  0
 37 39  1  0  0  0
 37 47  1  0  0  0
 37 66  1  0  0  0
 37104  1  0  0  0
 38 43  2  0  0  0
 38 46  1  0  0  0
 38 47  1  0  0  0
 39 64  1  0  0  0
 39 67  2  0  0  0
 40 52  1  0  0  0
 40 53  2  0  0  0
 40 58  1  0  0  0
 41105  1  0  0  0
 41106  1  0  0  0
 41107  1  0  0  0
 41 48  1  0  0  0
 42 43  1  0  0  0
 42 66  1  0  0  0
 42108  1  0  0  0
 42109  1  0  0  0
 43 44  1  0  0  0
 44110  1  0  0  0
 45 46  2  0  0  0
 45111  1  0  0  0
 46112  1  0  0  0
 47113  1  0  0  0
 47114  1  0  0  0
 48 56  1  0  0  0
 48 65  1  0  0  0
 48115  1  0  0  0
 49 50  1  0  0  0
 49 53  1  0  0  0
 49 64  1  0  0  0
 49116  1  0  0  0
 50 51  1  0  0  0
 50117  1  0  0  0
 50118  1  0  0  0
 51 52  1  0  0  0
 51119  1  0  0  0
 51120  1  0  0  0
 52121  1  0  0  0
 52122  1  0  0  0
 53 54  1  0  0  0
 54 55  2  0  0  0
 54123  1  0  0  0
 55 57  1  0  0  0
 55124  1  0  0  0
 56 69  2  0  0  0
 57 58  2  0  0  0
 57125  1  0  0  0
 58126  1  0  0  0
 59 60  1  0  0  0
 59 61  1  0  0  0
 59 62  1  0  0  0
 60127  1  0  0  0
 60128  1  0  0  0
 60129  1  0  0  0
 61130  1  0  0  0
 61131  1  0  0  0
 61132  1  0  0  0
 62133  1  0  0  0
 62134  1  0  0  0
 62135  1  0  0  0
 63 65  1  0  0  0
 63136  1  0  0  0
 63137  1  0  0  0
 63138  1  0  0  0
 64139  1  0  0  0
 65140  1  0  0  0
 68 80  1  0  0  0
 71 72  2  0  0  0
 71 74  1  0  0  0
 71141  1  0  0  0
 72 76  1  0  0  0
 72142  1  0  0  0
 73 74  2  0  0  0
 73 75  1  0  0  0
 73143  1  0  0  0
 74 78  1  0  0  0
 75 76  2  0  0  0
 75 79  1  0  0  0
 76 81  1  0  0  0
 77 79  2  0  0  0
 77144  1  0  0  0
 77145  1  0  0  0
 78 80  2  0  0  0
 78146  1  0  0  0
 79147  1  0  0  0
 80148  1  0  0  0
 81149  1  0  0  0
M  ISO  4   1 100  68 101  80 101  81 100
M  END
> <chiral flag>
0

> <version>
0

> <s_m_source_file>
/data/baiqing/PycharmProjects/Reinvent-master-3.2/result/LINK_invent/BTK/process_docking_weight1_custom_product_contain_oxygen_bond_distance_aromatic_linkinvent_7_9_3/rearranged_h_0118.sdf

> <i_m_source_file_index>
31

> <r_mmod_Potential_Energy-OPLS-2005>
1164.07727050781

> <r_mmod_Stretch_Energy-OPLS-2005>
505.181243896484

> <r_mmod_Bend_Energy-OPLS-2005>
417.916229248047

> <r_mmod_Torsional_Energy-OPLS-2005>
217.176483154297

> <r_mmod_Improper_Torsional_Energy-OPLS-2005>
3.56109929084778

> <r_mmod_Van_der_Waal_Energy-OPLS-2005>
129.701141357422

> <r_mmod_Electrostatic_Energy-OPLS-2005>
-374.23876953125

> <r_mmod_Solvation_Energy-OPLS-2005>
-203.437271118164

> <b_mmod_Minimization_Converged-OPLS-2005>
0

> <r_mmod_RMS_Derivative-OPLS-2005>
0.538063228130341

$$$$
31
                    3D
 Structure written by MMmdl.
158166  0  0  1  0            999 V2000
  -30.6506  -14.5621   20.5543 C   0  0  0  0  0  0
  -30.4419  -12.3628   19.4285 C   0  0  0  0  0  0
  -29.5010  -12.5214   18.2113 C   0  0  0  0  0  0
  -28.0194  -12.3638   18.6160 C   0  0  0  0  0  0
  -27.6605  -13.1905   19.8780 C   0  0  2  0  0  0
  -28.7078  -12.9324   20.9843 C   0  0  0  0  0  0
  -25.2615  -13.8115   20.5716 C   0  0  0  0  0  0
  -24.1827  -13.0425   20.9144 C   0  0  0  0  0  0
  -24.6368  -11.6879   20.8721 C   0  0  0  0  0  0
  -23.9035  -10.4284   21.0406 C   0  0  0  0  0  0
  -24.3592   -9.4207   21.9192 C   0  0  0  0  0  0
  -23.6276   -8.2235   22.0761 C   0  0  0  0  0  0
  -22.4262   -8.0276   21.3540 C   0  0  0  0  0  0
  -21.9896   -9.0244   20.4634 C   0  0  0  0  0  0
  -22.7221  -10.2122   20.3046 C   0  0  0  0  0  0
  -21.6846   -6.0737   22.5287 C   0  0  0  0  0  0
  -21.4013   -6.5642   23.8221 C   0  0  0  0  0  0
  -21.3649   -5.6790   24.9178 C   0  0  0  0  0  0
  -21.6041   -4.3056   24.7223 C   0  0  0  0  0  0
  -21.8821   -3.8152   23.4347 C   0  0  0  0  0  0
  -21.9194   -4.6968   22.3407 C   0  0  0  0  0  0
  -22.7855  -13.5237   21.1836 C   0  0  0  0  0  0
  -22.1665   -4.2159   21.0981 F   0  0  0  0  0  0
  -21.5618   -3.4539   25.7732 F   0  0  0  0  0  0
  -30.0194  -13.3422   20.4497 N   0  0  0  0  0  0
  -26.3020  -12.9243   20.3397 N   0  0  0  0  0  0
  -25.9285  -11.6418   20.5746 N   0  0  0  0  0  0
  -22.0486  -12.8214   22.0365 N   0  0  0  0  0  0
  -25.4467  -15.1825   20.4252 N   0  0  0  0  0  0
  -31.7960  -14.7239   20.1160 O   0  0  0  0  0  0
  -21.6628   -6.8879   21.4246 O   0  0  0  0  0  0
  -22.3548  -14.5556   20.6707 O   0  0  0  0  0  0
  -24.6188  -31.8652   23.2052 C   0  0  0  0  0  0
  -25.9072  -32.4812   23.8349 C   0  0  1  0  0  0
  -27.2378  -27.3987   20.1062 C   0  0  0  0  0  0
  -25.5889  -33.8604   24.2292 N   0  0  0  0  0  0
  -23.4082  -30.4830   21.5505 C   0  0  2  0  0  0
  -24.8554  -28.9394   20.1195 C   0  0  0  0  0  0
  -22.7434  -29.4612   22.5007 C   0  0  0  0  0  0
  -18.0272  -28.1348   22.8480 C   0  0  0  0  0  0
  -24.1488  -36.7294   23.2638 C   0  0  0  0  0  0
  -25.9376  -30.8211   21.3588 C   0  0  0  0  0  0
  -26.0181  -29.4465   20.7162 C   0  0  0  0  0  0
  -27.2137  -28.6841   20.7064 C   0  0  0  0  0  0
  -26.0594  -26.9124   19.5053 C   0  0  0  0  0  0
  -24.8723  -27.6718   19.5103 C   0  0  0  0  0  0
  -23.6178  -29.8095   20.1672 C   0  0  0  0  0  0
  -25.4108  -36.3095   24.0327 C   0  0  1  0  0  0
  -20.5859  -28.3637   23.1307 C   0  0  2  0  0  0
  -20.6768  -26.9373   22.5394 C   0  0  0  0  0  0
  -19.5746  -26.6379   21.5184 C   0  0  0  0  0  0
  -18.1919  -26.7900   22.1596 C   0  0  0  0  0  0
  -19.1518  -28.8807   23.2895 C   0  0  0  0  0  0
  -18.9453  -30.1413   23.8902 C   0  0  0  0  0  0
  -17.6459  -30.6557   24.0546 C   0  0  0  0  0  0
  -25.9031  -34.9465   23.5102 C   0  0  0  0  0  0
  -16.5346  -29.9058   23.6320 C   0  0  0  0  0  0
  -16.7264  -28.6475   23.0340 C   0  0  0  0  0  0
  -26.4488  -31.6580   25.0682 C   0  0  0  0  0  0
  -25.3743  -31.3654   26.1420 C   0  0  0  0  0  0
  -27.0320  -30.3034   24.6013 C   0  0  0  0  0  0
  -27.6057  -32.4288   25.7465 C   0  0  0  0  0  0
  -27.5580  -37.1811   24.8467 C   0  0  0  0  0  0
  -21.4154  -29.3008   22.3740 N   0  0  0  0  0  0
  -26.4293  -37.3783   23.9414 N   0  0  0  0  0  0
  -24.6743  -31.0709   22.0978 N   0  0  0  0  0  0
  -23.4193  -28.8168   23.3074 O   0  0  0  0  0  0
  -28.3883  -26.6317   20.0433 O   0  0  0  0  0  0
  -26.5615  -34.8923   22.4675 O   0  0  0  0  0  0
  -23.5370  -32.1407   23.7428 O   0  0  0  0  0  0
  -31.6047  -17.4351   21.8277 C   0  0  0  0  0  0
  -31.4783  -19.8247   21.3330 C   0  0  0  0  0  0
  -30.4821  -17.1753   21.0111 C   0  0  0  0  0  0
  -29.8935  -18.2813   20.3027 C   0  0  0  0  0  0
  -30.3707  -19.6141   20.4890 C   0  0  0  0  0  0
  -32.1027  -18.7423   21.9804 C   0  0  0  0  0  0
  -29.8468  -15.8067   21.0788 C   0  0  0  0  0  0
  -28.7290  -18.0589   19.3464 C   0  0  0  0  0  0
  -28.1451  -24.1222   20.6434 C   0  0  0  0  0  0
  -29.2855  -23.1386   20.2039 C   0  0  0  0  0  0
  -28.5296  -25.5922   21.0375 C   0  0  0  0  0  0
  -29.0343  -21.6353   20.5734 C   0  0  0  0  0  0
  -28.6720  -15.7841   21.5517 N   0  0  0  0  0  0
  -29.8230  -20.6966   19.8126 O   0  0  0  0  0  0
  -33.1733  -18.9629   22.7792 F   0  0  0  0  0  0
  -31.4800  -12.4980   19.1194 H   0  0  0  0  0  0
  -30.3904  -11.3476   19.8259 H   0  0  0  0  0  0
  -29.7563  -11.7929   17.4417 H   0  0  0  0  0  0
  -29.6501  -13.5050   17.7623 H   0  0  0  0  0  0
  -27.8362  -11.3061   18.8052 H   0  0  0  0  0  0
  -27.3670  -12.6390   17.7869 H   0  0  0  0  0  0
  -27.7059  -14.2389   19.5868 H   0  0  0  0  0  0
  -28.7227  -11.8687   21.2271 H   0  0  0  0  0  0
  -28.4546  -13.4012   21.9326 H   0  0  0  0  0  0
  -25.2733   -9.5690   22.4766 H   0  0  0  0  0  0
  -23.9991   -7.4629   22.7480 H   0  0  0  0  0  0
  -21.0831   -8.8759   19.8924 H   0  0  0  0  0  0
  -22.3699  -10.9657   19.6138 H   0  0  0  0  0  0
  -21.2011   -7.6151   23.9728 H   0  0  0  0  0  0
  -21.1460   -6.0517   25.9080 H   0  0  0  0  0  0
  -22.0609   -2.7616   23.2841 H   0  0  0  0  0  0
  -22.4072  -11.9838   22.4699 H   0  0  0  0  0  0
  -21.1097  -13.1234   22.2566 H   0  0  0  0  0  0
  -24.7214  -15.8601   20.6307 H   0  0  0  0  0  0
  -26.3717  -15.5923   20.3489 H   0  0  0  0  0  0
  -26.7156  -32.5504   23.1113 H   0  0  0  0  0  0
  -25.0086  -33.9740   25.0476 H   0  0  0  0  0  0
  -22.6988  -31.2994   21.4093 H   0  0  0  0  0  0
  -23.3746  -35.9631   23.3294 H   0  0  0  0  0  0
  -24.3591  -36.8917   22.2054 H   0  0  0  0  0  0
  -23.7234  -37.6490   23.6659 H   0  0  0  0  0  0
  -26.0394  -31.5788   20.5802 H   0  0  0  0  0  0
  -26.8294  -30.8895   21.9704 H   0  0  0  0  0  0
  -28.1152  -29.0750   21.1583 H   0  0  0  0  0  0
  -26.0619  -25.9436   19.0266 H   0  0  0  0  0  0
  -23.9816  -27.2748   19.0426 H   0  0  0  0  0  0
  -23.7256  -30.5812   19.4048 H   0  0  0  0  0  0
  -22.7420  -29.2287   19.8750 H   0  0  0  0  0  0
  -25.1288  -36.1955   25.0815 H   0  0  0  0  0  0
  -20.9949  -28.3190   24.1433 H   0  0  0  0  0  0
  -20.5653  -26.2230   23.3569 H   0  0  0  0  0  0
  -21.6639  -26.7416   22.1183 H   0  0  0  0  0  0
  -19.6901  -25.6309   21.1166 H   0  0  0  0  0  0
  -19.6674  -27.3216   20.6737 H   0  0  0  0  0  0
  -17.4188  -26.6639   21.4000 H   0  0  0  0  0  0
  -18.0339  -26.0020   22.8974 H   0  0  0  0  0  0
  -19.7936  -30.7214   24.2276 H   0  0  0  0  0  0
  -17.5021  -31.6237   24.5148 H   0  0  0  0  0  0
  -15.5342  -30.2963   23.7639 H   0  0  0  0  0  0
  -15.8668  -28.0794   22.7062 H   0  0  0  0  0  0
  -24.5934  -30.6981   25.7738 H   0  0  0  0  0  0
  -24.8903  -32.2800   26.4866 H   0  0  0  0  0  0
  -25.8100  -30.8821   27.0175 H   0  0  0  0  0  0
  -26.2841  -29.6790   24.1109 H   0  0  0  0  0  0
  -27.4185  -29.7261   25.4419 H   0  0  0  0  0  0
  -27.8631  -30.4379   23.9080 H   0  0  0  0  0  0
  -27.2690  -33.3611   26.2006 H   0  0  0  0  0  0
  -28.3911  -32.6795   25.0322 H   0  0  0  0  0  0
  -28.0668  -31.8408   26.5413 H   0  0  0  0  0  0
  -28.2586  -38.0124   24.7536 H   0  0  0  0  0  0
  -28.1081  -36.2645   24.6274 H   0  0  0  0  0  0
  -27.2283  -37.1445   25.8867 H   0  0  0  0  0  0
  -20.9326  -29.8761   21.6975 H   0  0  0  0  0  0
  -26.0161  -38.2854   24.1416 H   0  0  0  0  0  0
  -32.0690  -16.6320   22.3828 H   0  0  0  0  0  0
  -31.8670  -20.8235   21.4701 H   0  0  0  0  0  0
  -28.8757  -17.1513   18.7592 H   0  0  0  0  0  0
  -28.6219  -18.8811   18.6383 H   0  0  0  0  0  0
  -27.7937  -17.9715   19.8989 H   0  0  0  0  0  0
  -27.6921  -23.6858   21.5342 H   0  0  0  0  0  0
  -27.3475  -24.1207   19.9008 H   0  0  0  0  0  0
  -30.2346  -23.4428   20.6480 H   0  0  0  0  0  0
  -29.4182  -23.2302   19.1258 H   0  0  0  0  0  0
  -29.5622  -25.6108   21.3859 H   0  0  0  0  0  0
  -27.9402  -25.8745   21.9126 H   0  0  0  0  0  0
  -27.9904  -21.3893   20.3767 H   0  0  0  0  0  0
  -29.1761  -21.4917   21.6457 H   0  0  0  0  0  0
  -28.3862  -16.7166   21.8217 H   0  0  0  0  0  0
  1 25  1  0  0  0
  1 30  2  0  0  0
  1 77  1  0  0  0
  2  3  1  0  0  0
  2 25  1  0  0  0
  2 86  1  0  0  0
  2 87  1  0  0  0
  3  4  1  0  0  0
  3 88  1  0  0  0
  3 89  1  0  0  0
  4  5  1  0  0  0
  4 90  1  0  0  0
  4 91  1  0  0  0
  5  6  1  0  0  0
  5 26  1  0  0  0
  5 92  1  0  0  0
  6 25  1  0  0  0
  6 93  1  0  0  0
  6 94  1  0  0  0
  7  8  2  0  0  0
  7 26  1  0  0  0
  7 29  1  0  0  0
  8  9  1  0  0  0
  8 22  1  0  0  0
  9 10  1  0  0  0
  9 27  2  0  0  0
 10 11  2  0  0  0
 10 15  1  0  0  0
 11 12  1  0  0  0
 11 95  1  0  0  0
 12 13  2  0  0  0
 12 96  1  0  0  0
 13 14  1  0  0  0
 13 31  1  0  0  0
 14 15  2  0  0  0
 14 97  1  0  0  0
 15 98  1  0  0  0
 16 17  2  0  0  0
 16 21  1  0  0  0
 16 31  1  0  0  0
 17 18  1  0  0  0
 17 99  1  0  0  0
 18 19  2  0  0  0
 18100  1  0  0  0
 19 20  1  0  0  0
 19 24  1  0  0  0
 20 21  2  0  0  0
 20101  1  0  0  0
 21 23  1  0  0  0
 22 28  1  0  0  0
 22 32  2  0  0  0
 26 27  1  0  0  0
 28102  1  0  0  0
 28103  1  0  0  0
 29104  1  0  0  0
 29105  1  0  0  0
 33 34  1  0  0  0
 33 66  1  0  0  0
 33 70  2  0  0  0
 34 36  1  0  0  0
 34 59  1  0  0  0
 34106  1  0  0  0
 35 44  2  0  0  0
 35 45  1  0  0  0
 35 68  1  0  0  0
 36 56  1  0  0  0
 36107  1  0  0  0
 37 39  1  0  0  0
 37 47  1  0  0  0
 37 66  1  0  0  0
 37108  1  0  0  0
 38 43  2  0  0  0
 38 46  1  0  0  0
 38 47  1  0  0  0
 39 64  1  0  0  0
 39 67  2  0  0  0
 40 52  1  0  0  0
 40 53  2  0  0  0
 40 58  1  0  0  0
 41109  1  0  0  0
 41110  1  0  0  0
 41111  1  0  0  0
 41 48  1  0  0  0
 42 43  1  0  0  0
 42 66  1  0  0  0
 42112  1  0  0  0
 42113  1  0  0  0
 43 44  1  0  0  0
 44114  1  0  0  0
 45 46  2  0  0  0
 45115  1  0  0  0
 46116  1  0  0  0
 47117  1  0  0  0
 47118  1  0  0  0
 48 56  1  0  0  0
 48 65  1  0  0  0
 48119  1  0  0  0
 49 50  1  0  0  0
 49 53  1  0  0  0
 49 64  1  0  0  0
 49120  1  0  0  0
 50 51  1  0  0  0
 50121  1  0  0  0
 50122  1  0  0  0
 51 52  1  0  0  0
 51123  1  0  0  0
 51124  1  0  0  0
 52125  1  0  0  0
 52126  1  0  0  0
 53 54  1  0  0  0
 54 55  2  0  0  0
 54127  1  0  0  0
 55 57  1  0  0  0
 55128  1  0  0  0
 56 69  2  0  0  0
 57 58  2  0  0  0
 57129  1  0  0  0
 58130  1  0  0  0
 59 60  1  0  0  0
 59 61  1  0  0  0
 59 62  1  0  0  0
 60131  1  0  0  0
 60132  1  0  0  0
 60133  1  0  0  0
 61134  1  0  0  0
 61135  1  0  0  0
 61136  1  0  0  0
 62137  1  0  0  0
 62138  1  0  0  0
 62139  1  0  0  0
 63 65  1  0  0  0
 63140  1  0  0  0
 63141  1  0  0  0
 63142  1  0  0  0
 64143  1  0  0  0
 65144  1  0  0  0
 68 81  1  0  0  0
 71 73  2  0  0  0
 71 76  1  0  0  0
 71145  1  0  0  0
 72 75  1  0  0  0
 72 76  2  0  0  0
 72146  1  0  0  0
 73 74  1  0  0  0
 73 77  1  0  0  0
 74 75  2  0  0  0
 74 78  1  0  0  0
 75 84  1  0  0  0
 76 85  1  0  0  0
 77 83  2  0  0  0
 78147  1  0  0  0
 78148  1  0  0  0
 78149  1  0  0  0
 79 80  1  0  0  0
 79 81  1  0  0  0
 79150  1  0  0  0
 79151  1  0  0  0
 80 82  1  0  0  0
 80152  1  0  0  0
 80153  1  0  0  0
 81154  1  0  0  0
 81155  1  0  0  0
 82 84  1  0  0  0
 82156  1  0  0  0
 82157  1  0  0  0
 83158  1  0  0  0
M  ISO  4   1 100  68 101  77 100  81 101
M  END
> <chiral flag>
0

> <version>
0

> <s_m_source_file>
/data/baiqing/PycharmProjects/Reinvent-master-3.2/result/LINK_invent/BTK/process_docking_weight1_custom_product_contain_oxygen_bond_distance_aromatic_linkinvent_7_9_3/rearranged_h_0118.sdf

> <i_m_source_file_index>
32

> <r_mmod_Potential_Energy-OPLS-2005>
171.830703735352

> <r_mmod_Stretch_Energy-OPLS-2005>
59.8070220947266

> <r_mmod_Bend_Energy-OPLS-2005>
126.511589050293

> <r_mmod_Torsional_Energy-OPLS-2005>
265.57177734375

> <r_mmod_Improper_Torsional_Energy-OPLS-2005>
4.91312265396118

> <r_mmod_Van_der_Waal_Energy-OPLS-2005>
154.61506652832

> <r_mmod_Electrostatic_Energy-OPLS-2005>
-273.053466796875

> <r_mmod_Solvation_Energy-OPLS-2005>
-187.482498168945

> <b_mmod_Minimization_Converged-OPLS-2005>
0

> <r_mmod_RMS_Derivative-OPLS-2005>
2.1964111328125

$$$$
33
                    3D
 Structure written by MMmdl.
152160  0  0  1  0            999 V2000
  -30.5055  -14.9682   20.4199 C   0  0  0  0  0  0
  -30.4524  -12.5998   19.4983 C   0  0  0  0  0  0
  -29.5259  -12.5528   18.2564 C   0  0  0  0  0  0
  -28.0559  -12.3284   18.6653 C   0  0  0  0  0  0
  -27.6363  -13.2314   19.8523 C   0  0  2  0  0  0
  -28.6849  -13.1962   20.9844 C   0  0  0  0  0  0
  -25.2504  -13.8160   20.5729 C   0  0  0  0  0  0
  -24.1775  -13.0414   20.9167 C   0  0  0  0  0  0
  -24.6374  -11.6889   20.8719 C   0  0  0  0  0  0
  -23.9053  -10.4278   21.0395 C   0  0  0  0  0  0
  -24.3602   -9.4202   21.9186 C   0  0  0  0  0  0
  -23.6283   -8.2237   22.0761 C   0  0  0  0  0  0
  -22.4270   -8.0276   21.3546 C   0  0  0  0  0  0
  -21.9904   -9.0241   20.4641 C   0  0  0  0  0  0
  -22.7227  -10.2121   20.3046 C   0  0  0  0  0  0
  -21.6855   -6.0727   22.5278 C   0  0  0  0  0  0
  -21.4014   -6.5632   23.8210 C   0  0  0  0  0  0
  -21.3663   -5.6788   24.9173 C   0  0  0  0  0  0
  -21.6045   -4.3049   24.7223 C   0  0  0  0  0  0
  -21.8821   -3.8140   23.4344 C   0  0  0  0  0  0
  -21.9197   -4.6956   22.3401 C   0  0  0  0  0  0
  -22.7807  -13.5208   21.1854 C   0  0  0  0  0  0
  -22.1666   -4.2141   21.0978 F   0  0  0  0  0  0
  -21.5631   -3.4531   25.7735 F   0  0  0  0  0  0
  -29.9539  -13.6750   20.4087 N   0  0  0  0  0  0
  -26.2918  -12.9355   20.3315 N   0  0  0  0  0  0
  -25.9310  -11.6494   20.5737 N   0  0  0  0  0  0
  -22.0460  -12.8186   22.0403 N   0  0  0  0  0  0
  -25.4289  -15.1873   20.4265 N   0  0  0  0  0  0
  -31.7017  -15.0515   20.1103 O   0  0  0  0  0  0
  -21.6636   -6.8873   21.4241 O   0  0  0  0  0  0
  -22.3494  -14.5538   20.6746 O   0  0  0  0  0  0
  -24.6443  -31.8445   23.1881 C   0  0  0  0  0  0
  -25.9212  -32.4704   23.8273 C   0  0  1  0  0  0
  -27.2183  -27.1283   20.1547 C   0  0  0  0  0  0
  -25.5954  -33.8507   24.2193 N   0  0  0  0  0  0
  -23.4488  -30.4637   21.5345 C   0  0  2  0  0  0
  -24.8997  -28.8909   20.1132 C   0  0  0  0  0  0
  -22.7576  -29.4543   22.4859 C   0  0  0  0  0  0
  -18.0305  -28.1395   22.8473 C   0  0  0  0  0  0
  -24.1489  -36.7254   23.2643 C   0  0  0  0  0  0
  -26.0061  -30.7165   21.3888 C   0  0  0  0  0  0
  -26.0783  -29.3255   20.7330 C   0  0  0  0  0  0
  -27.2395  -28.4610   20.7369 C   0  0  0  0  0  0
  -26.0159  -26.8072   19.4839 C   0  0  0  0  0  0
  -24.8819  -27.6454   19.4723 C   0  0  0  0  0  0
  -23.6764  -29.7933   20.1545 C   0  0  0  0  0  0
  -25.4123  -36.3038   24.0315 C   0  0  1  0  0  0
  -20.5918  -28.3724   23.1231 C   0  0  2  0  0  0
  -20.6789  -26.9429   22.5397 C   0  0  0  0  0  0
  -19.5764  -26.6383   21.5204 C   0  0  0  0  0  0
  -18.1942  -26.7938   22.1612 C   0  0  0  0  0  0
  -19.1561  -28.8876   23.2843 C   0  0  0  0  0  0
  -18.9478  -30.1472   23.8872 C   0  0  0  0  0  0
  -17.6474  -30.6594   24.0556 C   0  0  0  0  0  0
  -25.9074  -34.9413   23.5064 C   0  0  0  0  0  0
  -16.5364  -29.9088   23.6340 C   0  0  0  0  0  0
  -16.7289  -28.6505   23.0362 C   0  0  0  0  0  0
  -26.4532  -31.6571   25.0714 C   0  0  0  0  0  0
  -25.3703  -31.3715   26.1387 C   0  0  0  0  0  0
  -27.0438  -30.2989   24.6281 C   0  0  0  0  0  0
  -27.6050  -32.4348   25.7505 C   0  0  0  0  0  0
  -27.5574  -37.1788   24.8466 C   0  0  0  0  0  0
  -21.4264  -29.3050   22.3611 N   0  0  0  0  0  0
  -26.4285  -37.3753   23.9409 N   0  0  0  0  0  0
  -24.7198  -31.0288   22.0927 N   0  0  0  0  0  0
  -23.4216  -28.8084   23.3008 O   0  0  0  0  0  0
  -28.2650  -26.1301   20.2015 O   0  0  0  0  0  0
  -26.5660  -34.8908   22.4644 O   0  0  0  0  0  0
  -23.5557  -32.1327   23.7089 O   0  0  0  0  0  0
  -30.6507  -20.6305   19.4435 C   0  0  0  0  0  0
  -31.0489  -18.1822   19.5229 C   0  0  0  0  0  0
  -29.4875  -20.5644   20.2356 C   0  0  0  0  0  0
  -29.9247  -17.9179   20.3371 C   0  0  0  0  0  0
  -29.1774  -19.1772   20.7030 C   0  0  0  0  0  0
  -31.4049  -19.4845   19.1041 C   0  0  0  0  0  0
  -28.6934  -21.9470   20.4769 C   0  0  0  0  0  0
  -28.9031  -23.3221   20.1710 C   0  0  0  0  0  0
  -29.5641  -16.3535   20.6631 C   0  0  0  0  0  0
  -27.9985  -19.0675   21.6615 C   0  0  0  0  0  0
  -27.9149  -24.6209   20.4042 C   0  0  0  0  0  0
  -28.3964  -16.1862   21.1143 N   0  0  0  0  0  0
  -32.5017  -19.6370   18.3250 F   0  0  0  0  0  0
  -31.4809  -12.7750   19.1819 H   0  0  0  0  0  0
  -30.4654  -11.6345   20.0068 H   0  0  0  0  0  0
  -29.8483  -11.7700   17.5692 H   0  0  0  0  0  0
  -29.6095  -13.4934   17.7087 H   0  0  0  0  0  0
  -27.9452  -11.2804   18.9450 H   0  0  0  0  0  0
  -27.3949  -12.4909   17.8131 H   0  0  0  0  0  0
  -27.6112  -14.2431   19.4502 H   0  0  0  0  0  0
  -28.7882  -12.1827   21.3750 H   0  0  0  0  0  0
  -28.3793  -13.7937   21.8421 H   0  0  0  0  0  0
  -25.2748   -9.5685   22.4763 H   0  0  0  0  0  0
  -23.9991   -7.4632   22.7486 H   0  0  0  0  0  0
  -21.0842   -8.8752   19.8938 H   0  0  0  0  0  0
  -22.3688  -10.9659   19.6147 H   0  0  0  0  0  0
  -21.2005   -7.6142   23.9706 H   0  0  0  0  0  0
  -21.1490   -6.0520   25.9076 H   0  0  0  0  0  0
  -22.0602   -2.7603   23.2846 H   0  0  0  0  0  0
  -22.4067  -11.9816   22.4745 H   0  0  0  0  0  0
  -21.1085  -13.1213   22.2633 H   0  0  0  0  0  0
  -24.7040  -15.8620   20.6420 H   0  0  0  0  0  0
  -26.3587  -15.5951   20.3717 H   0  0  0  0  0  0
  -26.7276  -32.5322   23.0998 H   0  0  0  0  0  0
  -25.0077  -33.9617   25.0327 H   0  0  0  0  0  0
  -22.7509  -31.2893   21.3792 H   0  0  0  0  0  0
  -23.3766  -35.9570   23.3285 H   0  0  0  0  0  0
  -24.3572  -36.8915   22.2062 H   0  0  0  0  0  0
  -23.7228  -37.6432   23.6701 H   0  0  0  0  0  0
  -26.1586  -31.4690   20.6136 H   0  0  0  0  0  0
  -26.8774  -30.7711   22.0297 H   0  0  0  0  0  0
  -28.1370  -28.7889   21.2425 H   0  0  0  0  0  0
  -25.9174  -25.8718   18.9559 H   0  0  0  0  0  0
  -23.9863  -27.3123   18.9662 H   0  0  0  0  0  0
  -23.8124  -30.5673   19.3983 H   0  0  0  0  0  0
  -22.7914  -29.2346   19.8454 H   0  0  0  0  0  0
  -25.1310  -36.1865   25.0805 H   0  0  0  0  0  0
  -21.0002  -28.3311   24.1354 H   0  0  0  0  0  0
  -20.5688  -26.2327   23.3607 H   0  0  0  0  0  0
  -21.6654  -26.7437   22.1195 H   0  0  0  0  0  0
  -19.6926  -25.6290   21.1244 H   0  0  0  0  0  0
  -19.6706  -27.3176   20.6718 H   0  0  0  0  0  0
  -17.4218  -26.6690   21.4011 H   0  0  0  0  0  0
  -18.0334  -26.0080   22.9004 H   0  0  0  0  0  0
  -19.7952  -30.7289   24.2236 H   0  0  0  0  0  0
  -17.5033  -31.6273   24.5158 H   0  0  0  0  0  0
  -15.5368  -30.2984   23.7680 H   0  0  0  0  0  0
  -15.8683  -28.0813   22.7101 H   0  0  0  0  0  0
  -24.5927  -30.7021   25.7677 H   0  0  0  0  0  0
  -24.8822  -32.2867   26.4746 H   0  0  0  0  0  0
  -25.7983  -30.8933   27.0205 H   0  0  0  0  0  0
  -26.3076  -29.6681   24.1287 H   0  0  0  0  0  0
  -27.4084  -29.7311   25.4848 H   0  0  0  0  0  0
  -27.8952  -30.4265   23.9594 H   0  0  0  0  0  0
  -27.2652  -33.3691   26.1983 H   0  0  0  0  0  0
  -28.3912  -32.6841   25.0367 H   0  0  0  0  0  0
  -28.0658  -31.8535   26.5499 H   0  0  0  0  0  0
  -28.2573  -38.0104   24.7542 H   0  0  0  0  0  0
  -28.1094  -36.2633   24.6276 H   0  0  0  0  0  0
  -27.2285  -37.1406   25.8866 H   0  0  0  0  0  0
  -20.9473  -29.8781   21.6802 H   0  0  0  0  0  0
  -26.0153  -38.2816   24.1429 H   0  0  0  0  0  0
  -30.9780  -21.5857   19.0610 H   0  0  0  0  0  0
  -31.6678  -17.3690   19.1777 H   0  0  0  0  0  0
  -27.7414  -21.7887   20.9612 H   0  0  0  0  0  0
  -29.8285  -23.5798   19.6779 H   0  0  0  0  0  0
  -27.7858  -20.0100   22.1617 H   0  0  0  0  0  0
  -28.2123  -18.3664   22.4683 H   0  0  0  0  0  0
  -27.0962  -18.7504   21.1377 H   0  0  0  0  0  0
  -27.5408  -24.5331   21.4250 H   0  0  0  0  0  0
  -27.0599  -24.3735   19.7818 H   0  0  0  0  0  0
  -27.9357  -17.0825   21.2045 H   0  0  0  0  0  0
  1 25  1  0  0  0
  1 30  2  0  0  0
  1 79  1  0  0  0
  2  3  1  0  0  0
  2 25  1  0  0  0
  2 84  1  0  0  0
  2 85  1  0  0  0
  3  4  1  0  0  0
  3 86  1  0  0  0
  3 87  1  0  0  0
  4  5  1  0  0  0
  4 88  1  0  0  0
  4 89  1  0  0  0
  5  6  1  0  0  0
  5 26  1  0  0  0
  5 90  1  0  0  0
  6 25  1  0  0  0
  6 91  1  0  0  0
  6 92  1  0  0  0
  7  8  2  0  0  0
  7 26  1  0  0  0
  7 29  1  0  0  0
  8  9  1  0  0  0
  8 22  1  0  0  0
  9 10  1  0  0  0
  9 27  2  0  0  0
 10 11  2  0  0  0
 10 15  1  0  0  0
 11 12  1  0  0  0
 11 93  1  0  0  0
 12 13  2  0  0  0
 12 94  1  0  0  0
 13 14  1  0  0  0
 13 31  1  0  0  0
 14 15  2  0  0  0
 14 95  1  0  0  0
 15 96  1  0  0  0
 16 17  2  0  0  0
 16 21  1  0  0  0
 16 31  1  0  0  0
 17 18  1  0  0  0
 17 97  1  0  0  0
 18 19  2  0  0  0
 18 98  1  0  0  0
 19 20  1  0  0  0
 19 24  1  0  0  0
 20 21  2  0  0  0
 20 99  1  0  0  0
 21 23  1  0  0  0
 22 28  1  0  0  0
 22 32  2  0  0  0
 26 27  1  0  0  0
 28100  1  0  0  0
 28101  1  0  0  0
 29102  1  0  0  0
 29103  1  0  0  0
 33 34  1  0  0  0
 33 66  1  0  0  0
 33 70  2  0  0  0
 34 36  1  0  0  0
 34 59  1  0  0  0
 34104  1  0  0  0
 35 44  2  0  0  0
 35 45  1  0  0  0
 35 68  1  0  0  0
 36 56  1  0  0  0
 36105  1  0  0  0
 37 39  1  0  0  0
 37 47  1  0  0  0
 37 66  1  0  0  0
 37106  1  0  0  0
 38 43  2  0  0  0
 38 46  1  0  0  0
 38 47  1  0  0  0
 39 64  1  0  0  0
 39 67  2  0  0  0
 40 52  1  0  0  0
 40 53  2  0  0  0
 40 58  1  0  0  0
 41107  1  0  0  0
 41108  1  0  0  0
 41109  1  0  0  0
 41 48  1  0  0  0
 42 43  1  0  0  0
 42 66  1  0  0  0
 42110  1  0  0  0
 42111  1  0  0  0
 43 44  1  0  0  0
 44112  1  0  0  0
 45 46  2  0  0  0
 45113  1  0  0  0
 46114  1  0  0  0
 47115  1  0  0  0
 47116  1  0  0  0
 48 56  1  0  0  0
 48 65  1  0  0  0
 48117  1  0  0  0
 49 50  1  0  0  0
 49 53  1  0  0  0
 49 64  1  0  0  0
 49118  1  0  0  0
 50 51  1  0  0  0
 50119  1  0  0  0
 50120  1  0  0  0
 51 52  1  0  0  0
 51121  1  0  0  0
 51122  1  0  0  0
 52123  1  0  0  0
 52124  1  0  0  0
 53 54  1  0  0  0
 54 55  2  0  0  0
 54125  1  0  0  0
 55 57  1  0  0  0
 55126  1  0  0  0
 56 69  2  0  0  0
 57 58  2  0  0  0
 57127  1  0  0  0
 58128  1  0  0  0
 59 60  1  0  0  0
 59 61  1  0  0  0
 59 62  1  0  0  0
 60129  1  0  0  0
 60130  1  0  0  0
 60131  1  0  0  0
 61132  1  0  0  0
 61133  1  0  0  0
 61134  1  0  0  0
 62135  1  0  0  0
 62136  1  0  0  0
 62137  1  0  0  0
 63 65  1  0  0  0
 63138  1  0  0  0
 63139  1  0  0  0
 63140  1  0  0  0
 64141  1  0  0  0
 65142  1  0  0  0
 68 81  1  0  0  0
 71 73  2  0  0  0
 71 76  1  0  0  0
 71143  1  0  0  0
 72 74  1  0  0  0
 72 76  2  0  0  0
 72144  1  0  0  0
 73 75  1  0  0  0
 73 77  1  0  0  0
 74 75  2  0  0  0
 74 79  1  0  0  0
 75 80  1  0  0  0
 76 83  1  0  0  0
 77 78  2  0  0  0
 77145  1  0  0  0
 78 81  1  0  0  0
 78146  1  0  0  0
 79 82  2  0  0  0
 80147  1  0  0  0
 80148  1  0  0  0
 80149  1  0  0  0
 81150  1  0  0  0
 81151  1  0  0  0
 82152  1  0  0  0
M  ISO  4   1 100  68 101  79 100  81 101
M  END
> <chiral flag>
0

> <version>
0

> <s_m_source_file>
/data/baiqing/PycharmProjects/Reinvent-master-3.2/result/LINK_invent/BTK/process_docking_weight1_custom_product_contain_oxygen_bond_distance_aromatic_linkinvent_7_9_3/rearranged_h_0118.sdf

> <i_m_source_file_index>
33

> <r_mmod_Potential_Energy-OPLS-2005>
651.248107910156

> <r_mmod_Stretch_Energy-OPLS-2005>
300.759429931641

> <r_mmod_Bend_Energy-OPLS-2005>
246.341888427734

> <r_mmod_Torsional_Energy-OPLS-2005>
200.735015869141

> <r_mmod_Improper_Torsional_Energy-OPLS-2005>
4.66421365737915

> <r_mmod_Van_der_Waal_Energy-OPLS-2005>
151.311401367188

> <r_mmod_Electrostatic_Energy-OPLS-2005>
-260.87646484375

> <r_mmod_Solvation_Energy-OPLS-2005>
-188.319458007812

> <b_mmod_Minimization_Converged-OPLS-2005>
0

> <r_mmod_RMS_Derivative-OPLS-2005>
1.07457387447357

$$$$
34
                    3D
 Structure written by MMmdl.
154162  0  0  1  0            999 V2000
  -30.6257  -14.7209   20.4382 C   0  0  0  0  0  0
  -30.4280  -12.4184   19.4833 C   0  0  0  0  0  0
  -29.4868  -12.3833   18.2549 C   0  0  0  0  0  0
  -28.0161  -12.2740   18.6802 C   0  0  0  0  0  0
  -27.6383  -13.2233   19.8447 C   0  0  2  0  0  0
  -28.6787  -13.1813   20.9841 C   0  0  0  0  0  0
  -25.2556  -13.8183   20.5714 C   0  0  0  0  0  0
  -24.1817  -13.0438   20.9214 C   0  0  0  0  0  0
  -24.6394  -11.6923   20.8816 C   0  0  0  0  0  0
  -23.9064  -10.4312   21.0462 C   0  0  0  0  0  0
  -24.3625   -9.4238   21.9230 C   0  0  0  0  0  0
  -23.6301   -8.2280   22.0794 C   0  0  0  0  0  0
  -22.4305   -8.0309   21.3546 C   0  0  0  0  0  0
  -21.9919   -9.0290   20.4662 C   0  0  0  0  0  0
  -22.7246  -10.2174   20.3091 C   0  0  0  0  0  0
  -21.6866   -6.0755   22.5272 C   0  0  0  0  0  0
  -21.4010   -6.5649   23.8207 C   0  0  0  0  0  0
  -21.3681   -5.6814   24.9169 C   0  0  0  0  0  0
  -21.6031   -4.3072   24.7226 C   0  0  0  0  0  0
  -21.8803   -3.8161   23.4343 C   0  0  0  0  0  0
  -21.9205   -4.6976   22.3407 C   0  0  0  0  0  0
  -22.7870  -13.5282   21.1797 C   0  0  0  0  0  0
  -22.1691   -4.2158   21.0988 F   0  0  0  0  0  0
  -21.5609   -3.4567   25.7748 F   0  0  0  0  0  0
  -29.9908  -13.5006   20.4013 N   0  0  0  0  0  0
  -26.2945  -12.9364   20.3327 N   0  0  0  0  0  0
  -25.9333  -11.6518   20.5900 N   0  0  0  0  0  0
  -22.0478  -12.8289   22.0324 N   0  0  0  0  0  0
  -25.4265  -15.1882   20.4117 N   0  0  0  0  0  0
  -31.8099  -14.8088   20.0961 O   0  0  0  0  0  0
  -21.6648   -6.8916   21.4256 O   0  0  0  0  0  0
  -22.3603  -14.5622   20.6669 O   0  0  0  0  0  0
  -24.6324  -31.8538   23.1976 C   0  0  0  0  0  0
  -25.9128  -32.4746   23.8350 C   0  0  1  0  0  0
  -27.2302  -27.2812   20.1193 C   0  0  0  0  0  0
  -25.5946  -33.8546   24.2294 N   0  0  0  0  0  0
  -23.4318  -30.4799   21.5390 C   0  0  2  0  0  0
  -24.8834  -28.9345   20.0991 C   0  0  0  0  0  0
  -22.7530  -29.4579   22.4866 C   0  0  0  0  0  0
  -18.0289  -28.1340   22.8511 C   0  0  0  0  0  0
  -24.1496  -36.7290   23.2646 C   0  0  0  0  0  0
  -25.9794  -30.7679   21.3812 C   0  0  0  0  0  0
  -26.0501  -29.3955   20.7228 C   0  0  0  0  0  0
  -27.2244  -28.5805   20.7253 C   0  0  0  0  0  0
  -26.0498  -26.8970   19.4418 C   0  0  0  0  0  0
  -24.8903  -27.6960   19.4409 C   0  0  0  0  0  0
  -23.6548  -29.8218   20.1517 C   0  0  0  0  0  0
  -25.4120  -36.3068   24.0353 C   0  0  1  0  0  0
  -20.5891  -28.3683   23.1176 C   0  0  2  0  0  0
  -20.6842  -26.9432   22.5212 C   0  0  0  0  0  0
  -19.5674  -26.6228   21.5231 C   0  0  0  0  0  0
  -18.1934  -26.7802   22.1820 C   0  0  0  0  0  0
  -19.1533  -28.8837   23.2830 C   0  0  0  0  0  0
  -18.9444  -30.1454   23.8823 C   0  0  0  0  0  0
  -17.6449  -30.6592   24.0470 C   0  0  0  0  0  0
  -25.9058  -34.9448   23.5129 C   0  0  0  0  0  0
  -16.5343  -29.9089   23.6270 C   0  0  0  0  0  0
  -16.7280  -28.6476   23.0369 C   0  0  0  0  0  0
  -26.4526  -31.6555   25.0730 C   0  0  0  0  0  0
  -25.3757  -31.3683   26.1470 C   0  0  0  0  0  0
  -27.0381  -30.2986   24.6165 C   0  0  0  0  0  0
  -27.6103  -32.4287   25.7477 C   0  0  0  0  0  0
  -27.5584  -37.1801   24.8477 C   0  0  0  0  0  0
  -21.4219  -29.3111   22.3674 N   0  0  0  0  0  0
  -26.4283  -37.3772   23.9415 N   0  0  0  0  0  0
  -24.7016  -31.0517   22.0949 N   0  0  0  0  0  0
  -23.4231  -28.8017   23.2882 O   0  0  0  0  0  0
  -28.3407  -26.4112   20.2088 O   0  0  0  0  0  0
  -26.5617  -34.8919   22.4685 O   0  0  0  0  0  0
  -23.5457  -32.1345   23.7249 O   0  0  0  0  0  0
  -29.5625  -19.7202   18.6352 C   0  0  0  0  0  0
  -29.7091  -18.5252   17.9228 C   0  0  0  0  0  0
  -29.6815  -18.4552   20.6946 C   0  0  0  0  0  0
  -29.5362  -19.7537   20.0408 C   0  0  0  0  0  0
  -29.8450  -17.2766   18.5580 C   0  0  0  0  0  0
  -29.8497  -17.1836   19.9850 C   0  0  0  0  0  0
  -29.3652  -21.1473   20.6961 C   0  0  0  0  0  0
  -29.1431  -22.3763   20.0858 C   0  0  0  0  0  0
  -29.9023  -16.0982   17.5963 C   0  0  0  0  0  0
  -29.0628  -23.8439   20.6786 C   0  0  0  0  0  0
  -28.2245  -24.9570   19.8728 C   0  0  0  0  0  0
  -29.8609  -15.8558   20.6614 N   0  0  0  0  0  0
  -31.4584  -12.5434   19.1451 H   0  0  0  0  0  0
  -30.3968  -11.4621   20.0099 H   0  0  0  0  0  0
  -29.7399  -11.5198   17.6360 H   0  0  0  0  0  0
  -29.6212  -13.2413   17.6069 H   0  0  0  0  0  0
  -27.8650  -11.2417   18.9972 H   0  0  0  0  0  0
  -27.3523  -12.4201   17.8280 H   0  0  0  0  0  0
  -27.6334  -14.2325   19.4305 H   0  0  0  0  0  0
  -28.6950  -12.2014   21.4635 H   0  0  0  0  0  0
  -28.4079  -13.8972   21.7616 H   0  0  0  0  0  0
  -25.2770   -9.5722   22.4792 H   0  0  0  0  0  0
  -23.9980   -7.4710   22.7559 H   0  0  0  0  0  0
  -21.0820   -8.8818   19.9018 H   0  0  0  0  0  0
  -22.3682  -10.9720   19.6208 H   0  0  0  0  0  0
  -21.1976   -7.6158   23.9691 H   0  0  0  0  0  0
  -21.1537   -6.0559   25.9069 H   0  0  0  0  0  0
  -22.0549   -2.7622   23.2828 H   0  0  0  0  0  0
  -22.4096  -11.9958   22.4712 H   0  0  0  0  0  0
  -21.1131  -13.1393   22.2609 H   0  0  0  0  0  0
  -24.6594  -15.8386   20.5421 H   0  0  0  0  0  0
  -26.2708  -15.6341   20.0726 H   0  0  0  0  0  0
  -26.7184  -32.5406   23.1097 H   0  0  0  0  0  0
  -25.0181  -33.9705   25.0504 H   0  0  0  0  0  0
  -22.7270  -31.3020   21.3947 H   0  0  0  0  0  0
  -23.3754  -35.9618   23.3301 H   0  0  0  0  0  0
  -24.3597  -36.8886   22.2049 H   0  0  0  0  0  0
  -23.7243  -37.6505   23.6648 H   0  0  0  0  0  0
  -26.1284  -31.5259   20.6117 H   0  0  0  0  0  0
  -26.8556  -30.8140   22.0156 H   0  0  0  0  0  0
  -28.1204  -28.9273   21.2237 H   0  0  0  0  0  0
  -25.9928  -25.9707   18.8899 H   0  0  0  0  0  0
  -24.0098  -27.3557   18.9121 H   0  0  0  0  0  0
  -23.7823  -30.6021   19.4021 H   0  0  0  0  0  0
  -22.7722  -29.2609   19.8382 H   0  0  0  0  0  0
  -25.1271  -36.1950   25.0834 H   0  0  0  0  0  0
  -20.9965  -28.3238   24.1307 H   0  0  0  0  0  0
  -20.6023  -26.2291   23.3411 H   0  0  0  0  0  0
  -21.6612  -26.7590   22.0765 H   0  0  0  0  0  0
  -19.6773  -25.6033   21.1501 H   0  0  0  0  0  0
  -19.6412  -27.2816   20.6574 H   0  0  0  0  0  0
  -17.4076  -26.6290   21.4418 H   0  0  0  0  0  0
  -18.0584  -26.0080   22.9405 H   0  0  0  0  0  0
  -19.7943  -30.7256   24.2179 H   0  0  0  0  0  0
  -17.5013  -31.6284   24.5040 H   0  0  0  0  0  0
  -15.5341  -30.2994   23.7579 H   0  0  0  0  0  0
  -15.8681  -28.0769   22.7132 H   0  0  0  0  0  0
  -24.5947  -30.7018   25.7787 H   0  0  0  0  0  0
  -24.8957  -32.2838   26.4906 H   0  0  0  0  0  0
  -25.8101  -30.8848   27.0222 H   0  0  0  0  0  0
  -26.2935  -29.6724   24.1239 H   0  0  0  0  0  0
  -27.4161  -29.7255   25.4628 H   0  0  0  0  0  0
  -27.8770  -30.4312   23.9346 H   0  0  0  0  0  0
  -27.2746  -33.3583   26.2092 H   0  0  0  0  0  0
  -28.3898  -32.6840   25.0283 H   0  0  0  0  0  0
  -28.0823  -31.8397   26.5353 H   0  0  0  0  0  0
  -28.2608  -38.0091   24.7500 H   0  0  0  0  0  0
  -28.1075  -36.2618   24.6319 H   0  0  0  0  0  0
  -27.2320  -37.1479   25.8889 H   0  0  0  0  0  0
  -20.9428  -29.9045   21.7048 H   0  0  0  0  0  0
  -26.0184  -38.2848   24.1389 H   0  0  0  0  0  0
  -29.4691  -20.6226   18.0571 H   0  0  0  0  0  0
  -29.6904  -18.5752   16.8419 H   0  0  0  0  0  0
  -29.6612  -18.4340   21.7754 H   0  0  0  0  0  0
  -29.4636  -21.1527   21.7716 H   0  0  0  0  0  0
  -29.0404  -22.3935   19.0150 H   0  0  0  0  0  0
  -28.9096  -15.8735   17.2013 H   0  0  0  0  0  0
  -30.3157  -15.1897   17.9974 H   0  0  0  0  0  0
  -30.5417  -16.3521   16.7501 H   0  0  0  0  0  0
  -30.0942  -24.1921   20.7387 H   0  0  0  0  0  0
  -28.7050  -23.7974   21.7067 H   0  0  0  0  0  0
  -27.1896  -24.6315   19.9450 H   0  0  0  0  0  0
  -28.4863  -24.8778   18.8167 H   0  0  0  0  0  0
  -29.0219  -15.6595   21.1851 H   0  0  0  0  0  0
  1 25  1  0  0  0
  1 30  2  0  0  0
  1 82  1  0  0  0
  2  3  1  0  0  0
  2 25  1  0  0  0
  2 83  1  0  0  0
  2 84  1  0  0  0
  3  4  1  0  0  0
  3 85  1  0  0  0
  3 86  1  0  0  0
  4  5  1  0  0  0
  4 87  1  0  0  0
  4 88  1  0  0  0
  5  6  1  0  0  0
  5 26  1  0  0  0
  5 89  1  0  0  0
  6 25  1  0  0  0
  6 90  1  0  0  0
  6 91  1  0  0  0
  7  8  2  0  0  0
  7 26  1  0  0  0
  7 29  1  0  0  0
  8  9  1  0  0  0
  8 22  1  0  0  0
  9 10  1  0  0  0
  9 27  2  0  0  0
 10 11  2  0  0  0
 10 15  1  0  0  0
 11 12  1  0  0  0
 11 92  1  0  0  0
 12 13  2  0  0  0
 12 93  1  0  0  0
 13 14  1  0  0  0
 13 31  1  0  0  0
 14 15  2  0  0  0
 14 94  1  0  0  0
 15 95  1  0  0  0
 16 17  2  0  0  0
 16 21  1  0  0  0
 16 31  1  0  0  0
 17 18  1  0  0  0
 17 96  1  0  0  0
 18 19  2  0  0  0
 18 97  1  0  0  0
 19 20  1  0  0  0
 19 24  1  0  0  0
 20 21  2  0  0  0
 20 98  1  0  0  0
 21 23  1  0  0  0
 22 28  1  0  0  0
 22 32  2  0  0  0
 26 27  1  0  0  0
 28 99  1  0  0  0
 28100  1  0  0  0
 29101  1  0  0  0
 29102  1  0  0  0
 33 34  1  0  0  0
 33 66  1  0  0  0
 33 70  2  0  0  0
 34 36  1  0  0  0
 34 59  1  0  0  0
 34103  1  0  0  0
 35 44  2  0  0  0
 35 45  1  0  0  0
 35 68  1  0  0  0
 36 56  1  0  0  0
 36104  1  0  0  0
 37 39  1  0  0  0
 37 47  1  0  0  0
 37 66  1  0  0  0
 37105  1  0  0  0
 38 43  2  0  0  0
 38 46  1  0  0  0
 38 47  1  0  0  0
 39 64  1  0  0  0
 39 67  2  0  0  0
 40 52  1  0  0  0
 40 53  2  0  0  0
 40 58  1  0  0  0
 41106  1  0  0  0
 41107  1  0  0  0
 41108  1  0  0  0
 41 48  1  0  0  0
 42 43  1  0  0  0
 42 66  1  0  0  0
 42109  1  0  0  0
 42110  1  0  0  0
 43 44  1  0  0  0
 44111  1  0  0  0
 45 46  2  0  0  0
 45112  1  0  0  0
 46113  1  0  0  0
 47114  1  0  0  0
 47115  1  0  0  0
 48 56  1  0  0  0
 48 65  1  0  0  0
 48116  1  0  0  0
 49 50  1  0  0  0
 49 53  1  0  0  0
 49 64  1  0  0  0
 49117  1  0  0  0
 50 51  1  0  0  0
 50118  1  0  0  0
 50119  1  0  0  0
 51 52  1  0  0  0
 51120  1  0  0  0
 51121  1  0  0  0
 52122  1  0  0  0
 52123  1  0  0  0
 53 54  1  0  0  0
 54 55  2  0  0  0
 54124  1  0  0  0
 55 57  1  0  0  0
 55125  1  0  0  0
 56 69  2  0  0  0
 57 58  2  0  0  0
 57126  1  0  0  0
 58127  1  0  0  0
 59 60  1  0  0  0
 59 61  1  0  0  0
 59 62  1  0  0  0
 60128  1  0  0  0
 60129  1  0  0  0
 60130  1  0  0  0
 61131  1  0  0  0
 61132  1  0  0  0
 61133  1  0  0  0
 62134  1  0  0  0
 62135  1  0  0  0
 62136  1  0  0  0
 63 65  1  0  0  0
 63137  1  0  0  0
 63138  1  0  0  0
 63139  1  0  0  0
 64140  1  0  0  0
 65141  1  0  0  0
 68 81  1  0  0  0
 71 72  2  0  0  0
 71 74  1  0  0  0
 71142  1  0  0  0
 72 75  1  0  0  0
 72143  1  0  0  0
 73 74  2  0  0  0
 73 76  1  0  0  0
 73144  1  0  0  0
 74 77  1  0  0  0
 75 76  2  0  0  0
 75 79  1  0  0  0
 76 82  1  0  0  0
 77 78  2  0  0  0
 77145  1  0  0  0
 78 80  1  0  0  0
 78146  1  0  0  0
 79147  1  0  0  0
 79148  1  0  0  0
 79149  1  0  0  0
 80 81  1  0  0  0
 80150  1  0  0  0
 80151  1  0  0  0
 81152  1  0  0  0
 81153  1  0  0  0
 82154  1  0  0  0
M  ISO  4   1 100  68 101  81 101  82 100
M  END
> <chiral flag>
0

> <version>
0

> <s_m_source_file>
/data/baiqing/PycharmProjects/Reinvent-master-3.2/result/LINK_invent/BTK/process_docking_weight1_custom_product_contain_oxygen_bond_distance_aromatic_linkinvent_7_9_3/rearranged_h_0118.sdf

> <i_m_source_file_index>
34

> <r_mmod_Potential_Energy-OPLS-2005>
181.869201660156

> <r_mmod_Stretch_Energy-OPLS-2005>
118.174728393555

> <r_mmod_Bend_Energy-OPLS-2005>
156.911224365234

> <r_mmod_Torsional_Energy-OPLS-2005>
246.07502746582

> <r_mmod_Improper_Torsional_Energy-OPLS-2005>
6.28940200805664

> <r_mmod_Van_der_Waal_Energy-OPLS-2005>
151.774963378906

> <r_mmod_Electrostatic_Energy-OPLS-2005>
-370.474914550781

> <r_mmod_Solvation_Energy-OPLS-2005>
-207.688140869141

> <b_mmod_Minimization_Converged-OPLS-2005>
0

> <r_mmod_RMS_Derivative-OPLS-2005>
5.55993223190308

$$$$
35
                    3D
 Structure written by MMmdl.
159167  0  0  1  0            999 V2000
  -30.6957  -14.5192   20.5939 C   0  0  0  0  0  0
  -30.4157  -12.3468   19.4277 C   0  0  0  0  0  0
  -29.4810  -12.4893   18.2108 C   0  0  0  0  0  0
  -28.0065  -12.3507   18.6334 C   0  0  0  0  0  0
  -27.6516  -13.2091   19.8744 C   0  0  2  0  0  0
  -28.6904  -13.0070   20.9962 C   0  0  0  0  0  0
  -25.2522  -13.8169   20.5671 C   0  0  0  0  0  0
  -24.1779  -13.0461   20.9195 C   0  0  0  0  0  0
  -24.6336  -11.6931   20.8769 C   0  0  0  0  0  0
  -23.9022  -10.4310   21.0418 C   0  0  0  0  0  0
  -24.3589   -9.4216   21.9192 C   0  0  0  0  0  0
  -23.6269   -8.2251   22.0756 C   0  0  0  0  0  0
  -22.4257   -8.0277   21.3545 C   0  0  0  0  0  0
  -21.9898   -9.0251   20.4646 C   0  0  0  0  0  0
  -22.7209  -10.2132   20.3053 C   0  0  0  0  0  0
  -21.6849   -6.0725   22.5284 C   0  0  0  0  0  0
  -21.4020   -6.5635   23.8215 C   0  0  0  0  0  0
  -21.3661   -5.6784   24.9191 C   0  0  0  0  0  0
  -21.6049   -4.3047   24.7235 C   0  0  0  0  0  0
  -21.8818   -3.8141   23.4355 C   0  0  0  0  0  0
  -21.9192   -4.6962   22.3414 C   0  0  0  0  0  0
  -22.7809  -13.5261   21.1891 C   0  0  0  0  0  0
  -22.1655   -4.2143   21.0985 F   0  0  0  0  0  0
  -21.5636   -3.4535   25.7746 F   0  0  0  0  0  0
  -30.0152  -13.3401   20.4438 N   0  0  0  0  0  0
  -26.2956  -12.9353   20.3381 N   0  0  0  0  0  0
  -25.9263  -11.6514   20.5811 N   0  0  0  0  0  0
  -22.0470  -12.8227   22.0439 N   0  0  0  0  0  0
  -25.4290  -15.1868   20.4006 N   0  0  0  0  0  0
  -31.7441  -14.7592   19.9831 O   0  0  0  0  0  0
  -21.6634   -6.8866   21.4230 O   0  0  0  0  0  0
  -22.3511  -14.5592   20.6782 O   0  0  0  0  0  0
  -24.6151  -31.8639   23.2102 C   0  0  0  0  0  0
  -25.9026  -32.4784   23.8428 C   0  0  1  0  0  0
  -27.2129  -27.3838   20.1070 C   0  0  0  0  0  0
  -25.5846  -33.8597   24.2321 N   0  0  0  0  0  0
  -23.4039  -30.4846   21.5579 C   0  0  2  0  0  0
  -24.8457  -28.9455   20.1204 C   0  0  0  0  0  0
  -22.7431  -29.4558   22.5071 C   0  0  0  0  0  0
  -18.0273  -28.1243   22.8522 C   0  0  0  0  0  0
  -24.1478  -36.7377   23.2632 C   0  0  0  0  0  0
  -25.9336  -30.8198   21.3620 C   0  0  0  0  0  0
  -26.0109  -29.4464   20.7150 C   0  0  0  0  0  0
  -27.2039  -28.6766   20.6958 C   0  0  0  0  0  0
  -26.0302  -26.9081   19.5083 C   0  0  0  0  0  0
  -24.8527  -27.6778   19.5113 C   0  0  0  0  0  0
  -23.6105  -29.8206   20.1715 C   0  0  0  0  0  0
  -25.4075  -36.3095   24.0314 C   0  0  1  0  0  0
  -20.5852  -28.3510   23.1369 C   0  0  2  0  0  0
  -20.6723  -26.9265   22.5419 C   0  0  0  0  0  0
  -19.5710  -26.6289   21.5191 C   0  0  0  0  0  0
  -18.1893  -26.7798   22.1616 C   0  0  0  0  0  0
  -19.1521  -28.8702   23.2919 C   0  0  0  0  0  0
  -18.9456  -30.1332   23.8883 C   0  0  0  0  0  0
  -17.6455  -30.6481   24.0508 C   0  0  0  0  0  0
  -25.9003  -34.9441   23.5122 C   0  0  0  0  0  0
  -16.5337  -29.8972   23.6287 C   0  0  0  0  0  0
  -16.7264  -28.6371   23.0353 C   0  0  0  0  0  0
  -26.4453  -31.6555   25.0747 C   0  0  0  0  0  0
  -25.3745  -31.3582   26.1519 C   0  0  0  0  0  0
  -27.0270  -30.3002   24.6056 C   0  0  0  0  0  0
  -27.6033  -32.4269   25.7529 C   0  0  0  0  0  0
  -27.5574  -37.1805   24.8429 C   0  0  0  0  0  0
  -21.4158  -29.2929   22.3838 N   0  0  0  0  0  0
  -26.4255  -37.3784   23.9405 N   0  0  0  0  0  0
  -24.6709  -31.0689   22.1044 N   0  0  0  0  0  0
  -23.4228  -28.8072   23.3080 O   0  0  0  0  0  0
  -28.3564  -26.6052   20.0905 O   0  0  0  0  0  0
  -26.5619  -34.8902   22.4723 O   0  0  0  0  0  0
  -23.5341  -32.1419   23.7456 O   0  0  0  0  0  0
  -29.6345  -17.8587   20.7170 C   0  0  0  0  0  0
  -27.5639  -18.9111   21.4449 C   0  0  0  0  0  0
  -28.0430  -16.6049   22.0608 C   0  0  0  0  0  0
  -28.7812  -19.0100   20.7367 C   0  0  0  0  0  0
  -29.2888  -16.6456   21.3945 C   0  0  0  0  0  0
  -27.1896  -17.7330   22.1179 C   0  0  0  0  0  0
  -29.1858  -20.3275   20.1347 C   0  0  0  0  0  0
  -28.6678  -21.5678   20.3768 C   0  0  0  0  0  0
  -30.2276  -15.4937   21.6873 C   0  0  0  0  0  0
  -25.7190  -16.6934   23.7152 C   0  0  0  0  0  0
  -29.1738  -22.8737   19.7269 C   0  0  0  0  0  0
  -28.1831  -24.0847   19.5314 C   0  0  0  0  0  0
  -28.2571  -25.2402   20.5893 C   0  0  0  0  0  0
  -30.6154  -15.3167   22.8816 N   0  0  0  0  0  0
  -26.0173  -17.7755   22.8409 O   0  0  0  0  0  0
  -31.4549  -12.4596   19.1166 H   0  0  0  0  0  0
  -30.3462  -11.3408   19.8451 H   0  0  0  0  0  0
  -29.7145  -11.7254   17.4674 H   0  0  0  0  0  0
  -29.6415  -13.4531   17.7281 H   0  0  0  0  0  0
  -27.8283  -11.2972   18.8558 H   0  0  0  0  0  0
  -27.3454  -12.5956   17.8007 H   0  0  0  0  0  0
  -27.6949  -14.2536   19.5656 H   0  0  0  0  0  0
  -28.6845  -11.9727   21.3437 H   0  0  0  0  0  0
  -28.4199  -13.5961   21.8720 H   0  0  0  0  0  0
  -25.2728   -9.5714   22.4780 H   0  0  0  0  0  0
  -23.9991   -7.4644   22.7482 H   0  0  0  0  0  0
  -21.0833   -8.8740   19.8949 H   0  0  0  0  0  0
  -22.3651  -10.9658   19.6168 H   0  0  0  0  0  0
  -21.2004   -7.6146   23.9723 H   0  0  0  0  0  0
  -21.1491   -6.0519   25.9088 H   0  0  0  0  0  0
  -22.0598   -2.7599   23.2858 H   0  0  0  0  0  0
  -22.4057  -11.9804   22.4694 H   0  0  0  0  0  0
  -21.1111  -13.1263   22.2756 H   0  0  0  0  0  0
  -24.6828  -15.8573   20.5442 H   0  0  0  0  0  0
  -26.2936  -15.6160   20.0976 H   0  0  0  0  0  0
  -26.7082  -32.5459   23.1192 H   0  0  0  0  0  0
  -24.9815  -33.9756   25.0338 H   0  0  0  0  0  0
  -22.6853  -31.2943   21.4232 H   0  0  0  0  0  0
  -23.3689  -35.9763   23.3243 H   0  0  0  0  0  0
  -24.3582  -36.9100   22.2069 H   0  0  0  0  0  0
  -23.7310  -37.6581   23.6728 H   0  0  0  0  0  0
  -26.0271  -31.5739   20.5795 H   0  0  0  0  0  0
  -26.8274  -30.8923   21.9681 H   0  0  0  0  0  0
  -28.1051  -29.0525   21.1587 H   0  0  0  0  0  0
  -26.0187  -25.9401   19.0306 H   0  0  0  0  0  0
  -23.9581  -27.2841   19.0482 H   0  0  0  0  0  0
  -23.7230  -30.5996   19.4176 H   0  0  0  0  0  0
  -22.7300  -29.2488   19.8754 H   0  0  0  0  0  0
  -25.1245  -36.1947   25.0804 H   0  0  0  0  0  0
  -20.9924  -28.2997   24.1489 H   0  0  0  0  0  0
  -20.5557  -26.2095   23.3576 H   0  0  0  0  0  0
  -21.6595  -26.7234   22.1255 H   0  0  0  0  0  0
  -19.6846  -25.6217   21.1162 H   0  0  0  0  0  0
  -19.6630  -27.3131   20.6757 H   0  0  0  0  0  0
  -17.4172  -26.6574   21.4012 H   0  0  0  0  0  0
  -18.0279  -25.9888   22.8956 H   0  0  0  0  0  0
  -19.7935  -30.7137   24.2248 H   0  0  0  0  0  0
  -17.5003  -31.6186   24.5069 H   0  0  0  0  0  0
  -15.5317  -30.2848   23.7596 H   0  0  0  0  0  0
  -15.8673  -28.0658   22.7081 H   0  0  0  0  0  0
  -24.5981  -30.6840   25.7886 H   0  0  0  0  0  0
  -24.8848  -32.2679   26.4998 H   0  0  0  0  0  0
  -25.8169  -30.8785   27.0267 H   0  0  0  0  0  0
  -26.2796  -29.6758   24.1130 H   0  0  0  0  0  0
  -27.4103  -29.7202   25.4463 H   0  0  0  0  0  0
  -27.8602  -30.4347   23.9154 H   0  0  0  0  0  0
  -27.2691  -33.3602   26.2070 H   0  0  0  0  0  0
  -28.3893  -32.6747   25.0391 H   0  0  0  0  0  0
  -28.0625  -31.8394   26.5487 H   0  0  0  0  0  0
  -28.2476  -38.0209   24.7562 H   0  0  0  0  0  0
  -28.1191  -36.2728   24.6134 H   0  0  0  0  0  0
  -27.2309  -37.1335   25.8836 H   0  0  0  0  0  0
  -20.9279  -29.8824   21.7226 H   0  0  0  0  0  0
  -26.0116  -38.2828   24.1489 H   0  0  0  0  0  0
  -30.6052  -17.9339   20.2461 H   0  0  0  0  0  0
  -26.9054  -19.7644   21.5168 H   0  0  0  0  0  0
  -27.7908  -15.7029   22.6014 H   0  0  0  0  0  0
  -29.9920  -20.2722   19.4146 H   0  0  0  0  0  0
  -27.8692  -21.6904   21.0947 H   0  0  0  0  0  0
  -24.9153  -16.9880   24.3893 H   0  0  0  0  0  0
  -26.5687  -16.4090   24.3393 H   0  0  0  0  0  0
  -25.3810  -15.8193   23.1558 H   0  0  0  0  0  0
  -29.5593  -22.6001   18.7422 H   0  0  0  0  0  0
  -30.0461  -23.2065   20.2888 H   0  0  0  0  0  0
  -27.1536  -23.7405   19.4113 H   0  0  0  0  0  0
  -28.4330  -24.5369   18.5704 H   0  0  0  0  0  0
  -29.1617  -25.0990   21.1776 H   0  0  0  0  0  0
  -27.4410  -25.1357   21.3061 H   0  0  0  0  0  0
  -30.2229  -16.0264   23.4875 H   0  0  0  0  0  0
  1 25  1  0  0  0
  1 30  2  0  0  0
  1 79  1  0  0  0
  2  3  1  0  0  0
  2 25  1  0  0  0
  2 86  1  0  0  0
  2 87  1  0  0  0
  3  4  1  0  0  0
  3 88  1  0  0  0
  3 89  1  0  0  0
  4  5  1  0  0  0
  4 90  1  0  0  0
  4 91  1  0  0  0
  5  6  1  0  0  0
  5 26  1  0  0  0
  5 92  1  0  0  0
  6 25  1  0  0  0
  6 93  1  0  0  0
  6 94  1  0  0  0
  7  8  2  0  0  0
  7 26  1  0  0  0
  7 29  1  0  0  0
  8  9  1  0  0  0
  8 22  1  0  0  0
  9 10  1  0  0  0
  9 27  2  0  0  0
 10 11  2  0  0  0
 10 15  1  0  0  0
 11 12  1  0  0  0
 11 95  1  0  0  0
 12 13  2  0  0  0
 12 96  1  0  0  0
 13 14  1  0  0  0
 13 31  1  0  0  0
 14 15  2  0  0  0
 14 97  1  0  0  0
 15 98  1  0  0  0
 16 17  2  0  0  0
 16 21  1  0  0  0
 16 31  1  0  0  0
 17 18  1  0  0  0
 17 99  1  0  0  0
 18 19  2  0  0  0
 18100  1  0  0  0
 19 20  1  0  0  0
 19 24  1  0  0  0
 20 21  2  0  0  0
 20101  1  0  0  0
 21 23  1  0  0  0
 22 28  1  0  0  0
 22 32  2  0  0  0
 26 27  1  0  0  0
 28102  1  0  0  0
 28103  1  0  0  0
 29104  1  0  0  0
 29105  1  0  0  0
 33 34  1  0  0  0
 33 66  1  0  0  0
 33 70  2  0  0  0
 34 36  1  0  0  0
 34 59  1  0  0  0
 34106  1  0  0  0
 35 44  2  0  0  0
 35 45  1  0  0  0
 35 68  1  0  0  0
 36 56  1  0  0  0
 36107  1  0  0  0
 37 39  1  0  0  0
 37 47  1  0  0  0
 37 66  1  0  0  0
 37108  1  0  0  0
 38 43  2  0  0  0
 38 46  1  0  0  0
 38 47  1  0  0  0
 39 64  1  0  0  0
 39 67  2  0  0  0
 40 52  1  0  0  0
 40 53  2  0  0  0
 40 58  1  0  0  0
 41109  1  0  0  0
 41110  1  0  0  0
 41111  1  0  0  0
 41 48  1  0  0  0
 42 43  1  0  0  0
 42 66  1  0  0  0
 42112  1  0  0  0
 42113  1  0  0  0
 43 44  1  0  0  0
 44114  1  0  0  0
 45 46  2  0  0  0
 45115  1  0  0  0
 46116  1  0  0  0
 47117  1  0  0  0
 47118  1  0  0  0
 48 56  1  0  0  0
 48 65  1  0  0  0
 48119  1  0  0  0
 49 50  1  0  0  0
 49 53  1  0  0  0
 49 64  1  0  0  0
 49120  1  0  0  0
 50 51  1  0  0  0
 50121  1  0  0  0
 50122  1  0  0  0
 51 52  1  0  0  0
 51123  1  0  0  0
 51124  1  0  0  0
 52125  1  0  0  0
 52126  1  0  0  0
 53 54  1  0  0  0
 54 55  2  0  0  0
 54127  1  0  0  0
 55 57  1  0  0  0
 55128  1  0  0  0
 56 69  2  0  0  0
 57 58  2  0  0  0
 57129  1  0  0  0
 58130  1  0  0  0
 59 60  1  0  0  0
 59 61  1  0  0  0
 59 62  1  0  0  0
 60131  1  0  0  0
 60132  1  0  0  0
 60133  1  0  0  0
 61134  1  0  0  0
 61135  1  0  0  0
 61136  1  0  0  0
 62137  1  0  0  0
 62138  1  0  0  0
 62139  1  0  0  0
 63 65  1  0  0  0
 63140  1  0  0  0
 63141  1  0  0  0
 63142  1  0  0  0
 64143  1  0  0  0
 65144  1  0  0  0
 68 83  1  0  0  0
 71 74  2  0  0  0
 71 75  1  0  0  0
 71145  1  0  0  0
 72 74  1  0  0  0
 72 76  2  0  0  0
 72146  1  0  0  0
 73 75  2  0  0  0
 73 76  1  0  0  0
 73147  1  0  0  0
 74 77  1  0  0  0
 75 79  1  0  0  0
 76 85  1  0  0  0
 77 78  2  0  0  0
 77148  1  0  0  0
 78 81  1  0  0  0
 78149  1  0  0  0
 79 84  2  0  0  0
 80 85  1  0  0  0
 80150  1  0  0  0
 80151  1  0  0  0
 80152  1  0  0  0
 81 82  1  0  0  0
 81153  1  0  0  0
 81154  1  0  0  0
 82 83  1  0  0  0
 82155  1  0  0  0
 82156  1  0  0  0
 83157  1  0  0  0
 83158  1  0  0  0
 84159  1  0  0  0
M  ISO  4   1 100  68 101  79 100  83 101
M  END
> <chiral flag>
0

> <version>
0

> <s_m_source_file>
/data/baiqing/PycharmProjects/Reinvent-master-3.2/result/LINK_invent/BTK/process_docking_weight1_custom_product_contain_oxygen_bond_distance_aromatic_linkinvent_7_9_3/rearranged_h_0118.sdf

> <i_m_source_file_index>
35

> <r_mmod_Potential_Energy-OPLS-2005>
197.297653198242

> <r_mmod_Stretch_Energy-OPLS-2005>
57.2336921691895

> <r_mmod_Bend_Energy-OPLS-2005>
134.715774536133

> <r_mmod_Torsional_Energy-OPLS-2005>
269.842346191406

> <r_mmod_Improper_Torsional_Energy-OPLS-2005>
5.33487939834595

> <r_mmod_Van_der_Waal_Energy-OPLS-2005>
139.02424621582

> <r_mmod_Electrostatic_Energy-OPLS-2005>
-233.430480957031

> <r_mmod_Solvation_Energy-OPLS-2005>
-196.484100341797

> <b_mmod_Minimization_Converged-OPLS-2005>
0

> <r_mmod_RMS_Derivative-OPLS-2005>
4.28697681427002

$$$$
36
                    3D
 Structure written by MMmdl.
152160  0  0  1  0            999 V2000
  -30.6725  -14.5288   20.5170 C   0  0  0  0  0  0
  -30.4506  -12.3245   19.4443 C   0  0  0  0  0  0
  -29.5231  -12.5098   18.2235 C   0  0  0  0  0  0
  -28.0433  -12.3165   18.6227 C   0  0  0  0  0  0
  -27.6578  -13.1811   19.8486 C   0  0  2  0  0  0
  -28.6996  -13.0356   20.9880 C   0  0  0  0  0  0
  -25.2636  -13.8095   20.5573 C   0  0  0  0  0  0
  -24.1879  -13.0409   20.9158 C   0  0  0  0  0  0
  -24.6369  -11.6847   20.8696 C   0  0  0  0  0  0
  -23.9052  -10.4255   21.0389 C   0  0  0  0  0  0
  -24.3614   -9.4191   21.9176 C   0  0  0  0  0  0
  -23.6286   -8.2245   22.0769 C   0  0  0  0  0  0
  -22.4296   -8.0278   21.3539 C   0  0  0  0  0  0
  -21.9894   -9.0263   20.4669 C   0  0  0  0  0  0
  -22.7226  -10.2113   20.3054 C   0  0  0  0  0  0
  -21.6849   -6.0728   22.5275 C   0  0  0  0  0  0
  -21.4003   -6.5644   23.8214 C   0  0  0  0  0  0
  -21.3643   -5.6782   24.9175 C   0  0  0  0  0  0
  -21.6039   -4.3032   24.7210 C   0  0  0  0  0  0
  -21.8835   -3.8143   23.4330 C   0  0  0  0  0  0
  -21.9195   -4.6974   22.3393 C   0  0  0  0  0  0
  -22.7909  -13.5222   21.1808 C   0  0  0  0  0  0
  -22.1667   -4.2148   21.0970 F   0  0  0  0  0  0
  -21.5631   -3.4536   25.7731 F   0  0  0  0  0  0
  -30.0410  -13.3204   20.4499 N   0  0  0  0  0  0
  -26.3005  -12.9161   20.3197 N   0  0  0  0  0  0
  -25.9283  -11.6357   20.5671 N   0  0  0  0  0  0
  -22.0527  -12.8252   22.0385 N   0  0  0  0  0  0
  -25.4344  -15.1809   20.3992 N   0  0  0  0  0  0
  -31.8676  -14.6567   20.2395 O   0  0  0  0  0  0
  -21.6647   -6.8896   21.4256 O   0  0  0  0  0  0
  -22.3598  -14.5516   20.6620 O   0  0  0  0  0  0
  -24.6225  -31.8650   23.2028 C   0  0  0  0  0  0
  -25.9130  -32.4734   23.8312 C   0  0  1  0  0  0
  -27.2157  -27.3685   20.0684 C   0  0  0  0  0  0
  -25.5955  -33.8538   24.2210 N   0  0  0  0  0  0
  -23.3998  -30.4971   21.5521 C   0  0  2  0  0  0
  -24.8358  -28.9498   20.1244 C   0  0  0  0  0  0
  -22.7402  -29.4705   22.5010 C   0  0  0  0  0  0
  -18.0292  -28.1398   22.8497 C   0  0  0  0  0  0
  -24.1455  -36.7209   23.2636 C   0  0  0  0  0  0
  -25.9447  -30.8026   21.3718 C   0  0  0  0  0  0
  -26.0102  -29.4368   20.7125 C   0  0  0  0  0  0
  -27.1975  -28.6503   20.6883 C   0  0  0  0  0  0
  -26.0045  -26.9234   19.4775 C   0  0  0  0  0  0
  -24.8258  -27.6874   19.5223 C   0  0  0  0  0  0
  -23.5973  -29.8224   20.1736 C   0  0  0  0  0  0
  -25.4097  -36.2996   24.0310 C   0  0  1  0  0  0
  -20.5888  -28.3653   23.1309 C   0  0  2  0  0  0
  -20.6746  -26.9389   22.5424 C   0  0  0  0  0  0
  -19.5726  -26.6395   21.5215 C   0  0  0  0  0  0
  -18.1909  -26.7943   22.1624 C   0  0  0  0  0  0
  -19.1543  -28.8855   23.2892 C   0  0  0  0  0  0
  -18.9483  -30.1464   23.8873 C   0  0  0  0  0  0
  -17.6478  -30.6590   24.0605 C   0  0  0  0  0  0
  -25.9081  -34.9417   23.5072 C   0  0  0  0  0  0
  -16.5374  -29.9085   23.6372 C   0  0  0  0  0  0
  -16.7280  -28.6537   23.0347 C   0  0  0  0  0  0
  -26.4496  -31.6564   25.0720 C   0  0  0  0  0  0
  -25.3716  -31.3799   26.1437 C   0  0  0  0  0  0
  -27.0362  -30.2975   24.6256 C   0  0  0  0  0  0
  -27.6016  -32.4367   25.7469 C   0  0  0  0  0  0
  -27.5568  -37.1712   24.8458 C   0  0  0  0  0  0
  -21.4161  -29.3025   22.3701 N   0  0  0  0  0  0
  -26.4237  -37.3743   23.9461 N   0  0  0  0  0  0
  -24.6734  -31.0745   22.0950 N   0  0  0  0  0  0
  -23.4181  -28.8342   23.3113 O   0  0  0  0  0  0
  -28.3738  -26.5848   20.0720 O   0  0  0  0  0  0
  -26.5665  -34.8909   22.4639 O   0  0  0  0  0  0
  -23.5423  -32.1448   23.7424 O   0  0  0  0  0  0
  -28.1441  -18.1929   19.4623 C   0  0  0  0  0  0
  -27.8767  -19.5823   19.2661 C   0  0  0  0  0  0
  -29.3018  -18.0983   20.1784 C   0  0  0  0  0  0
  -28.8012  -20.2540   20.0345 C   0  0  0  0  0  0
  -30.1534  -16.9714   20.4708 C   0  0  0  0  0  0
  -29.1210  -21.6447   20.2734 C   0  0  0  0  0  0
  -29.7579  -15.6841   20.5735 C   0  0  0  0  0  0
  -28.6895  -22.7596   19.6340 C   0  0  0  0  0  0
  -29.1067  -24.1446   20.0193 C   0  0  0  0  0  0
  -26.8066  -20.1372   18.3526 C   0  0  0  0  0  0
  -28.3884  -25.3281   19.3188 C   0  0  0  0  0  0
  -29.9798  -24.3627   20.8606 O   0  0  0  0  0  0
  -29.6768  -19.3456   20.5858 O   0  0  0  0  0  0
  -31.4902  -12.4545   19.1402 H   0  0  0  0  0  0
  -30.3819  -11.3092   19.8418 H   0  0  0  0  0  0
  -29.8005  -11.8230   17.4213 H   0  0  0  0  0  0
  -29.6625  -13.5177   17.8244 H   0  0  0  0  0  0
  -27.8892  -11.2598   18.8463 H   0  0  0  0  0  0
  -27.3951  -12.5499   17.7783 H   0  0  0  0  0  0
  -27.6619  -14.1991   19.4647 H   0  0  0  0  0  0
  -28.6756  -12.0371   21.4246 H   0  0  0  0  0  0
  -28.4621  -13.7081   21.8114 H   0  0  0  0  0  0
  -25.2756   -9.5700   22.4732 H   0  0  0  0  0  0
  -24.0016   -7.4642   22.7441 H   0  0  0  0  0  0
  -21.0845   -8.8772   19.8964 H   0  0  0  0  0  0
  -22.3692  -10.9662   19.6167 H   0  0  0  0  0  0
  -21.1994   -7.6155   23.9717 H   0  0  0  0  0  0
  -21.1443   -6.0510   25.9072 H   0  0  0  0  0  0
  -22.0621   -2.7620   23.2818 H   0  0  0  0  0  0
  -22.4077  -11.9936   22.4841 H   0  0  0  0  0  0
  -21.1144  -13.1326   22.2520 H   0  0  0  0  0  0
  -24.6588  -15.8249   20.5052 H   0  0  0  0  0  0
  -26.2795  -15.6297   20.0733 H   0  0  0  0  0  0
  -26.7208  -32.5386   23.1055 H   0  0  0  0  0  0
  -25.0027  -33.9622   25.0299 H   0  0  0  0  0  0
  -22.6915  -31.3189   21.4143 H   0  0  0  0  0  0
  -23.3725  -35.9524   23.3267 H   0  0  0  0  0  0
  -24.3557  -36.8873   22.2057 H   0  0  0  0  0  0
  -23.7192  -37.6391   23.6705 H   0  0  0  0  0  0
  -26.1067  -31.5681   20.6080 H   0  0  0  0  0  0
  -26.8121  -30.8162   22.0212 H   0  0  0  0  0  0
  -28.1007  -29.0330   21.1454 H   0  0  0  0  0  0
  -25.8903  -25.9843   18.9729 H   0  0  0  0  0  0
  -23.9131  -27.2895   19.0975 H   0  0  0  0  0  0
  -23.6937  -30.5832   19.3975 H   0  0  0  0  0  0
  -22.7115  -29.2413   19.8964 H   0  0  0  0  0  0
  -25.1266  -36.1753   25.0794 H   0  0  0  0  0  0
  -21.0018  -28.3228   24.1408 H   0  0  0  0  0  0
  -20.5609  -26.2299   23.3624 H   0  0  0  0  0  0
  -21.6626  -26.7386   22.1245 H   0  0  0  0  0  0
  -19.6867  -25.6315   21.1215 H   0  0  0  0  0  0
  -19.6656  -27.3235   20.6757 H   0  0  0  0  0  0
  -17.4189  -26.6729   21.4021 H   0  0  0  0  0  0
  -18.0296  -26.0103   22.9026 H   0  0  0  0  0  0
  -19.7970  -30.7316   24.2184 H   0  0  0  0  0  0
  -17.5046  -31.6232   24.5239 H   0  0  0  0  0  0
  -15.5370  -30.2966   23.7719 H   0  0  0  0  0  0
  -15.8700  -28.0854   22.6999 H   0  0  0  0  0  0
  -24.5813  -30.7237   25.7798 H   0  0  0  0  0  0
  -24.9010  -32.3023   26.4851 H   0  0  0  0  0  0
  -25.7990  -30.8974   27.0220 H   0  0  0  0  0  0
  -26.2972  -29.6688   24.1293 H   0  0  0  0  0  0
  -27.4025  -29.7293   25.4806 H   0  0  0  0  0  0
  -27.8844  -30.4216   23.9525 H   0  0  0  0  0  0
  -27.2549  -33.3658   26.2019 H   0  0  0  0  0  0
  -28.3806  -32.6974   25.0289 H   0  0  0  0  0  0
  -28.0720  -31.8564   26.5409 H   0  0  0  0  0  0
  -28.2497  -38.0089   24.7620 H   0  0  0  0  0  0
  -28.1123  -36.2638   24.6071 H   0  0  0  0  0  0
  -27.2346  -37.1109   25.8867 H   0  0  0  0  0  0
  -20.9340  -29.8641   21.6827 H   0  0  0  0  0  0
  -26.0054  -38.2763   24.1588 H   0  0  0  0  0  0
  -27.6171  -17.3610   19.0154 H   0  0  0  0  0  0
  -31.2113  -17.1909   20.5017 H   0  0  0  0  0  0
  -29.7973  -21.7887   21.1122 H   0  0  0  0  0  0
  -28.6955  -15.5462   20.6139 H   0  0  0  0  0  0
  -28.0076  -22.6680   18.7997 H   0  0  0  0  0  0
  -26.1623  -19.3338   17.9827 H   0  0  0  0  0  0
  -27.2701  -20.6177   17.4909 H   0  0  0  0  0  0
  -26.1831  -20.8846   18.8419 H   0  0  0  0  0  0
  -27.4058  -24.9020   19.1643 H   0  0  0  0  0  0
  -28.8137  -25.5104   18.3273 H   0  0  0  0  0  0
  1 25  1  0  0  0
  1 30  2  0  0  0
  1 77  1  0  0  0
  2  3  1  0  0  0
  2 25  1  0  0  0
  2 84  1  0  0  0
  2 85  1  0  0  0
  3  4  1  0  0  0
  3 86  1  0  0  0
  3 87  1  0  0  0
  4  5  1  0  0  0
  4 88  1  0  0  0
  4 89  1  0  0  0
  5  6  1  0  0  0
  5 26  1  0  0  0
  5 90  1  0  0  0
  6 25  1  0  0  0
  6 91  1  0  0  0
  6 92  1  0  0  0
  7  8  2  0  0  0
  7 26  1  0  0  0
  7 29  1  0  0  0
  8  9  1  0  0  0
  8 22  1  0  0  0
  9 10  1  0  0  0
  9 27  2  0  0  0
 10 11  2  0  0  0
 10 15  1  0  0  0
 11 12  1  0  0  0
 11 93  1  0  0  0
 12 13  2  0  0  0
 12 94  1  0  0  0
 13 14  1  0  0  0
 13 31  1  0  0  0
 14 15  2  0  0  0
 14 95  1  0  0  0
 15 96  1  0  0  0
 16 17  2  0  0  0
 16 21  1  0  0  0
 16 31  1  0  0  0
 17 18  1  0  0  0
 17 97  1  0  0  0
 18 19  2  0  0  0
 18 98  1  0  0  0
 19 20  1  0  0  0
 19 24  1  0  0  0
 20 21  2  0  0  0
 20 99  1  0  0  0
 21 23  1  0  0  0
 22 28  1  0  0  0
 22 32  2  0  0  0
 26 27  1  0  0  0
 28100  1  0  0  0
 28101  1  0  0  0
 29102  1  0  0  0
 29103  1  0  0  0
 33 34  1  0  0  0
 33 66  1  0  0  0
 33 70  2  0  0  0
 34 36  1  0  0  0
 34 59  1  0  0  0
 34104  1  0  0  0
 35 44  2  0  0  0
 35 45  1  0  0  0
 35 68  1  0  0  0
 36 56  1  0  0  0
 36105  1  0  0  0
 37 39  1  0  0  0
 37 47  1  0  0  0
 37 66  1  0  0  0
 37106  1  0  0  0
 38 43  2  0  0  0
 38 46  1  0  0  0
 38 47  1  0  0  0
 39 64  1  0  0  0
 39 67  2  0  0  0
 40 52  1  0  0  0
 40 53  2  0  0  0
 40 58  1  0  0  0
 41107  1  0  0  0
 41108  1  0  0  0
 41109  1  0  0  0
 41 48  1  0  0  0
 42 43  1  0  0  0
 42 66  1  0  0  0
 42110  1  0  0  0
 42111  1  0  0  0
 43 44  1  0  0  0
 44112  1  0  0  0
 45 46  2  0  0  0
 45113  1  0  0  0
 46114  1  0  0  0
 47115  1  0  0  0
 47116  1  0  0  0
 48 56  1  0  0  0
 48 65  1  0  0  0
 48117  1  0  0  0
 49 50  1  0  0  0
 49 53  1  0  0  0
 49 64  1  0  0  0
 49118  1  0  0  0
 50 51  1  0  0  0
 50119  1  0  0  0
 50120  1  0  0  0
 51 52  1  0  0  0
 51121  1  0  0  0
 51122  1  0  0  0
 52123  1  0  0  0
 52124  1  0  0  0
 53 54  1  0  0  0
 54 55  2  0  0  0
 54125  1  0  0  0
 55 57  1  0  0  0
 55126  1  0  0  0
 56 69  2  0  0  0
 57 58  2  0  0  0
 57127  1  0  0  0
 58128  1  0  0  0
 59 60  1  0  0  0
 59 61  1  0  0  0
 59 62  1  0  0  0
 60129  1  0  0  0
 60130  1  0  0  0
 60131  1  0  0  0
 61132  1  0  0  0
 61133  1  0  0  0
 61134  1  0  0  0
 62135  1  0  0  0
 62136  1  0  0  0
 62137  1  0  0  0
 63 65  1  0  0  0
 63138  1  0  0  0
 63139  1  0  0  0
 63140  1  0  0  0
 64141  1  0  0  0
 65142  1  0  0  0
 68 81  1  0  0  0
 71 72  1  0  0  0
 71 73  2  0  0  0
 71143  1  0  0  0
 72 74  2  0  0  0
 72 80  1  0  0  0
 73 75  1  0  0  0
 73 83  1  0  0  0
 74 76  1  0  0  0
 74 83  1  0  0  0
 75 77  2  0  0  0
 75144  1  0  0  0
 76 78  2  0  0  0
 76145  1  0  0  0
 77146  1  0  0  0
 78 79  1  0  0  0
 78147  1  0  0  0
 79 81  1  0  0  0
 79 82  2  0  0  0
 80148  1  0  0  0
 80149  1  0  0  0
 80150  1  0  0  0
 81151  1  0  0  0
 81152  1  0  0  0
M  ISO  4   1 100  68 101  77 100  81 101
M  END
> <chiral flag>
0

> <version>
0

> <s_m_source_file>
/data/baiqing/PycharmProjects/Reinvent-master-3.2/result/LINK_invent/BTK/process_docking_weight1_custom_product_contain_oxygen_bond_distance_aromatic_linkinvent_7_9_3/rearranged_h_0118.sdf

> <i_m_source_file_index>
36

> <r_mmod_Potential_Energy-OPLS-2005>
-22.8965682983398

> <r_mmod_Stretch_Energy-OPLS-2005>
46.120964050293

> <r_mmod_Bend_Energy-OPLS-2005>
109.83984375

> <r_mmod_Torsional_Energy-OPLS-2005>
204.483810424805

> <r_mmod_Improper_Torsional_Energy-OPLS-2005>
12.2974824905396

> <r_mmod_Van_der_Waal_Energy-OPLS-2005>
139.893783569336

> <r_mmod_Electrostatic_Energy-OPLS-2005>
-339.1357421875

> <r_mmod_Solvation_Energy-OPLS-2005>
-226.241058349609

> <b_mmod_Minimization_Converged-OPLS-2005>
0

> <r_mmod_RMS_Derivative-OPLS-2005>
7.62758350372314

$$$$
37
                    3D
 Structure written by MMmdl.
146154  0  0  1  0            999 V2000
  -30.3821  -15.4199   20.3398 C   0  0  0  0  0  0
  -30.4348  -12.9097   19.5542 C   0  0  0  0  0  0
  -29.5494  -12.6107   18.3138 C   0  0  0  0  0  0
  -28.1035  -12.3028   18.7354 C   0  0  0  0  0  0
  -27.6038  -13.2933   19.8137 C   0  0  2  0  0  0
  -28.6229  -13.5372   20.9465 C   0  0  0  0  0  0
  -25.2359  -13.8276   20.5752 C   0  0  0  0  0  0
  -24.1730  -13.0442   20.9256 C   0  0  0  0  0  0
  -24.6407  -11.6945   20.8743 C   0  0  0  0  0  0
  -23.9106  -10.4297   21.0393 C   0  0  0  0  0  0
  -24.3646   -9.4212   21.9176 C   0  0  0  0  0  0
  -23.6311   -8.2250   22.0752 C   0  0  0  0  0  0
  -22.4290   -8.0289   21.3545 C   0  0  0  0  0  0
  -21.9933   -9.0263   20.4644 C   0  0  0  0  0  0
  -22.7271  -10.2136   20.3048 C   0  0  0  0  0  0
  -21.6860   -6.0741   22.5280 C   0  0  0  0  0  0
  -21.4019   -6.5643   23.8213 C   0  0  0  0  0  0
  -21.3661   -5.6794   24.9175 C   0  0  0  0  0  0
  -21.6044   -4.3056   24.7224 C   0  0  0  0  0  0
  -21.8818   -3.8150   23.4344 C   0  0  0  0  0  0
  -21.9195   -4.6968   22.3402 C   0  0  0  0  0  0
  -22.7745  -13.5182   21.1912 C   0  0  0  0  0  0
  -22.1662   -4.2154   21.0979 F   0  0  0  0  0  0
  -21.5627   -3.4539   25.7736 F   0  0  0  0  0  0
  -29.8486  -14.0792   20.3302 N   0  0  0  0  0  0
  -26.2787  -12.9580   20.3174 N   0  0  0  0  0  0
  -25.9346  -11.6666   20.5674 N   0  0  0  0  0  0
  -22.0414  -12.8157   22.0467 N   0  0  0  0  0  0
  -25.3991  -15.2016   20.4227 N   0  0  0  0  0  0
  -31.6060  -15.3719   20.1295 O   0  0  0  0  0  0
  -21.6649   -6.8888   21.4243 O   0  0  0  0  0  0
  -22.3416  -14.5481   20.6753 O   0  0  0  0  0  0
  -24.6724  -31.8134   23.1624 C   0  0  0  0  0  0
  -25.9360  -32.4536   23.8126 C   0  0  1  0  0  0
  -27.2197  -26.8270   20.1994 C   0  0  0  0  0  0
  -25.5987  -33.8355   24.2021 N   0  0  0  0  0  0
  -23.4924  -30.4210   21.5139 C   0  0  2  0  0  0
  -24.9479  -28.7889   20.1152 C   0  0  0  0  0  0
  -22.7713  -29.4386   22.4751 C   0  0  0  0  0  0
  -18.0330  -28.1415   22.8461 C   0  0  0  0  0  0
  -24.1497  -36.7186   23.2652 C   0  0  0  0  0  0
  -26.0675  -30.5873   21.4084 C   0  0  0  0  0  0
  -26.1349  -29.1662   20.7552 C   0  0  0  0  0  0
  -27.2625  -28.2098   20.7684 C   0  0  0  0  0  0
  -26.0023  -26.6295   19.5054 C   0  0  0  0  0  0
  -24.9132  -27.5434   19.4678 C   0  0  0  0  0  0
  -23.7390  -29.7292   20.1441 C   0  0  0  0  0  0
  -25.4144  -36.2938   24.0290 C   0  0  1  0  0  0
  -20.5960  -28.3768   23.1168 C   0  0  2  0  0  0
  -20.6802  -26.9439   22.5404 C   0  0  0  0  0  0
  -19.5777  -26.6374   21.5217 C   0  0  0  0  0  0
  -18.1959  -26.7944   22.1623 C   0  0  0  0  0  0
  -19.1593  -28.8914   23.2798 C   0  0  0  0  0  0
  -18.9501  -30.1500   23.8839 C   0  0  0  0  0  0
  -17.6492  -30.6602   24.0552 C   0  0  0  0  0  0
  -25.9111  -34.9321   23.4983 C   0  0  0  0  0  0
  -16.5382  -29.9085   23.6346 C   0  0  0  0  0  0
  -16.7310  -28.6506   23.0365 C   0  0  0  0  0  0
  -26.4576  -31.6522   25.0698 C   0  0  0  0  0  0
  -25.3673  -31.3806   26.1335 C   0  0  0  0  0  0
  -27.0488  -30.2874   24.6510 C   0  0  0  0  0  0
  -27.6046  -32.4356   25.7510 C   0  0  0  0  0  0
  -27.5561  -37.1764   24.8474 C   0  0  0  0  0  0
  -21.4373  -29.3038   22.3502 N   0  0  0  0  0  0
  -26.4287  -37.3677   23.9389 N   0  0  0  0  0  0
  -24.7663  -30.9701   22.0812 N   0  0  0  0  0  0
  -23.4213  -28.7969   23.3039 O   0  0  0  0  0  0
  -28.1913  -25.6593   20.2758 O   0  0  0  0  0  0
  -26.5732  -34.8873   22.4588 O   0  0  0  0  0  0
  -23.5771  -32.1149   23.6655 O   0  0  0  0  0  0
  -30.2079  -22.3309   20.5252 C   0  0  0  0  0  0
  -30.6494  -20.9263   20.5683 C   0  0  0  0  0  0
  -29.6403  -19.9822   20.3736 C   0  0  0  0  0  0
  -28.8615  -22.5244   20.3112 C   0  0  0  0  0  0
  -29.9142  -18.3175   20.3583 C   0  0  0  0  0  0
  -29.5510  -16.8635   20.4426 C   0  0  0  0  0  0
  -32.0956  -20.5638   20.8011 C   0  0  0  0  0  0
  -27.8533  -24.0027   20.1451 C   0  0  0  0  0  0
  -28.5003  -21.0108   20.2351 O   0  0  0  0  0  0
  -31.4508  -13.1207   19.2192 H   0  0  0  0  0  0
  -30.5216  -12.0261   20.1887 H   0  0  0  0  0  0
  -29.9610  -11.7778   17.7423 H   0  0  0  0  0  0
  -29.5588  -13.4756   17.6488 H   0  0  0  0  0  0
  -28.0842  -11.2879   19.1342 H   0  0  0  0  0  0
  -27.4408  -12.3064   17.8693 H   0  0  0  0  0  0
  -27.4981  -14.2419   19.2858 H   0  0  0  0  0  0
  -28.8159  -12.6266   21.5156 H   0  0  0  0  0  0
  -28.2282  -14.2658   21.6561 H   0  0  0  0  0  0
  -25.2787   -9.5689   22.4756 H   0  0  0  0  0  0
  -24.0016   -7.4644   22.7474 H   0  0  0  0  0  0
  -21.0863   -8.8786   19.8951 H   0  0  0  0  0  0
  -22.3726  -10.9675   19.6159 H   0  0  0  0  0  0
  -21.2014   -7.6151   23.9718 H   0  0  0  0  0  0
  -21.1483   -6.0524   25.9077 H   0  0  0  0  0  0
  -22.0595   -2.7612   23.2843 H   0  0  0  0  0  0
  -22.4057  -11.9832   22.4859 H   0  0  0  0  0  0
  -21.1023  -13.1156   22.2675 H   0  0  0  0  0  0
  -24.6309  -15.8528   20.5445 H   0  0  0  0  0  0
  -26.2468  -15.6470   20.0959 H   0  0  0  0  0  0
  -26.7435  -32.5045   23.0839 H   0  0  0  0  0  0
  -25.0067  -33.9415   25.0128 H   0  0  0  0  0  0
  -22.8111  -31.2554   21.3348 H   0  0  0  0  0  0
  -23.3757  -35.9522   23.3320 H   0  0  0  0  0  0
  -24.3556  -36.8830   22.2064 H   0  0  0  0  0  0
  -23.7270  -37.6381   23.6711 H   0  0  0  0  0  0
  -26.2584  -31.3218   20.6249 H   0  0  0  0  0  0
  -26.9229  -30.6487   22.0689 H   0  0  0  0  0  0
  -28.1576  -28.4997   21.3003 H   0  0  0  0  0  0
  -25.8515  -25.6829   19.0077 H   0  0  0  0  0  0
  -24.0144  -27.2475   18.9443 H   0  0  0  0  0  0
  -23.9042  -30.4942   19.3845 H   0  0  0  0  0  0
  -22.8463  -29.1896   19.8230 H   0  0  0  0  0  0
  -25.1355  -36.1728   25.0784 H   0  0  0  0  0  0
  -21.0044  -28.3384   24.1293 H   0  0  0  0  0  0
  -20.5676  -26.2389   23.3655 H   0  0  0  0  0  0
  -21.6665  -26.7400   22.1217 H   0  0  0  0  0  0
  -19.6934  -25.6269   21.1287 H   0  0  0  0  0  0
  -19.6717  -27.3149   20.6718 H   0  0  0  0  0  0
  -17.4228  -26.6684   21.4028 H   0  0  0  0  0  0
  -18.0353  -26.0103   22.9035 H   0  0  0  0  0  0
  -19.7975  -30.7332   24.2184 H   0  0  0  0  0  0
  -17.5042  -31.6276   24.5165 H   0  0  0  0  0  0
  -15.5379  -30.2967   23.7704 H   0  0  0  0  0  0
  -15.8711  -28.0802   22.7117 H   0  0  0  0  0  0
  -24.5878  -30.7132   25.7643 H   0  0  0  0  0  0
  -24.8840  -32.3018   26.4598 H   0  0  0  0  0  0
  -25.7882  -30.9081   27.0219 H   0  0  0  0  0  0
  -26.3178  -29.6524   24.1494 H   0  0  0  0  0  0
  -27.3950  -29.7277   25.5210 H   0  0  0  0  0  0
  -27.9148  -30.4025   23.9990 H   0  0  0  0  0  0
  -27.2593  -33.3705   26.1938 H   0  0  0  0  0  0
  -28.3937  -32.6843   25.0401 H   0  0  0  0  0  0
  -28.0627  -31.8588   26.5555 H   0  0  0  0  0  0
  -28.2599  -38.0038   24.7456 H   0  0  0  0  0  0
  -28.1038  -36.2559   24.6393 H   0  0  0  0  0  0
  -27.2262  -37.1515   25.8874 H   0  0  0  0  0  0
  -20.9651  -29.8711   21.6600 H   0  0  0  0  0  0
  -26.0131  -38.2743   24.1355 H   0  0  0  0  0  0
  -30.8764  -23.1725   20.6469 H   0  0  0  0  0  0
  -30.9761  -18.2536   20.1739 H   0  0  0  0  0  0
  -28.4972  -16.7077   20.6164 H   0  0  0  0  0  0
  -32.6841  -21.4456   21.0558 H   0  0  0  0  0  0
  -32.5275  -20.1175   19.9050 H   0  0  0  0  0  0
  -32.1868  -19.8516   21.6218 H   0  0  0  0  0  0
  -27.0203  -23.8623   20.8339 H   0  0  0  0  0  0
  -27.3888  -23.9163   19.1632 H   0  0  0  0  0  0
  1 25  1  0  0  0
  1 30  2  0  0  0
  1 76  1  0  0  0
  2  3  1  0  0  0
  2 25  1  0  0  0
  2 80  1  0  0  0
  2 81  1  0  0  0
  3  4  1  0  0  0
  3 82  1  0  0  0
  3 83  1  0  0  0
  4  5  1  0  0  0
  4 84  1  0  0  0
  4 85  1  0  0  0
  5  6  1  0  0  0
  5 26  1  0  0  0
  5 86  1  0  0  0
  6 25  1  0  0  0
  6 87  1  0  0  0
  6 88  1  0  0  0
  7  8  2  0  0  0
  7 26  1  0  0  0
  7 29  1  0  0  0
  8  9  1  0  0  0
  8 22  1  0  0  0
  9 10  1  0  0  0
  9 27  2  0  0  0
 10 11  2  0  0  0
 10 15  1  0  0  0
 11 12  1  0  0  0
 11 89  1  0  0  0
 12 13  2  0  0  0
 12 90  1  0  0  0
 13 14  1  0  0  0
 13 31  1  0  0  0
 14 15  2  0  0  0
 14 91  1  0  0  0
 15 92  1  0  0  0
 16 17  2  0  0  0
 16 21  1  0  0  0
 16 31  1  0  0  0
 17 18  1  0  0  0
 17 93  1  0  0  0
 18 19  2  0  0  0
 18 94  1  0  0  0
 19 20  1  0  0  0
 19 24  1  0  0  0
 20 21  2  0  0  0
 20 95  1  0  0  0
 21 23  1  0  0  0
 22 28  1  0  0  0
 22 32  2  0  0  0
 26 27  1  0  0  0
 28 96  1  0  0  0
 28 97  1  0  0  0
 29 98  1  0  0  0
 29 99  1  0  0  0
 33 34  1  0  0  0
 33 66  1  0  0  0
 33 70  2  0  0  0
 34 36  1  0  0  0
 34 59  1  0  0  0
 34100  1  0  0  0
 35 44  2  0  0  0
 35 45  1  0  0  0
 35 68  1  0  0  0
 36 56  1  0  0  0
 36101  1  0  0  0
 37 39  1  0  0  0
 37 47  1  0  0  0
 37 66  1  0  0  0
 37102  1  0  0  0
 38 43  2  0  0  0
 38 46  1  0  0  0
 38 47  1  0  0  0
 39 64  1  0  0  0
 39 67  2  0  0  0
 40 52  1  0  0  0
 40 53  2  0  0  0
 40 58  1  0  0  0
 41103  1  0  0  0
 41104  1  0  0  0
 41105  1  0  0  0
 41 48  1  0  0  0
 42 43  1  0  0  0
 42 66  1  0  0  0
 42106  1  0  0  0
 42107  1  0  0  0
 43 44  1  0  0  0
 44108  1  0  0  0
 45 46  2  0  0  0
 45109  1  0  0  0
 46110  1  0  0  0
 47111  1  0  0  0
 47112  1  0  0  0
 48 56  1  0  0  0
 48 65  1  0  0  0
 48113  1  0  0  0
 49 50  1  0  0  0
 49 53  1  0  0  0
 49 64  1  0  0  0
 49114  1  0  0  0
 50 51  1  0  0  0
 50115  1  0  0  0
 50116  1  0  0  0
 51 52  1  0  0  0
 51117  1  0  0  0
 51118  1  0  0  0
 52119  1  0  0  0
 52120  1  0  0  0
 53 54  1  0  0  0
 54 55  2  0  0  0
 54121  1  0  0  0
 55 57  1  0  0  0
 55122  1  0  0  0
 56 69  2  0  0  0
 57 58  2  0  0  0
 57123  1  0  0  0
 58124  1  0  0  0
 59 60  1  0  0  0
 59 61  1  0  0  0
 59 62  1  0  0  0
 60125  1  0  0  0
 60126  1  0  0  0
 60127  1  0  0  0
 61128  1  0  0  0
 61129  1  0  0  0
 61130  1  0  0  0
 62131  1  0  0  0
 62132  1  0  0  0
 62133  1  0  0  0
 63 65  1  0  0  0
 63134  1  0  0  0
 63135  1  0  0  0
 63136  1  0  0  0
 64137  1  0  0  0
 65138  1  0  0  0
 68 78  1  0  0  0
 71 72  1  0  0  0
 71 74  2  0  0  0
 71139  1  0  0  0
 72 73  2  0  0  0
 72 77  1  0  0  0
 73 75  1  0  0  0
 73 79  1  0  0  0
 74 78  1  0  0  0
 74 79  1  0  0  0
 75 76  2  0  0  0
 75140  1  0  0  0
 76141  1  0  0  0
 77142  1  0  0  0
 77143  1  0  0  0
 77144  1  0  0  0
 78145  1  0  0  0
 78146  1  0  0  0
M  ISO  4   1 100  68 101  76 100  78 101
M  END
> <chiral flag>
0

> <version>
0

> <s_m_source_file>
/data/baiqing/PycharmProjects/Reinvent-master-3.2/result/LINK_invent/BTK/process_docking_weight1_custom_product_contain_oxygen_bond_distance_aromatic_linkinvent_7_9_3/rearranged_h_0118.sdf

> <i_m_source_file_index>
37

> <r_mmod_Potential_Energy-OPLS-2005>
1712.12023925781

> <r_mmod_Stretch_Energy-OPLS-2005>
739.798156738281

> <r_mmod_Bend_Energy-OPLS-2005>
569.092590332031

> <r_mmod_Torsional_Energy-OPLS-2005>
193.722412109375

> <r_mmod_Improper_Torsional_Energy-OPLS-2005>
2.73928165435791

> <r_mmod_Van_der_Waal_Energy-OPLS-2005>
110.221397399902

> <r_mmod_Electrostatic_Energy-OPLS-2005>
-330.288116455078

> <r_mmod_Solvation_Energy-OPLS-2005>
-200.75309753418

> <b_mmod_Minimization_Converged-OPLS-2005>
0

> <r_mmod_RMS_Derivative-OPLS-2005>
0.226696729660034

$$$$
38
                    3D
 Structure written by MMmdl.
164173  0  0  1  0            999 V2000
  -30.6136  -14.7712   20.5281 C   0  0  0  0  0  0
  -30.4592  -12.5066   19.4226 C   0  0  0  0  0  0
  -29.5169  -12.5544   18.1963 C   0  0  0  0  0  0
  -28.0370  -12.3880   18.6101 C   0  0  0  0  0  0
  -27.6450  -13.2532   19.8397 C   0  0  2  0  0  0
  -28.7002  -13.1456   20.9623 C   0  0  0  0  0  0
  -25.2486  -13.8239   20.5540 C   0  0  0  0  0  0
  -24.1778  -13.0368   20.9126 C   0  0  0  0  0  0
  -24.6494  -11.6929   20.8805 C   0  0  0  0  0  0
  -23.9160  -10.4256   21.0483 C   0  0  0  0  0  0
  -24.3679   -9.4174   21.9269 C   0  0  0  0  0  0
  -23.6281   -8.2253   22.0848 C   0  0  0  0  0  0
  -22.4273   -8.0350   21.3645 C   0  0  0  0  0  0
  -21.9962   -9.0291   20.4731 C   0  0  0  0  0  0
  -22.7357  -10.2134   20.3108 C   0  0  0  0  0  0
  -21.6842   -6.0763   22.5287 C   0  0  0  0  0  0
  -21.3996   -6.5651   23.8214 C   0  0  0  0  0  0
  -21.3661   -5.6801   24.9180 C   0  0  0  0  0  0
  -21.6008   -4.3061   24.7222 C   0  0  0  0  0  0
  -21.8828   -3.8168   23.4343 C   0  0  0  0  0  0
  -21.9181   -4.6990   22.3420 C   0  0  0  0  0  0
  -22.7801  -13.5239   21.1678 C   0  0  0  0  0  0
  -22.1670   -4.2223   21.0986 F   0  0  0  0  0  0
  -21.5632   -3.4521   25.7716 F   0  0  0  0  0  0
  -29.9915  -13.5450   20.3778 N   0  0  0  0  0  0
  -26.2989  -12.9467   20.3208 N   0  0  0  0  0  0
  -25.9449  -11.6576   20.5713 N   0  0  0  0  0  0
  -22.0345  -12.8314   22.0304 N   0  0  0  0  0  0
  -25.3907  -15.1926   20.4002 N   0  0  0  0  0  0
  -31.8262  -14.8603   20.2652 O   0  0  0  0  0  0
  -21.6615   -6.8963   21.4288 O   0  0  0  0  0  0
  -22.3568  -14.5511   20.6492 O   0  0  0  0  0  0
  -24.6242  -31.8536   23.2163 C   0  0  0  0  0  0
  -25.9000  -32.4853   23.8409 C   0  0  1  0  0  0
  -27.2892  -27.2654   20.1500 C   0  0  0  0  0  0
  -25.5811  -33.8673   24.2374 N   0  0  0  0  0  0
  -23.4426  -30.4793   21.5657 C   0  0  2  0  0  0
  -24.9050  -28.9179   20.1827 C   0  0  0  0  0  0
  -22.7342  -29.4620   22.5017 C   0  0  0  0  0  0
  -18.0239  -28.1234   22.8338 C   0  0  0  0  0  0
  -24.1399  -36.7296   23.2711 C   0  0  0  0  0  0
  -25.9925  -30.7673   21.4031 C   0  0  0  0  0  0
  -26.0866  -29.3849   20.7634 C   0  0  0  0  0  0
  -27.2794  -28.5820   20.7360 C   0  0  0  0  0  0
  -26.0423  -26.8590   19.5938 C   0  0  0  0  0  0
  -24.8752  -27.6318   19.6496 C   0  0  0  0  0  0
  -23.6666  -29.7982   20.1967 C   0  0  0  0  0  0
  -25.4061  -36.3233   24.0429 C   0  0  1  0  0  0
  -20.5800  -28.3477   23.1298 C   0  0  2  0  0  0
  -20.6577  -26.9172   22.5474 C   0  0  0  0  0  0
  -19.5814  -26.6422   21.4969 C   0  0  0  0  0  0
  -18.1823  -26.7970   22.1079 C   0  0  0  0  0  0
  -19.1504  -28.8625   23.2977 C   0  0  0  0  0  0
  -18.9415  -30.1203   23.9036 C   0  0  0  0  0  0
  -17.6438  -30.6371   24.0563 C   0  0  0  0  0  0
  -25.8965  -34.9542   23.5258 C   0  0  0  0  0  0
  -16.5314  -29.8855   23.6206 C   0  0  0  0  0  0
  -16.7278  -28.6258   23.0261 C   0  0  0  0  0  0
  -26.4343  -31.6677   25.0807 C   0  0  0  0  0  0
  -25.3547  -31.3712   26.1538 C   0  0  0  0  0  0
  -27.0214  -30.3118   24.6297 C   0  0  0  0  0  0
  -27.5897  -32.4464   25.7578 C   0  0  0  0  0  0
  -27.5556  -37.1852   24.8497 C   0  0  0  0  0  0
  -21.4060  -29.2891   22.3655 N   0  0  0  0  0  0
  -26.4256  -37.3915   23.9453 N   0  0  0  0  0  0
  -24.7123  -31.0416   22.1246 N   0  0  0  0  0  0
  -23.3944  -28.8008   23.3150 O   0  0  0  0  0  0
  -28.4528  -26.4626   19.9218 O   0  0  0  0  0  0
  -26.5481  -34.8978   22.4797 O   0  0  0  0  0  0
  -23.5348  -32.1383   23.7311 O   0  0  0  0  0  0
  -30.7466  -17.4428   22.3804 C   0  0  0  0  0  0
  -29.5251  -18.5995   20.6576 C   0  0  0  0  0  0
  -30.0598  -17.3177   21.1612 C   0  0  0  0  0  0
  -30.8713  -18.6951   23.0104 C   0  0  0  0  0  0
  -29.7830  -19.9087   21.3030 C   0  0  0  0  0  0
  -28.8207  -23.7983   20.6572 C   0  0  0  0  0  0
  -29.5396  -22.6435   21.0626 C   0  0  0  0  0  0
  -26.5751  -21.5405   21.1976 C   0  0  0  0  0  0
  -27.5866  -23.6180   19.8049 C   0  0  0  0  0  0
  -26.5872  -22.4376   19.9592 C   0  0  0  0  0  0
  -27.8635  -20.9923   21.7886 C   0  0  0  0  0  0
  -31.4831  -18.7769   24.3969 C   0  0  0  0  0  0
  -30.9171  -22.8604   21.6946 C   0  0  0  0  0  0
  -29.1294  -25.4284   20.8127 C   0  0  0  0  0  0
  -30.4552  -19.8716   22.4847 N   0  0  0  0  0  0
  -29.1099  -21.2046   21.0242 N   0  0  0  0  0  0
  -29.8149  -15.9103   20.6718 N   0  0  0  0  0  0
  -25.4966  -21.2358   21.7199 O   0  0  0  0  0  0
  -31.4933  -12.6869   19.1036 H   0  0  0  0  0  0
  -30.4572  -11.5163   19.8823 H   0  0  0  0  0  0
  -29.7926  -11.7908   17.4740 H   0  0  0  0  0  0
  -29.6499  -13.5159   17.6892 H   0  0  0  0  0  0
  -27.8661  -11.3344   18.8244 H   0  0  0  0  0  0
  -27.3860  -12.6436   17.7724 H   0  0  0  0  0  0
  -27.6352  -14.2862   19.4957 H   0  0  0  0  0  0
  -28.7437  -12.1214   21.3319 H   0  0  0  0  0  0
  -28.4512  -13.7826   21.8102 H   0  0  0  0  0  0
  -25.2837   -9.5557   22.4866 H   0  0  0  0  0  0
  -23.9947   -7.4628   22.7587 H   0  0  0  0  0  0
  -21.0884   -8.8826   19.9035 H   0  0  0  0  0  0
  -22.3873  -10.9661   19.6191 H   0  0  0  0  0  0
  -21.1985   -7.6162   23.9761 H   0  0  0  0  0  0
  -21.1467   -6.0518   25.9099 H   0  0  0  0  0  0
  -22.0612   -2.7644   23.2780 H   0  0  0  0  0  0
  -22.3859  -12.0035   22.4790 H   0  0  0  0  0  0
  -21.0997  -13.1498   22.2352 H   0  0  0  0  0  0
  -24.5787  -15.7973   20.4986 H   0  0  0  0  0  0
  -26.1799  -15.6654   19.9740 H   0  0  0  0  0  0
  -26.7066  -32.5442   23.1138 H   0  0  0  0  0  0
  -25.0018  -33.9767   25.0574 H   0  0  0  0  0  0
  -22.7596  -31.3147   21.4022 H   0  0  0  0  0  0
  -23.3804  -35.9499   23.3406 H   0  0  0  0  0  0
  -24.3512  -36.8837   22.2124 H   0  0  0  0  0  0
  -23.6891  -37.6440   23.6608 H   0  0  0  0  0  0
  -26.0562  -31.4985   20.5976 H   0  0  0  0  0  0
  -26.8879  -30.8535   22.0055 H   0  0  0  0  0  0
  -28.1952  -28.9617   21.1609 H   0  0  0  0  0  0
  -25.8442  -25.9279   19.0969 H   0  0  0  0  0  0
  -23.9560  -27.1968   19.2832 H   0  0  0  0  0  0
  -23.7355  -30.5457   19.4063 H   0  0  0  0  0  0
  -22.8003  -29.1906   19.9411 H   0  0  0  0  0  0
  -25.1237  -36.2262   25.0925 H   0  0  0  0  0  0
  -20.9946  -28.3109   24.1400 H   0  0  0  0  0  0
  -20.4764  -26.2015   23.3551 H   0  0  0  0  0  0
  -21.6551  -26.6809   22.1880 H   0  0  0  0  0  0
  -19.6916  -25.6450   21.0813 H   0  0  0  0  0  0
  -19.6964  -27.3263   20.6578 H   0  0  0  0  0  0
  -17.4351  -26.7364   21.3117 H   0  0  0  0  0  0
  -17.9649  -25.9843   22.8039 H   0  0  0  0  0  0
  -19.7908  -30.6911   24.2566 H   0  0  0  0  0  0
  -17.5013  -31.6061   24.5117 H   0  0  0  0  0  0
  -15.5328  -30.2745   23.7462 H   0  0  0  0  0  0
  -15.8705  -28.0632   22.6831 H   0  0  0  0  0  0
  -24.5803  -30.6995   25.7845 H   0  0  0  0  0  0
  -24.8567  -32.2754   26.5041 H   0  0  0  0  0  0
  -25.7852  -30.8853   27.0286 H   0  0  0  0  0  0
  -26.2802  -29.7006   24.1145 H   0  0  0  0  0  0
  -27.3671  -29.7362   25.4885 H   0  0  0  0  0  0
  -27.8765  -30.4548   23.9702 H   0  0  0  0  0  0
  -27.2547  -33.3881   26.1997 H   0  0  0  0  0  0
  -28.3720  -32.6868   25.0359 H   0  0  0  0  0  0
  -28.0489  -31.8632   26.5589 H   0  0  0  0  0  0
  -28.2687  -38.0068   24.7627 H   0  0  0  0  0  0
  -28.0900  -36.2609   24.6270 H   0  0  0  0  0  0
  -27.2208  -37.1502   25.8878 H   0  0  0  0  0  0
  -20.8996  -29.8722   21.7059 H   0  0  0  0  0  0
  -26.0233  -38.3022   24.1518 H   0  0  0  0  0  0
  -31.1265  -16.5652   22.8884 H   0  0  0  0  0  0
  -28.9106  -18.5527   19.7706 H   0  0  0  0  0  0
  -28.0303  -23.6139   18.8034 H   0  0  0  0  0  0
  -27.0203  -24.5297   19.9495 H   0  0  0  0  0  0
  -25.6060  -22.9087   19.9884 H   0  0  0  0  0  0
  -26.5468  -21.8334   19.0485 H   0  0  0  0  0  0
  -27.6730  -19.9438   22.1002 H   0  0  0  0  0  0
  -27.9563  -21.5821   22.7055 H   0  0  0  0  0  0
  -32.5562  -18.6467   24.3007 H   0  0  0  0  0  0
  -31.1054  -17.9950   25.0514 H   0  0  0  0  0  0
  -31.3044  -19.7201   24.9149 H   0  0  0  0  0  0
  -30.8877  -22.9974   22.7819 H   0  0  0  0  0  0
  -31.3823  -23.7414   21.2511 H   0  0  0  0  0  0
  -31.6317  -22.0583   21.4883 H   0  0  0  0  0  0
  -30.1869  -25.6676   20.6235 H   0  0  0  0  0  0
  -29.0104  -25.7523   21.8472 H   0  0  0  0  0  0
  -28.8444  -15.6674   20.5700 H   0  0  0  0  0  0
  1 25  1  0  0  0
  1 30  2  0  0  0
  1 87  1  0  0  0
  2  3  1  0  0  0
  2 25  1  0  0  0
  2 89  1  0  0  0
  2 90  1  0  0  0
  3  4  1  0  0  0
  3 91  1  0  0  0
  3 92  1  0  0  0
  4  5  1  0  0  0
  4 93  1  0  0  0
  4 94  1  0  0  0
  5  6  1  0  0  0
  5 26  1  0  0  0
  5 95  1  0  0  0
  6 25  1  0  0  0
  6 96  1  0  0  0
  6 97  1  0  0  0
  7  8  2  0  0  0
  7 26  1  0  0  0
  7 29  1  0  0  0
  8  9  1  0  0  0
  8 22  1  0  0  0
  9 10  1  0  0  0
  9 27  2  0  0  0
 10 11  2  0  0  0
 10 15  1  0  0  0
 11 12  1  0  0  0
 11 98  1  0  0  0
 12 13  2  0  0  0
 12 99  1  0  0  0
 13 14  1  0  0  0
 13 31  1  0  0  0
 14 15  2  0  0  0
 14100  1  0  0  0
 15101  1  0  0  0
 16 17  2  0  0  0
 16 21  1  0  0  0
 16 31  1  0  0  0
 17 18  1  0  0  0
 17102  1  0  0  0
 18 19  2  0  0  0
 18103  1  0  0  0
 19 20  1  0  0  0
 19 24  1  0  0  0
 20 21  2  0  0  0
 20104  1  0  0  0
 21 23  1  0  0  0
 22 28  1  0  0  0
 22 32  2  0  0  0
 26 27  1  0  0  0
 28105  1  0  0  0
 28106  1  0  0  0
 29107  1  0  0  0
 29108  1  0  0  0
 33 34  1  0  0  0
 33 66  1  0  0  0
 33 70  2  0  0  0
 34 36  1  0  0  0
 34 59  1  0  0  0
 34109  1  0  0  0
 35 44  2  0  0  0
 35 45  1  0  0  0
 35 68  1  0  0  0
 36 56  1  0  0  0
 36110  1  0  0  0
 37 39  1  0  0  0
 37 47  1  0  0  0
 37 66  1  0  0  0
 37111  1  0  0  0
 38 43  2  0  0  0
 38 46  1  0  0  0
 38 47  1  0  0  0
 39 64  1  0  0  0
 39 67  2  0  0  0
 40 52  1  0  0  0
 40 53  2  0  0  0
 40 58  1  0  0  0
 41112  1  0  0  0
 41113  1  0  0  0
 41114  1  0  0  0
 41 48  1  0  0  0
 42 43  1  0  0  0
 42 66  1  0  0  0
 42115  1  0  0  0
 42116  1  0  0  0
 43 44  1  0  0  0
 44117  1  0  0  0
 45 46  2  0  0  0
 45118  1  0  0  0
 46119  1  0  0  0
 47120  1  0  0  0
 47121  1  0  0  0
 48 56  1  0  0  0
 48 65  1  0  0  0
 48122  1  0  0  0
 49 50  1  0  0  0
 49 53  1  0  0  0
 49 64  1  0  0  0
 49123  1  0  0  0
 50 51  1  0  0  0
 50124  1  0  0  0
 50125  1  0  0  0
 51 52  1  0  0  0
 51126  1  0  0  0
 51127  1  0  0  0
 52128  1  0  0  0
 52129  1  0  0  0
 53 54  1  0  0  0
 54 55  2  0  0  0
 54130  1  0  0  0
 55 57  1  0  0  0
 55131  1  0  0  0
 56 69  2  0  0  0
 57 58  2  0  0  0
 57132  1  0  0  0
 58133  1  0  0  0
 59 60  1  0  0  0
 59 61  1  0  0  0
 59 62  1  0  0  0
 60134  1  0  0  0
 60135  1  0  0  0
 60136  1  0  0  0
 61137  1  0  0  0
 61138  1  0  0  0
 61139  1  0  0  0
 62140  1  0  0  0
 62141  1  0  0  0
 62142  1  0  0  0
 63 65  1  0  0  0
 63143  1  0  0  0
 63144  1  0  0  0
 63145  1  0  0  0
 64146  1  0  0  0
 65147  1  0  0  0
 68 84  1  0  0  0
 71 73  2  0  0  0
 71 74  1  0  0  0
 71148  1  0  0  0
 72 73  1  0  0  0
 72 75  2  0  0  0
 72149  1  0  0  0
 73 87  1  0  0  0
 74 82  1  0  0  0
 74 85  2  0  0  0
 75 85  1  0  0  0
 75 86  1  0  0  0
 76 77  2  0  0  0
 76 79  1  0  0  0
 76 84  1  0  0  0
 77 83  1  0  0  0
 77 86  1  0  0  0
 78 80  1  0  0  0
 78 81  1  0  0  0
 78 88  2  0  0  0
 79 80  1  0  0  0
 79150  1  0  0  0
 79151  1  0  0  0
 80152  1  0  0  0
 80153  1  0  0  0
 81 86  1  0  0  0
 81154  1  0  0  0
 81155  1  0  0  0
 82156  1  0  0  0
 82157  1  0  0  0
 82158  1  0  0  0
 83159  1  0  0  0
 83160  1  0  0  0
 83161  1  0  0  0
 84162  1  0  0  0
 84163  1  0  0  0
 87164  1  0  0  0
M  ISO  4   1 100  68 101  84 101  87 100
M  END
> <chiral flag>
0

> <version>
0

> <s_m_source_file>
/data/baiqing/PycharmProjects/Reinvent-master-3.2/result/LINK_invent/BTK/process_docking_weight1_custom_product_contain_oxygen_bond_distance_aromatic_linkinvent_7_9_3/rearranged_h_0118.sdf

> <i_m_source_file_index>
38

> <r_mmod_Potential_Energy-OPLS-2005>
337.432769775391

> <r_mmod_Stretch_Energy-OPLS-2005>
217.852645874023

> <r_mmod_Bend_Energy-OPLS-2005>
300.916381835938

> <r_mmod_Torsional_Energy-OPLS-2005>
322.437774658203

> <r_mmod_Improper_Torsional_Energy-OPLS-2005>
18.5876712799072

> <r_mmod_Van_der_Waal_Energy-OPLS-2005>
152.276611328125

> <r_mmod_Electrostatic_Energy-OPLS-2005>
-538.099792480469

> <r_mmod_Solvation_Energy-OPLS-2005>
-226.38703918457

> <b_mmod_Minimization_Converged-OPLS-2005>
0

> <r_mmod_RMS_Derivative-OPLS-2005>
24.0958786010742

$$$$
39
                    3D
 Structure written by MMmdl.
150158  0  0  1  0            999 V2000
  -30.6944  -14.4868   20.5853 C   0  0  0  0  0  0
  -30.4232  -12.3238   19.4160 C   0  0  0  0  0  0
  -29.4922  -12.5076   18.2011 C   0  0  0  0  0  0
  -28.0140  -12.3645   18.6164 C   0  0  0  0  0  0
  -27.6582  -13.2075   19.8712 C   0  0  2  0  0  0
  -28.7005  -12.9943   20.9905 C   0  0  0  0  0  0
  -25.2576  -13.8166   20.5678 C   0  0  0  0  0  0
  -24.1835  -13.0441   20.9185 C   0  0  0  0  0  0
  -24.6387  -11.6905   20.8740 C   0  0  0  0  0  0
  -23.9061  -10.4294   21.0409 C   0  0  0  0  0  0
  -24.3618   -9.4211   21.9187 C   0  0  0  0  0  0
  -23.6297   -8.2243   22.0758 C   0  0  0  0  0  0
  -22.4279   -8.0281   21.3551 C   0  0  0  0  0  0
  -21.9916   -9.0247   20.4646 C   0  0  0  0  0  0
  -22.7241  -10.2128   20.3053 C   0  0  0  0  0  0
  -21.6852   -6.0742   22.5288 C   0  0  0  0  0  0
  -21.4003   -6.5644   23.8220 C   0  0  0  0  0  0
  -21.3659   -5.6795   24.9180 C   0  0  0  0  0  0
  -21.6050   -4.3056   24.7223 C   0  0  0  0  0  0
  -21.8822   -3.8147   23.4345 C   0  0  0  0  0  0
  -21.9189   -4.6972   22.3406 C   0  0  0  0  0  0
  -22.7860  -13.5232   21.1856 C   0  0  0  0  0  0
  -22.1661   -4.2162   21.0983 F   0  0  0  0  0  0
  -21.5631   -3.4532   25.7733 F   0  0  0  0  0  0
  -30.0258  -13.3109   20.4326 N   0  0  0  0  0  0
  -26.3003  -12.9328   20.3350 N   0  0  0  0  0  0
  -25.9311  -11.6486   20.5759 N   0  0  0  0  0  0
  -22.0492  -12.8214   22.0400 N   0  0  0  0  0  0
  -25.4305  -15.1881   20.4093 N   0  0  0  0  0  0
  -31.8229  -14.6754   20.1218 O   0  0  0  0  0  0
  -21.6645   -6.8881   21.4249 O   0  0  0  0  0  0
  -22.3549  -14.5546   20.6720 O   0  0  0  0  0  0
  -24.6184  -31.8666   23.2092 C   0  0  0  0  0  0
  -25.9073  -32.4804   23.8394 C   0  0  1  0  0  0
  -27.2274  -27.4045   20.0879 C   0  0  0  0  0  0
  -25.5951  -33.8605   24.2338 N   0  0  0  0  0  0
  -23.4053  -30.4911   21.5515 C   0  0  2  0  0  0
  -24.8456  -28.9516   20.1156 C   0  0  0  0  0  0
  -22.7418  -29.4660   22.4997 C   0  0  0  0  0  0
  -18.0267  -28.1370   22.8486 C   0  0  0  0  0  0
  -24.1489  -36.7286   23.2640 C   0  0  0  0  0  0
  -25.9375  -30.8206   21.3660 C   0  0  0  0  0  0
  -26.0090  -29.4531   20.7107 C   0  0  0  0  0  0
  -27.1992  -28.6868   20.6941 C   0  0  0  0  0  0
  -26.0356  -26.9181   19.5011 C   0  0  0  0  0  0
  -24.8549  -27.6837   19.5114 C   0  0  0  0  0  0
  -23.6130  -29.8260   20.1656 C   0  0  0  0  0  0
  -25.4111  -36.3095   24.0346 C   0  0  1  0  0  0
  -20.5859  -28.3667   23.1310 C   0  0  2  0  0  0
  -20.6762  -26.9405   22.5410 C   0  0  0  0  0  0
  -19.5742  -26.6385   21.5206 C   0  0  0  0  0  0
  -18.1919  -26.7921   22.1611 C   0  0  0  0  0  0
  -19.1516  -28.8835   23.2891 C   0  0  0  0  0  0
  -18.9451  -30.1446   23.8892 C   0  0  0  0  0  0
  -17.6454  -30.6577   24.0559 C   0  0  0  0  0  0
  -25.9055  -34.9466   23.5133 C   0  0  0  0  0  0
  -16.5345  -29.9076   23.6332 C   0  0  0  0  0  0
  -16.7258  -28.6496   23.0347 C   0  0  0  0  0  0
  -26.4502  -31.6571   25.0717 C   0  0  0  0  0  0
  -25.3774  -31.3649   26.1466 C   0  0  0  0  0  0
  -27.0346  -30.3023   24.6083 C   0  0  0  0  0  0
  -27.6071  -32.4293   25.7486 C   0  0  0  0  0  0
  -27.5578  -37.1804   24.8471 C   0  0  0  0  0  0
  -21.4144  -29.3034   22.3725 N   0  0  0  0  0  0
  -26.4289  -37.3789   23.9423 N   0  0  0  0  0  0
  -24.6722  -31.0752   22.0997 N   0  0  0  0  0  0
  -23.4181  -28.8213   23.3056 O   0  0  0  0  0  0
  -28.4130  -26.6859   20.0974 O   0  0  0  0  0  0
  -26.5590  -34.8919   22.4677 O   0  0  0  0  0  0
  -23.5373  -32.1436   23.7472 O   0  0  0  0  0  0
  -29.1639  -19.6778   19.5869 C   0  0  0  0  0  0
  -29.6027  -18.3224   19.7750 C   0  0  0  0  0  0
  -29.1289  -20.4090   20.7500 C   0  0  0  0  0  0
  -29.9336  -18.0232   21.0758 C   0  0  0  0  0  0
  -28.8129  -21.8035   20.9676 C   0  0  0  0  0  0
  -28.6371  -22.8232   20.0898 C   0  0  0  0  0  0
  -28.3231  -24.2164   20.5252 C   0  0  0  0  0  0
  -30.5499  -16.7653   21.6583 C   0  0  0  0  0  0
  -28.4972  -25.3661   19.5006 C   0  0  0  0  0  0
  -30.0098  -15.4756   21.1957 N   0  0  0  0  0  0
  -27.9432  -24.4800   21.6717 O   0  0  0  0  0  0
  -29.6480  -19.4201   22.0987 S   0  0  0  0  0  0
  -31.4665  -12.4318   19.1137 H   0  0  0  0  0  0
  -30.3333  -11.3133   19.8178 H   0  0  0  0  0  0
  -29.7352  -11.7785   17.4270 H   0  0  0  0  0  0
  -29.6562  -13.4902   17.7562 H   0  0  0  0  0  0
  -27.8275  -11.3081   18.8145 H   0  0  0  0  0  0
  -27.3620  -12.6330   17.7848 H   0  0  0  0  0  0
  -27.7001  -14.2556   19.5723 H   0  0  0  0  0  0
  -28.6857  -11.9585   21.3319 H   0  0  0  0  0  0
  -28.4580  -13.5923   21.8694 H   0  0  0  0  0  0
  -25.2762   -9.5691   22.4758 H   0  0  0  0  0  0
  -24.0015   -7.4634   22.7470 H   0  0  0  0  0  0
  -21.0855   -8.8754   19.8944 H   0  0  0  0  0  0
  -22.3705  -10.9659   19.6152 H   0  0  0  0  0  0
  -21.1985   -7.6155   23.9724 H   0  0  0  0  0  0
  -21.1480   -6.0522   25.9086 H   0  0  0  0  0  0
  -22.0597   -2.7612   23.2832 H   0  0  0  0  0  0
  -22.4091  -11.9856   22.4762 H   0  0  0  0  0  0
  -21.1107  -13.1238   22.2592 H   0  0  0  0  0  0
  -24.6661  -15.8459   20.5211 H   0  0  0  0  0  0
  -26.2872  -15.6283   20.0959 H   0  0  0  0  0  0
  -26.7140  -32.5497   23.1150 H   0  0  0  0  0  0
  -25.0204  -33.9776   25.0557 H   0  0  0  0  0  0
  -22.6954  -31.3099   21.4153 H   0  0  0  0  0  0
  -23.3763  -35.9604   23.3294 H   0  0  0  0  0  0
  -24.3598  -36.8898   22.2056 H   0  0  0  0  0  0
  -23.7218  -37.6484   23.6648 H   0  0  0  0  0  0
  -26.0591  -31.5856   20.5982 H   0  0  0  0  0  0
  -26.8232  -30.8684   21.9884 H   0  0  0  0  0  0
  -28.0982  -29.0742   21.1533 H   0  0  0  0  0  0
  -25.9791  -25.9474   19.0349 H   0  0  0  0  0  0
  -23.9577  -27.2855   19.0570 H   0  0  0  0  0  0
  -23.7288  -30.6029   19.4094 H   0  0  0  0  0  0
  -22.7330  -29.2539   19.8666 H   0  0  0  0  0  0
  -25.1285  -36.1956   25.0839 H   0  0  0  0  0  0
  -20.9952  -28.3221   24.1431 H   0  0  0  0  0  0
  -20.5685  -26.2279   23.3598 H   0  0  0  0  0  0
  -21.6632  -26.7462   22.1197 H   0  0  0  0  0  0
  -19.6916  -25.6307   21.1217 H   0  0  0  0  0  0
  -19.6678  -27.3210   20.6746 H   0  0  0  0  0  0
  -17.4208  -26.6685   21.3991 H   0  0  0  0  0  0
  -18.0301  -26.0050   22.8996 H   0  0  0  0  0  0
  -19.7935  -30.7252   24.2254 H   0  0  0  0  0  0
  -17.5019  -31.6255   24.5165 H   0  0  0  0  0  0
  -15.5346  -30.2976   23.7667 H   0  0  0  0  0  0
  -15.8659  -28.0818   22.7050 H   0  0  0  0  0  0
  -24.5988  -30.6941   25.7819 H   0  0  0  0  0  0
  -24.8911  -32.2773   26.4918 H   0  0  0  0  0  0
  -25.8157  -30.8848   27.0226 H   0  0  0  0  0  0
  -26.2889  -29.6761   24.1171 H   0  0  0  0  0  0
  -27.4175  -29.7272   25.4526 H   0  0  0  0  0  0
  -27.8696  -30.4354   23.9201 H   0  0  0  0  0  0
  -27.2695  -33.3606   26.2044 H   0  0  0  0  0  0
  -28.3894  -32.6820   25.0318 H   0  0  0  0  0  0
  -28.0721  -31.8423   26.5416 H   0  0  0  0  0  0
  -28.2587  -38.0112   24.7545 H   0  0  0  0  0  0
  -28.1081  -36.2646   24.6261 H   0  0  0  0  0  0
  -27.2307  -37.1408   25.8877 H   0  0  0  0  0  0
  -20.9318  -29.8761   21.6943 H   0  0  0  0  0  0
  -26.0164  -38.2863   24.1420 H   0  0  0  0  0  0
  -28.9020  -20.0593   18.6097 H   0  0  0  0  0  0
  -29.6967  -17.6338   18.9466 H   0  0  0  0  0  0
  -28.7002  -22.0519   22.0150 H   0  0  0  0  0  0
  -28.7339  -22.6482   19.0283 H   0  0  0  0  0  0
  -30.4259  -16.7807   22.7423 H   0  0  0  0  0  0
  -31.6295  -16.8020   21.5020 H   0  0  0  0  0  0
  -27.8258  -25.2299   18.6555 H   0  0  0  0  0  0
  -29.5002  -25.2710   19.0850 H   0  0  0  0  0  0
  -29.0721  -15.2492   21.4910 H   0  0  0  0  0  0
  1 25  1  0  0  0
  1 30  2  0  0  0
  1 80  1  0  0  0
  2  3  1  0  0  0
  2 25  1  0  0  0
  2 83  1  0  0  0
  2 84  1  0  0  0
  3  4  1  0  0  0
  3 85  1  0  0  0
  3 86  1  0  0  0
  4  5  1  0  0  0
  4 87  1  0  0  0
  4 88  1  0  0  0
  5  6  1  0  0  0
  5 26  1  0  0  0
  5 89  1  0  0  0
  6 25  1  0  0  0
  6 90  1  0  0  0
  6 91  1  0  0  0
  7  8  2  0  0  0
  7 26  1  0  0  0
  7 29  1  0  0  0
  8  9  1  0  0  0
  8 22  1  0  0  0
  9 10  1  0  0  0
  9 27  2  0  0  0
 10 11  2  0  0  0
 10 15  1  0  0  0
 11 12  1  0  0  0
 11 92  1  0  0  0
 12 13  2  0  0  0
 12 93  1  0  0  0
 13 14  1  0  0  0
 13 31  1  0  0  0
 14 15  2  0  0  0
 14 94  1  0  0  0
 15 95  1  0  0  0
 16 17  2  0  0  0
 16 21  1  0  0  0
 16 31  1  0  0  0
 17 18  1  0  0  0
 17 96  1  0  0  0
 18 19  2  0  0  0
 18 97  1  0  0  0
 19 20  1  0  0  0
 19 24  1  0  0  0
 20 21  2  0  0  0
 20 98  1  0  0  0
 21 23  1  0  0  0
 22 28  1  0  0  0
 22 32  2  0  0  0
 26 27  1  0  0  0
 28 99  1  0  0  0
 28100  1  0  0  0
 29101  1  0  0  0
 29102  1  0  0  0
 33 34  1  0  0  0
 33 66  1  0  0  0
 33 70  2  0  0  0
 34 36  1  0  0  0
 34 59  1  0  0  0
 34103  1  0  0  0
 35 44  2  0  0  0
 35 45  1  0  0  0
 35 68  1  0  0  0
 36 56  1  0  0  0
 36104  1  0  0  0
 37 39  1  0  0  0
 37 47  1  0  0  0
 37 66  1  0  0  0
 37105  1  0  0  0
 38 43  2  0  0  0
 38 46  1  0  0  0
 38 47  1  0  0  0
 39 64  1  0  0  0
 39 67  2  0  0  0
 40 52  1  0  0  0
 40 53  2  0  0  0
 40 58  1  0  0  0
 41106  1  0  0  0
 41107  1  0  0  0
 41108  1  0  0  0
 41 48  1  0  0  0
 42 43  1  0  0  0
 42 66  1  0  0  0
 42109  1  0  0  0
 42110  1  0  0  0
 43 44  1  0  0  0
 44111  1  0  0  0
 45 46  2  0  0  0
 45112  1  0  0  0
 46113  1  0  0  0
 47114  1  0  0  0
 47115  1  0  0  0
 48 56  1  0  0  0
 48 65  1  0  0  0
 48116  1  0  0  0
 49 50  1  0  0  0
 49 53  1  0  0  0
 49 64  1  0  0  0
 49117  1  0  0  0
 50 51  1  0  0  0
 50118  1  0  0  0
 50119  1  0  0  0
 51 52  1  0  0  0
 51120  1  0  0  0
 51121  1  0  0  0
 52122  1  0  0  0
 52123  1  0  0  0
 53 54  1  0  0  0
 54 55  2  0  0  0
 54124  1  0  0  0
 55 57  1  0  0  0
 55125  1  0  0  0
 56 69  2  0  0  0
 57 58  2  0  0  0
 57126  1  0  0  0
 58127  1  0  0  0
 59 60  1  0  0  0
 59 61  1  0  0  0
 59 62  1  0  0  0
 60128  1  0  0  0
 60129  1  0  0  0
 60130  1  0  0  0
 61131  1  0  0  0
 61132  1  0  0  0
 61133  1  0  0  0
 62134  1  0  0  0
 62135  1  0  0  0
 62136  1  0  0  0
 63 65  1  0  0  0
 63137  1  0  0  0
 63138  1  0  0  0
 63139  1  0  0  0
 64140  1  0  0  0
 65141  1  0  0  0
 68 79  1  0  0  0
 71 72  1  0  0  0
 71 73  2  0  0  0
 71142  1  0  0  0
 72 74  2  0  0  0
 72143  1  0  0  0
 73 75  1  0  0  0
 73 82  1  0  0  0
 74 78  1  0  0  0
 74 82  1  0  0  0
 75 76  2  0  0  0
 75144  1  0  0  0
 76 77  1  0  0  0
 76145  1  0  0  0
 77 79  1  0  0  0
 77 81  2  0  0  0
 78 80  1  0  0  0
 78146  1  0  0  0
 78147  1  0  0  0
 79148  1  0  0  0
 79149  1  0  0  0
 80150  1  0  0  0
M  ISO  4   1 100  68 101  79 101  80 100
M  END
> <chiral flag>
0

> <version>
0

> <s_m_source_file>
/data/baiqing/PycharmProjects/Reinvent-master-3.2/result/LINK_invent/BTK/process_docking_weight1_custom_product_contain_oxygen_bond_distance_aromatic_linkinvent_7_9_3/rearranged_h_0118.sdf

> <i_m_source_file_index>
39

> <r_mmod_Potential_Energy-OPLS-2005>
-119.279579162598

> <r_mmod_Stretch_Energy-OPLS-2005>
39.5971183776855

> <r_mmod_Bend_Energy-OPLS-2005>
107.638198852539

> <r_mmod_Torsional_Energy-OPLS-2005>
186.934661865234

> <r_mmod_Improper_Torsional_Energy-OPLS-2005>
2.78605437278748

> <r_mmod_Van_der_Waal_Energy-OPLS-2005>
129.487396240234

> <r_mmod_Electrostatic_Energy-OPLS-2005>
-367.502136230469

> <r_mmod_Solvation_Energy-OPLS-2005>
-233.485870361328

> <b_mmod_Minimization_Converged-OPLS-2005>
0

> <r_mmod_RMS_Derivative-OPLS-2005>
1.43041729927063

$$$$
40
                    3D
 Structure written by MMmdl.
157166  0  0  1  0            999 V2000
  -30.6934  -14.5269   20.5575 C   0  0  0  0  0  0
  -30.4220  -12.3407   19.4267 C   0  0  0  0  0  0
  -29.4941  -12.5043   18.2061 C   0  0  0  0  0  0
  -28.0170  -12.3566   18.6220 C   0  0  0  0  0  0
  -27.6550  -13.2138   19.8653 C   0  0  2  0  0  0
  -28.6987  -13.0338   20.9893 C   0  0  0  0  0  0
  -25.2561  -13.8169   20.5682 C   0  0  0  0  0  0
  -24.1822  -13.0436   20.9173 C   0  0  0  0  0  0
  -24.6385  -11.6906   20.8732 C   0  0  0  0  0  0
  -23.9053  -10.4290   21.0403 C   0  0  0  0  0  0
  -24.3611   -9.4209   21.9175 C   0  0  0  0  0  0
  -23.6290   -8.2240   22.0748 C   0  0  0  0  0  0
  -22.4272   -8.0275   21.3544 C   0  0  0  0  0  0
  -21.9903   -9.0247   20.4644 C   0  0  0  0  0  0
  -22.7225  -10.2128   20.3050 C   0  0  0  0  0  0
  -21.6854   -6.0729   22.5276 C   0  0  0  0  0  0
  -21.4017   -6.5634   23.8204 C   0  0  0  0  0  0
  -21.3661   -5.6789   24.9171 C   0  0  0  0  0  0
  -21.6043   -4.3052   24.7223 C   0  0  0  0  0  0
  -21.8820   -3.8143   23.4344 C   0  0  0  0  0  0
  -21.9194   -4.6957   22.3402 C   0  0  0  0  0  0
  -22.7845  -13.5227   21.1846 C   0  0  0  0  0  0
  -22.1662   -4.2144   21.0979 F   0  0  0  0  0  0
  -21.5628   -3.4536   25.7735 F   0  0  0  0  0  0
  -30.0206  -13.3470   20.4248 N   0  0  0  0  0  0
  -26.2993  -12.9349   20.3329 N   0  0  0  0  0  0
  -25.9311  -11.6503   20.5747 N   0  0  0  0  0  0
  -22.0493  -12.8222   22.0412 N   0  0  0  0  0  0
  -25.4266  -15.1890   20.4090 N   0  0  0  0  0  0
  -31.8373  -14.6808   20.1218 O   0  0  0  0  0  0
  -21.6640   -6.8873   21.4237 O   0  0  0  0  0  0
  -22.3527  -14.5535   20.6700 O   0  0  0  0  0  0
  -24.6201  -31.8644   23.2073 C   0  0  0  0  0  0
  -25.9075  -32.4806   23.8375 C   0  0  1  0  0  0
  -27.2263  -27.3881   20.0867 C   0  0  0  0  0  0
  -25.5920  -33.8603   24.2328 N   0  0  0  0  0  0
  -23.4100  -30.4896   21.5491 C   0  0  2  0  0  0
  -24.8540  -28.9526   20.1106 C   0  0  0  0  0  0
  -22.7435  -29.4645   22.4961 C   0  0  0  0  0  0
  -18.0280  -28.1376   22.8489 C   0  0  0  0  0  0
  -24.1486  -36.7300   23.2650 C   0  0  0  0  0  0
  -25.9453  -30.8134   21.3684 C   0  0  0  0  0  0
  -26.0197  -29.4454   20.7113 C   0  0  0  0  0  0
  -27.2085  -28.6699   20.7000 C   0  0  0  0  0  0
  -26.0331  -26.9179   19.4926 C   0  0  0  0  0  0
  -24.8567  -27.6892   19.4984 C   0  0  0  0  0  0
  -23.6200  -29.8262   20.1626 C   0  0  0  0  0  0
  -25.4114  -36.3110   24.0349 C   0  0  1  0  0  0
  -20.5873  -28.3661   23.1306 C   0  0  2  0  0  0
  -20.6766  -26.9392   22.5413 C   0  0  0  0  0  0
  -19.5742  -26.6384   21.5210 C   0  0  0  0  0  0
  -18.1924  -26.7921   22.1626 C   0  0  0  0  0  0
  -19.1532  -28.8833   23.2890 C   0  0  0  0  0  0
  -18.9463  -30.1446   23.8895 C   0  0  0  0  0  0
  -17.6461  -30.6583   24.0557 C   0  0  0  0  0  0
  -25.9030  -34.9465   23.5130 C   0  0  0  0  0  0
  -16.5349  -29.9085   23.6323 C   0  0  0  0  0  0
  -16.7269  -28.6500   23.0349 C   0  0  0  0  0  0
  -26.4485  -31.6594   25.0716 C   0  0  0  0  0  0
  -25.3748  -31.3723   26.1468 C   0  0  0  0  0  0
  -27.0311  -30.3030   24.6114 C   0  0  0  0  0  0
  -27.6052  -32.4320   25.7488 C   0  0  0  0  0  0
  -27.5565  -37.1841   24.8490 C   0  0  0  0  0  0
  -21.4155  -29.3032   22.3713 N   0  0  0  0  0  0
  -26.4318  -37.3773   23.9377 N   0  0  0  0  0  0
  -24.6773  -31.0710   22.0996 N   0  0  0  0  0  0
  -23.4189  -28.8177   23.3003 O   0  0  0  0  0  0
  -28.3517  -26.5739   20.1112 O   0  0  0  0  0  0
  -26.5581  -34.8918   22.4689 O   0  0  0  0  0  0
  -23.5388  -32.1415   23.7449 O   0  0  0  0  0  0
  -29.6688  -18.3443   19.6039 C   0  0  0  0  0  0
  -29.3008  -19.6183   19.0990 C   0  0  0  0  0  0
  -29.9356  -19.3277   21.7918 C   0  0  0  0  0  0
  -30.0134  -18.1819   20.9621 C   0  0  0  0  0  0
  -29.2579  -20.7865   19.9146 C   0  0  0  0  0  0
  -29.5581  -20.6004   21.2920 C   0  0  0  0  0  0
  -28.8240  -24.4412   18.9423 C   0  0  0  0  0  0
  -28.5918  -25.7816   19.0044 C   0  0  0  0  0  0
  -29.0258  -23.7495   17.6159 C   0  0  0  0  0  0
  -28.8826  -23.3676   20.0344 C   0  0  0  0  0  0
  -29.1402  -22.2507   17.9069 C   0  0  0  0  0  0
  -30.5738  -16.8577   21.5349 C   0  0  0  0  0  0
  -28.9425  -22.0617   19.3406 N   0  0  0  0  0  0
  -30.0046  -15.5629   21.0903 N   0  0  0  0  0  0
  -29.5173  -21.6439   22.1562 F   0  0  0  0  0  0
  -31.4651  -12.4435   19.1220 H   0  0  0  0  0  0
  -30.3315  -11.3376   19.8467 H   0  0  0  0  0  0
  -29.7423  -11.7665   17.4415 H   0  0  0  0  0  0
  -29.6532  -13.4834   17.7508 H   0  0  0  0  0  0
  -27.8389  -11.3016   18.8365 H   0  0  0  0  0  0
  -27.3633  -12.6114   17.7867 H   0  0  0  0  0  0
  -27.6874  -14.2566   19.5474 H   0  0  0  0  0  0
  -28.6882  -12.0068   21.3583 H   0  0  0  0  0  0
  -28.4550  -13.6593   21.8494 H   0  0  0  0  0  0
  -25.2761   -9.5682   22.4742 H   0  0  0  0  0  0
  -24.0002   -7.4632   22.7466 H   0  0  0  0  0  0
  -21.0830   -8.8764   19.8954 H   0  0  0  0  0  0
  -22.3684  -10.9663   19.6155 H   0  0  0  0  0  0
  -21.2015   -7.6141   23.9706 H   0  0  0  0  0  0
  -21.1480   -6.0521   25.9072 H   0  0  0  0  0  0
  -22.0601   -2.7605   23.2845 H   0  0  0  0  0  0
  -22.4115  -11.9888   22.4805 H   0  0  0  0  0  0
  -21.1112  -13.1246   22.2622 H   0  0  0  0  0  0
  -24.6602  -15.8443   20.5194 H   0  0  0  0  0  0
  -26.2795  -15.6299   20.0879 H   0  0  0  0  0  0
  -26.7130  -32.5484   23.1116 H   0  0  0  0  0  0
  -25.0095  -33.9743   25.0494 H   0  0  0  0  0  0
  -22.7012  -31.3081   21.4109 H   0  0  0  0  0  0
  -23.3699  -35.9691   23.3454 H   0  0  0  0  0  0
  -24.3545  -36.8753   22.2032 H   0  0  0  0  0  0
  -23.7310  -37.6590   23.6544 H   0  0  0  0  0  0
  -26.0686  -31.5789   20.6011 H   0  0  0  0  0  0
  -26.8310  -30.8622   21.9910 H   0  0  0  0  0  0
  -28.1064  -29.0423   21.1734 H   0  0  0  0  0  0
  -25.9954  -25.9386   19.0365 H   0  0  0  0  0  0
  -23.9581  -27.3001   19.0401 H   0  0  0  0  0  0
  -23.7310  -30.6018   19.4038 H   0  0  0  0  0  0
  -22.7416  -29.2511   19.8658 H   0  0  0  0  0  0
  -25.1309  -36.2000   25.0848 H   0  0  0  0  0  0
  -20.9973  -28.3235   24.1425 H   0  0  0  0  0  0
  -20.5662  -26.2274   23.3607 H   0  0  0  0  0  0
  -21.6639  -26.7423   22.1213 H   0  0  0  0  0  0
  -19.6891  -25.6300   21.1232 H   0  0  0  0  0  0
  -19.6679  -27.3203   20.6747 H   0  0  0  0  0  0
  -17.4192  -26.6662   21.4033 H   0  0  0  0  0  0
  -18.0319  -26.0076   22.9035 H   0  0  0  0  0  0
  -19.7935  -30.7258   24.2275 H   0  0  0  0  0  0
  -17.5012  -31.6266   24.5161 H   0  0  0  0  0  0
  -15.5345  -30.2985   23.7649 H   0  0  0  0  0  0
  -15.8667  -28.0817   22.7070 H   0  0  0  0  0  0
  -24.5882  -30.7119   25.7806 H   0  0  0  0  0  0
  -24.8985  -32.2893   26.4942 H   0  0  0  0  0  0
  -25.8099  -30.8858   27.0205 H   0  0  0  0  0  0
  -26.2862  -29.6814   24.1130 H   0  0  0  0  0  0
  -27.4034  -29.7255   25.4586 H   0  0  0  0  0  0
  -27.8721  -30.4346   23.9301 H   0  0  0  0  0  0
  -27.2630  -33.3555   26.2165 H   0  0  0  0  0  0
  -28.3800  -32.6995   25.0294 H   0  0  0  0  0  0
  -28.0783  -31.8391   26.5325 H   0  0  0  0  0  0
  -28.2706  -38.0006   24.7373 H   0  0  0  0  0  0
  -28.0934  -36.2547   24.6546 H   0  0  0  0  0  0
  -27.2253  -37.1786   25.8885 H   0  0  0  0  0  0
  -20.9326  -29.8776   21.6948 H   0  0  0  0  0  0
  -26.0225  -38.2885   24.1256 H   0  0  0  0  0  0
  -29.7204  -17.5004   18.9293 H   0  0  0  0  0  0
  -29.0655  -19.6763   18.0469 H   0  0  0  0  0  0
  -30.1976  -19.2479   22.8370 H   0  0  0  0  0  0
  -28.5685  -26.3782   18.1021 H   0  0  0  0  0  0
  -29.9268  -24.1236   17.1283 H   0  0  0  0  0  0
  -28.1784  -23.9532   16.9594 H   0  0  0  0  0  0
  -28.0054  -23.4316   20.6804 H   0  0  0  0  0  0
  -29.7737  -23.5244   20.6422 H   0  0  0  0  0  0
  -30.1271  -21.8860   17.6140 H   0  0  0  0  0  0
  -28.3968  -21.6943   17.3330 H   0  0  0  0  0  0
  -30.4644  -16.8853   22.6196 H   0  0  0  0  0  0
  -31.6518  -16.8724   21.3641 H   0  0  0  0  0  0
  -29.0533  -15.3714   21.3653 H   0  0  0  0  0  0
  1 25  1  0  0  0
  1 30  2  0  0  0
  1 84  1  0  0  0
  2  3  1  0  0  0
  2 25  1  0  0  0
  2 86  1  0  0  0
  2 87  1  0  0  0
  3  4  1  0  0  0
  3 88  1  0  0  0
  3 89  1  0  0  0
  4  5  1  0  0  0
  4 90  1  0  0  0
  4 91  1  0  0  0
  5  6  1  0  0  0
  5 26  1  0  0  0
  5 92  1  0  0  0
  6 25  1  0  0  0
  6 93  1  0  0  0
  6 94  1  0  0  0
  7  8  2  0  0  0
  7 26  1  0  0  0
  7 29  1  0  0  0
  8  9  1  0  0  0
  8 22  1  0  0  0
  9 10  1  0  0  0
  9 27  2  0  0  0
 10 11  2  0  0  0
 10 15  1  0  0  0
 11 12  1  0  0  0
 11 95  1  0  0  0
 12 13  2  0  0  0
 12 96  1  0  0  0
 13 14  1  0  0  0
 13 31  1  0  0  0
 14 15  2  0  0  0
 14 97  1  0  0  0
 15 98  1  0  0  0
 16 17  2  0  0  0
 16 21  1  0  0  0
 16 31  1  0  0  0
 17 18  1  0  0  0
 17 99  1  0  0  0
 18 19  2  0  0  0
 18100  1  0  0  0
 19 20  1  0  0  0
 19 24  1  0  0  0
 20 21  2  0  0  0
 20101  1  0  0  0
 21 23  1  0  0  0
 22 28  1  0  0  0
 22 32  2  0  0  0
 26 27  1  0  0  0
 28102  1  0  0  0
 28103  1  0  0  0
 29104  1  0  0  0
 29105  1  0  0  0
 33 34  1  0  0  0
 33 66  1  0  0  0
 33 70  2  0  0  0
 34 36  1  0  0  0
 34 59  1  0  0  0
 34106  1  0  0  0
 35 44  2  0  0  0
 35 45  1  0  0  0
 35 68  1  0  0  0
 36 56  1  0  0  0
 36107  1  0  0  0
 37 39  1  0  0  0
 37 47  1  0  0  0
 37 66  1  0  0  0
 37108  1  0  0  0
 38 43  2  0  0  0
 38 46  1  0  0  0
 38 47  1  0  0  0
 39 64  1  0  0  0
 39 67  2  0  0  0
 40 52  1  0  0  0
 40 53  2  0  0  0
 40 58  1  0  0  0
 41109  1  0  0  0
 41110  1  0  0  0
 41111  1  0  0  0
 41 48  1  0  0  0
 42 43  1  0  0  0
 42 66  1  0  0  0
 42112  1  0  0  0
 42113  1  0  0  0
 43 44  1  0  0  0
 44114  1  0  0  0
 45 46  2  0  0  0
 45115  1  0  0  0
 46116  1  0  0  0
 47117  1  0  0  0
 47118  1  0  0  0
 48 56  1  0  0  0
 48 65  1  0  0  0
 48119  1  0  0  0
 49 50  1  0  0  0
 49 53  1  0  0  0
 49 64  1  0  0  0
 49120  1  0  0  0
 50 51  1  0  0  0
 50121  1  0  0  0
 50122  1  0  0  0
 51 52  1  0  0  0
 51123  1  0  0  0
 51124  1  0  0  0
 52125  1  0  0  0
 52126  1  0  0  0
 53 54  1  0  0  0
 54 55  2  0  0  0
 54127  1  0  0  0
 55 57  1  0  0  0
 55128  1  0  0  0
 56 69  2  0  0  0
 57 58  2  0  0  0
 57129  1  0  0  0
 58130  1  0  0  0
 59 60  1  0  0  0
 59 61  1  0  0  0
 59 62  1  0  0  0
 60131  1  0  0  0
 60132  1  0  0  0
 60133  1  0  0  0
 61134  1  0  0  0
 61135  1  0  0  0
 61136  1  0  0  0
 62137  1  0  0  0
 62138  1  0  0  0
 62139  1  0  0  0
 63 65  1  0  0  0
 63140  1  0  0  0
 63141  1  0  0  0
 63142  1  0  0  0
 64143  1  0  0  0
 65144  1  0  0  0
 68 78  1  0  0  0
 71 72  2  0  0  0
 71 74  1  0  0  0
 71145  1  0  0  0
 72 75  1  0  0  0
 72146  1  0  0  0
 73 74  2  0  0  0
 73 76  1  0  0  0
 73147  1  0  0  0
 74 82  1  0  0  0
 75 76  2  0  0  0
 75 83  1  0  0  0
 76 85  1  0  0  0
 77 78  2  0  0  0
 77 79  1  0  0  0
 77 80  1  0  0  0
 78148  1  0  0  0
 79 81  1  0  0  0
 79149  1  0  0  0
 79150  1  0  0  0
 80 83  1  0  0  0
 80151  1  0  0  0
 80152  1  0  0  0
 81 83  1  0  0  0
 81153  1  0  0  0
 81154  1  0  0  0
 82 84  1  0  0  0
 82155  1  0  0  0
 82156  1  0  0  0
 84157  1  0  0  0
M  ISO  4   1 100  68 101  78 101  84 100
M  END
> <chiral flag>
0

> <version>
0

> <s_m_source_file>
/data/baiqing/PycharmProjects/Reinvent-master-3.2/result/LINK_invent/BTK/process_docking_weight1_custom_product_contain_oxygen_bond_distance_aromatic_linkinvent_7_9_3/rearranged_h_0118.sdf

> <i_m_source_file_index>
40

> <r_mmod_Potential_Energy-OPLS-2005>
6.09014225006104

> <r_mmod_Stretch_Energy-OPLS-2005>
48.4463424682617

> <r_mmod_Bend_Energy-OPLS-2005>
150.44548034668

> <r_mmod_Torsional_Energy-OPLS-2005>
220.585952758789

> <r_mmod_Improper_Torsional_Energy-OPLS-2005>
4.59511137008667

> <r_mmod_Van_der_Waal_Energy-OPLS-2005>
152.312973022461

> <r_mmod_Electrostatic_Energy-OPLS-2005>
-368.636413574219

> <r_mmod_Solvation_Energy-OPLS-2005>
-224.71467590332

> <b_mmod_Minimization_Converged-OPLS-2005>
0

> <r_mmod_RMS_Derivative-OPLS-2005>
1.56280422210693

$$$$
41
                    3D
 Structure written by MMmdl.
151159  0  0  1  0            999 V2000
  -30.5225  -14.8850   20.4544 C   0  0  0  0  0  0
  -30.4543  -12.5475   19.4888 C   0  0  0  0  0  0
  -29.5258  -12.5371   18.2502 C   0  0  0  0  0  0
  -28.0538  -12.3307   18.6607 C   0  0  0  0  0  0
  -27.6418  -13.2351   19.8521 C   0  0  2  0  0  0
  -28.6857  -13.1934   20.9897 C   0  0  0  0  0  0
  -25.2515  -13.8186   20.5701 C   0  0  0  0  0  0
  -24.1802  -13.0434   20.9209 C   0  0  0  0  0  0
  -24.6394  -11.6913   20.8733 C   0  0  0  0  0  0
  -23.9061  -10.4290   21.0395 C   0  0  0  0  0  0
  -24.3616   -9.4209   21.9175 C   0  0  0  0  0  0
  -23.6293   -8.2242   22.0746 C   0  0  0  0  0  0
  -22.4273   -8.0274   21.3539 C   0  0  0  0  0  0
  -21.9903   -9.0249   20.4644 C   0  0  0  0  0  0
  -22.7228  -10.2131   20.3052 C   0  0  0  0  0  0
  -21.6853   -6.0731   22.5279 C   0  0  0  0  0  0
  -21.4015   -6.5636   23.8211 C   0  0  0  0  0  0
  -21.3662   -5.6785   24.9172 C   0  0  0  0  0  0
  -21.6051   -4.3049   24.7223 C   0  0  0  0  0  0
  -21.8816   -3.8139   23.4345 C   0  0  0  0  0  0
  -21.9195   -4.6959   22.3404 C   0  0  0  0  0  0
  -22.7824  -13.5225   21.1870 C   0  0  0  0  0  0
  -22.1660   -4.2138   21.0984 F   0  0  0  0  0  0
  -21.5635   -3.4539   25.7742 F   0  0  0  0  0  0
  -29.9743  -13.6079   20.4139 N   0  0  0  0  0  0
  -26.2938  -12.9396   20.3262 N   0  0  0  0  0  0
  -25.9326  -11.6533   20.5725 N   0  0  0  0  0  0
  -22.0464  -12.8220   22.0432 N   0  0  0  0  0  0
  -25.4202  -15.1914   20.4133 N   0  0  0  0  0  0
  -31.7019  -15.0329   20.1143 O   0  0  0  0  0  0
  -21.6644   -6.8871   21.4235 O   0  0  0  0  0  0
  -22.3513  -14.5532   20.6712 O   0  0  0  0  0  0
  -24.6417  -31.8469   23.1915 C   0  0  0  0  0  0
  -25.9201  -32.4713   23.8291 C   0  0  1  0  0  0
  -27.2195  -27.1551   20.1458 C   0  0  0  0  0  0
  -25.5959  -33.8517   24.2205 N   0  0  0  0  0  0
  -23.4442  -30.4673   21.5375 C   0  0  2  0  0  0
  -24.8942  -28.9017   20.1108 C   0  0  0  0  0  0
  -22.7552  -29.4562   22.4879 C   0  0  0  0  0  0
  -18.0299  -28.1391   22.8485 C   0  0  0  0  0  0
  -24.1490  -36.7252   23.2641 C   0  0  0  0  0  0
  -26.0002  -30.7258   21.3900 C   0  0  0  0  0  0
  -26.0723  -29.3397   20.7297 C   0  0  0  0  0  0
  -27.2346  -28.4820   20.7342 C   0  0  0  0  0  0
  -26.0141  -26.8214   19.4844 C   0  0  0  0  0  0
  -24.8768  -27.6542   19.4745 C   0  0  0  0  0  0
  -23.6689  -29.7999   20.1560 C   0  0  0  0  0  0
  -25.4119  -36.3035   24.0318 C   0  0  1  0  0  0
  -20.5914  -28.3712   23.1250 C   0  0  2  0  0  0
  -20.6780  -26.9414   22.5424 C   0  0  0  0  0  0
  -19.5761  -26.6374   21.5225 C   0  0  0  0  0  0
  -18.1937  -26.7938   22.1622 C   0  0  0  0  0  0
  -19.1558  -28.8871   23.2861 C   0  0  0  0  0  0
  -18.9475  -30.1470   23.8882 C   0  0  0  0  0  0
  -17.6472  -30.6589   24.0561 C   0  0  0  0  0  0
  -25.9074  -34.9415   23.5065 C   0  0  0  0  0  0
  -16.5360  -29.9080   23.6345 C   0  0  0  0  0  0
  -16.7284  -28.6500   23.0363 C   0  0  0  0  0  0
  -26.4521  -31.6571   25.0725 C   0  0  0  0  0  0
  -25.3705  -31.3786   26.1425 C   0  0  0  0  0  0
  -27.0363  -30.2954   24.6312 C   0  0  0  0  0  0
  -27.6073  -32.4318   25.7487 C   0  0  0  0  0  0
  -27.5585  -37.1762   24.8449 C   0  0  0  0  0  0
  -21.4248  -29.3044   22.3619 N   0  0  0  0  0  0
  -26.4273  -37.3759   23.9422 N   0  0  0  0  0  0
  -24.7150  -31.0337   22.0947 N   0  0  0  0  0  0
  -23.4202  -28.8119   23.3033 O   0  0  0  0  0  0
  -28.2661  -26.1649   20.2219 O   0  0  0  0  0  0
  -26.5662  -34.8910   22.4645 O   0  0  0  0  0  0
  -23.5540  -32.1340   23.7142 O   0  0  0  0  0  0
  -28.0794  -19.5210   20.9098 C   0  0  0  0  0  0
  -28.3420  -18.1077   21.0001 C   0  0  0  0  0  0
  -30.5314  -18.4597   20.2047 C   0  0  0  0  0  0
  -28.9953  -20.5160   20.4435 C   0  0  0  0  0  0
  -30.2678  -19.9037   20.1231 C   0  0  0  0  0  0
  -29.5694  -17.4765   20.6325 C   0  0  0  0  0  0
  -28.4575  -22.0221   20.3354 C   0  0  0  0  0  0
  -28.8831  -23.3645   20.2189 C   0  0  0  0  0  0
  -31.3893  -20.8023   19.6384 C   0  0  0  0  0  0
  -27.9202  -24.6723   19.9986 C   0  0  0  0  0  0
  -29.6542  -15.9566   20.7425 N   0  0  0  0  0  0
  -31.4871  -12.7193   19.1803 H   0  0  0  0  0  0
  -30.4501  -11.5753   19.9839 H   0  0  0  0  0  0
  -29.8341  -11.7576   17.5523 H   0  0  0  0  0  0
  -29.6248  -13.4817   17.7139 H   0  0  0  0  0  0
  -27.9303  -11.2818   18.9332 H   0  0  0  0  0  0
  -27.3952  -12.5035   17.8089 H   0  0  0  0  0  0
  -27.6252  -14.2521   19.4605 H   0  0  0  0  0  0
  -28.7559  -12.1911   21.4148 H   0  0  0  0  0  0
  -28.3921  -13.8496   21.8105 H   0  0  0  0  0  0
  -25.2761   -9.5696   22.4751 H   0  0  0  0  0  0
  -24.0006   -7.4637   22.7463 H   0  0  0  0  0  0
  -21.0828   -8.8756   19.8960 H   0  0  0  0  0  0
  -22.3663  -10.9667   19.6169 H   0  0  0  0  0  0
  -21.1995   -7.6143   23.9711 H   0  0  0  0  0  0
  -21.1493   -6.0519   25.9075 H   0  0  0  0  0  0
  -22.0596   -2.7600   23.2850 H   0  0  0  0  0  0
  -22.4080  -11.9898   22.4850 H   0  0  0  0  0  0
  -21.1083  -13.1247   22.2624 H   0  0  0  0  0  0
  -24.6471  -15.8392   20.5201 H   0  0  0  0  0  0
  -26.2505  -15.6283   20.0357 H   0  0  0  0  0  0
  -26.7274  -32.5323   23.1026 H   0  0  0  0  0  0
  -25.0073  -33.9641   25.0329 H   0  0  0  0  0  0
  -22.7461  -31.2934   21.3859 H   0  0  0  0  0  0
  -23.3767  -35.9568   23.3265 H   0  0  0  0  0  0
  -24.3596  -36.8917   22.2065 H   0  0  0  0  0  0
  -23.7213  -37.6426   23.6699 H   0  0  0  0  0  0
  -26.1561  -31.4834   20.6208 H   0  0  0  0  0  0
  -26.8707  -30.7733   22.0326 H   0  0  0  0  0  0
  -28.1267  -28.8113   21.2486 H   0  0  0  0  0  0
  -25.9041  -25.8728   18.9829 H   0  0  0  0  0  0
  -23.9784  -27.3113   18.9793 H   0  0  0  0  0  0
  -23.7995  -30.5767   19.4018 H   0  0  0  0  0  0
  -22.7849  -29.2384   19.8480 H   0  0  0  0  0  0
  -25.1300  -36.1857   25.0808 H   0  0  0  0  0  0
  -21.0007  -28.3301   24.1371 H   0  0  0  0  0  0
  -20.5656  -26.2328   23.3647 H   0  0  0  0  0  0
  -21.6648  -26.7407   22.1233 H   0  0  0  0  0  0
  -19.6918  -25.6279   21.1274 H   0  0  0  0  0  0
  -19.6711  -27.3173   20.6751 H   0  0  0  0  0  0
  -17.4213  -26.6707   21.4013 H   0  0  0  0  0  0
  -18.0307  -26.0071   22.9006 H   0  0  0  0  0  0
  -19.7945  -30.7298   24.2237 H   0  0  0  0  0  0
  -17.5018  -31.6275   24.5152 H   0  0  0  0  0  0
  -15.5359  -30.2975   23.7682 H   0  0  0  0  0  0
  -15.8682  -28.0815   22.7087 H   0  0  0  0  0  0
  -24.5902  -30.7103   25.7763 H   0  0  0  0  0  0
  -24.8872  -32.2975   26.4751 H   0  0  0  0  0  0
  -25.7988  -30.9041   27.0261 H   0  0  0  0  0  0
  -26.2973  -29.6689   24.1304 H   0  0  0  0  0  0
  -27.3933  -29.7252   25.4898 H   0  0  0  0  0  0
  -27.8907  -30.4165   23.9652 H   0  0  0  0  0  0
  -27.2691  -33.3638   26.2027 H   0  0  0  0  0  0
  -28.3897  -32.6839   25.0315 H   0  0  0  0  0  0
  -28.0726  -31.8460   26.5423 H   0  0  0  0  0  0
  -28.2555  -38.0107   24.7558 H   0  0  0  0  0  0
  -28.1124  -36.2640   24.6172 H   0  0  0  0  0  0
  -27.2330  -37.1283   25.8857 H   0  0  0  0  0  0
  -20.9446  -29.8749   21.6799 H   0  0  0  0  0  0
  -26.0134  -38.2813   24.1481 H   0  0  0  0  0  0
  -27.0946  -19.8485   21.2116 H   0  0  0  0  0  0
  -27.5366  -17.4859   21.3652 H   0  0  0  0  0  0
  -31.5100  -18.1000   19.9183 H   0  0  0  0  0  0
  -27.3768  -21.9930   20.3024 H   0  0  0  0  0  0
  -29.9430  -23.5736   20.2260 H   0  0  0  0  0  0
  -32.3293  -20.2574   19.5426 H   0  0  0  0  0  0
  -31.5511  -21.6205   20.3402 H   0  0  0  0  0  0
  -31.1443  -21.2267   18.6645 H   0  0  0  0  0  0
  -27.0050  -24.4610   20.5539 H   0  0  0  0  0  0
  -27.6493  -24.5928   18.9453 H   0  0  0  0  0  0
  -28.7778  -15.5630   21.0492 H   0  0  0  0  0  0
  1 25  1  0  0  0
  1 30  2  0  0  0
  1 81  1  0  0  0
  2  3  1  0  0  0
  2 25  1  0  0  0
  2 82  1  0  0  0
  2 83  1  0  0  0
  3  4  1  0  0  0
  3 84  1  0  0  0
  3 85  1  0  0  0
  4  5  1  0  0  0
  4 86  1  0  0  0
  4 87  1  0  0  0
  5  6  1  0  0  0
  5 26  1  0  0  0
  5 88  1  0  0  0
  6 25  1  0  0  0
  6 89  1  0  0  0
  6 90  1  0  0  0
  7  8  2  0  0  0
  7 26  1  0  0  0
  7 29  1  0  0  0
  8  9  1  0  0  0
  8 22  1  0  0  0
  9 10  1  0  0  0
  9 27  2  0  0  0
 10 11  2  0  0  0
 10 15  1  0  0  0
 11 12  1  0  0  0
 11 91  1  0  0  0
 12 13  2  0  0  0
 12 92  1  0  0  0
 13 14  1  0  0  0
 13 31  1  0  0  0
 14 15  2  0  0  0
 14 93  1  0  0  0
 15 94  1  0  0  0
 16 17  2  0  0  0
 16 21  1  0  0  0
 16 31  1  0  0  0
 17 18  1  0  0  0
 17 95  1  0  0  0
 18 19  2  0  0  0
 18 96  1  0  0  0
 19 20  1  0  0  0
 19 24  1  0  0  0
 20 21  2  0  0  0
 20 97  1  0  0  0
 21 23  1  0  0  0
 22 28  1  0  0  0
 22 32  2  0  0  0
 26 27  1  0  0  0
 28 98  1  0  0  0
 28 99  1  0  0  0
 29100  1  0  0  0
 29101  1  0  0  0
 33 34  1  0  0  0
 33 66  1  0  0  0
 33 70  2  0  0  0
 34 36  1  0  0  0
 34 59  1  0  0  0
 34102  1  0  0  0
 35 44  2  0  0  0
 35 45  1  0  0  0
 35 68  1  0  0  0
 36 56  1  0  0  0
 36103  1  0  0  0
 37 39  1  0  0  0
 37 47  1  0  0  0
 37 66  1  0  0  0
 37104  1  0  0  0
 38 43  2  0  0  0
 38 46  1  0  0  0
 38 47  1  0  0  0
 39 64  1  0  0  0
 39 67  2  0  0  0
 40 52  1  0  0  0
 40 53  2  0  0  0
 40 58  1  0  0  0
 41105  1  0  0  0
 41106  1  0  0  0
 41107  1  0  0  0
 41 48  1  0  0  0
 42 43  1  0  0  0
 42 66  1  0  0  0
 42108  1  0  0  0
 42109  1  0  0  0
 43 44  1  0  0  0
 44110  1  0  0  0
 45 46  2  0  0  0
 45111  1  0  0  0
 46112  1  0  0  0
 47113  1  0  0  0
 47114  1  0  0  0
 48 56  1  0  0  0
 48 65  1  0  0  0
 48115  1  0  0  0
 49 50  1  0  0  0
 49 53  1  0  0  0
 49 64  1  0  0  0
 49116  1  0  0  0
 50 51  1  0  0  0
 50117  1  0  0  0
 50118  1  0  0  0
 51 52  1  0  0  0
 51119  1  0  0  0
 51120  1  0  0  0
 52121  1  0  0  0
 52122  1  0  0  0
 53 54  1  0  0  0
 54 55  2  0  0  0
 54123  1  0  0  0
 55 57  1  0  0  0
 55124  1  0  0  0
 56 69  2  0  0  0
 57 58  2  0  0  0
 57125  1  0  0  0
 58126  1  0  0  0
 59 60  1  0  0  0
 59 61  1  0  0  0
 59 62  1  0  0  0
 60127  1  0  0  0
 60128  1  0  0  0
 60129  1  0  0  0
 61130  1  0  0  0
 61131  1  0  0  0
 61132  1  0  0  0
 62133  1  0  0  0
 62134  1  0  0  0
 62135  1  0  0  0
 63 65  1  0  0  0
 63136  1  0  0  0
 63137  1  0  0  0
 63138  1  0  0  0
 64139  1  0  0  0
 65140  1  0  0  0
 68 80  1  0  0  0
 71 72  2  0  0  0
 71 74  1  0  0  0
 71141  1  0  0  0
 72 76  1  0  0  0
 72142  1  0  0  0
 73 75  1  0  0  0
 73 76  2  0  0  0
 73143  1  0  0  0
 74 75  2  0  0  0
 74 77  1  0  0  0
 75 79  1  0  0  0
 76 81  1  0  0  0
 77 78  2  0  0  0
 77144  1  0  0  0
 78 80  1  0  0  0
 78145  1  0  0  0
 79146  1  0  0  0
 79147  1  0  0  0
 79148  1  0  0  0
 80149  1  0  0  0
 80150  1  0  0  0
 81151  1  0  0  0
M  ISO  4   1 100  68 101  80 101  81 100
M  END
> <chiral flag>
0

> <version>
0

> <s_m_source_file>
/data/baiqing/PycharmProjects/Reinvent-master-3.2/result/LINK_invent/BTK/process_docking_weight1_custom_product_contain_oxygen_bond_distance_aromatic_linkinvent_7_9_3/rearranged_h_0118.sdf

> <i_m_source_file_index>
41

> <r_mmod_Potential_Energy-OPLS-2005>
412.169677734375

> <r_mmod_Stretch_Energy-OPLS-2005>
204.592926025391

> <r_mmod_Bend_Energy-OPLS-2005>
267.703277587891

> <r_mmod_Torsional_Energy-OPLS-2005>
216.395874023438

> <r_mmod_Improper_Torsional_Energy-OPLS-2005>
4.14633846282959

> <r_mmod_Van_der_Waal_Energy-OPLS-2005>
134.448745727539

> <r_mmod_Electrostatic_Energy-OPLS-2005>
-371.309295654297

> <r_mmod_Solvation_Energy-OPLS-2005>
-208.348007202148

> <b_mmod_Minimization_Converged-OPLS-2005>
0

> <r_mmod_RMS_Derivative-OPLS-2005>
1.41228055953979

$$$$
42
                    3D
 Structure written by MMmdl.
155163  0  0  1  0            999 V2000
  -30.6288  -14.6920   20.4421 C   0  0  0  0  0  0
  -30.4355  -12.4147   19.4574 C   0  0  0  0  0  0
  -29.5061  -12.5005   18.2275 C   0  0  0  0  0  0
  -28.0325  -12.3256   18.6459 C   0  0  0  0  0  0
  -27.6429  -13.2214   19.8508 C   0  0  2  0  0  0
  -28.6959  -13.1359   20.9814 C   0  0  0  0  0  0
  -25.2366  -13.8032   20.5624 C   0  0  0  0  0  0
  -24.1726  -13.0303   20.9239 C   0  0  0  0  0  0
  -24.6372  -11.6822   20.8786 C   0  0  0  0  0  0
  -23.9064  -10.4217   21.0420 C   0  0  0  0  0  0
  -24.3620   -9.4154   21.9207 C   0  0  0  0  0  0
  -23.6279   -8.2211   22.0780 C   0  0  0  0  0  0
  -22.4267   -8.0261   21.3548 C   0  0  0  0  0  0
  -21.9890   -9.0232   20.4653 C   0  0  0  0  0  0
  -22.7235  -10.2095   20.3057 C   0  0  0  0  0  0
  -21.6841   -6.0707   22.5270 C   0  0  0  0  0  0
  -21.4020   -6.5625   23.8201 C   0  0  0  0  0  0
  -21.3657   -5.6790   24.9171 C   0  0  0  0  0  0
  -21.6040   -4.3045   24.7234 C   0  0  0  0  0  0
  -21.8814   -3.8125   23.4352 C   0  0  0  0  0  0
  -21.9191   -4.6935   22.3397 C   0  0  0  0  0  0
  -22.7757  -13.5119   21.1869 C   0  0  0  0  0  0
  -22.1660   -4.2124   21.0979 F   0  0  0  0  0  0
  -21.5623   -3.4534   25.7742 F   0  0  0  0  0  0
  -30.0091  -13.4672   20.4003 N   0  0  0  0  0  0
  -26.2909  -12.9329   20.3271 N   0  0  0  0  0  0
  -25.9313  -11.6476   20.5792 N   0  0  0  0  0  0
  -22.0397  -12.8165   22.0453 N   0  0  0  0  0  0
  -25.3665  -15.1705   20.3856 N   0  0  0  0  0  0
  -31.8160  -14.8167   20.1318 O   0  0  0  0  0  0
  -21.6630   -6.8860   21.4236 O   0  0  0  0  0  0
  -22.3459  -14.5425   20.6697 O   0  0  0  0  0  0
  -24.6275  -31.8589   23.2013 C   0  0  0  0  0  0
  -25.9117  -32.4771   23.8344 C   0  0  1  0  0  0
  -27.2352  -27.3228   20.1045 C   0  0  0  0  0  0
  -25.5923  -33.8568   24.2281 N   0  0  0  0  0  0
  -23.4204  -30.4825   21.5442 C   0  0  2  0  0  0
  -24.8684  -28.9355   20.1110 C   0  0  0  0  0  0
  -22.7478  -29.4620   22.4938 C   0  0  0  0  0  0
  -18.0295  -28.1370   22.8478 C   0  0  0  0  0  0
  -24.1494  -36.7304   23.2641 C   0  0  0  0  0  0
  -25.9623  -30.7878   21.3730 C   0  0  0  0  0  0
  -26.0374  -29.4157   20.7147 C   0  0  0  0  0  0
  -27.2224  -28.6205   20.7033 C   0  0  0  0  0  0
  -26.0363  -26.8907   19.4895 C   0  0  0  0  0  0
  -24.8686  -27.6772   19.4914 C   0  0  0  0  0  0
  -23.6347  -29.8143   20.1602 C   0  0  0  0  0  0
  -25.4114  -36.3080   24.0331 C   0  0  1  0  0  0
  -20.5892  -28.3677   23.1277 C   0  0  2  0  0  0
  -20.6780  -26.9399   22.5399 C   0  0  0  0  0  0
  -19.5753  -26.6374   21.5205 C   0  0  0  0  0  0
  -18.1938  -26.7913   22.1621 C   0  0  0  0  0  0
  -19.1541  -28.8842   23.2877 C   0  0  0  0  0  0
  -18.9473  -30.1440   23.8903 C   0  0  0  0  0  0
  -17.6463  -30.6567   24.0568 C   0  0  0  0  0  0
  -25.9041  -34.9443   23.5109 C   0  0  0  0  0  0
  -16.5361  -29.9062   23.6317 C   0  0  0  0  0  0
  -16.7277  -28.6480   23.0348 C   0  0  0  0  0  0
  -26.4495  -31.6576   25.0715 C   0  0  0  0  0  0
  -25.3723  -31.3742   26.1449 C   0  0  0  0  0  0
  -27.0335  -30.2991   24.6174 C   0  0  0  0  0  0
  -27.6052  -32.4317   25.7483 C   0  0  0  0  0  0
  -27.5564  -37.1826   24.8474 C   0  0  0  0  0  0
  -21.4193  -29.3032   22.3674 N   0  0  0  0  0  0
  -26.4310  -37.3748   23.9370 N   0  0  0  0  0  0
  -24.6891  -31.0596   22.0970 N   0  0  0  0  0  0
  -23.4206  -28.8161   23.3020 O   0  0  0  0  0  0
  -28.3677  -26.4901   20.1304 O   0  0  0  0  0  0
  -26.5607  -34.8911   22.4674 O   0  0  0  0  0  0
  -23.5437  -32.1396   23.7341 O   0  0  0  0  0  0
  -31.1740  -19.3891   20.6805 C   0  0  0  0  0  0
  -31.1342  -17.9604   20.7396 C   0  0  0  0  0  0
  -28.8922  -19.4609   19.9666 C   0  0  0  0  0  0
  -28.8421  -18.0349   20.0175 C   0  0  0  0  0  0
  -30.0540  -20.1920   20.3204 C   0  0  0  0  0  0
  -29.9544  -17.2327   20.4356 C   0  0  0  0  0  0
  -29.2507  -22.5312   20.1594 C   0  0  0  0  0  0
  -29.4098  -24.0982   20.1683 C   0  0  0  0  0  0
  -27.5377  -16.9537   18.1242 C   0  0  0  0  0  0
  -27.5416  -17.3824   19.6012 C   0  0  0  0  0  0
  -28.1642  -25.0340   19.9146 C   0  0  0  0  0  0
  -30.1844  -21.6283   20.3212 N   0  0  0  0  0  0
  -29.8007  -15.7752   20.6124 N   0  0  0  0  0  0
  -30.5170  -24.6203   20.3533 O   0  0  0  0  0  0
  -31.4776  -12.5318   19.1532 H   0  0  0  0  0  0
  -30.3679  -11.4339   19.9300 H   0  0  0  0  0  0
  -29.7777  -11.7397   17.4953 H   0  0  0  0  0  0
  -29.6365  -13.4634   17.7316 H   0  0  0  0  0  0
  -27.8876  -11.2769   18.9089 H   0  0  0  0  0  0
  -27.3738  -12.5212   17.7998 H   0  0  0  0  0  0
  -27.6374  -14.2428   19.4749 H   0  0  0  0  0  0
  -28.7161  -12.1365   21.4165 H   0  0  0  0  0  0
  -28.4401  -13.8137   21.7985 H   0  0  0  0  0  0
  -25.2761   -9.5631   22.4778 H   0  0  0  0  0  0
  -23.9965   -7.4603   22.7519 H   0  0  0  0  0  0
  -21.0809   -8.8765   19.8969 H   0  0  0  0  0  0
  -22.3707  -10.9644   19.6169 H   0  0  0  0  0  0
  -21.2030   -7.6130   23.9687 H   0  0  0  0  0  0
  -21.1481   -6.0529   25.9067 H   0  0  0  0  0  0
  -22.0596   -2.7588   23.2870 H   0  0  0  0  0  0
  -22.4025  -11.9840   22.4846 H   0  0  0  0  0  0
  -21.1002  -13.1200   22.2618 H   0  0  0  0  0  0
  -24.5587  -15.7814   20.4435 H   0  0  0  0  0  0
  -26.1430  -15.5907   19.8945 H   0  0  0  0  0  0
  -26.7187  -32.5442   23.1091 H   0  0  0  0  0  0
  -25.0070  -33.9698   25.0428 H   0  0  0  0  0  0
  -22.7137  -31.3033   21.3999 H   0  0  0  0  0  0
  -23.3693  -35.9713   23.3424 H   0  0  0  0  0  0
  -24.3557  -36.8791   22.2029 H   0  0  0  0  0  0
  -23.7350  -37.6591   23.6577 H   0  0  0  0  0  0
  -26.0947  -31.5498   20.6040 H   0  0  0  0  0  0
  -26.8427  -30.8369   22.0017 H   0  0  0  0  0  0
  -28.1195  -28.9859   21.1833 H   0  0  0  0  0  0
  -25.9683  -25.9310   19.0000 H   0  0  0  0  0  0
  -23.9715  -27.3024   19.0171 H   0  0  0  0  0  0
  -23.7510  -30.5890   19.4019 H   0  0  0  0  0  0
  -22.7550  -29.2416   19.8609 H   0  0  0  0  0  0
  -25.1308  -36.1949   25.0829 H   0  0  0  0  0  0
  -20.9993  -28.3255   24.1398 H   0  0  0  0  0  0
  -20.5666  -26.2296   23.3604 H   0  0  0  0  0  0
  -21.6655  -26.7417   22.1206 H   0  0  0  0  0  0
  -19.6917  -25.6290   21.1224 H   0  0  0  0  0  0
  -19.6677  -27.3190   20.6743 H   0  0  0  0  0  0
  -17.4205  -26.6654   21.4031 H   0  0  0  0  0  0
  -18.0342  -26.0047   22.9010 H   0  0  0  0  0  0
  -19.7949  -30.7254   24.2281 H   0  0  0  0  0  0
  -17.5020  -31.6248   24.5160 H   0  0  0  0  0  0
  -15.5360  -30.2975   23.7621 H   0  0  0  0  0  0
  -15.8680  -28.0791   22.7070 H   0  0  0  0  0  0
  -24.5889  -30.7093   25.7797 H   0  0  0  0  0  0
  -24.8930  -32.2929   26.4840 H   0  0  0  0  0  0
  -25.8043  -30.8948   27.0239 H   0  0  0  0  0  0
  -26.2913  -29.6740   24.1196 H   0  0  0  0  0  0
  -27.4033  -29.7246   25.4675 H   0  0  0  0  0  0
  -27.8782  -30.4275   23.9403 H   0  0  0  0  0  0
  -27.2642  -33.3594   26.2087 H   0  0  0  0  0  0
  -28.3835  -32.6914   25.0297 H   0  0  0  0  0  0
  -28.0747  -31.8436   26.5375 H   0  0  0  0  0  0
  -28.2669  -38.0028   24.7376 H   0  0  0  0  0  0
  -28.0975  -36.2560   24.6492 H   0  0  0  0  0  0
  -27.2266  -37.1719   25.8876 H   0  0  0  0  0  0
  -20.9379  -29.8775   21.6893 H   0  0  0  0  0  0
  -26.0207  -38.2857   24.1249 H   0  0  0  0  0  0
  -32.1028  -19.8791   20.9392 H   0  0  0  0  0  0
  -32.0237  -17.4309   21.0502 H   0  0  0  0  0  0
  -28.0051  -19.9878   19.6490 H   0  0  0  0  0  0
  -28.2214  -22.1995   20.0031 H   0  0  0  0  0  0
  -26.6223  -16.4200   17.8652 H   0  0  0  0  0  0
  -28.3756  -16.2976   17.8905 H   0  0  0  0  0  0
  -27.6024  -17.8194   17.4645 H   0  0  0  0  0  0
  -26.7031  -18.0539   19.7908 H   0  0  0  0  0  0
  -27.3941  -16.5397   20.2630 H   0  0  0  0  0  0
  -27.3500  -24.6878   20.5512 H   0  0  0  0  0  0
  -27.8523  -24.8727   18.8827 H   0  0  0  0  0  0
  -28.8484  -15.4854   20.7688 H   0  0  0  0  0  0
  1 25  1  0  0  0
  1 30  2  0  0  0
  1 83  1  0  0  0
  2  3  1  0  0  0
  2 25  1  0  0  0
  2 85  1  0  0  0
  2 86  1  0  0  0
  3  4  1  0  0  0
  3 87  1  0  0  0
  3 88  1  0  0  0
  4  5  1  0  0  0
  4 89  1  0  0  0
  4 90  1  0  0  0
  5  6  1  0  0  0
  5 26  1  0  0  0
  5 91  1  0  0  0
  6 25  1  0  0  0
  6 92  1  0  0  0
  6 93  1  0  0  0
  7  8  2  0  0  0
  7 26  1  0  0  0
  7 29  1  0  0  0
  8  9  1  0  0  0
  8 22  1  0  0  0
  9 10  1  0  0  0
  9 27  2  0  0  0
 10 11  2  0  0  0
 10 15  1  0  0  0
 11 12  1  0  0  0
 11 94  1  0  0  0
 12 13  2  0  0  0
 12 95  1  0  0  0
 13 14  1  0  0  0
 13 31  1  0  0  0
 14 15  2  0  0  0
 14 96  1  0  0  0
 15 97  1  0  0  0
 16 17  2  0  0  0
 16 21  1  0  0  0
 16 31  1  0  0  0
 17 18  1  0  0  0
 17 98  1  0  0  0
 18 19  2  0  0  0
 18 99  1  0  0  0
 19 20  1  0  0  0
 19 24  1  0  0  0
 20 21  2  0  0  0
 20100  1  0  0  0
 21 23  1  0  0  0
 22 28  1  0  0  0
 22 32  2  0  0  0
 26 27  1  0  0  0
 28101  1  0  0  0
 28102  1  0  0  0
 29103  1  0  0  0
 29104  1  0  0  0
 33 34  1  0  0  0
 33 66  1  0  0  0
 33 70  2  0  0  0
 34 36  1  0  0  0
 34 59  1  0  0  0
 34105  1  0  0  0
 35 44  2  0  0  0
 35 45  1  0  0  0
 35 68  1  0  0  0
 36 56  1  0  0  0
 36106  1  0  0  0
 37 39  1  0  0  0
 37 47  1  0  0  0
 37 66  1  0  0  0
 37107  1  0  0  0
 38 43  2  0  0  0
 38 46  1  0  0  0
 38 47  1  0  0  0
 39 64  1  0  0  0
 39 67  2  0  0  0
 40 52  1  0  0  0
 40 53  2  0  0  0
 40 58  1  0  0  0
 41108  1  0  0  0
 41109  1  0  0  0
 41110  1  0  0  0
 41 48  1  0  0  0
 42 43  1  0  0  0
 42 66  1  0  0  0
 42111  1  0  0  0
 42112  1  0  0  0
 43 44  1  0  0  0
 44113  1  0  0  0
 45 46  2  0  0  0
 45114  1  0  0  0
 46115  1  0  0  0
 47116  1  0  0  0
 47117  1  0  0  0
 48 56  1  0  0  0
 48 65  1  0  0  0
 48118  1  0  0  0
 49 50  1  0  0  0
 49 53  1  0  0  0
 49 64  1  0  0  0
 49119  1  0  0  0
 50 51  1  0  0  0
 50120  1  0  0  0
 50121  1  0  0  0
 51 52  1  0  0  0
 51122  1  0  0  0
 51123  1  0  0  0
 52124  1  0  0  0
 52125  1  0  0  0
 53 54  1  0  0  0
 54 55  2  0  0  0
 54126  1  0  0  0
 55 57  1  0  0  0
 55127  1  0  0  0
 56 69  2  0  0  0
 57 58  2  0  0  0
 57128  1  0  0  0
 58129  1  0  0  0
 59 60  1  0  0  0
 59 61  1  0  0  0
 59 62  1  0  0  0
 60130  1  0  0  0
 60131  1  0  0  0
 60132  1  0  0  0
 61133  1  0  0  0
 61134  1  0  0  0
 61135  1  0  0  0
 62136  1  0  0  0
 62137  1  0  0  0
 62138  1  0  0  0
 63 65  1  0  0  0
 63139  1  0  0  0
 63140  1  0  0  0
 63141  1  0  0  0
 64142  1  0  0  0
 65143  1  0  0  0
 68 81  1  0  0  0
 71 72  2  0  0  0
 71 75  1  0  0  0
 71144  1  0  0  0
 72 76  1  0  0  0
 72145  1  0  0  0
 73 74  1  0  0  0
 73 75  2  0  0  0
 73146  1  0  0  0
 74 76  2  0  0  0
 74 80  1  0  0  0
 75 82  1  0  0  0
 76 83  1  0  0  0
 77 78  1  0  0  0
 77 82  2  0  0  0
 77147  1  0  0  0
 78 81  1  0  0  0
 78 84  2  0  0  0
 79 80  1  0  0  0
 79148  1  0  0  0
 79149  1  0  0  0
 79150  1  0  0  0
 80151  1  0  0  0
 80152  1  0  0  0
 81153  1  0  0  0
 81154  1  0  0  0
 83155  1  0  0  0
M  ISO  4   1 100  68 101  81 101  83 100
M  END
> <chiral flag>
0

> <version>
0

> <s_m_source_file>
/data/baiqing/PycharmProjects/Reinvent-master-3.2/result/LINK_invent/BTK/process_docking_weight1_custom_product_contain_oxygen_bond_distance_aromatic_linkinvent_7_9_3/rearranged_h_0118.sdf

> <i_m_source_file_index>
42

> <r_mmod_Potential_Energy-OPLS-2005>
83.9403533935547

> <r_mmod_Stretch_Energy-OPLS-2005>
87.6664886474609

> <r_mmod_Bend_Energy-OPLS-2005>
145.499801635742

> <r_mmod_Torsional_Energy-OPLS-2005>
217.832672119141

> <r_mmod_Improper_Torsional_Energy-OPLS-2005>
6.93389129638672

> <r_mmod_Van_der_Waal_Energy-OPLS-2005>
142.509323120117

> <r_mmod_Electrostatic_Energy-OPLS-2005>
-327.260437011719

> <r_mmod_Solvation_Energy-OPLS-2005>
-248.226150512695

> <b_mmod_Minimization_Converged-OPLS-2005>
0

> <r_mmod_RMS_Derivative-OPLS-2005>
2.55238914489746

$$$$
43
                    3D
 Structure written by MMmdl.
166175  0  0  1  0            999 V2000
  -30.7055  -14.5123   20.5494 C   0  0  0  0  0  0
  -30.4176  -12.3255   19.4349 C   0  0  0  0  0  0
  -29.4947  -12.5015   18.2116 C   0  0  0  0  0  0
  -28.0170  -12.3584   18.6244 C   0  0  0  0  0  0
  -27.6564  -13.2141   19.8689 C   0  0  2  0  0  0
  -28.7001  -13.0351   20.9956 C   0  0  0  0  0  0
  -25.2568  -13.8175   20.5687 C   0  0  0  0  0  0
  -24.1829  -13.0443   20.9187 C   0  0  0  0  0  0
  -24.6391  -11.6911   20.8739 C   0  0  0  0  0  0
  -23.9061  -10.4294   21.0405 C   0  0  0  0  0  0
  -24.3617   -9.4210   21.9181 C   0  0  0  0  0  0
  -23.6293   -8.2244   22.0752 C   0  0  0  0  0  0
  -22.4275   -8.0281   21.3545 C   0  0  0  0  0  0
  -21.9907   -9.0253   20.4649 C   0  0  0  0  0  0
  -22.7232  -10.2133   20.3056 C   0  0  0  0  0  0
  -21.6852   -6.0735   22.5279 C   0  0  0  0  0  0
  -21.4013   -6.5640   23.8212 C   0  0  0  0  0  0
  -21.3661   -5.6793   24.9175 C   0  0  0  0  0  0
  -21.6045   -4.3055   24.7226 C   0  0  0  0  0  0
  -21.8819   -3.8147   23.4347 C   0  0  0  0  0  0
  -21.9193   -4.6963   22.3403 C   0  0  0  0  0  0
  -22.7853  -13.5237   21.1848 C   0  0  0  0  0  0
  -22.1661   -4.2150   21.0980 F   0  0  0  0  0  0
  -21.5630   -3.4540   25.7740 F   0  0  0  0  0  0
  -30.0260  -13.3354   20.4343 N   0  0  0  0  0  0
  -26.3001  -12.9355   20.3348 N   0  0  0  0  0  0
  -25.9321  -11.6511   20.5770 N   0  0  0  0  0  0
  -22.0493  -12.8230   22.0407 N   0  0  0  0  0  0
  -25.4286  -15.1894   20.4085 N   0  0  0  0  0  0
  -31.8447  -14.6433   20.0953 O   0  0  0  0  0  0
  -21.6641   -6.8876   21.4240 O   0  0  0  0  0  0
  -22.3540  -14.5546   20.6699 O   0  0  0  0  0  0
  -24.6179  -31.8660   23.2085 C   0  0  0  0  0  0
  -25.9059  -32.4815   23.8392 C   0  0  1  0  0  0
  -27.2290  -27.4132   20.1019 C   0  0  0  0  0  0
  -25.5907  -33.8614   24.2327 N   0  0  0  0  0  0
  -23.4079  -30.4899   21.5490 C   0  0  2  0  0  0
  -24.8565  -28.9580   20.1090 C   0  0  0  0  0  0
  -22.7432  -29.4649   22.4971 C   0  0  0  0  0  0
  -18.0274  -28.1381   22.8494 C   0  0  0  0  0  0
  -24.1484  -36.7311   23.2636 C   0  0  0  0  0  0
  -25.9397  -30.8268   21.3649 C   0  0  0  0  0  0
  -26.0194  -29.4615   20.7079 C   0  0  0  0  0  0
  -27.2137  -28.6973   20.7002 C   0  0  0  0  0  0
  -26.0529  -26.9349   19.4872 C   0  0  0  0  0  0
  -24.8695  -27.6955   19.4919 C   0  0  0  0  0  0
  -23.6178  -29.8246   20.1629 C   0  0  0  0  0  0
  -25.4102  -36.3108   24.0341 C   0  0  1  0  0  0
  -20.5870  -28.3671   23.1311 C   0  0  2  0  0  0
  -20.6763  -26.9402   22.5419 C   0  0  0  0  0  0
  -19.5743  -26.6383   21.5217 C   0  0  0  0  0  0
  -18.1920  -26.7928   22.1623 C   0  0  0  0  0  0
  -19.1526  -28.8842   23.2901 C   0  0  0  0  0  0
  -18.9450  -30.1446   23.8912 C   0  0  0  0  0  0
  -17.6451  -30.6585   24.0566 C   0  0  0  0  0  0
  -25.9035  -34.9475   23.5132 C   0  0  0  0  0  0
  -16.5341  -29.9086   23.6329 C   0  0  0  0  0  0
  -16.7261  -28.6503   23.0350 C   0  0  0  0  0  0
  -26.4480  -31.6597   25.0725 C   0  0  0  0  0  0
  -25.3749  -31.3717   26.1480 C   0  0  0  0  0  0
  -27.0294  -30.3026   24.6117 C   0  0  0  0  0  0
  -27.6071  -32.4311   25.7473 C   0  0  0  0  0  0
  -27.5591  -37.1791   24.8455 C   0  0  0  0  0  0
  -21.4155  -29.3034   22.3713 N   0  0  0  0  0  0
  -26.4283  -37.3800   23.9429 N   0  0  0  0  0  0
  -24.6735  -31.0749   22.0991 N   0  0  0  0  0  0
  -23.4189  -28.8188   23.3024 O   0  0  0  0  0  0
  -28.3297  -26.5797   20.1538 O   0  0  0  0  0  0
  -26.5598  -34.8929   22.4692 O   0  0  0  0  0  0
  -23.5363  -32.1413   23.7468 O   0  0  0  0  0  0
  -31.1651  -19.6821   21.4745 C   0  0  0  0  0  0
  -31.7617  -17.3171   21.3520 C   0  0  0  0  0  0
  -29.4424  -17.9956   21.1044 C   0  0  0  0  0  0
  -32.1508  -18.6666   21.5079 C   0  0  0  0  0  0
  -29.8017  -19.3661   21.2735 C   0  0  0  0  0  0
  -30.4109  -16.9530   21.1404 C   0  0  0  0  0  0
  -28.5970  -24.1895   20.6707 C   0  0  0  0  0  0
  -28.1290  -25.4393   20.9147 C   0  0  0  0  0  0
  -33.5963  -18.9766   21.7257 C   0  0  0  0  0  0
  -29.4751  -23.7268   19.5333 C   0  0  0  0  0  0
  -28.2663  -22.9723   21.5240 C   0  0  0  0  0  0
  -29.4777  -22.1842   19.6542 C   0  0  0  0  0  0
  -33.9945  -20.4352   21.9221 C   0  0  0  0  0  0
  -28.0453  -20.3379   22.7553 C   0  0  0  0  0  0
  -28.7057  -20.4592   21.3637 C   0  0  1  0  0  0
  -30.0013  -15.5722   21.0251 N   0  0  0  0  0  0
  -29.1653  -21.8709   21.0719 N   0  3  2  0  0  0
  -34.4792  -18.1144   21.7562 O   0  0  0  0  0  0
  -31.4634  -12.4112   19.1346 H   0  0  0  0  0  0
  -30.3130  -11.3231   19.8534 H   0  0  0  0  0  0
  -29.7407  -11.7663   17.4443 H   0  0  0  0  0  0
  -29.6585  -13.4818   17.7607 H   0  0  0  0  0  0
  -27.8351  -11.3036   18.8345 H   0  0  0  0  0  0
  -27.3652  -12.6163   17.7889 H   0  0  0  0  0  0
  -27.6879  -14.2561   19.5498 H   0  0  0  0  0  0
  -28.6836  -12.0108   21.3716 H   0  0  0  0  0  0
  -28.4623  -13.6669   21.8525 H   0  0  0  0  0  0
  -25.2763   -9.5689   22.4751 H   0  0  0  0  0  0
  -24.0008   -7.4636   22.7468 H   0  0  0  0  0  0
  -21.0837   -8.8770   19.8956 H   0  0  0  0  0  0
  -22.3690  -10.9670   19.6167 H   0  0  0  0  0  0
  -21.2002   -7.6148   23.9716 H   0  0  0  0  0  0
  -21.1482   -6.0523   25.9079 H   0  0  0  0  0  0
  -22.0598   -2.7608   23.2846 H   0  0  0  0  0  0
  -22.4106  -11.9892   22.4798 H   0  0  0  0  0  0
  -21.1111  -13.1257   22.2608 H   0  0  0  0  0  0
  -24.6597  -15.8429   20.5108 H   0  0  0  0  0  0
  -26.2749  -15.6250   20.0651 H   0  0  0  0  0  0
  -26.7132  -32.5520   23.1160 H   0  0  0  0  0  0
  -25.0064  -33.9771   25.0477 H   0  0  0  0  0  0
  -22.6978  -31.3076   21.4096 H   0  0  0  0  0  0
  -23.3761  -35.9626   23.3262 H   0  0  0  0  0  0
  -24.3597  -36.8963   22.2060 H   0  0  0  0  0  0
  -23.7207  -37.6494   23.6669 H   0  0  0  0  0  0
  -26.0554  -31.5947   20.5988 H   0  0  0  0  0  0
  -26.8260  -30.8783   21.9854 H   0  0  0  0  0  0
  -28.1083  -29.0723   21.1770 H   0  0  0  0  0  0
  -26.0489  -25.9574   19.0254 H   0  0  0  0  0  0
  -23.9759  -27.3021   19.0268 H   0  0  0  0  0  0
  -23.7244  -30.6007   19.4042 H   0  0  0  0  0  0
  -22.7421  -29.2444   19.8667 H   0  0  0  0  0  0
  -25.1272  -36.1966   25.0832 H   0  0  0  0  0  0
  -20.9961  -28.3236   24.1432 H   0  0  0  0  0  0
  -20.5658  -26.2282   23.3612 H   0  0  0  0  0  0
  -21.6633  -26.7438   22.1210 H   0  0  0  0  0  0
  -19.6899  -25.6298   21.1235 H   0  0  0  0  0  0
  -19.6681  -27.3206   20.6758 H   0  0  0  0  0  0
  -17.4191  -26.6687   21.4022 H   0  0  0  0  0  0
  -18.0311  -26.0064   22.9011 H   0  0  0  0  0  0
  -19.7925  -30.7261   24.2289 H   0  0  0  0  0  0
  -17.5003  -31.6268   24.5161 H   0  0  0  0  0  0
  -15.5340  -30.2990   23.7650 H   0  0  0  0  0  0
  -15.8660  -28.0825   22.7061 H   0  0  0  0  0  0
  -24.5910  -30.7076   25.7821 H   0  0  0  0  0  0
  -24.8958  -32.2877   26.4947 H   0  0  0  0  0  0
  -25.8103  -30.8868   27.0226 H   0  0  0  0  0  0
  -26.2826  -29.6790   24.1184 H   0  0  0  0  0  0
  -27.4056  -29.7268   25.4584 H   0  0  0  0  0  0
  -27.8676  -30.4322   23.9267 H   0  0  0  0  0  0
  -27.2711  -33.3618   26.2058 H   0  0  0  0  0  0
  -28.3869  -32.6855   25.0282 H   0  0  0  0  0  0
  -28.0747  -31.8424   26.5376 H   0  0  0  0  0  0
  -28.2570  -38.0130   24.7571 H   0  0  0  0  0  0
  -28.1128  -36.2669   24.6178 H   0  0  0  0  0  0
  -27.2331  -37.1314   25.8860 H   0  0  0  0  0  0
  -20.9318  -29.8764   21.6939 H   0  0  0  0  0  0
  -26.0173  -38.2869   24.1474 H   0  0  0  0  0  0
  -31.4560  -20.7097   21.6318 H   0  0  0  0  0  0
  -32.5247  -16.5552   21.4196 H   0  0  0  0  0  0
  -28.3987  -17.7425   20.9765 H   0  0  0  0  0  0
  -27.4909  -25.6382   21.7671 H   0  0  0  0  0  0
  -30.4795  -24.1266   19.6778 H   0  0  0  0  0  0
  -29.1041  -24.0701   18.5672 H   0  0  0  0  0  0
  -27.2241  -22.7115   21.3332 H   0  0  0  0  0  0
  -28.3806  -23.1839   22.5882 H   0  0  0  0  0  0
  -30.4243  -21.7437   19.3387 H   0  0  0  0  0  0
  -28.6970  -21.7726   19.0125 H   0  0  0  0  0  0
  -33.7290  -21.0246   21.0452 H   0  0  0  0  0  0
  -35.0701  -20.5165   22.0763 H   0  0  0  0  0  0
  -33.4933  -20.8502   22.7958 H   0  0  0  0  0  0
  -27.7075  -19.3175   22.9378 H   0  0  0  0  0  0
  -27.1650  -20.9700   22.8640 H   0  0  0  0  0  0
  -28.7459  -20.5932   23.5508 H   0  0  0  0  0  0
  -27.9411  -20.2123   20.6247 H   0  0  0  0  0  0
  -29.0390  -15.3708   21.2485 H   0  0  0  0  0  0
  -30.0220  -22.0061   21.5854 H   0  0  0  0  0  0
  1 25  1  0  0  0
  1 30  2  0  0  0
  1 86  1  0  0  0
  2  3  1  0  0  0
  2 25  1  0  0  0
  2 89  1  0  0  0
  2 90  1  0  0  0
  3  4  1  0  0  0
  3 91  1  0  0  0
  3 92  1  0  0  0
  4  5  1  0  0  0
  4 93  1  0  0  0
  4 94  1  0  0  0
  5  6  1  0  0  0
  5 26  1  0  0  0
  5 95  1  0  0  0
  6 25  1  0  0  0
  6 96  1  0  0  0
  6 97  1  0  0  0
  7  8  2  0  0  0
  7 26  1  0  0  0
  7 29  1  0  0  0
  8  9  1  0  0  0
  8 22  1  0  0  0
  9 10  1  0  0  0
  9 27  2  0  0  0
 10 11  2  0  0  0
 10 15  1  0  0  0
 11 12  1  0  0  0
 11 98  1  0  0  0
 12 13  2  0  0  0
 12 99  1  0  0  0
 13 14  1  0  0  0
 13 31  1  0  0  0
 14 15  2  0  0  0
 14100  1  0  0  0
 15101  1  0  0  0
 16 17  2  0  0  0
 16 21  1  0  0  0
 16 31  1  0  0  0
 17 18  1  0  0  0
 17102  1  0  0  0
 18 19  2  0  0  0
 18103  1  0  0  0
 19 20  1  0  0  0
 19 24  1  0  0  0
 20 21  2  0  0  0
 20104  1  0  0  0
 21 23  1  0  0  0
 22 28  1  0  0  0
 22 32  2  0  0  0
 26 27  1  0  0  0
 28105  1  0  0  0
 28106  1  0  0  0
 29107  1  0  0  0
 29108  1  0  0  0
 33 34  1  0  0  0
 33 66  1  0  0  0
 33 70  2  0  0  0
 34 36  1  0  0  0
 34 59  1  0  0  0
 34109  1  0  0  0
 35 44  2  0  0  0
 35 45  1  0  0  0
 35 68  1  0  0  0
 36 56  1  0  0  0
 36110  1  0  0  0
 37 39  1  0  0  0
 37 47  1  0  0  0
 37 66  1  0  0  0
 37111  1  0  0  0
 38 43  2  0  0  0
 38 46  1  0  0  0
 38 47  1  0  0  0
 39 64  1  0  0  0
 39 67  2  0  0  0
 40 52  1  0  0  0
 40 53  2  0  0  0
 40 58  1  0  0  0
 41112  1  0  0  0
 41113  1  0  0  0
 41114  1  0  0  0
 41 48  1  0  0  0
 42 43  1  0  0  0
 42 66  1  0  0  0
 42115  1  0  0  0
 42116  1  0  0  0
 43 44  1  0  0  0
 44117  1  0  0  0
 45 46  2  0  0  0
 45118  1  0  0  0
 46119  1  0  0  0
 47120  1  0  0  0
 47121  1  0  0  0
 48 56  1  0  0  0
 48 65  1  0  0  0
 48122  1  0  0  0
 49 50  1  0  0  0
 49 53  1  0  0  0
 49 64  1  0  0  0
 49123  1  0  0  0
 50 51  1  0  0  0
 50124  1  0  0  0
 50125  1  0  0  0
 51 52  1  0  0  0
 51126  1  0  0  0
 51127  1  0  0  0
 52128  1  0  0  0
 52129  1  0  0  0
 53 54  1  0  0  0
 54 55  2  0  0  0
 54130  1  0  0  0
 55 57  1  0  0  0
 55131  1  0  0  0
 56 69  2  0  0  0
 57 58  2  0  0  0
 57132  1  0  0  0
 58133  1  0  0  0
 59 60  1  0  0  0
 59 61  1  0  0  0
 59 62  1  0  0  0
 60134  1  0  0  0
 60135  1  0  0  0
 60136  1  0  0  0
 61137  1  0  0  0
 61138  1  0  0  0
 61139  1  0  0  0
 62140  1  0  0  0
 62141  1  0  0  0
 62142  1  0  0  0
 63 65  1  0  0  0
 63143  1  0  0  0
 63144  1  0  0  0
 63145  1  0  0  0
 64146  1  0  0  0
 65147  1  0  0  0
 68 78  1  0  0  0
 71 74  2  0  0  0
 71 75  1  0  0  0
 71148  1  0  0  0
 72 74  1  0  0  0
 72 76  2  0  0  0
 72149  1  0  0  0
 73 75  2  0  0  0
 73 76  1  0  0  0
 73150  1  0  0  0
 74 79  1  0  0  0
 75 85  1  0  0  0
 76 86  1  0  0  0
 77 78  2  0  0  0
 77 80  1  0  0  0
 77 81  1  0  0  0
 78151  1  0  0  0
 79 83  1  0  0  0
 79 88  2  0  0  0
 80 82  1  0  0  0
 80152  1  0  0  0
 80153  1  0  0  0
 81154  1  0  0  0
 81155  1  0  0  0
 81 87  1  0  0  0
 82 87  1  0  0  0
 82156  1  0  0  0
 82157  1  0  0  0
 83158  1  0  0  0
 83159  1  0  0  0
 83160  1  0  0  0
 84161  1  0  0  0
 84162  1  0  0  0
 84163  1  0  0  0
 84 85  1  0  0  0
 85 87  1  0  0  0
 85164  1  0  0  0
 86165  1  0  0  0
 87166  1  0  0  0
M  CHG  1  87   1
M  ISO  4   1 100  68 101  78 101  86 100
M  END
> <chiral flag>
0

> <version>
0

> <s_m_source_file>
/data/baiqing/PycharmProjects/Reinvent-master-3.2/result/LINK_invent/BTK/process_docking_weight1_custom_product_contain_oxygen_bond_distance_aromatic_linkinvent_7_9_3/rearranged_h_0118.sdf

> <i_m_source_file_index>
43

> <r_mmod_Potential_Energy-OPLS-2005>
-116.756340026855

> <r_mmod_Stretch_Energy-OPLS-2005>
47.9977340698242

> <r_mmod_Bend_Energy-OPLS-2005>
130.138473510742

> <r_mmod_Torsional_Energy-OPLS-2005>
280.612213134766

> <r_mmod_Improper_Torsional_Energy-OPLS-2005>
4.4656925201416

> <r_mmod_Van_der_Waal_Energy-OPLS-2005>
154.336624145508

> <r_mmod_Electrostatic_Energy-OPLS-2005>
-287.794097900391

> <r_mmod_Solvation_Energy-OPLS-2005>
-467.731750488281

> <b_mmod_Minimization_Converged-OPLS-2005>
0

> <r_mmod_RMS_Derivative-OPLS-2005>
0.563422560691833

$$$$
44
                    3D
 Structure written by MMmdl.
160168  0  0  1  0            999 V2000
  -30.7110  -14.4651   20.6062 C   0  0  0  0  0  0
  -30.4217  -12.3168   19.4180 C   0  0  0  0  0  0
  -29.4935  -12.5186   18.2040 C   0  0  0  0  0  0
  -28.0148  -12.3751   18.6150 C   0  0  0  0  0  0
  -27.6608  -13.2083   19.8759 C   0  0  2  0  0  0
  -28.7015  -12.9863   20.9954 C   0  0  0  0  0  0
  -25.2579  -13.8162   20.5664 C   0  0  0  0  0  0
  -24.1834  -13.0433   20.9160 C   0  0  0  0  0  0
  -24.6393  -11.6900   20.8730 C   0  0  0  0  0  0
  -23.9061  -10.4291   21.0404 C   0  0  0  0  0  0
  -24.3618   -9.4213   21.9184 C   0  0  0  0  0  0
  -23.6292   -8.2250   22.0766 C   0  0  0  0  0  0
  -22.4272   -8.0288   21.3555 C   0  0  0  0  0  0
  -21.9907   -9.0258   20.4654 C   0  0  0  0  0  0
  -22.7235  -10.2134   20.3056 C   0  0  0  0  0  0
  -21.6850   -6.0737   22.5282 C   0  0  0  0  0  0
  -21.4011   -6.5640   23.8215 C   0  0  0  0  0  0
  -21.3659   -5.6797   24.9179 C   0  0  0  0  0  0
  -21.6045   -4.3060   24.7228 C   0  0  0  0  0  0
  -21.8817   -3.8151   23.4347 C   0  0  0  0  0  0
  -21.9190   -4.6966   22.3403 C   0  0  0  0  0  0
  -22.7859  -13.5238   21.1828 C   0  0  0  0  0  0
  -22.1662   -4.2150   21.0980 F   0  0  0  0  0  0
  -21.5629   -3.4548   25.7742 F   0  0  0  0  0  0
  -30.0308  -13.2971   20.4435 N   0  0  0  0  0  0
  -26.3017  -12.9334   20.3357 N   0  0  0  0  0  0
  -25.9319  -11.6490   20.5751 N   0  0  0  0  0  0
  -22.0501  -12.8235   22.0385 N   0  0  0  0  0  0
  -25.4289  -15.1883   20.4063 N   0  0  0  0  0  0
  -31.8346  -14.6495   20.1276 O   0  0  0  0  0  0
  -21.6637   -6.8882   21.4244 O   0  0  0  0  0  0
  -22.3546  -14.5547   20.6680 O   0  0  0  0  0  0
  -24.6160  -31.8685   23.2124 C   0  0  0  0  0  0
  -25.9050  -32.4817   23.8416 C   0  0  1  0  0  0
  -27.2254  -27.4163   20.0911 C   0  0  0  0  0  0
  -25.5918  -33.8611   24.2347 N   0  0  0  0  0  0
  -23.4050  -30.4964   21.5512 C   0  0  2  0  0  0
  -24.8495  -28.9721   20.1075 C   0  0  0  0  0  0
  -22.7427  -29.4652   22.4948 C   0  0  0  0  0  0
  -18.0286  -28.1364   22.8461 C   0  0  0  0  0  0
  -24.1501  -36.7309   23.2632 C   0  0  0  0  0  0
  -25.9382  -30.8287   21.3721 C   0  0  0  0  0  0
  -26.0134  -29.4655   20.7114 C   0  0  0  0  0  0
  -27.2017  -28.6947   20.7021 C   0  0  0  0  0  0
  -26.0407  -26.9614   19.4576 C   0  0  0  0  0  0
  -24.8595  -27.7201   19.4771 C   0  0  0  0  0  0
  -23.6153  -29.8420   20.1615 C   0  0  0  0  0  0
  -25.4113  -36.3090   24.0338 C   0  0  1  0  0  0
  -20.5868  -28.3638   23.1299 C   0  0  2  0  0  0
  -20.6766  -26.9373   22.5400 C   0  0  0  0  0  0
  -19.5749  -26.6364   21.5187 C   0  0  0  0  0  0
  -18.1924  -26.7907   22.1599 C   0  0  0  0  0  0
  -19.1532  -28.8815   23.2876 C   0  0  0  0  0  0
  -18.9461  -30.1422   23.8889 C   0  0  0  0  0  0
  -17.6458  -30.6557   24.0551 C   0  0  0  0  0  0
  -25.9040  -34.9459   23.5129 C   0  0  0  0  0  0
  -16.5346  -29.9062   23.6316 C   0  0  0  0  0  0
  -16.7271  -28.6485   23.0319 C   0  0  0  0  0  0
  -26.4480  -31.6594   25.0736 C   0  0  0  0  0  0
  -25.3740  -31.3708   26.1479 C   0  0  0  0  0  0
  -27.0317  -30.3037   24.6115 C   0  0  0  0  0  0
  -27.6056  -32.4310   25.7498 C   0  0  0  0  0  0
  -27.5588  -37.1809   24.8462 C   0  0  0  0  0  0
  -21.4153  -29.3019   22.3711 N   0  0  0  0  0  0
  -26.4303  -37.3772   23.9405 N   0  0  0  0  0  0
  -24.6710  -31.0788   22.1032 N   0  0  0  0  0  0
  -23.4197  -28.8161   23.2961 O   0  0  0  0  0  0
  -28.3726  -26.6338   20.1426 O   0  0  0  0  0  0
  -26.5584  -34.8904   22.4681 O   0  0  0  0  0  0
  -23.5344  -32.1448   23.7506 O   0  0  0  0  0  0
  -31.3939  -19.4023   22.0729 C   0  0  0  0  0  0
  -29.7265  -17.9170   21.1026 C   0  0  0  0  0  0
  -31.6983  -16.9799   22.1807 C   0  0  0  0  0  0
  -30.1771  -19.2369   21.3733 C   0  0  0  0  0  0
  -32.1481  -18.2811   22.4801 C   0  0  0  0  0  0
  -30.4913  -16.7835   21.4769 C   0  0  0  0  0  0
  -29.3667  -20.4001   20.9270 C   0  0  0  0  0  0
  -29.5807  -21.7162   21.1648 C   0  0  0  0  0  0
  -34.6639  -18.3510   22.3004 C   0  0  0  0  0  0
  -33.4518  -18.4673   23.2312 C   0  0  0  0  0  0
  -28.6508  -22.8125   20.6498 C   0  0  0  0  0  0
  -29.2220  -24.2581   20.5815 C   0  0  0  0  0  0
  -28.1718  -25.2145   19.9626 C   0  0  0  0  0  0
  -30.0197  -15.4646   21.1946 N   0  0  0  0  0  0
  -31.4655  -12.4188   19.1165 H   0  0  0  0  0  0
  -30.3249  -11.3043   19.8136 H   0  0  0  0  0  0
  -29.7372  -11.8026   17.4184 H   0  0  0  0  0  0
  -29.6593  -13.5091   17.7773 H   0  0  0  0  0  0
  -27.8213  -11.3179   18.8007 H   0  0  0  0  0  0
  -27.3661  -12.6607   17.7859 H   0  0  0  0  0  0
  -27.7060  -14.2576   19.5838 H   0  0  0  0  0  0
  -28.6789  -11.9488   21.3331 H   0  0  0  0  0  0
  -28.4608  -13.5835   21.8766 H   0  0  0  0  0  0
  -25.2767   -9.5683   22.4749 H   0  0  0  0  0  0
  -24.0000   -7.4642   22.7492 H   0  0  0  0  0  0
  -21.0840   -8.8775   19.8962 H   0  0  0  0  0  0
  -22.3702  -10.9670   19.6163 H   0  0  0  0  0  0
  -21.2008   -7.6148   23.9717 H   0  0  0  0  0  0
  -21.1482   -6.0529   25.9079 H   0  0  0  0  0  0
  -22.0594   -2.7613   23.2850 H   0  0  0  0  0  0
  -22.4115  -11.9884   22.4754 H   0  0  0  0  0  0
  -21.1128  -13.1274   22.2612 H   0  0  0  0  0  0
  -24.6591  -15.8409   20.5089 H   0  0  0  0  0  0
  -26.2774  -15.6283   20.0727 H   0  0  0  0  0  0
  -26.7118  -32.5530   23.1176 H   0  0  0  0  0  0
  -25.0097  -33.9780   25.0511 H   0  0  0  0  0  0
  -22.6924  -31.3140   21.4158 H   0  0  0  0  0  0
  -23.3747  -35.9659   23.3295 H   0  0  0  0  0  0
  -24.3602  -36.8920   22.2050 H   0  0  0  0  0  0
  -23.7274  -37.6517   23.6656 H   0  0  0  0  0  0
  -26.0608  -31.6012   20.6106 H   0  0  0  0  0  0
  -26.8228  -30.8725   21.9963 H   0  0  0  0  0  0
  -28.0932  -29.0637   21.1892 H   0  0  0  0  0  0
  -25.9983  -26.0139   18.9394 H   0  0  0  0  0  0
  -23.9685  -27.3409   18.9955 H   0  0  0  0  0  0
  -23.7285  -30.6242   19.4093 H   0  0  0  0  0  0
  -22.7398  -29.2665   19.8573 H   0  0  0  0  0  0
  -25.1290  -36.1956   25.0833 H   0  0  0  0  0  0
  -20.9962  -28.3203   24.1422 H   0  0  0  0  0  0
  -20.5655  -26.2242   23.3586 H   0  0  0  0  0  0
  -21.6637  -26.7412   22.1200 H   0  0  0  0  0  0
  -19.6911  -25.6282   21.1208 H   0  0  0  0  0  0
  -19.6697  -27.3182   20.6724 H   0  0  0  0  0  0
  -17.4197  -26.6630   21.4008 H   0  0  0  0  0  0
  -18.0324  -26.0065   22.9013 H   0  0  0  0  0  0
  -19.7946  -30.7213   24.2263 H   0  0  0  0  0  0
  -17.5028  -31.6255   24.5130 H   0  0  0  0  0  0
  -15.5349  -30.2947   23.7662 H   0  0  0  0  0  0
  -15.8675  -28.0819   22.7007 H   0  0  0  0  0  0
  -24.5912  -30.7061   25.7815 H   0  0  0  0  0  0
  -24.8929  -32.2869   26.4919 H   0  0  0  0  0  0
  -25.8075  -30.8883   27.0249 H   0  0  0  0  0  0
  -26.2873  -29.6789   24.1164 H   0  0  0  0  0  0
  -27.4083  -29.7269   25.4570 H   0  0  0  0  0  0
  -27.8714  -30.4343   23.9278 H   0  0  0  0  0  0
  -27.2683  -33.3610   26.2084 H   0  0  0  0  0  0
  -28.3864  -32.6865   25.0326 H   0  0  0  0  0  0
  -28.0725  -31.8428   26.5410 H   0  0  0  0  0  0
  -28.2577  -38.0131   24.7505 H   0  0  0  0  0  0
  -28.1109  -36.2653   24.6282 H   0  0  0  0  0  0
  -27.2306  -37.1437   25.8865 H   0  0  0  0  0  0
  -20.9297  -29.8816   21.7013 H   0  0  0  0  0  0
  -26.0188  -38.2844   24.1411 H   0  0  0  0  0  0
  -31.7632  -20.3918   22.3005 H   0  0  0  0  0  0
  -28.7911  -17.7759   20.5794 H   0  0  0  0  0  0
  -32.2875  -16.1313   22.4982 H   0  0  0  0  0  0
  -28.4963  -20.1450   20.3376 H   0  0  0  0  0  0
  -30.4216  -22.0449   21.7593 H   0  0  0  0  0  0
  -35.5934  -18.4714   22.8558 H   0  0  0  0  0  0
  -34.6368  -19.1135   21.5207 H   0  0  0  0  0  0
  -34.6932  -17.3761   21.8124 H   0  0  0  0  0  0
  -33.5180  -17.7181   24.0218 H   0  0  0  0  0  0
  -33.4540  -19.4372   23.7309 H   0  0  0  0  0  0
  -27.7744  -22.8219   21.2999 H   0  0  0  0  0  0
  -28.2915  -22.5156   19.6632 H   0  0  0  0  0  0
  -30.1425  -24.2849   19.9976 H   0  0  0  0  0  0
  -29.4771  -24.5950   21.5871 H   0  0  0  0  0  0
  -27.2208  -24.9295   20.4156 H   0  0  0  0  0  0
  -28.0908  -25.0120   18.8926 H   0  0  0  0  0  0
  -29.0477  -15.2766   21.3869 H   0  0  0  0  0  0
  1 25  1  0  0  0
  1 30  2  0  0  0
  1 84  1  0  0  0
  2  3  1  0  0  0
  2 25  1  0  0  0
  2 85  1  0  0  0
  2 86  1  0  0  0
  3  4  1  0  0  0
  3 87  1  0  0  0
  3 88  1  0  0  0
  4  5  1  0  0  0
  4 89  1  0  0  0
  4 90  1  0  0  0
  5  6  1  0  0  0
  5 26  1  0  0  0
  5 91  1  0  0  0
  6 25  1  0  0  0
  6 92  1  0  0  0
  6 93  1  0  0  0
  7  8  2  0  0  0
  7 26  1  0  0  0
  7 29  1  0  0  0
  8  9  1  0  0  0
  8 22  1  0  0  0
  9 10  1  0  0  0
  9 27  2  0  0  0
 10 11  2  0  0  0
 10 15  1  0  0  0
 11 12  1  0  0  0
 11 94  1  0  0  0
 12 13  2  0  0  0
 12 95  1  0  0  0
 13 14  1  0  0  0
 13 31  1  0  0  0
 14 15  2  0  0  0
 14 96  1  0  0  0
 15 97  1  0  0  0
 16 17  2  0  0  0
 16 21  1  0  0  0
 16 31  1  0  0  0
 17 18  1  0  0  0
 17 98  1  0  0  0
 18 19  2  0  0  0
 18 99  1  0  0  0
 19 20  1  0  0  0
 19 24  1  0  0  0
 20 21  2  0  0  0
 20100  1  0  0  0
 21 23  1  0  0  0
 22 28  1  0  0  0
 22 32  2  0  0  0
 26 27  1  0  0  0
 28101  1  0  0  0
 28102  1  0  0  0
 29103  1  0  0  0
 29104  1  0  0  0
 33 34  1  0  0  0
 33 66  1  0  0  0
 33 70  2  0  0  0
 34 36  1  0  0  0
 34 59  1  0  0  0
 34105  1  0  0  0
 35 44  2  0  0  0
 35 45  1  0  0  0
 35 68  1  0  0  0
 36 56  1  0  0  0
 36106  1  0  0  0
 37 39  1  0  0  0
 37 47  1  0  0  0
 37 66  1  0  0  0
 37107  1  0  0  0
 38 43  2  0  0  0
 38 46  1  0  0  0
 38 47  1  0  0  0
 39 64  1  0  0  0
 39 67  2  0  0  0
 40 52  1  0  0  0
 40 53  2  0  0  0
 40 58  1  0  0  0
 41108  1  0  0  0
 41109  1  0  0  0
 41110  1  0  0  0
 41 48  1  0  0  0
 42 43  1  0  0  0
 42 66  1  0  0  0
 42111  1  0  0  0
 42112  1  0  0  0
 43 44  1  0  0  0
 44113  1  0  0  0
 45 46  2  0  0  0
 45114  1  0  0  0
 46115  1  0  0  0
 47116  1  0  0  0
 47117  1  0  0  0
 48 56  1  0  0  0
 48 65  1  0  0  0
 48118  1  0  0  0
 49 50  1  0  0  0
 49 53  1  0  0  0
 49 64  1  0  0  0
 49119  1  0  0  0
 50 51  1  0  0  0
 50120  1  0  0  0
 50121  1  0  0  0
 51 52  1  0  0  0
 51122  1  0  0  0
 51123  1  0  0  0
 52124  1  0  0  0
 52125  1  0  0  0
 53 54  1  0  0  0
 54 55  2  0  0  0
 54126  1  0  0  0
 55 57  1  0  0  0
 55127  1  0  0  0
 56 69  2  0  0  0
 57 58  2  0  0  0
 57128  1  0  0  0
 58129  1  0  0  0
 59 60  1  0  0  0
 59 61  1  0  0  0
 59 62  1  0  0  0
 60130  1  0  0  0
 60131  1  0  0  0
 60132  1  0  0  0
 61133  1  0  0  0
 61134  1  0  0  0
 61135  1  0  0  0
 62136  1  0  0  0
 62137  1  0  0  0
 62138  1  0  0  0
 63 65  1  0  0  0
 63139  1  0  0  0
 63140  1  0  0  0
 63141  1  0  0  0
 64142  1  0  0  0
 65143  1  0  0  0
 68 83  1  0  0  0
 71 74  2  0  0  0
 71 75  1  0  0  0
 71144  1  0  0  0
 72 74  1  0  0  0
 72 76  2  0  0  0
 72145  1  0  0  0
 73 75  2  0  0  0
 73 76  1  0  0  0
 73146  1  0  0  0
 74 77  1  0  0  0
 75 80  1  0  0  0
 76 84  1  0  0  0
 77 78  2  0  0  0
 77147  1  0  0  0
 78 81  1  0  0  0
 78148  1  0  0  0
 79 80  1  0  0  0
 79149  1  0  0  0
 79150  1  0  0  0
 79151  1  0  0  0
 80152  1  0  0  0
 80153  1  0  0  0
 81 82  1  0  0  0
 81154  1  0  0  0
 81155  1  0  0  0
 82 83  1  0  0  0
 82156  1  0  0  0
 82157  1  0  0  0
 83158  1  0  0  0
 83159  1  0  0  0
 84160  1  0  0  0
M  ISO  4   1 100  68 101  83 101  84 100
M  END
> <chiral flag>
0

> <version>
0

> <s_m_source_file>
/data/baiqing/PycharmProjects/Reinvent-master-3.2/result/LINK_invent/BTK/process_docking_weight1_custom_product_contain_oxygen_bond_distance_aromatic_linkinvent_7_9_3/rearranged_h_0118.sdf

> <i_m_source_file_index>
44

> <r_mmod_Potential_Energy-OPLS-2005>
-16.1596355438232

> <r_mmod_Stretch_Energy-OPLS-2005>
39.3716773986816

> <r_mmod_Bend_Energy-OPLS-2005>
96.3952026367188

> <r_mmod_Torsional_Energy-OPLS-2005>
223.827575683594

> <r_mmod_Improper_Torsional_Energy-OPLS-2005>
3.37123608589172

> <r_mmod_Van_der_Waal_Energy-OPLS-2005>
160.181243896484

> <r_mmod_Electrostatic_Energy-OPLS-2005>
-352.247650146484

> <r_mmod_Solvation_Energy-OPLS-2005>
-202.607238769531

> <b_mmod_Minimization_Converged-OPLS-2005>
0

> <r_mmod_RMS_Derivative-OPLS-2005>
1.92649757862091

$$$$
45
                    3D
 Structure written by MMmdl.
154162  0  0  1  0            999 V2000
  -30.5274  -15.0183   20.4058 C   0  0  0  0  0  0
  -30.4381  -12.6352   19.5032 C   0  0  0  0  0  0
  -29.5226  -12.5375   18.2608 C   0  0  0  0  0  0
  -28.0586  -12.3123   18.6815 C   0  0  0  0  0  0
  -27.6243  -13.2562   19.8327 C   0  0  2  0  0  0
  -28.6663  -13.3215   20.9692 C   0  0  0  0  0  0
  -25.2438  -13.8229   20.5713 C   0  0  0  0  0  0
  -24.1771  -13.0442   20.9244 C   0  0  0  0  0  0
  -24.6399  -11.6931   20.8763 C   0  0  0  0  0  0
  -23.9086  -10.4295   21.0410 C   0  0  0  0  0  0
  -24.3632   -9.4207   21.9186 C   0  0  0  0  0  0
  -23.6302   -8.2244   22.0755 C   0  0  0  0  0  0
  -22.4284   -8.0284   21.3545 C   0  0  0  0  0  0
  -21.9924   -9.0259   20.4647 C   0  0  0  0  0  0
  -22.7258  -10.2136   20.3058 C   0  0  0  0  0  0
  -21.6856   -6.0738   22.5279 C   0  0  0  0  0  0
  -21.4015   -6.5641   23.8213 C   0  0  0  0  0  0
  -21.3659   -5.6792   24.9174 C   0  0  0  0  0  0
  -21.6043   -4.3056   24.7224 C   0  0  0  0  0  0
  -21.8819   -3.8148   23.4345 C   0  0  0  0  0  0
  -21.9193   -4.6965   22.3402 C   0  0  0  0  0  0
  -22.7790  -13.5205   21.1893 C   0  0  0  0  0  0
  -22.1662   -4.2151   21.0979 F   0  0  0  0  0  0
  -21.5627   -3.4539   25.7736 F   0  0  0  0  0  0
  -29.9321  -13.7510   20.3606 N   0  0  0  0  0  0
  -26.2865  -12.9475   20.3230 N   0  0  0  0  0  0
  -25.9331  -11.6598   20.5738 N   0  0  0  0  0  0
  -22.0443  -12.8189   22.0446 N   0  0  0  0  0  0
  -25.4078  -15.1957   20.4108 N   0  0  0  0  0  0
  -31.7395  -15.0443   20.1635 O   0  0  0  0  0  0
  -21.6645   -6.8883   21.4242 O   0  0  0  0  0  0
  -22.3470  -14.5507   20.6733 O   0  0  0  0  0  0
  -24.6492  -31.8391   23.1842 C   0  0  0  0  0  0
  -25.9239  -32.4669   23.8249 C   0  0  1  0  0  0
  -27.2127  -27.0790   20.1577 C   0  0  0  0  0  0
  -25.5965  -33.8477   24.2162 N   0  0  0  0  0  0
  -23.4556  -30.4579   21.5311 C   0  0  2  0  0  0
  -24.9052  -28.8771   20.1103 C   0  0  0  0  0  0
  -22.7596  -29.4526   22.4838 C   0  0  0  0  0  0
  -18.0311  -28.1400   22.8476 C   0  0  0  0  0  0
  -24.1492  -36.7241   23.2643 C   0  0  0  0  0  0
  -26.0165  -30.6948   21.3921 C   0  0  0  0  0  0
  -26.0860  -29.3011   20.7329 C   0  0  0  0  0  0
  -27.2403  -28.4201   20.7371 C   0  0  0  0  0  0
  -26.0040  -26.7745   19.4918 C   0  0  0  0  0  0
  -24.8807  -27.6293   19.4724 C   0  0  0  0  0  0
  -23.6851  -29.7863   20.1516 C   0  0  0  0  0  0
  -25.4126  -36.3015   24.0312 C   0  0  1  0  0  0
  -20.5928  -28.3732   23.1220 C   0  0  2  0  0  0
  -20.6794  -26.9429   22.5401 C   0  0  0  0  0  0
  -19.5765  -26.6381   21.5213 C   0  0  0  0  0  0
  -18.1948  -26.7937   22.1627 C   0  0  0  0  0  0
  -19.1569  -28.8885   23.2839 C   0  0  0  0  0  0
  -18.9483  -30.1480   23.8866 C   0  0  0  0  0  0
  -17.6479  -30.6595   24.0559 C   0  0  0  0  0  0
  -25.9081  -34.9393   23.5048 C   0  0  0  0  0  0
  -16.5369  -29.9085   23.6340 C   0  0  0  0  0  0
  -16.7294  -28.6505   23.0360 C   0  0  0  0  0  0
  -26.4538  -31.6557   25.0715 C   0  0  0  0  0  0
  -25.3704  -31.3763   26.1396 C   0  0  0  0  0  0
  -27.0417  -30.2945   24.6341 C   0  0  0  0  0  0
  -27.6052  -32.4339   25.7509 C   0  0  0  0  0  0
  -27.5574  -37.1777   24.8465 C   0  0  0  0  0  0
  -21.4282  -29.3049   22.3585 N   0  0  0  0  0  0
  -26.4284  -37.3735   23.9409 N   0  0  0  0  0  0
  -24.7274  -31.0197   22.0904 N   0  0  0  0  0  0
  -23.4214  -28.8076   23.3011 O   0  0  0  0  0  0
  -28.2377  -26.0452   20.2323 O   0  0  0  0  0  0
  -26.5672  -34.8900   22.4630 O   0  0  0  0  0  0
  -23.5596  -32.1292   23.7025 O   0  0  0  0  0  0
  -30.8936  -20.5893   20.4506 C   0  0  0  0  0  0
  -31.4087  -18.1614   20.5332 C   0  0  0  0  0  0
  -29.4987  -20.4019   20.3705 C   0  0  0  0  0  0
  -29.1145  -18.9397   20.3929 C   0  0  0  0  0  0
  -30.0551  -17.7612   20.4659 C   0  0  0  0  0  0
  -31.8102  -19.5169   20.5287 C   0  0  0  0  0  0
  -28.6174  -21.7700   20.2585 C   0  0  0  0  0  0
  -28.8832  -23.1837   20.2634 C   0  0  0  0  0  0
  -27.1366  -18.4373   18.8924 C   0  0  0  0  0  0
  -27.6314  -18.6171   20.3319 C   0  0  0  0  0  0
  -27.8878  -24.5118   20.0679 C   0  0  0  0  0  0
  -29.7486  -16.2292   20.4995 N   0  0  0  0  0  0
  -33.1328  -19.8011   20.6014 F   0  0  0  0  0  0
  -31.4695  -12.7979   19.1869 H   0  0  0  0  0  0
  -30.4437  -11.6948   20.0566 H   0  0  0  0  0  0
  -29.8537  -11.7296   17.6068 H   0  0  0  0  0  0
  -29.5992  -13.4563   17.6772 H   0  0  0  0  0  0
  -27.9669  -11.2745   19.0039 H   0  0  0  0  0  0
  -27.3939  -12.4245   17.8242 H   0  0  0  0  0  0
  -27.5750  -14.2500   19.3866 H   0  0  0  0  0  0
  -28.7714  -12.3565   21.4674 H   0  0  0  0  0  0
  -28.3543  -14.0342   21.7344 H   0  0  0  0  0  0
  -25.2775   -9.5683   22.4765 H   0  0  0  0  0  0
  -24.0009   -7.4635   22.7475 H   0  0  0  0  0  0
  -21.0856   -8.8781   19.8951 H   0  0  0  0  0  0
  -22.3717  -10.9677   19.6169 H   0  0  0  0  0  0
  -21.2009   -7.6149   23.9717 H   0  0  0  0  0  0
  -21.1480   -6.0522   25.9077 H   0  0  0  0  0  0
  -22.0597   -2.7610   23.2843 H   0  0  0  0  0  0
  -22.4071  -11.9855   22.4833 H   0  0  0  0  0  0
  -21.1056  -13.1200   22.2649 H   0  0  0  0  0  0
  -24.6289  -15.8377   20.5083 H   0  0  0  0  0  0
  -26.2311  -15.6306   20.0183 H   0  0  0  0  0  0
  -26.7306  -32.5256   23.0974 H   0  0  0  0  0  0
  -25.0084  -33.9583   25.0292 H   0  0  0  0  0  0
  -22.7612  -31.2859   21.3736 H   0  0  0  0  0  0
  -23.3757  -35.9571   23.3301 H   0  0  0  0  0  0
  -24.3573  -36.8878   22.2058 H   0  0  0  0  0  0
  -23.7248  -37.6436   23.6685 H   0  0  0  0  0  0
  -26.1805  -31.4465   20.6188 H   0  0  0  0  0  0
  -26.8836  -30.7446   22.0389 H   0  0  0  0  0  0
  -28.1371  -28.7397   21.2490 H   0  0  0  0  0  0
  -25.8836  -25.8237   18.9967 H   0  0  0  0  0  0
  -23.9808  -27.2999   18.9712 H   0  0  0  0  0  0
  -23.8275  -30.5605   19.3966 H   0  0  0  0  0  0
  -22.7981  -29.2329   19.8379 H   0  0  0  0  0  0
  -25.1317  -36.1833   25.0804 H   0  0  0  0  0  0
  -21.0020  -28.3326   24.1341 H   0  0  0  0  0  0
  -20.5687  -26.2347   23.3626 H   0  0  0  0  0  0
  -21.6658  -26.7428   22.1197 H   0  0  0  0  0  0
  -19.6925  -25.6284   21.1261 H   0  0  0  0  0  0
  -19.6699  -27.3176   20.6731 H   0  0  0  0  0  0
  -17.4215  -26.6678   21.4033 H   0  0  0  0  0  0
  -18.0349  -26.0089   22.9032 H   0  0  0  0  0  0
  -19.7959  -30.7308   24.2218 H   0  0  0  0  0  0
  -17.5031  -31.6271   24.5167 H   0  0  0  0  0  0
  -15.5368  -30.2977   23.7684 H   0  0  0  0  0  0
  -15.8695  -28.0814   22.7091 H   0  0  0  0  0  0
  -24.5896  -30.7098   25.7714 H   0  0  0  0  0  0
  -24.8880  -32.2950   26.4742 H   0  0  0  0  0  0
  -25.7972  -30.8988   27.0225 H   0  0  0  0  0  0
  -26.3053  -29.6654   24.1328 H   0  0  0  0  0  0
  -27.3987  -29.7262   25.4940 H   0  0  0  0  0  0
  -27.8978  -30.4169   23.9704 H   0  0  0  0  0  0
  -27.2627  -33.3659   26.2020 H   0  0  0  0  0  0
  -28.3899  -32.6872   25.0368 H   0  0  0  0  0  0
  -28.0683  -31.8513   26.5484 H   0  0  0  0  0  0
  -28.2576  -38.0087   24.7517 H   0  0  0  0  0  0
  -28.1083  -36.2616   24.6286 H   0  0  0  0  0  0
  -27.2291  -37.1413   25.8867 H   0  0  0  0  0  0
  -20.9503  -29.8757   21.6752 H   0  0  0  0  0  0
  -26.0144  -38.2798   24.1417 H   0  0  0  0  0  0
  -31.2940  -21.5920   20.4463 H   0  0  0  0  0  0
  -32.1918  -17.4229   20.6018 H   0  0  0  0  0  0
  -27.5675  -21.5503   20.1271 H   0  0  0  0  0  0
  -29.9168  -23.4711   20.3864 H   0  0  0  0  0  0
  -26.0721  -18.2023   18.8737 H   0  0  0  0  0  0
  -27.6649  -17.6262   18.3904 H   0  0  0  0  0  0
  -27.2860  -19.3461   18.3086 H   0  0  0  0  0  0
  -27.0636  -19.4051   20.8266 H   0  0  0  0  0  0
  -27.4325  -17.7133   20.9081 H   0  0  0  0  0  0
  -27.0131  -24.3194   20.6902 H   0  0  0  0  0  0
  -27.5369  -24.4048   19.0418 H   0  0  0  0  0  0
  -28.7665  -16.0207   20.5907 H   0  0  0  0  0  0
  1 25  1  0  0  0
  1 30  2  0  0  0
  1 82  1  0  0  0
  2  3  1  0  0  0
  2 25  1  0  0  0
  2 84  1  0  0  0
  2 85  1  0  0  0
  3  4  1  0  0  0
  3 86  1  0  0  0
  3 87  1  0  0  0
  4  5  1  0  0  0
  4 88  1  0  0  0
  4 89  1  0  0  0
  5  6  1  0  0  0
  5 26  1  0  0  0
  5 90  1  0  0  0
  6 25  1  0  0  0
  6 91  1  0  0  0
  6 92  1  0  0  0
  7  8  2  0  0  0
  7 26  1  0  0  0
  7 29  1  0  0  0
  8  9  1  0  0  0
  8 22  1  0  0  0
  9 10  1  0  0  0
  9 27  2  0  0  0
 10 11  2  0  0  0
 10 15  1  0  0  0
 11 12  1  0  0  0
 11 93  1  0  0  0
 12 13  2  0  0  0
 12 94  1  0  0  0
 13 14  1  0  0  0
 13 31  1  0  0  0
 14 15  2  0  0  0
 14 95  1  0  0  0
 15 96  1  0  0  0
 16 17  2  0  0  0
 16 21  1  0  0  0
 16 31  1  0  0  0
 17 18  1  0  0  0
 17 97  1  0  0  0
 18 19  2  0  0  0
 18 98  1  0  0  0
 19 20  1  0  0  0
 19 24  1  0  0  0
 20 21  2  0  0  0
 20 99  1  0  0  0
 21 23  1  0  0  0
 22 28  1  0  0  0
 22 32  2  0  0  0
 26 27  1  0  0  0
 28100  1  0  0  0
 28101  1  0  0  0
 29102  1  0  0  0
 29103  1  0  0  0
 33 34  1  0  0  0
 33 66  1  0  0  0
 33 70  2  0  0  0
 34 36  1  0  0  0
 34 59  1  0  0  0
 34104  1  0  0  0
 35 44  2  0  0  0
 35 45  1  0  0  0
 35 68  1  0  0  0
 36 56  1  0  0  0
 36105  1  0  0  0
 37 39  1  0  0  0
 37 47  1  0  0  0
 37 66  1  0  0  0
 37106  1  0  0  0
 38 43  2  0  0  0
 38 46  1  0  0  0
 38 47  1  0  0  0
 39 64  1  0  0  0
 39 67  2  0  0  0
 40 52  1  0  0  0
 40 53  2  0  0  0
 40 58  1  0  0  0
 41107  1  0  0  0
 41108  1  0  0  0
 41109  1  0  0  0
 41 48  1  0  0  0
 42 43  1  0  0  0
 42 66  1  0  0  0
 42110  1  0  0  0
 42111  1  0  0  0
 43 44  1  0  0  0
 44112  1  0  0  0
 45 46  2  0  0  0
 45113  1  0  0  0
 46114  1  0  0  0
 47115  1  0  0  0
 47116  1  0  0  0
 48 56  1  0  0  0
 48 65  1  0  0  0
 48117  1  0  0  0
 49 50  1  0  0  0
 49 53  1  0  0  0
 49 64  1  0  0  0
 49118  1  0  0  0
 50 51  1  0  0  0
 50119  1  0  0  0
 50120  1  0  0  0
 51 52  1  0  0  0
 51121  1  0  0  0
 51122  1  0  0  0
 52123  1  0  0  0
 52124  1  0  0  0
 53 54  1  0  0  0
 54 55  2  0  0  0
 54125  1  0  0  0
 55 57  1  0  0  0
 55126  1  0  0  0
 56 69  2  0  0  0
 57 58  2  0  0  0
 57127  1  0  0  0
 58128  1  0  0  0
 59 60  1  0  0  0
 59 61  1  0  0  0
 59 62  1  0  0  0
 60129  1  0  0  0
 60130  1  0  0  0
 60131  1  0  0  0
 61132  1  0  0  0
 61133  1  0  0  0
 61134  1  0  0  0
 62135  1  0  0  0
 62136  1  0  0  0
 62137  1  0  0  0
 63 65  1  0  0  0
 63138  1  0  0  0
 63139  1  0  0  0
 63140  1  0  0  0
 64141  1  0  0  0
 65142  1  0  0  0
 68 81  1  0  0  0
 71 73  2  0  0  0
 71 76  1  0  0  0
 71143  1  0  0  0
 72 75  1  0  0  0
 72 76  2  0  0  0
 72144  1  0  0  0
 73 74  1  0  0  0
 73 77  1  0  0  0
 74 75  2  0  0  0
 74 80  1  0  0  0
 75 82  1  0  0  0
 76 83  1  0  0  0
 77 78  2  0  0  0
 77145  1  0  0  0
 78 81  1  0  0  0
 78146  1  0  0  0
 79 80  1  0  0  0
 79147  1  0  0  0
 79148  1  0  0  0
 79149  1  0  0  0
 80150  1  0  0  0
 80151  1  0  0  0
 81152  1  0  0  0
 81153  1  0  0  0
 82154  1  0  0  0
M  ISO  4   1 100  68 101  81 101  82 100
M  END
> <chiral flag>
0

> <version>
0

> <s_m_source_file>
/data/baiqing/PycharmProjects/Reinvent-master-3.2/result/LINK_invent/BTK/process_docking_weight1_custom_product_contain_oxygen_bond_distance_aromatic_linkinvent_7_9_3/rearranged_h_0118.sdf

> <i_m_source_file_index>
45

> <r_mmod_Potential_Energy-OPLS-2005>
611.118286132812

> <r_mmod_Stretch_Energy-OPLS-2005>
319.289459228516

> <r_mmod_Bend_Energy-OPLS-2005>
251.169937133789

> <r_mmod_Torsional_Energy-OPLS-2005>
217.328048706055

> <r_mmod_Improper_Torsional_Energy-OPLS-2005>
5.10200977325439

> <r_mmod_Van_der_Waal_Energy-OPLS-2005>
126.74193572998

> <r_mmod_Electrostatic_Energy-OPLS-2005>
-353.468933105469

> <r_mmod_Solvation_Energy-OPLS-2005>
-202.341690063477

> <b_mmod_Minimization_Converged-OPLS-2005>
0

> <r_mmod_RMS_Derivative-OPLS-2005>
0.245272189378738

$$$$
46
                    3D
 Structure written by MMmdl.
161169  0  0  1  0            999 V2000
  -30.7553  -14.4126   20.6418 C   0  0  0  0  0  0
  -30.4075  -12.3003   19.4169 C   0  0  0  0  0  0
  -29.4882  -12.5339   18.2030 C   0  0  0  0  0  0
  -28.0111  -12.3924   18.6142 C   0  0  0  0  0  0
  -27.6633  -13.2154   19.8844 C   0  0  2  0  0  0
  -28.7020  -12.9811   21.0043 C   0  0  0  0  0  0
  -25.2570  -13.8176   20.5694 C   0  0  0  0  0  0
  -24.1823  -13.0438   20.9167 C   0  0  0  0  0  0
  -24.6387  -11.6906   20.8715 C   0  0  0  0  0  0
  -23.9052  -10.4291   21.0394 C   0  0  0  0  0  0
  -24.3612   -9.4213   21.9171 C   0  0  0  0  0  0
  -23.6286   -8.2251   22.0755 C   0  0  0  0  0  0
  -22.4264   -8.0287   21.3548 C   0  0  0  0  0  0
  -21.9893   -9.0262   20.4651 C   0  0  0  0  0  0
  -22.7226  -10.2134   20.3046 C   0  0  0  0  0  0
  -21.6853   -6.0727   22.5273 C   0  0  0  0  0  0
  -21.4021   -6.5632   23.8207 C   0  0  0  0  0  0
  -21.3664   -5.6787   24.9173 C   0  0  0  0  0  0
  -21.6038   -4.3048   24.7224 C   0  0  0  0  0  0
  -21.8819   -3.8137   23.4349 C   0  0  0  0  0  0
  -21.9194   -4.6952   22.3406 C   0  0  0  0  0  0
  -22.7843  -13.5236   21.1831 C   0  0  0  0  0  0
  -22.1665   -4.2141   21.0982 F   0  0  0  0  0  0
  -21.5629   -3.4532   25.7741 F   0  0  0  0  0  0
  -30.0377  -13.2719   20.4585 N   0  0  0  0  0  0
  -26.3032  -12.9367   20.3407 N   0  0  0  0  0  0
  -25.9321  -11.6510   20.5748 N   0  0  0  0  0  0
  -22.0494  -12.8236   22.0399 N   0  0  0  0  0  0
  -25.4248  -15.1899   20.4101 N   0  0  0  0  0  0
  -31.8240  -14.6187   20.0587 O   0  0  0  0  0  0
  -21.6639   -6.8877   21.4239 O   0  0  0  0  0  0
  -22.3519  -14.5544   20.6690 O   0  0  0  0  0  0
  -24.6145  -31.8692   23.2106 C   0  0  0  0  0  0
  -25.9032  -32.4829   23.8417 C   0  0  1  0  0  0
  -27.2347  -27.4288   20.1029 C   0  0  0  0  0  0
  -25.5881  -33.8632   24.2342 N   0  0  0  0  0  0
  -23.4038  -30.4945   21.5506 C   0  0  2  0  0  0
  -24.8475  -28.9542   20.1196 C   0  0  0  0  0  0
  -22.7409  -29.4694   22.4987 C   0  0  0  0  0  0
  -18.0293  -28.1380   22.8517 C   0  0  0  0  0  0
  -24.1481  -36.7313   23.2650 C   0  0  0  0  0  0
  -25.9338  -30.8281   21.3706 C   0  0  0  0  0  0
  -26.0066  -29.4634   20.7179 C   0  0  0  0  0  0
  -27.1979  -28.7078   20.7073 C   0  0  0  0  0  0
  -26.0574  -26.9390   19.4889 C   0  0  0  0  0  0
  -24.8687  -27.6921   19.5025 C   0  0  0  0  0  0
  -23.6143  -29.8248   20.1660 C   0  0  0  0  0  0
  -25.4104  -36.3118   24.0353 C   0  0  1  0  0  0
  -20.5883  -28.3686   23.1316 C   0  0  2  0  0  0
  -20.6762  -26.9418   22.5413 C   0  0  0  0  0  0
  -19.5721  -26.6402   21.5222 C   0  0  0  0  0  0
  -18.1916  -26.7927   22.1650 C   0  0  0  0  0  0
  -19.1541  -28.8852   23.2917 C   0  0  0  0  0  0
  -18.9455  -30.1460   23.8922 C   0  0  0  0  0  0
  -17.6452  -30.6579   24.0603 C   0  0  0  0  0  0
  -25.9024  -34.9480   23.5141 C   0  0  0  0  0  0
  -16.5350  -29.9086   23.6335 C   0  0  0  0  0  0
  -16.7285  -28.6509   23.0350 C   0  0  0  0  0  0
  -26.4446  -31.6618   25.0754 C   0  0  0  0  0  0
  -25.3712  -31.3724   26.1503 C   0  0  0  0  0  0
  -27.0301  -30.3069   24.6154 C   0  0  0  0  0  0
  -27.6027  -32.4351   25.7483 C   0  0  0  0  0  0
  -27.5585  -37.1826   24.8477 C   0  0  0  0  0  0
  -21.4140  -29.3056   22.3715 N   0  0  0  0  0  0
  -26.4297  -37.3796   23.9407 N   0  0  0  0  0  0
  -24.6687  -31.0782   22.1014 N   0  0  0  0  0  0
  -23.4179  -28.8243   23.3041 O   0  0  0  0  0  0
  -28.4347  -26.7454   20.1023 O   0  0  0  0  0  0
  -26.5597  -34.8921   22.4709 O   0  0  0  0  0  0
  -23.5332  -32.1456   23.7474 O   0  0  0  0  0  0
  -32.1613  -16.5731   22.2746 C   0  0  0  0  0  0
  -32.1033  -18.9723   22.6041 C   0  0  0  0  0  0
  -30.0958  -17.8183   21.7924 C   0  0  0  0  0  0
  -30.8218  -16.5855   21.8258 C   0  0  0  0  0  0
  -30.7465  -19.0317   22.1897 C   0  0  0  0  0  0
  -32.8008  -17.7588   22.6497 C   0  0  0  0  0  0
  -27.6894  -18.6183   21.7331 C   0  0  0  0  0  0
  -28.6783  -17.7890   21.3565 C   0  0  0  0  0  0
  -29.3996  -23.2442   21.2642 C   0  0  0  0  0  0
  -28.8890  -24.7020   21.3650 C   0  0  0  0  0  0
  -29.8462  -22.6778   22.6277 C   0  0  0  0  0  0
  -28.4756  -25.3116   20.0112 C   0  0  0  0  0  0
  -30.7378  -21.4215   22.5737 C   0  0  0  0  0  0
  -30.2113  -15.3439   21.4492 N   0  0  0  0  0  0
  -30.0613  -20.2420   22.1271 O   0  0  0  0  0  0
  -34.0948  -17.7367   23.0501 F   0  0  0  0  0  0
  -31.4544  -12.3777   19.1197 H   0  0  0  0  0  0
  -30.2867  -11.2838   19.7964 H   0  0  0  0  0  0
  -29.7258  -11.8305   17.4055 H   0  0  0  0  0  0
  -29.6615  -13.5307   17.7928 H   0  0  0  0  0  0
  -27.8143  -11.3344   18.7919 H   0  0  0  0  0  0
  -27.3613  -12.6883   17.7900 H   0  0  0  0  0  0
  -27.7128  -14.2690   19.6065 H   0  0  0  0  0  0
  -28.6690  -11.9432   21.3401 H   0  0  0  0  0  0
  -28.4588  -13.5765   21.8844 H   0  0  0  0  0  0
  -25.2764   -9.5683   22.4730 H   0  0  0  0  0  0
  -24.0004   -7.4636   22.7464 H   0  0  0  0  0  0
  -21.0827   -8.8771   19.8954 H   0  0  0  0  0  0
  -22.3689  -10.9669   19.6148 H   0  0  0  0  0  0
  -21.2020   -7.6136   23.9704 H   0  0  0  0  0  0
  -21.1486   -6.0519   25.9072 H   0  0  0  0  0  0
  -22.0593   -2.7596   23.2842 H   0  0  0  0  0  0
  -22.4120  -11.9916   22.4811 H   0  0  0  0  0  0
  -21.1115  -13.1254   22.2613 H   0  0  0  0  0  0
  -24.6499  -15.8372   20.5061 H   0  0  0  0  0  0
  -26.2767  -15.6333   20.0921 H   0  0  0  0  0  0
  -26.7120  -32.5538   23.1196 H   0  0  0  0  0  0
  -25.0021  -33.9808   25.0482 H   0  0  0  0  0  0
  -22.6949  -31.3133   21.4102 H   0  0  0  0  0  0
  -23.3725  -35.9671   23.3340 H   0  0  0  0  0  0
  -24.3571  -36.8879   22.2056 H   0  0  0  0  0  0
  -23.7238  -37.6537   23.6633 H   0  0  0  0  0  0
  -26.0593  -31.5926   20.6032 H   0  0  0  0  0  0
  -26.8175  -30.8721   21.9952 H   0  0  0  0  0  0
  -28.0929  -29.1002   21.1701 H   0  0  0  0  0  0
  -26.0341  -25.9939   18.9681 H   0  0  0  0  0  0
  -23.9801  -27.3019   19.0244 H   0  0  0  0  0  0
  -23.7347  -30.5992   19.4069 H   0  0  0  0  0  0
  -22.7382  -29.2485   19.8664 H   0  0  0  0  0  0
  -25.1273  -36.2001   25.0854 H   0  0  0  0  0  0
  -21.0021  -28.3238   24.1421 H   0  0  0  0  0  0
  -20.5664  -26.2291   23.3603 H   0  0  0  0  0  0
  -21.6632  -26.7444   22.1210 H   0  0  0  0  0  0
  -19.6861  -25.6317   21.1235 H   0  0  0  0  0  0
  -19.6634  -27.3237   20.6772 H   0  0  0  0  0  0
  -17.4188  -26.6742   21.4044 H   0  0  0  0  0  0
  -18.0294  -26.0042   22.9022 H   0  0  0  0  0  0
  -19.7926  -30.7303   24.2274 H   0  0  0  0  0  0
  -17.4996  -31.6256   24.5204 H   0  0  0  0  0  0
  -15.5340  -30.2997   23.7613 H   0  0  0  0  0  0
  -15.8695  -28.0841   22.7016 H   0  0  0  0  0  0
  -24.5860  -30.7103   25.7827 H   0  0  0  0  0  0
  -24.8934  -32.2884   26.5003 H   0  0  0  0  0  0
  -25.8062  -30.8841   27.0235 H   0  0  0  0  0  0
  -26.2878  -29.6818   24.1178 H   0  0  0  0  0  0
  -27.4026  -29.7316   25.4637 H   0  0  0  0  0  0
  -27.8728  -30.4383   23.9356 H   0  0  0  0  0  0
  -27.2673  -33.3638   26.2106 H   0  0  0  0  0  0
  -28.3793  -32.6941   25.0278 H   0  0  0  0  0  0
  -28.0758  -31.8464   26.5345 H   0  0  0  0  0  0
  -28.2637  -38.0091   24.7488 H   0  0  0  0  0  0
  -28.1037  -36.2620   24.6336 H   0  0  0  0  0  0
  -27.2307  -37.1531   25.8885 H   0  0  0  0  0  0
  -20.9283  -29.8794   21.6965 H   0  0  0  0  0  0
  -26.0176  -38.2891   24.1345 H   0  0  0  0  0  0
  -32.7222  -15.6519   22.3242 H   0  0  0  0  0  0
  -32.6615  -19.8484   22.8934 H   0  0  0  0  0  0
  -26.6945  -18.5040   21.3251 H   0  0  0  0  0  0
  -27.8361  -19.4152   22.4470 H   0  0  0  0  0  0
  -28.4239  -17.0259   20.6350 H   0  0  0  0  0  0
  -30.2385  -23.2131   20.5677 H   0  0  0  0  0  0
  -28.6299  -22.5974   20.8410 H   0  0  0  0  0  0
  -29.6764  -25.3202   21.7971 H   0  0  0  0  0  0
  -28.0478  -24.7536   22.0580 H   0  0  0  0  0  0
  -28.9779  -22.4942   23.2608 H   0  0  0  0  0  0
  -30.4263  -23.4463   23.1414 H   0  0  0  0  0  0
  -27.5591  -24.8303   19.6807 H   0  0  0  0  0  0
  -29.2303  -25.0676   19.2620 H   0  0  0  0  0  0
  -31.1070  -21.2540   23.5868 H   0  0  0  0  0  0
  -31.6024  -21.6220   21.9380 H   0  0  0  0  0  0
  -29.2711  -15.1723   21.7712 H   0  0  0  0  0  0
  1 25  1  0  0  0
  1 30  2  0  0  0
  1 84  1  0  0  0
  2  3  1  0  0  0
  2 25  1  0  0  0
  2 87  1  0  0  0
  2 88  1  0  0  0
  3  4  1  0  0  0
  3 89  1  0  0  0
  3 90  1  0  0  0
  4  5  1  0  0  0
  4 91  1  0  0  0
  4 92  1  0  0  0
  5  6  1  0  0  0
  5 26  1  0  0  0
  5 93  1  0  0  0
  6 25  1  0  0  0
  6 94  1  0  0  0
  6 95  1  0  0  0
  7  8  2  0  0  0
  7 26  1  0  0  0
  7 29  1  0  0  0
  8  9  1  0  0  0
  8 22  1  0  0  0
  9 10  1  0  0  0
  9 27  2  0  0  0
 10 11  2  0  0  0
 10 15  1  0  0  0
 11 12  1  0  0  0
 11 96  1  0  0  0
 12 13  2  0  0  0
 12 97  1  0  0  0
 13 14  1  0  0  0
 13 31  1  0  0  0
 14 15  2  0  0  0
 14 98  1  0  0  0
 15 99  1  0  0  0
 16 17  2  0  0  0
 16 21  1  0  0  0
 16 31  1  0  0  0
 17 18  1  0  0  0
 17100  1  0  0  0
 18 19  2  0  0  0
 18101  1  0  0  0
 19 20  1  0  0  0
 19 24  1  0  0  0
 20 21  2  0  0  0
 20102  1  0  0  0
 21 23  1  0  0  0
 22 28  1  0  0  0
 22 32  2  0  0  0
 26 27  1  0  0  0
 28103  1  0  0  0
 28104  1  0  0  0
 29105  1  0  0  0
 29106  1  0  0  0
 33 34  1  0  0  0
 33 66  1  0  0  0
 33 70  2  0  0  0
 34 36  1  0  0  0
 34 59  1  0  0  0
 34107  1  0  0  0
 35 44  2  0  0  0
 35 45  1  0  0  0
 35 68  1  0  0  0
 36 56  1  0  0  0
 36108  1  0  0  0
 37 39  1  0  0  0
 37 47  1  0  0  0
 37 66  1  0  0  0
 37109  1  0  0  0
 38 43  2  0  0  0
 38 46  1  0  0  0
 38 47  1  0  0  0
 39 64  1  0  0  0
 39 67  2  0  0  0
 40 52  1  0  0  0
 40 53  2  0  0  0
 40 58  1  0  0  0
 41110  1  0  0  0
 41111  1  0  0  0
 41112  1  0  0  0
 41 48  1  0  0  0
 42 43  1  0  0  0
 42 66  1  0  0  0
 42113  1  0  0  0
 42114  1  0  0  0
 43 44  1  0  0  0
 44115  1  0  0  0
 45 46  2  0  0  0
 45116  1  0  0  0
 46117  1  0  0  0
 47118  1  0  0  0
 47119  1  0  0  0
 48 56  1  0  0  0
 48 65  1  0  0  0
 48120  1  0  0  0
 49 50  1  0  0  0
 49 53  1  0  0  0
 49 64  1  0  0  0
 49121  1  0  0  0
 50 51  1  0  0  0
 50122  1  0  0  0
 50123  1  0  0  0
 51 52  1  0  0  0
 51124  1  0  0  0
 51125  1  0  0  0
 52126  1  0  0  0
 52127  1  0  0  0
 53 54  1  0  0  0
 54 55  2  0  0  0
 54128  1  0  0  0
 55 57  1  0  0  0
 55129  1  0  0  0
 56 69  2  0  0  0
 57 58  2  0  0  0
 57130  1  0  0  0
 58131  1  0  0  0
 59 60  1  0  0  0
 59 61  1  0  0  0
 59 62  1  0  0  0
 60132  1  0  0  0
 60133  1  0  0  0
 60134  1  0  0  0
 61135  1  0  0  0
 61136  1  0  0  0
 61137  1  0  0  0
 62138  1  0  0  0
 62139  1  0  0  0
 62140  1  0  0  0
 63 65  1  0  0  0
 63141  1  0  0  0
 63142  1  0  0  0
 63143  1  0  0  0
 64144  1  0  0  0
 65145  1  0  0  0
 68 82  1  0  0  0
 71 74  2  0  0  0
 71 76  1  0  0  0
 71146  1  0  0  0
 72 75  1  0  0  0
 72 76  2  0  0  0
 72147  1  0  0  0
 73 74  1  0  0  0
 73 75  2  0  0  0
 73 78  1  0  0  0
 74 84  1  0  0  0
 75 85  1  0  0  0
 76 86  1  0  0  0
 77 78  2  0  0  0
 77148  1  0  0  0
 77149  1  0  0  0
 78150  1  0  0  0
 79 80  1  0  0  0
 79 81  1  0  0  0
 79151  1  0  0  0
 79152  1  0  0  0
 80 82  1  0  0  0
 80153  1  0  0  0
 80154  1  0  0  0
 81 83  1  0  0  0
 81155  1  0  0  0
 81156  1  0  0  0
 82157  1  0  0  0
 82158  1  0  0  0
 83 85  1  0  0  0
 83159  1  0  0  0
 83160  1  0  0  0
 84161  1  0  0  0
M  ISO  4   1 100  68 101  82 101  84 100
M  END
> <chiral flag>
0

> <version>
0

> <s_m_source_file>
/data/baiqing/PycharmProjects/Reinvent-master-3.2/result/LINK_invent/BTK/process_docking_weight1_custom_product_contain_oxygen_bond_distance_aromatic_linkinvent_7_9_3/rearranged_h_0118.sdf

> <i_m_source_file_index>
46

> <r_mmod_Potential_Energy-OPLS-2005>
11.0747346878052

> <r_mmod_Stretch_Energy-OPLS-2005>
41.0791053771973

> <r_mmod_Bend_Energy-OPLS-2005>
109.396430969238

> <r_mmod_Torsional_Energy-OPLS-2005>
227.006103515625

> <r_mmod_Improper_Torsional_Energy-OPLS-2005>
2.22660946846008

> <r_mmod_Van_der_Waal_Energy-OPLS-2005>
169.728378295898

> <r_mmod_Electrostatic_Energy-OPLS-2005>
-346.961700439453

> <r_mmod_Solvation_Energy-OPLS-2005>
-201.318176269531

> <b_mmod_Minimization_Converged-OPLS-2005>
0

> <r_mmod_RMS_Derivative-OPLS-2005>
2.47905540466309

$$$$
47
                    3D
 Structure written by MMmdl.
160169  0  0  1  0            999 V2000
  -30.5005  -14.8962   20.4575 C   0  0  0  0  0  0
  -30.4650  -12.5617   19.4763 C   0  0  0  0  0  0
  -29.5257  -12.5482   18.2434 C   0  0  0  0  0  0
  -28.0522  -12.3290   18.6501 C   0  0  0  0  0  0
  -27.6457  -13.2109   19.8579 C   0  0  2  0  0  0
  -28.6992  -13.1054   20.9822 C   0  0  0  0  0  0
  -25.2549  -13.8111   20.5697 C   0  0  0  0  0  0
  -24.1793  -13.0397   20.9142 C   0  0  0  0  0  0
  -24.6368  -11.6868   20.8711 C   0  0  0  0  0  0
  -23.9037  -10.4270   21.0401 C   0  0  0  0  0  0
  -24.3603   -9.4199   21.9183 C   0  0  0  0  0  0
  -23.6288   -8.2232   22.0753 C   0  0  0  0  0  0
  -22.4269   -8.0269   21.3545 C   0  0  0  0  0  0
  -21.9896   -9.0232   20.4642 C   0  0  0  0  0  0
  -22.7210  -10.2115   20.3049 C   0  0  0  0  0  0
  -21.6850   -6.0730   22.5280 C   0  0  0  0  0  0
  -21.4007   -6.5635   23.8212 C   0  0  0  0  0  0
  -21.3661   -5.6790   24.9174 C   0  0  0  0  0  0
  -21.6047   -4.3054   24.7224 C   0  0  0  0  0  0
  -21.8821   -3.8144   23.4345 C   0  0  0  0  0  0
  -21.9195   -4.6959   22.3401 C   0  0  0  0  0  0
  -22.7832  -13.5216   21.1840 C   0  0  0  0  0  0
  -22.1668   -4.2145   21.0977 F   0  0  0  0  0  0
  -21.5632   -3.4539   25.7741 F   0  0  0  0  0  0
  -29.9699  -13.6004   20.4226 N   0  0  0  0  0  0
  -26.2961  -12.9267   20.3322 N   0  0  0  0  0  0
  -25.9299  -11.6429   20.5735 N   0  0  0  0  0  0
  -22.0484  -12.8214   22.0409 N   0  0  0  0  0  0
  -25.4361  -15.1820   20.4242 N   0  0  0  0  0  0
  -31.6799  -15.0404   20.1087 O   0  0  0  0  0  0
  -21.6634   -6.8870   21.4243 O   0  0  0  0  0  0
  -22.3523  -14.5536   20.6715 O   0  0  0  0  0  0
  -24.6377  -31.8479   23.1918 C   0  0  0  0  0  0
  -25.9173  -32.4716   23.8290 C   0  0  1  0  0  0
  -27.2314  -27.1973   20.1453 C   0  0  0  0  0  0
  -25.5941  -33.8520   24.2213 N   0  0  0  0  0  0
  -23.4393  -30.4663   21.5361 C   0  0  2  0  0  0
  -24.8900  -28.8961   20.1159 C   0  0  0  0  0  0
  -22.7538  -29.4561   22.4890 C   0  0  0  0  0  0
  -18.0295  -28.1391   22.8480 C   0  0  0  0  0  0
  -24.1489  -36.7268   23.2643 C   0  0  0  0  0  0
  -25.9895  -30.7403   21.3813 C   0  0  0  0  0  0
  -26.0638  -29.3546   20.7274 C   0  0  0  0  0  0
  -27.2371  -28.5216   20.7227 C   0  0  0  0  0  0
  -26.0319  -26.8181   19.5060 C   0  0  0  0  0  0
  -24.8828  -27.6381   19.4918 C   0  0  0  0  0  0
  -23.6634  -29.7918   20.1564 C   0  0  0  0  0  0
  -25.4121  -36.3049   24.0320 C   0  0  1  0  0  0
  -20.5904  -28.3709   23.1255 C   0  0  2  0  0  0
  -20.6783  -26.9418   22.5411 C   0  0  0  0  0  0
  -19.5761  -26.6381   21.5213 C   0  0  0  0  0  0
  -18.1940  -26.7931   22.1620 C   0  0  0  0  0  0
  -19.1551  -28.8866   23.2861 C   0  0  0  0  0  0
  -18.9468  -30.1464   23.8886 C   0  0  0  0  0  0
  -17.6467  -30.6590   24.0559 C   0  0  0  0  0  0
  -25.9063  -34.9420   23.5074 C   0  0  0  0  0  0
  -16.5358  -29.9085   23.6334 C   0  0  0  0  0  0
  -16.7280  -28.6501   23.0358 C   0  0  0  0  0  0
  -26.4520  -31.6569   25.0710 C   0  0  0  0  0  0
  -25.3719  -31.3740   26.1415 C   0  0  0  0  0  0
  -27.0381  -30.2975   24.6247 C   0  0  0  0  0  0
  -27.6057  -32.4327   25.7493 C   0  0  0  0  0  0
  -27.5578  -37.1791   24.8466 C   0  0  0  0  0  0
  -21.4236  -29.3043   22.3636 N   0  0  0  0  0  0
  -26.4290  -37.3755   23.9407 N   0  0  0  0  0  0
  -24.7081  -31.0386   22.0922 N   0  0  0  0  0  0
  -23.4201  -28.8111   23.3027 O   0  0  0  0  0  0
  -28.3303  -26.2848   20.1447 O   0  0  0  0  0  0
  -26.5646  -34.8910   22.4651 O   0  0  0  0  0  0
  -23.5509  -32.1332   23.7175 O   0  0  0  0  0  0
  -29.6094  -18.5895   21.8170 C   0  0  0  0  0  0
  -29.4822  -20.0203   21.8244 C   0  0  0  0  0  0
  -29.7117  -20.0530   19.4762 C   0  0  0  0  0  0
  -29.7823  -17.7764   20.6516 C   0  0  0  0  0  0
  -29.8336  -18.5898   19.4518 C   0  0  0  0  0  0
  -29.5282  -20.8474   20.6601 C   0  0  0  0  0  0
  -30.6357  -22.8654   21.4405 C   0  0  0  0  0  0
  -29.9408  -18.4524   16.9270 C   0  0  0  0  0  0
  -29.9627  -17.8951   18.1513 C   0  0  0  0  0  0
  -29.5252  -16.2000   20.8013 C   0  0  0  0  0  0
  -31.1845  -24.1336   20.8074 C   0  0  0  0  0  0
  -30.4195  -24.1922   19.4934 C   0  0  0  0  0  0
  -29.0834  -23.5494   19.8714 C   0  0  2  0  0  0
  -28.1655  -24.7963   20.4922 C   0  0  0  0  0  0
  -28.3688  -16.0066   21.2794 N   0  0  0  0  0  0
  -29.5595  -22.3714   20.7814 N   0  0  0  0  0  0
  -31.1742  -22.3798   22.4403 O   0  0  0  0  0  0
  -31.4904  -12.7557   19.1583 H   0  0  0  0  0  0
  -30.4912  -11.5806   19.9529 H   0  0  0  0  0  0
  -29.8388  -11.7765   17.5390 H   0  0  0  0  0  0
  -29.6155  -13.4984   17.7143 H   0  0  0  0  0  0
  -27.9280  -11.2771   18.9070 H   0  0  0  0  0  0
  -27.3932  -12.5152   17.8015 H   0  0  0  0  0  0
  -27.6384  -14.2323   19.4814 H   0  0  0  0  0  0
  -28.7970  -12.0683   21.3068 H   0  0  0  0  0  0
  -28.4065  -13.6361   21.8863 H   0  0  0  0  0  0
  -25.2750   -9.5685   22.4750 H   0  0  0  0  0  0
  -24.0005   -7.4629   22.7475 H   0  0  0  0  0  0
  -21.0826   -8.8734   19.8951 H   0  0  0  0  0  0
  -22.3665  -10.9648   19.6157 H   0  0  0  0  0  0
  -21.1986   -7.6142   23.9711 H   0  0  0  0  0  0
  -21.1492   -6.0522   25.9077 H   0  0  0  0  0  0
  -22.0602   -2.7607   23.2845 H   0  0  0  0  0  0
  -22.4105  -11.9865   22.4774 H   0  0  0  0  0  0
  -21.1110  -13.1246   22.2630 H   0  0  0  0  0  0
  -24.7168  -15.8549   20.6621 H   0  0  0  0  0  0
  -26.3747  -15.5740   20.4328 H   0  0  0  0  0  0
  -26.7236  -32.5347   23.1023 H   0  0  0  0  0  0
  -25.0076  -33.9640   25.0352 H   0  0  0  0  0  0
  -22.7392  -31.2902   21.3822 H   0  0  0  0  0  0
  -23.3752  -35.9599   23.3299 H   0  0  0  0  0  0
  -24.3575  -36.8904   22.2059 H   0  0  0  0  0  0
  -23.7240  -37.6463   23.6679 H   0  0  0  0  0  0
  -26.1356  -31.4947   20.6073 H   0  0  0  0  0  0
  -26.8638  -30.7934   22.0182 H   0  0  0  0  0  0
  -28.1387  -28.8735   21.2040 H   0  0  0  0  0  0
  -25.9714  -25.8601   19.0100 H   0  0  0  0  0  0
  -23.9874  -27.2832   19.0001 H   0  0  0  0  0  0
  -23.7953  -30.5639   19.3975 H   0  0  0  0  0  0
  -22.7803  -29.2286   19.8496 H   0  0  0  0  0  0
  -25.1308  -36.1886   25.0811 H   0  0  0  0  0  0
  -20.9990  -28.3291   24.1379 H   0  0  0  0  0  0
  -20.5680  -26.2317   23.3622 H   0  0  0  0  0  0
  -21.6651  -26.7434   22.1208 H   0  0  0  0  0  0
  -19.6925  -25.6288   21.1255 H   0  0  0  0  0  0
  -19.6705  -27.3181   20.6736 H   0  0  0  0  0  0
  -17.4212  -26.6675   21.4020 H   0  0  0  0  0  0
  -18.0338  -26.0076   22.9017 H   0  0  0  0  0  0
  -19.7944  -30.7282   24.2254 H   0  0  0  0  0  0
  -17.5020  -31.6271   24.5158 H   0  0  0  0  0  0
  -15.5358  -30.2983   23.7666 H   0  0  0  0  0  0
  -15.8679  -28.0814   22.7089 H   0  0  0  0  0  0
  -24.5901  -30.7086   25.7739 H   0  0  0  0  0  0
  -24.8905  -32.2914   26.4808 H   0  0  0  0  0  0
  -25.8016  -30.8936   27.0214 H   0  0  0  0  0  0
  -26.2983  -29.6701   24.1260 H   0  0  0  0  0  0
  -27.4028  -29.7269   25.4800 H   0  0  0  0  0  0
  -27.8877  -30.4236   23.9530 H   0  0  0  0  0  0
  -27.2653  -33.3638   26.2039 H   0  0  0  0  0  0
  -28.3886  -32.6871   25.0334 H   0  0  0  0  0  0
  -28.0704  -31.8471   26.5437 H   0  0  0  0  0  0
  -28.2594  -38.0089   24.7507 H   0  0  0  0  0  0
  -28.1074  -36.2618   24.6299 H   0  0  0  0  0  0
  -27.2295  -37.1449   25.8870 H   0  0  0  0  0  0
  -20.9440  -29.8746   21.6812 H   0  0  0  0  0  0
  -26.0162  -38.2826   24.1404 H   0  0  0  0  0  0
  -29.5150  -18.0868   22.7700 H   0  0  0  0  0  0
  -29.3556  -20.4980   22.7863 H   0  0  0  0  0  0
  -29.7832  -20.6040   18.5513 H   0  0  0  0  0  0
  -30.0480  -17.8321   16.0488 H   0  0  0  0  0  0
  -29.8187  -19.5111   16.7557 H   0  0  0  0  0  0
  -30.0950  -16.8232   18.1850 H   0  0  0  0  0  0
  -32.2628  -24.0776   20.6555 H   0  0  0  0  0  0
  -30.9600  -24.9869   21.4480 H   0  0  0  0  0  0
  -30.9287  -23.5958   18.7339 H   0  0  0  0  0  0
  -30.3283  -25.2054   19.1018 H   0  0  0  0  0  0
  -28.6014  -23.1569   18.9752 H   0  0  0  0  0  0
  -28.2992  -24.7706   21.5741 H   0  0  0  0  0  0
  -27.1224  -24.5109   20.3611 H   0  0  0  0  0  0
  -27.9138  -16.8952   21.4481 H   0  0  0  0  0  0
  1 25  1  0  0  0
  1 30  2  0  0  0
  1 80  1  0  0  0
  2  3  1  0  0  0
  2 25  1  0  0  0
  2 88  1  0  0  0
  2 89  1  0  0  0
  3  4  1  0  0  0
  3 90  1  0  0  0
  3 91  1  0  0  0
  4  5  1  0  0  0
  4 92  1  0  0  0
  4 93  1  0  0  0
  5  6  1  0  0  0
  5 26  1  0  0  0
  5 94  1  0  0  0
  6 25  1  0  0  0
  6 95  1  0  0  0
  6 96  1  0  0  0
  7  8  2  0  0  0
  7 26  1  0  0  0
  7 29  1  0  0  0
  8  9  1  0  0  0
  8 22  1  0  0  0
  9 10  1  0  0  0
  9 27  2  0  0  0
 10 11  2  0  0  0
 10 15  1  0  0  0
 11 12  1  0  0  0
 11 97  1  0  0  0
 12 13  2  0  0  0
 12 98  1  0  0  0
 13 14  1  0  0  0
 13 31  1  0  0  0
 14 15  2  0  0  0
 14 99  1  0  0  0
 15100  1  0  0  0
 16 17  2  0  0  0
 16 21  1  0  0  0
 16 31  1  0  0  0
 17 18  1  0  0  0
 17101  1  0  0  0
 18 19  2  0  0  0
 18102  1  0  0  0
 19 20  1  0  0  0
 19 24  1  0  0  0
 20 21  2  0  0  0
 20103  1  0  0  0
 21 23  1  0  0  0
 22 28  1  0  0  0
 22 32  2  0  0  0
 26 27  1  0  0  0
 28104  1  0  0  0
 28105  1  0  0  0
 29106  1  0  0  0
 29107  1  0  0  0
 33 34  1  0  0  0
 33 66  1  0  0  0
 33 70  2  0  0  0
 34 36  1  0  0  0
 34 59  1  0  0  0
 34108  1  0  0  0
 35 44  2  0  0  0
 35 45  1  0  0  0
 35 68  1  0  0  0
 36 56  1  0  0  0
 36109  1  0  0  0
 37 39  1  0  0  0
 37 47  1  0  0  0
 37 66  1  0  0  0
 37110  1  0  0  0
 38 43  2  0  0  0
 38 46  1  0  0  0
 38 47  1  0  0  0
 39 64  1  0  0  0
 39 67  2  0  0  0
 40 52  1  0  0  0
 40 53  2  0  0  0
 40 58  1  0  0  0
 41111  1  0  0  0
 41112  1  0  0  0
 41113  1  0  0  0
 41 48  1  0  0  0
 42 43  1  0  0  0
 42 66  1  0  0  0
 42114  1  0  0  0
 42115  1  0  0  0
 43 44  1  0  0  0
 44116  1  0  0  0
 45 46  2  0  0  0
 45117  1  0  0  0
 46118  1  0  0  0
 47119  1  0  0  0
 47120  1  0  0  0
 48 56  1  0  0  0
 48 65  1  0  0  0
 48121  1  0  0  0
 49 50  1  0  0  0
 49 53  1  0  0  0
 49 64  1  0  0  0
 49122  1  0  0  0
 50 51  1  0  0  0
 50123  1  0  0  0
 50124  1  0  0  0
 51 52  1  0  0  0
 51125  1  0  0  0
 51126  1  0  0  0
 52127  1  0  0  0
 52128  1  0  0  0
 53 54  1  0  0  0
 54 55  2  0  0  0
 54129  1  0  0  0
 55 57  1  0  0  0
 55130  1  0  0  0
 56 69  2  0  0  0
 57 58  2  0  0  0
 57131  1  0  0  0
 58132  1  0  0  0
 59 60  1  0  0  0
 59 61  1  0  0  0
 59 62  1  0  0  0
 60133  1  0  0  0
 60134  1  0  0  0
 60135  1  0  0  0
 61136  1  0  0  0
 61137  1  0  0  0
 61138  1  0  0  0
 62139  1  0  0  0
 62140  1  0  0  0
 62141  1  0  0  0
 63 65  1  0  0  0
 63142  1  0  0  0
 63143  1  0  0  0
 63144  1  0  0  0
 64145  1  0  0  0
 65146  1  0  0  0
 68 84  1  0  0  0
 71 72  2  0  0  0
 71 74  1  0  0  0
 71147  1  0  0  0
 72 76  1  0  0  0
 72148  1  0  0  0
 73 75  1  0  0  0
 73 76  2  0  0  0
 73149  1  0  0  0
 74 75  2  0  0  0
 74 80  1  0  0  0
 75 79  1  0  0  0
 76 86  1  0  0  0
 77 81  1  0  0  0
 77 86  1  0  0  0
 77 87  2  0  0  0
 78 79  2  0  0  0
 78150  1  0  0  0
 78151  1  0  0  0
 79152  1  0  0  0
 80 85  2  0  0  0
 81 82  1  0  0  0
 81153  1  0  0  0
 81154  1  0  0  0
 82 83  1  0  0  0
 82155  1  0  0  0
 82156  1  0  0  0
 83 84  1  0  0  0
 83 86  1  0  0  0
 83157  1  0  0  0
 84158  1  0  0  0
 84159  1  0  0  0
 85160  1  0  0  0
M  ISO  4   1 100  68 101  80 100  84 101
M  END
> <chiral flag>
0

> <version>
0

> <s_m_source_file>
/data/baiqing/PycharmProjects/Reinvent-master-3.2/result/LINK_invent/BTK/process_docking_weight1_custom_product_contain_oxygen_bond_distance_aromatic_linkinvent_7_9_3/rearranged_h_0118.sdf

> <i_m_source_file_index>
47

> <r_mmod_Potential_Energy-OPLS-2005>
715.12841796875

> <r_mmod_Stretch_Energy-OPLS-2005>
226.164321899414

> <r_mmod_Bend_Energy-OPLS-2005>
301.701049804688

> <r_mmod_Torsional_Energy-OPLS-2005>
310.506866455078

> <r_mmod_Improper_Torsional_Energy-OPLS-2005>
9.74588012695312

> <r_mmod_Van_der_Waal_Energy-OPLS-2005>
152.453033447266

> <r_mmod_Electrostatic_Energy-OPLS-2005>
-221.544097900391

> <r_mmod_Solvation_Energy-OPLS-2005>
-204.938690185547

> <b_mmod_Minimization_Converged-OPLS-2005>
0

> <r_mmod_RMS_Derivative-OPLS-2005>
0.959348618984222

$$$$
48
                    3D
 Structure written by MMmdl.
163172  0  0  1  0            999 V2000
  -30.5819  -14.7329   20.4654 C   0  0  0  0  0  0
  -30.4421  -12.4462   19.4645 C   0  0  0  0  0  0
  -29.5100  -12.5147   18.2331 C   0  0  0  0  0  0
  -28.0356  -12.3362   18.6475 C   0  0  0  0  0  0
  -27.6468  -13.2164   19.8650 C   0  0  2  0  0  0
  -28.6952  -13.1167   20.9948 C   0  0  0  0  0  0
  -25.2533  -13.8142   20.5726 C   0  0  0  0  0  0
  -24.1800  -13.0409   20.9200 C   0  0  0  0  0  0
  -24.6378  -11.6884   20.8747 C   0  0  0  0  0  0
  -23.9050  -10.4273   21.0404 C   0  0  0  0  0  0
  -24.3606   -9.4188   21.9176 C   0  0  0  0  0  0
  -23.6283   -8.2228   22.0755 C   0  0  0  0  0  0
  -22.4264   -8.0273   21.3549 C   0  0  0  0  0  0
  -21.9901   -9.0238   20.4642 C   0  0  0  0  0  0
  -22.7229  -10.2113   20.3048 C   0  0  0  0  0  0
  -21.6848   -6.0728   22.5278 C   0  0  0  0  0  0
  -21.4011   -6.5634   23.8211 C   0  0  0  0  0  0
  -21.3662   -5.6789   24.9176 C   0  0  0  0  0  0
  -21.6042   -4.3051   24.7221 C   0  0  0  0  0  0
  -21.8824   -3.8144   23.4343 C   0  0  0  0  0  0
  -21.9193   -4.6958   22.3399 C   0  0  0  0  0  0
  -22.7826  -13.5205   21.1856 C   0  0  0  0  0  0
  -22.1662   -4.2145   21.0975 F   0  0  0  0  0  0
  -21.5628   -3.4536   25.7736 F   0  0  0  0  0  0
  -29.9996  -13.4852   20.4213 N   0  0  0  0  0  0
  -26.2961  -12.9325   20.3361 N   0  0  0  0  0  0
  -25.9308  -11.6480   20.5777 N   0  0  0  0  0  0
  -22.0468  -12.8203   22.0411 N   0  0  0  0  0  0
  -25.4229  -15.1872   20.4213 N   0  0  0  0  0  0
  -31.7532  -14.8880   20.1042 O   0  0  0  0  0  0
  -21.6637   -6.8868   21.4241 O   0  0  0  0  0  0
  -22.3517  -14.5517   20.6709 O   0  0  0  0  0  0
  -24.6288  -31.8554   23.1992 C   0  0  0  0  0  0
  -25.9118  -32.4755   23.8336 C   0  0  1  0  0  0
  -27.2324  -27.2857   20.1173 C   0  0  0  0  0  0
  -25.5923  -33.8557   24.2254 N   0  0  0  0  0  0
  -23.4264  -30.4775   21.5404 C   0  0  2  0  0  0
  -24.8784  -28.9287   20.1040 C   0  0  0  0  0  0
  -22.7494  -29.4604   22.4903 C   0  0  0  0  0  0
  -18.0285  -28.1394   22.8488 C   0  0  0  0  0  0
  -24.1486  -36.7288   23.2640 C   0  0  0  0  0  0
  -25.9696  -30.7760   21.3759 C   0  0  0  0  0  0
  -26.0471  -29.4012   20.7149 C   0  0  0  0  0  0
  -27.2243  -28.5885   20.7176 C   0  0  0  0  0  0
  -26.0398  -26.8728   19.4825 C   0  0  0  0  0  0
  -24.8784  -27.6717   19.4784 C   0  0  0  0  0  0
  -23.6458  -29.8109   20.1558 C   0  0  0  0  0  0
  -25.4115  -36.3067   24.0316 C   0  0  1  0  0  0
  -20.5890  -28.3710   23.1264 C   0  0  2  0  0  0
  -20.6768  -26.9423   22.5415 C   0  0  0  0  0  0
  -19.5746  -26.6389   21.5215 C   0  0  0  0  0  0
  -18.1926  -26.7936   22.1625 C   0  0  0  0  0  0
  -19.1539  -28.8867   23.2874 C   0  0  0  0  0  0
  -18.9462  -30.1467   23.8892 C   0  0  0  0  0  0
  -17.6464  -30.6598   24.0564 C   0  0  0  0  0  0
  -25.9055  -34.9437   23.5091 C   0  0  0  0  0  0
  -16.5356  -29.9098   23.6333 C   0  0  0  0  0  0
  -16.7273  -28.6515   23.0358 C   0  0  0  0  0  0
  -26.4493  -31.6579   25.0720 C   0  0  0  0  0  0
  -25.3716  -31.3727   26.1437 C   0  0  0  0  0  0
  -27.0349  -30.2998   24.6212 C   0  0  0  0  0  0
  -27.6046  -32.4326   25.7502 C   0  0  0  0  0  0
  -27.5576  -37.1798   24.8460 C   0  0  0  0  0  0
  -21.4201  -29.3051   22.3645 N   0  0  0  0  0  0
  -26.4292  -37.3766   23.9399 N   0  0  0  0  0  0
  -24.6935  -31.0534   22.0958 N   0  0  0  0  0  0
  -23.4195  -28.8141   23.3002 O   0  0  0  0  0  0
  -28.3029  -26.3736   20.2395 O   0  0  0  0  0  0
  -26.5640  -34.8915   22.4671 O   0  0  0  0  0  0
  -23.5440  -32.1363   23.7299 O   0  0  0  0  0  0
  -30.3483  -18.2254   21.2896 C   0  0  0  0  0  0
  -30.1874  -19.6434   21.0921 C   0  0  0  0  0  0
  -28.7381  -19.1953   19.2225 C   0  0  0  0  0  0
  -28.9424  -17.7748   19.3995 C   0  0  0  0  0  0
  -29.3901  -20.1856   20.0356 C   0  0  0  0  0  0
  -29.7532  -17.2414   20.4490 C   0  0  0  0  0  0
  -28.7806  -24.0011   19.3138 C   0  0  0  0  0  0
  -28.5222  -25.3695   19.2756 C   0  0  0  0  0  0
  -29.0970  -23.2872   18.0141 C   0  0  0  0  0  0
  -28.8760  -22.8579   20.3935 C   0  0  0  0  0  0
  -29.8509  -22.0033   18.3875 C   0  0  0  0  0  0
  -30.9032  -20.5871   22.0432 C   0  0  0  0  0  0
  -27.7528  -19.6499   18.1439 C   0  0  0  0  0  0
  -28.2669  -16.8030   18.4351 C   0  0  0  0  0  0
  -29.3494  -21.6046   19.6954 N   0  0  0  0  0  0
  -29.7500  -15.7928   20.7798 N   0  0  0  0  0  0
  -31.4807  -12.5853   19.1586 H   0  0  0  0  0  0
  -30.3943  -11.4594   19.9281 H   0  0  0  0  0  0
  -29.7883  -11.7513   17.5051 H   0  0  0  0  0  0
  -29.6356  -13.4745   17.7300 H   0  0  0  0  0  0
  -27.8880  -11.2834   18.8911 H   0  0  0  0  0  0
  -27.3773  -12.5456   17.8039 H   0  0  0  0  0  0
  -27.6433  -14.2430   19.5087 H   0  0  0  0  0  0
  -28.7305  -12.1038   21.3985 H   0  0  0  0  0  0
  -28.4281  -13.7627   21.8329 H   0  0  0  0  0  0
  -25.2749   -9.5665   22.4753 H   0  0  0  0  0  0
  -23.9992   -7.4619   22.7478 H   0  0  0  0  0  0
  -21.0839   -8.8753   19.8942 H   0  0  0  0  0  0
  -22.3691  -10.9653   19.6165 H   0  0  0  0  0  0
  -21.2006   -7.6144   23.9709 H   0  0  0  0  0  0
  -21.1482   -6.0523   25.9078 H   0  0  0  0  0  0
  -22.0602   -2.7607   23.2846 H   0  0  0  0  0  0
  -22.4095  -11.9867   22.4798 H   0  0  0  0  0  0
  -21.1086  -13.1230   22.2622 H   0  0  0  0  0  0
  -24.6552  -15.8384   20.5430 H   0  0  0  0  0  0
  -26.2796  -15.6369   20.1303 H   0  0  0  0  0  0
  -26.7183  -32.5421   23.1079 H   0  0  0  0  0  0
  -25.0033  -33.9702   25.0371 H   0  0  0  0  0  0
  -22.7223  -31.2989   21.3928 H   0  0  0  0  0  0
  -23.3750  -35.9619   23.3293 H   0  0  0  0  0  0
  -24.3572  -36.8935   22.2059 H   0  0  0  0  0  0
  -23.7246  -37.6483   23.6681 H   0  0  0  0  0  0
  -26.1039  -31.5393   20.6080 H   0  0  0  0  0  0
  -26.8480  -30.8269   22.0075 H   0  0  0  0  0  0
  -28.1146  -28.9375   21.2216 H   0  0  0  0  0  0
  -25.9788  -25.8954   19.0252 H   0  0  0  0  0  0
  -23.9797  -27.3002   19.0054 H   0  0  0  0  0  0
  -23.7678  -30.5869   19.3996 H   0  0  0  0  0  0
  -22.7653  -29.2426   19.8521 H   0  0  0  0  0  0
  -25.1300  -36.1915   25.0809 H   0  0  0  0  0  0
  -20.9982  -28.3298   24.1384 H   0  0  0  0  0  0
  -20.5670  -26.2322   23.3628 H   0  0  0  0  0  0
  -21.6640  -26.7449   22.1212 H   0  0  0  0  0  0
  -19.6913  -25.6299   21.1251 H   0  0  0  0  0  0
  -19.6681  -27.3195   20.6741 H   0  0  0  0  0  0
  -17.4197  -26.6689   21.4026 H   0  0  0  0  0  0
  -18.0319  -26.0081   22.9024 H   0  0  0  0  0  0
  -19.7939  -30.7282   24.2265 H   0  0  0  0  0  0
  -17.5019  -31.6273   24.5173 H   0  0  0  0  0  0
  -15.5358  -30.3002   23.7657 H   0  0  0  0  0  0
  -15.8669  -28.0834   22.7076 H   0  0  0  0  0  0
  -24.5904  -30.7061   25.7755 H   0  0  0  0  0  0
  -24.8884  -32.2894   26.4827 H   0  0  0  0  0  0
  -25.8028  -30.8927   27.0231 H   0  0  0  0  0  0
  -26.2940  -29.6739   24.1219 H   0  0  0  0  0  0
  -27.4010  -29.7264   25.4739 H   0  0  0  0  0  0
  -27.8814  -30.4262   23.9458 H   0  0  0  0  0  0
  -27.2646  -33.3630   26.2058 H   0  0  0  0  0  0
  -28.3865  -32.6889   25.0342 H   0  0  0  0  0  0
  -28.0690  -31.8465   26.5441 H   0  0  0  0  0  0
  -28.2583  -38.0106   24.7524 H   0  0  0  0  0  0
  -28.1091  -36.2644   24.6272 H   0  0  0  0  0  0
  -27.2295  -37.1426   25.8862 H   0  0  0  0  0  0
  -20.9380  -29.8788   21.6867 H   0  0  0  0  0  0
  -26.0168  -38.2830   24.1437 H   0  0  0  0  0  0
  -30.9383  -17.8837   22.1285 H   0  0  0  0  0  0
  -28.5360  -25.8464   18.3049 H   0  0  0  0  0  0
  -29.6690  -23.9099   17.3252 H   0  0  0  0  0  0
  -28.1548  -23.0323   17.5271 H   0  0  0  0  0  0
  -27.8957  -22.6919   20.8429 H   0  0  0  0  0  0
  -29.5676  -23.1477   21.1860 H   0  0  0  0  0  0
  -30.9176  -22.2122   18.4832 H   0  0  0  0  0  0
  -29.7506  -21.2377   17.6192 H   0  0  0  0  0  0
  -31.5425  -20.0492   22.7437 H   0  0  0  0  0  0
  -30.1778  -21.1580   22.6236 H   0  0  0  0  0  0
  -31.5280  -21.2891   21.4903 H   0  0  0  0  0  0
  -26.8639  -19.0203   18.1283 H   0  0  0  0  0  0
  -28.2155  -19.6126   17.1578 H   0  0  0  0  0  0
  -27.3886  -20.6622   18.3128 H   0  0  0  0  0  0
  -28.2745  -17.1823   17.4137 H   0  0  0  0  0  0
  -27.2306  -16.6327   18.7237 H   0  0  0  0  0  0
  -28.7797  -15.8444   18.3868 H   0  0  0  0  0  0
  -28.8473  -15.4585   21.0812 H   0  0  0  0  0  0
  1 25  1  0  0  0
  1 30  2  0  0  0
  1 86  1  0  0  0
  2  3  1  0  0  0
  2 25  1  0  0  0
  2 87  1  0  0  0
  2 88  1  0  0  0
  3  4  1  0  0  0
  3 89  1  0  0  0
  3 90  1  0  0  0
  4  5  1  0  0  0
  4 91  1  0  0  0
  4 92  1  0  0  0
  5  6  1  0  0  0
  5 26  1  0  0  0
  5 93  1  0  0  0
  6 25  1  0  0  0
  6 94  1  0  0  0
  6 95  1  0  0  0
  7  8  2  0  0  0
  7 26  1  0  0  0
  7 29  1  0  0  0
  8  9  1  0  0  0
  8 22  1  0  0  0
  9 10  1  0  0  0
  9 27  2  0  0  0
 10 11  2  0  0  0
 10 15  1  0  0  0
 11 12  1  0  0  0
 11 96  1  0  0  0
 12 13  2  0  0  0
 12 97  1  0  0  0
 13 14  1  0  0  0
 13 31  1  0  0  0
 14 15  2  0  0  0
 14 98  1  0  0  0
 15 99  1  0  0  0
 16 17  2  0  0  0
 16 21  1  0  0  0
 16 31  1  0  0  0
 17 18  1  0  0  0
 17100  1  0  0  0
 18 19  2  0  0  0
 18101  1  0  0  0
 19 20  1  0  0  0
 19 24  1  0  0  0
 20 21  2  0  0  0
 20102  1  0  0  0
 21 23  1  0  0  0
 22 28  1  0  0  0
 22 32  2  0  0  0
 26 27  1  0  0  0
 28103  1  0  0  0
 28104  1  0  0  0
 29105  1  0  0  0
 29106  1  0  0  0
 33 34  1  0  0  0
 33 66  1  0  0  0
 33 70  2  0  0  0
 34 36  1  0  0  0
 34 59  1  0  0  0
 34107  1  0  0  0
 35 44  2  0  0  0
 35 45  1  0  0  0
 35 68  1  0  0  0
 36 56  1  0  0  0
 36108  1  0  0  0
 37 39  1  0  0  0
 37 47  1  0  0  0
 37 66  1  0  0  0
 37109  1  0  0  0
 38 43  2  0  0  0
 38 46  1  0  0  0
 38 47  1  0  0  0
 39 64  1  0  0  0
 39 67  2  0  0  0
 40 52  1  0  0  0
 40 53  2  0  0  0
 40 58  1  0  0  0
 41110  1  0  0  0
 41111  1  0  0  0
 41112  1  0  0  0
 41 48  1  0  0  0
 42 43  1  0  0  0
 42 66  1  0  0  0
 42113  1  0  0  0
 42114  1  0  0  0
 43 44  1  0  0  0
 44115  1  0  0  0
 45 46  2  0  0  0
 45116  1  0  0  0
 46117  1  0  0  0
 47118  1  0  0  0
 47119  1  0  0  0
 48 56  1  0  0  0
 48 65  1  0  0  0
 48120  1  0  0  0
 49 50  1  0  0  0
 49 53  1  0  0  0
 49 64  1  0  0  0
 49121  1  0  0  0
 50 51  1  0  0  0
 50122  1  0  0  0
 50123  1  0  0  0
 51 52  1  0  0  0
 51124  1  0  0  0
 51125  1  0  0  0
 52126  1  0  0  0
 52127  1  0  0  0
 53 54  1  0  0  0
 54 55  2  0  0  0
 54128  1  0  0  0
 55 57  1  0  0  0
 55129  1  0  0  0
 56 69  2  0  0  0
 57 58  2  0  0  0
 57130  1  0  0  0
 58131  1  0  0  0
 59 60  1  0  0  0
 59 61  1  0  0  0
 59 62  1  0  0  0
 60132  1  0  0  0
 60133  1  0  0  0
 60134  1  0  0  0
 61135  1  0  0  0
 61136  1  0  0  0
 61137  1  0  0  0
 62138  1  0  0  0
 62139  1  0  0  0
 62140  1  0  0  0
 63 65  1  0  0  0
 63141  1  0  0  0
 63142  1  0  0  0
 63143  1  0  0  0
 64144  1  0  0  0
 65145  1  0  0  0
 68 78  1  0  0  0
 71 72  2  0  0  0
 71 76  1  0  0  0
 71146  1  0  0  0
 72 75  1  0  0  0
 72 82  1  0  0  0
 73 74  1  0  0  0
 73 75  2  0  0  0
 73 83  1  0  0  0
 74 76  2  0  0  0
 74 84  1  0  0  0
 75 85  1  0  0  0
 76 86  1  0  0  0
 77 78  2  0  0  0
 77 79  1  0  0  0
 77 80  1  0  0  0
 78147  1  0  0  0
 79 81  1  0  0  0
 79148  1  0  0  0
 79149  1  0  0  0
 80 85  1  0  0  0
 80150  1  0  0  0
 80151  1  0  0  0
 81 85  1  0  0  0
 81152  1  0  0  0
 81153  1  0  0  0
 82154  1  0  0  0
 82155  1  0  0  0
 82156  1  0  0  0
 83157  1  0  0  0
 83158  1  0  0  0
 83159  1  0  0  0
 84160  1  0  0  0
 84161  1  0  0  0
 84162  1  0  0  0
 86163  1  0  0  0
M  ISO  4   1 100  68 101  78 101  86 100
M  END
> <chiral flag>
0

> <version>
0

> <s_m_source_file>
/data/baiqing/PycharmProjects/Reinvent-master-3.2/result/LINK_invent/BTK/process_docking_weight1_custom_product_contain_oxygen_bond_distance_aromatic_linkinvent_7_9_3/rearranged_h_0118.sdf

> <i_m_source_file_index>
48

> <r_mmod_Potential_Energy-OPLS-2005>
220.304580688477

> <r_mmod_Stretch_Energy-OPLS-2005>
104.400283813477

> <r_mmod_Bend_Energy-OPLS-2005>
238.931900024414

> <r_mmod_Torsional_Energy-OPLS-2005>
290.295623779297

> <r_mmod_Improper_Torsional_Energy-OPLS-2005>
6.77310132980347

> <r_mmod_Van_der_Waal_Energy-OPLS-2005>
140.58576965332

> <r_mmod_Electrostatic_Energy-OPLS-2005>
-428.336242675781

> <r_mmod_Solvation_Energy-OPLS-2005>
-213.296737670898

> <b_mmod_Minimization_Converged-OPLS-2005>
0

> <r_mmod_RMS_Derivative-OPLS-2005>
1.24385452270508

$$$$
49
                    3D
 Structure written by MMmdl.
149157  0  0  1  0            999 V2000
  -30.4824  -15.0989   20.3926 C   0  0  0  0  0  0
  -30.4447  -12.6889   19.5111 C   0  0  0  0  0  0
  -29.5296  -12.5497   18.2702 C   0  0  0  0  0  0
  -28.0687  -12.3070   18.6923 C   0  0  0  0  0  0
  -27.6224  -13.2589   19.8312 C   0  0  2  0  0  0
  -28.6626  -13.3502   20.9678 C   0  0  0  0  0  0
  -25.2429  -13.8220   20.5713 C   0  0  0  0  0  0
  -24.1768  -13.0434   20.9259 C   0  0  0  0  0  0
  -24.6401  -11.6926   20.8772 C   0  0  0  0  0  0
  -23.9088  -10.4291   21.0416 C   0  0  0  0  0  0
  -24.3633   -9.4201   21.9190 C   0  0  0  0  0  0
  -23.6301   -8.2240   22.0756 C   0  0  0  0  0  0
  -22.4283   -8.0282   21.3545 C   0  0  0  0  0  0
  -21.9925   -9.0259   20.4648 C   0  0  0  0  0  0
  -22.7261  -10.2136   20.3061 C   0  0  0  0  0  0
  -21.6853   -6.0737   22.5279 C   0  0  0  0  0  0
  -21.4016   -6.5641   23.8212 C   0  0  0  0  0  0
  -21.3660   -5.6795   24.9174 C   0  0  0  0  0  0
  -21.6043   -4.3057   24.7225 C   0  0  0  0  0  0
  -21.8818   -3.8148   23.4347 C   0  0  0  0  0  0
  -21.9193   -4.6965   22.3403 C   0  0  0  0  0  0
  -22.7786  -13.5200   21.1900 C   0  0  0  0  0  0
  -22.1661   -4.2150   21.0981 F   0  0  0  0  0  0
  -21.5628   -3.4541   25.7738 F   0  0  0  0  0  0
  -29.9187  -13.8088   20.3570 N   0  0  0  0  0  0
  -26.2856  -12.9471   20.3224 N   0  0  0  0  0  0
  -25.9334  -11.6594   20.5738 N   0  0  0  0  0  0
  -22.0437  -12.8185   22.0453 N   0  0  0  0  0  0
  -25.4055  -15.1944   20.4068 N   0  0  0  0  0  0
  -31.6970  -15.1449   20.1552 O   0  0  0  0  0  0
  -21.6643   -6.8882   21.4241 O   0  0  0  0  0  0
  -22.3471  -14.5501   20.6736 O   0  0  0  0  0  0
  -24.6536  -31.8341   23.1798 C   0  0  0  0  0  0
  -25.9261  -32.4643   23.8226 C   0  0  1  0  0  0
  -27.2175  -27.0314   20.1664 C   0  0  0  0  0  0
  -25.5967  -33.8453   24.2134 N   0  0  0  0  0  0
  -23.4630  -30.4503   21.5275 C   0  0  2  0  0  0
  -24.9148  -28.8591   20.1114 C   0  0  0  0  0  0
  -22.7621  -29.4494   22.4820 C   0  0  0  0  0  0
  -18.0315  -28.1400   22.8472 C   0  0  0  0  0  0
  -24.1493  -36.7233   23.2644 C   0  0  0  0  0  0
  -26.0268  -30.6742   21.3950 C   0  0  0  0  0  0
  -26.0968  -29.2752   20.7371 C   0  0  0  0  0  0
  -27.2468  -28.3807   20.7430 C   0  0  0  0  0  0
  -26.0065  -26.7450   19.4964 C   0  0  0  0  0  0
  -24.8890  -27.6110   19.4727 C   0  0  0  0  0  0
  -23.6966  -29.7744   20.1499 C   0  0  0  0  0  0
  -25.4129  -36.3001   24.0307 C   0  0  1  0  0  0
  -20.5935  -28.3737   23.1209 C   0  0  2  0  0  0
  -20.6796  -26.9429   22.5401 C   0  0  0  0  0  0
  -19.5769  -26.6379   21.5212 C   0  0  0  0  0  0
  -18.1952  -26.7935   22.1624 C   0  0  0  0  0  0
  -19.1574  -28.8889   23.2830 C   0  0  0  0  0  0
  -18.9486  -30.1482   23.8861 C   0  0  0  0  0  0
  -17.6481  -30.6593   24.0557 C   0  0  0  0  0  0
  -25.9088  -34.9380   23.5036 C   0  0  0  0  0  0
  -16.5372  -29.9083   23.6339 C   0  0  0  0  0  0
  -16.7298  -28.6503   23.0358 C   0  0  0  0  0  0
  -26.4544  -31.6550   25.0711 C   0  0  0  0  0  0
  -25.3699  -31.3768   26.1385 C   0  0  0  0  0  0
  -27.0427  -30.2931   24.6370 C   0  0  0  0  0  0
  -27.6051  -32.4340   25.7508 C   0  0  0  0  0  0
  -27.5574  -37.1773   24.8465 C   0  0  0  0  0  0
  -21.4302  -29.3046   22.3569 N   0  0  0  0  0  0
  -26.4283  -37.3726   23.9408 N   0  0  0  0  0  0
  -24.7351  -31.0100   22.0884 N   0  0  0  0  0  0
  -23.4215  -28.8050   23.3016 O   0  0  0  0  0  0
  -28.2352  -25.9740   20.2391 O   0  0  0  0  0  0
  -26.5687  -34.8896   22.4624 O   0  0  0  0  0  0
  -23.5629  -32.1264   23.6952 O   0  0  0  0  0  0
  -30.7426  -19.9073   20.3170 C   0  0  0  0  0  0
  -31.0071  -18.4723   20.3587 C   0  0  0  0  0  0
  -29.3960  -20.2265   20.3295 C   0  0  0  0  0  0
  -29.8332  -17.7616   20.4163 C   0  0  0  0  0  0
  -28.6418  -21.6253   20.2694 C   0  0  0  0  0  0
  -28.8943  -23.0536   20.2424 C   0  0  0  0  0  0
  -27.4111  -18.6111   20.4572 C   0  0  0  0  0  0
  -27.8935  -24.4147   20.0944 C   0  0  0  0  0  0
  -28.8400  -18.8557   20.4051 N   0  0  0  0  0  0
  -29.6648  -16.2981   20.4879 N   0  0  0  0  0  0
  -31.4709  -12.8737   19.1906 H   0  0  0  0  0  0
  -30.4754  -11.7570   20.0782 H   0  0  0  0  0  0
  -29.8763  -11.7364   17.6312 H   0  0  0  0  0  0
  -29.5896  -13.4588   17.6698 H   0  0  0  0  0  0
  -27.9923  -11.2725   19.0294 H   0  0  0  0  0  0
  -27.4022  -12.3978   17.8338 H   0  0  0  0  0  0
  -27.5645  -14.2461   19.3719 H   0  0  0  0  0  0
  -28.7878  -12.3901   21.4705 H   0  0  0  0  0  0
  -28.3352  -14.0590   21.7300 H   0  0  0  0  0  0
  -25.2774   -9.5674   22.4771 H   0  0  0  0  0  0
  -24.0005   -7.4630   22.7476 H   0  0  0  0  0  0
  -21.0856   -8.8785   19.8953 H   0  0  0  0  0  0
  -22.3721  -10.9679   19.6175 H   0  0  0  0  0  0
  -21.2009   -7.6150   23.9717 H   0  0  0  0  0  0
  -21.1483   -6.0525   25.9078 H   0  0  0  0  0  0
  -22.0596   -2.7610   23.2848 H   0  0  0  0  0  0
  -22.4065  -11.9855   22.4846 H   0  0  0  0  0  0
  -21.1049  -13.1195   22.2654 H   0  0  0  0  0  0
  -24.6190  -15.8300   20.4854 H   0  0  0  0  0  0
  -26.2124  -15.6155   19.9683 H   0  0  0  0  0  0
  -26.7327  -32.5213   23.0946 H   0  0  0  0  0  0
  -25.0076  -33.9549   25.0258 H   0  0  0  0  0  0
  -22.7711  -31.2794   21.3653 H   0  0  0  0  0  0
  -23.3765  -35.9554   23.3280 H   0  0  0  0  0  0
  -24.3575  -36.8899   22.2063 H   0  0  0  0  0  0
  -23.7239  -37.6413   23.6707 H   0  0  0  0  0  0
  -26.1954  -31.4224   20.6194 H   0  0  0  0  0  0
  -26.8917  -30.7270   22.0444 H   0  0  0  0  0  0
  -28.1433  -28.6956   21.2583 H   0  0  0  0  0  0
  -25.8825  -25.7939   19.0021 H   0  0  0  0  0  0
  -23.9894  -27.2869   18.9677 H   0  0  0  0  0  0
  -23.8443  -30.5469   19.3943 H   0  0  0  0  0  0
  -22.8086  -29.2239   19.8341 H   0  0  0  0  0  0
  -25.1323  -36.1814   25.0799 H   0  0  0  0  0  0
  -21.0025  -28.3335   24.1332 H   0  0  0  0  0  0
  -20.5685  -26.2353   23.3632 H   0  0  0  0  0  0
  -21.6660  -26.7420   22.1202 H   0  0  0  0  0  0
  -19.6930  -25.6280   21.1265 H   0  0  0  0  0  0
  -19.6706  -27.3170   20.6727 H   0  0  0  0  0  0
  -17.4219  -26.6676   21.4030 H   0  0  0  0  0  0
  -18.0353  -26.0086   22.9031 H   0  0  0  0  0  0
  -19.7961  -30.7309   24.2213 H   0  0  0  0  0  0
  -17.5032  -31.6269   24.5167 H   0  0  0  0  0  0
  -15.5370  -30.2973   23.7682 H   0  0  0  0  0  0
  -15.8699  -28.0810   22.7092 H   0  0  0  0  0  0
  -24.5890  -30.7106   25.7699 H   0  0  0  0  0  0
  -24.8875  -32.2959   26.4722 H   0  0  0  0  0  0
  -25.7956  -30.8996   27.0221 H   0  0  0  0  0  0
  -26.3072  -29.6627   24.1359 H   0  0  0  0  0  0
  -27.3981  -29.7265   25.4987 H   0  0  0  0  0  0
  -27.9005  -30.4139   23.9752 H   0  0  0  0  0  0
  -27.2627  -33.3670   26.1996 H   0  0  0  0  0  0
  -28.3911  -32.6853   25.0374 H   0  0  0  0  0  0
  -28.0666  -31.8525   26.5500 H   0  0  0  0  0  0
  -28.2574  -38.0085   24.7517 H   0  0  0  0  0  0
  -28.1088  -36.2612   24.6288 H   0  0  0  0  0  0
  -27.2290  -37.1412   25.8867 H   0  0  0  0  0  0
  -20.9535  -29.8749   21.6724 H   0  0  0  0  0  0
  -26.0141  -38.2789   24.1416 H   0  0  0  0  0  0
  -31.5141  -20.6635   20.2686 H   0  0  0  0  0  0
  -31.9884  -18.0174   20.3512 H   0  0  0  0  0  0
  -27.5778  -21.4461   20.2075 H   0  0  0  0  0  0
  -29.9371  -23.3318   20.2937 H   0  0  0  0  0  0
  -26.9413  -19.2974   21.1615 H   0  0  0  0  0  0
  -27.2079  -17.5928   20.7855 H   0  0  0  0  0  0
  -26.9768  -18.7600   19.4687 H   0  0  0  0  0  0
  -27.0426  -24.2250   20.7495 H   0  0  0  0  0  0
  -27.4972  -24.3099   19.0848 H   0  0  0  0  0  0
  -28.7013  -16.0309   20.6143 H   0  0  0  0  0  0
  1 25  1  0  0  0
  1 30  2  0  0  0
  1 80  1  0  0  0
  2  3  1  0  0  0
  2 25  1  0  0  0
  2 81  1  0  0  0
  2 82  1  0  0  0
  3  4  1  0  0  0
  3 83  1  0  0  0
  3 84  1  0  0  0
  4  5  1  0  0  0
  4 85  1  0  0  0
  4 86  1  0  0  0
  5  6  1  0  0  0
  5 26  1  0  0  0
  5 87  1  0  0  0
  6 25  1  0  0  0
  6 88  1  0  0  0
  6 89  1  0  0  0
  7  8  2  0  0  0
  7 26  1  0  0  0
  7 29  1  0  0  0
  8  9  1  0  0  0
  8 22  1  0  0  0
  9 10  1  0  0  0
  9 27  2  0  0  0
 10 11  2  0  0  0
 10 15  1  0  0  0
 11 12  1  0  0  0
 11 90  1  0  0  0
 12 13  2  0  0  0
 12 91  1  0  0  0
 13 14  1  0  0  0
 13 31  1  0  0  0
 14 15  2  0  0  0
 14 92  1  0  0  0
 15 93  1  0  0  0
 16 17  2  0  0  0
 16 21  1  0  0  0
 16 31  1  0  0  0
 17 18  1  0  0  0
 17 94  1  0  0  0
 18 19  2  0  0  0
 18 95  1  0  0  0
 19 20  1  0  0  0
 19 24  1  0  0  0
 20 21  2  0  0  0
 20 96  1  0  0  0
 21 23  1  0  0  0
 22 28  1  0  0  0
 22 32  2  0  0  0
 26 27  1  0  0  0
 28 97  1  0  0  0
 28 98  1  0  0  0
 29 99  1  0  0  0
 29100  1  0  0  0
 33 34  1  0  0  0
 33 66  1  0  0  0
 33 70  2  0  0  0
 34 36  1  0  0  0
 34 59  1  0  0  0
 34101  1  0  0  0
 35 44  2  0  0  0
 35 45  1  0  0  0
 35 68  1  0  0  0
 36 56  1  0  0  0
 36102  1  0  0  0
 37 39  1  0  0  0
 37 47  1  0  0  0
 37 66  1  0  0  0
 37103  1  0  0  0
 38 43  2  0  0  0
 38 46  1  0  0  0
 38 47  1  0  0  0
 39 64  1  0  0  0
 39 67  2  0  0  0
 40 52  1  0  0  0
 40 53  2  0  0  0
 40 58  1  0  0  0
 41104  1  0  0  0
 41105  1  0  0  0
 41106  1  0  0  0
 41 48  1  0  0  0
 42 43  1  0  0  0
 42 66  1  0  0  0
 42107  1  0  0  0
 42108  1  0  0  0
 43 44  1  0  0  0
 44109  1  0  0  0
 45 46  2  0  0  0
 45110  1  0  0  0
 46111  1  0  0  0
 47112  1  0  0  0
 47113  1  0  0  0
 48 56  1  0  0  0
 48 65  1  0  0  0
 48114  1  0  0  0
 49 50  1  0  0  0
 49 53  1  0  0  0
 49 64  1  0  0  0
 49115  1  0  0  0
 50 51  1  0  0  0
 50116  1  0  0  0
 50117  1  0  0  0
 51 52  1  0  0  0
 51118  1  0  0  0
 51119  1  0  0  0
 52120  1  0  0  0
 52121  1  0  0  0
 53 54  1  0  0  0
 54 55  2  0  0  0
 54122  1  0  0  0
 55 57  1  0  0  0
 55123  1  0  0  0
 56 69  2  0  0  0
 57 58  2  0  0  0
 57124  1  0  0  0
 58125  1  0  0  0
 59 60  1  0  0  0
 59 61  1  0  0  0
 59 62  1  0  0  0
 60126  1  0  0  0
 60127  1  0  0  0
 60128  1  0  0  0
 61129  1  0  0  0
 61130  1  0  0  0
 61131  1  0  0  0
 62132  1  0  0  0
 62133  1  0  0  0
 62134  1  0  0  0
 63 65  1  0  0  0
 63135  1  0  0  0
 63136  1  0  0  0
 63137  1  0  0  0
 64138  1  0  0  0
 65139  1  0  0  0
 68 78  1  0  0  0
 71 72  1  0  0  0
 71 73  2  0  0  0
 71140  1  0  0  0
 72 74  2  0  0  0
 72141  1  0  0  0
 73 75  1  0  0  0
 73 79  1  0  0  0
 74 79  1  0  0  0
 74 80  1  0  0  0
 75 76  2  0  0  0
 75142  1  0  0  0
 76 78  1  0  0  0
 76143  1  0  0  0
 77 79  1  0  0  0
 77144  1  0  0  0
 77145  1  0  0  0
 77146  1  0  0  0
 78147  1  0  0  0
 78148  1  0  0  0
 80149  1  0  0  0
M  ISO  4   1 100  68 101  78 101  80 100
M  END
> <chiral flag>
0

> <version>
0

> <s_m_source_file>
/data/baiqing/PycharmProjects/Reinvent-master-3.2/result/LINK_invent/BTK/process_docking_weight1_custom_product_contain_oxygen_bond_distance_aromatic_linkinvent_7_9_3/rearranged_h_0118.sdf

> <i_m_source_file_index>
49

> <r_mmod_Potential_Energy-OPLS-2005>
705.790832519531

> <r_mmod_Stretch_Energy-OPLS-2005>
352.852722167969

> <r_mmod_Bend_Energy-OPLS-2005>
297.350128173828

> <r_mmod_Torsional_Energy-OPLS-2005>
217.178924560547

> <r_mmod_Improper_Torsional_Energy-OPLS-2005>
5.05354833602905

> <r_mmod_Van_der_Waal_Energy-OPLS-2005>
107.364616394043

> <r_mmod_Electrostatic_Energy-OPLS-2005>
-367.561981201172

> <r_mmod_Solvation_Energy-OPLS-2005>
-214.981994628906

> <b_mmod_Minimization_Converged-OPLS-2005>
0

> <r_mmod_RMS_Derivative-OPLS-2005>
0.231909617781639

$$$$
50
                    3D
 Structure written by MMmdl.
149157  0  0  1  0            999 V2000
  -30.6615  -14.7948   20.3663 C   0  0  0  0  0  0
  -30.4499  -12.5096   19.3969 C   0  0  0  0  0  0
  -29.4699  -12.4470   18.2101 C   0  0  0  0  0  0
  -28.0411  -12.2072   18.7189 C   0  0  0  0  0  0
  -27.6259  -13.2106   19.8196 C   0  0  2  0  0  0
  -28.7007  -13.2733   20.9264 C   0  0  0  0  0  0
  -25.2479  -13.8014   20.5878 C   0  0  0  0  0  0
  -24.1703  -13.0330   20.9284 C   0  0  0  0  0  0
  -24.6306  -11.6789   20.8820 C   0  0  0  0  0  0
  -23.8976  -10.4192   21.0496 C   0  0  0  0  0  0
  -24.3531   -9.4067   21.9200 C   0  0  0  0  0  0
  -23.6198   -8.2111   22.0745 C   0  0  0  0  0  0
  -22.4189   -8.0169   21.3539 C   0  0  0  0  0  0
  -21.9845   -9.0156   20.4657 C   0  0  0  0  0  0
  -22.7192  -10.2044   20.3110 C   0  0  0  0  0  0
  -21.6782   -6.0666   22.5314 C   0  0  0  0  0  0
  -21.3978   -6.5614   23.8251 C   0  0  0  0  0  0
  -21.3634   -5.6801   24.9222 C   0  0  0  0  0  0
  -21.6043   -4.3056   24.7281 C   0  0  0  0  0  0
  -21.8787   -3.8114   23.4415 C   0  0  0  0  0  0
  -21.9145   -4.6914   22.3442 C   0  0  0  0  0  0
  -22.7747  -13.5112   21.1889 C   0  0  0  0  0  0
  -22.1625   -4.2095   21.1018 F   0  0  0  0  0  0
  -21.5640   -3.4546   25.7794 F   0  0  0  0  0  0
  -29.9839  -13.5980   20.2908 N   0  0  0  0  0  0
  -26.2909  -12.9229   20.3344 N   0  0  0  0  0  0
  -25.9245  -11.6401   20.5822 N   0  0  0  0  0  0
  -22.0383  -12.8186   22.0507 N   0  0  0  0  0  0
  -25.4223  -15.1676   20.4537 N   0  0  0  0  0  0
  -31.8956  -14.7545   20.3899 O   0  0  0  0  0  0
  -21.6557   -6.8798   21.4259 O   0  0  0  0  0  0
  -22.3501  -14.5391   20.6614 O   0  0  0  0  0  0
  -24.6304  -31.8577   23.1961 C   0  0  0  0  0  0
  -25.9127  -32.4752   23.8388 C   0  0  1  0  0  0
  -27.2383  -27.2508   20.1327 C   0  0  0  0  0  0
  -25.5909  -33.8550   24.2311 N   0  0  0  0  0  0
  -23.4357  -30.4847   21.5243 C   0  0  2  0  0  0
  -24.8978  -28.9327   20.1144 C   0  0  0  0  0  0
  -22.7533  -29.4665   22.4738 C   0  0  0  0  0  0
  -18.0315  -28.1400   22.8472 C   0  0  0  0  0  0
  -24.1516  -36.7270   23.2648 C   0  0  0  0  0  0
  -25.9899  -30.7714   21.3903 C   0  0  0  0  0  0
  -26.0675  -29.3893   20.7324 C   0  0  0  0  0  0
  -27.2351  -28.5529   20.7437 C   0  0  0  0  0  0
  -26.0493  -26.8908   19.4554 C   0  0  0  0  0  0
  -24.8923  -27.6882   19.4742 C   0  0  0  0  0  0
  -23.6707  -29.8170   20.1436 C   0  0  0  0  0  0
  -25.4123  -36.3048   24.0347 C   0  0  1  0  0  0
  -20.5934  -28.3742   23.1192 C   0  0  2  0  0  0
  -20.6790  -26.9442   22.5377 C   0  0  0  0  0  0
  -19.5752  -26.6396   21.5189 C   0  0  0  0  0  0
  -18.1939  -26.7937   22.1620 C   0  0  0  0  0  0
  -19.1583  -28.8871   23.2837 C   0  0  0  0  0  0
  -18.9489  -30.1446   23.8892 C   0  0  0  0  0  0
  -17.6486  -30.6579   24.0566 C   0  0  0  0  0  0
  -25.9035  -34.9417   23.5130 C   0  0  0  0  0  0
  -16.5373  -29.9088   23.6322 C   0  0  0  0  0  0
  -16.7292  -28.6510   23.0329 C   0  0  0  0  0  0
  -26.4523  -31.6545   25.0750 C   0  0  0  0  0  0
  -25.3743  -31.3726   26.1453 C   0  0  0  0  0  0
  -27.0417  -30.2950   24.6323 C   0  0  0  0  0  0
  -27.6074  -32.4308   25.7497 C   0  0  0  0  0  0
  -27.5591  -37.1798   24.8459 C   0  0  0  0  0  0
  -21.4226  -29.3109   22.3562 N   0  0  0  0  0  0
  -26.4310  -37.3732   23.9400 N   0  0  0  0  0  0
  -24.7028  -31.0596   22.0910 N   0  0  0  0  0  0
  -23.4260  -28.8198   23.2808 O   0  0  0  0  0  0
  -28.3372  -26.3534   20.2244 O   0  0  0  0  0  0
  -26.5579  -34.8880   22.4687 O   0  0  0  0  0  0
  -23.5434  -32.1346   23.7229 O   0  0  0  0  0  0
  -27.6630  -18.8892   20.0210 C   0  0  0  0  0  0
  -27.9189  -17.4863   19.8436 C   0  0  0  0  0  0
  -28.8488  -19.5236   20.2615 C   0  0  0  0  0  0
  -29.2612  -17.2318   19.9921 C   0  0  0  0  0  0
  -29.1699  -20.9705   20.4667 C   0  0  0  0  0  0
  -28.4580  -22.1515   20.2724 C   0  0  0  0  0  0
  -30.1214  -16.0560   19.5260 C   0  0  0  0  0  0
  -28.8370  -23.6579   20.6554 C   0  0  0  0  0  0
  -28.2721  -24.9045   19.7814 C   0  0  0  0  0  0
  -30.5398  -16.1231   18.3287 N   0  0  0  0  0  0
  -29.8412  -18.5071   20.2284 O   0  0  0  0  0  0
  -31.4490  -12.7107   18.9970 H   0  0  0  0  0  0
  -30.5185  -11.5503   19.9116 H   0  0  0  0  0  0
  -29.7536  -11.6429   17.5263 H   0  0  0  0  0  0
  -29.4942  -13.3660   17.6193 H   0  0  0  0  0  0
  -28.0208  -11.1978   19.1372 H   0  0  0  0  0  0
  -27.3347  -12.1950   17.8924 H   0  0  0  0  0  0
  -27.5752  -14.1886   19.3413 H   0  0  0  0  0  0
  -28.7800  -12.3268   21.4653 H   0  0  0  0  0  0
  -28.4488  -14.0436   21.6631 H   0  0  0  0  0  0
  -25.2662   -9.5457   22.4797 H   0  0  0  0  0  0
  -23.9866   -7.4449   22.7443 H   0  0  0  0  0  0
  -21.0780   -8.8696   19.8924 H   0  0  0  0  0  0
  -22.3645  -10.9602   19.6240 H   0  0  0  0  0  0
  -21.2014   -7.6106   23.9726 H   0  0  0  0  0  0
  -21.1486   -6.0552   25.9125 H   0  0  0  0  0  0
  -22.0591   -2.7570   23.2954 H   0  0  0  0  0  0
  -22.4059  -11.9869   22.4954 H   0  0  0  0  0  0
  -21.0999  -13.1154   22.2818 H   0  0  0  0  0  0
  -24.6688  -15.8226   20.6247 H   0  0  0  0  0  0
  -26.2977  -15.5932   20.1883 H   0  0  0  0  0  0
  -26.7199  -32.5466   23.1146 H   0  0  0  0  0  0
  -25.0124  -33.9712   25.0511 H   0  0  0  0  0  0
  -22.7355  -31.3065   21.3576 H   0  0  0  0  0  0
  -23.3770  -35.9608   23.3279 H   0  0  0  0  0  0
  -24.3624  -36.8897   22.2063 H   0  0  0  0  0  0
  -23.7278  -37.6490   23.6663 H   0  0  0  0  0  0
  -26.1470  -31.5426   20.6326 H   0  0  0  0  0  0
  -26.8545  -30.8182   22.0413 H   0  0  0  0  0  0
  -28.1258  -28.8845   21.2634 H   0  0  0  0  0  0
  -25.9716  -25.9767   18.8987 H   0  0  0  0  0  0
  -23.9931  -27.3435   18.9826 H   0  0  0  0  0  0
  -23.8052  -30.5797   19.3739 H   0  0  0  0  0  0
  -22.8004  -29.2400   19.8286 H   0  0  0  0  0  0
  -25.1315  -36.1926   25.0844 H   0  0  0  0  0  0
  -21.0060  -28.3314   24.1286 H   0  0  0  0  0  0
  -20.5649  -26.2350   23.3587 H   0  0  0  0  0  0
  -21.6654  -26.7411   22.1194 H   0  0  0  0  0  0
  -19.6906  -25.6300   21.1213 H   0  0  0  0  0  0
  -19.6669  -27.3200   20.6704 H   0  0  0  0  0  0
  -17.4203  -26.6651   21.4029 H   0  0  0  0  0  0
  -18.0353  -26.0085   22.9027 H   0  0  0  0  0  0
  -19.7955  -30.7258   24.2284 H   0  0  0  0  0  0
  -17.5028  -31.6248   24.5187 H   0  0  0  0  0  0
  -15.5368  -30.2991   23.7616 H   0  0  0  0  0  0
  -15.8688  -28.0818   22.7040 H   0  0  0  0  0  0
  -24.5911  -30.7073   25.7794 H   0  0  0  0  0  0
  -24.8940  -32.2905   26.4848 H   0  0  0  0  0  0
  -25.8038  -30.8939   27.0254 H   0  0  0  0  0  0
  -26.3060  -29.6603   24.1357 H   0  0  0  0  0  0
  -27.4065  -29.7311   25.4920 H   0  0  0  0  0  0
  -27.8950  -30.4177   23.9641 H   0  0  0  0  0  0
  -27.2688  -33.3612   26.2068 H   0  0  0  0  0  0
  -28.3877  -32.6848   25.0308 H   0  0  0  0  0  0
  -28.0752  -31.8440   26.5408 H   0  0  0  0  0  0
  -28.2591  -38.0111   24.7494 H   0  0  0  0  0  0
  -28.1111  -36.2634   24.6305 H   0  0  0  0  0  0
  -27.2296  -37.1460   25.8859 H   0  0  0  0  0  0
  -20.9365  -29.8919   21.6877 H   0  0  0  0  0  0
  -26.0189  -38.2831   24.1344 H   0  0  0  0  0  0
  -26.7094  -19.3946   19.9303 H   0  0  0  0  0  0
  -27.1941  -16.7644   19.5163 H   0  0  0  0  0  0
  -30.1415  -21.1058   20.9146 H   0  0  0  0  0  0
  -27.4715  -22.0410   19.8366 H   0  0  0  0  0  0
  -29.9228  -23.7150   20.7623 H   0  0  0  0  0  0
  -28.4499  -23.7980   21.6674 H   0  0  0  0  0  0
  -27.2582  -24.6066   19.5441 H   0  0  0  0  0  0
  -28.8161  -24.8787   18.8370 H   0  0  0  0  0  0
  -31.1515  -15.3331   18.1614 H   0  0  0  0  0  0
  1 25  1  0  0  0
  1 30  2  0  0  0
  1 77  1  0  0  0
  2  3  1  0  0  0
  2 25  1  0  0  0
  2 82  1  0  0  0
  2 83  1  0  0  0
  3  4  1  0  0  0
  3 84  1  0  0  0
  3 85  1  0  0  0
  4  5  1  0  0  0
  4 86  1  0  0  0
  4 87  1  0  0  0
  5  6  1  0  0  0
  5 26  1  0  0  0
  5 88  1  0  0  0
  6 25  1  0  0  0
  6 89  1  0  0  0
  6 90  1  0  0  0
  7  8  2  0  0  0
  7 26  1  0  0  0
  7 29  1  0  0  0
  8  9  1  0  0  0
  8 22  1  0  0  0
  9 10  1  0  0  0
  9 27  2  0  0  0
 10 11  2  0  0  0
 10 15  1  0  0  0
 11 12  1  0  0  0
 11 91  1  0  0  0
 12 13  2  0  0  0
 12 92  1  0  0  0
 13 14  1  0  0  0
 13 31  1  0  0  0
 14 15  2  0  0  0
 14 93  1  0  0  0
 15 94  1  0  0  0
 16 17  2  0  0  0
 16 21  1  0  0  0
 16 31  1  0  0  0
 17 18  1  0  0  0
 17 95  1  0  0  0
 18 19  2  0  0  0
 18 96  1  0  0  0
 19 20  1  0  0  0
 19 24  1  0  0  0
 20 21  2  0  0  0
 20 97  1  0  0  0
 21 23  1  0  0  0
 22 28  1  0  0  0
 22 32  2  0  0  0
 26 27  1  0  0  0
 28 98  1  0  0  0
 28 99  1  0  0  0
 29100  1  0  0  0
 29101  1  0  0  0
 33 34  1  0  0  0
 33 66  1  0  0  0
 33 70  2  0  0  0
 34 36  1  0  0  0
 34 59  1  0  0  0
 34102  1  0  0  0
 35 44  2  0  0  0
 35 45  1  0  0  0
 35 68  1  0  0  0
 36 56  1  0  0  0
 36103  1  0  0  0
 37 39  1  0  0  0
 37 47  1  0  0  0
 37 66  1  0  0  0
 37104  1  0  0  0
 38 43  2  0  0  0
 38 46  1  0  0  0
 38 47  1  0  0  0
 39 64  1  0  0  0
 39 67  2  0  0  0
 40 52  1  0  0  0
 40 53  2  0  0  0
 40 58  1  0  0  0
 41105  1  0  0  0
 41106  1  0  0  0
 41107  1  0  0  0
 41 48  1  0  0  0
 42 43  1  0  0  0
 42 66  1  0  0  0
 42108  1  0  0  0
 42109  1  0  0  0
 43 44  1  0  0  0
 44110  1  0  0  0
 45 46  2  0  0  0
 45111  1  0  0  0
 46112  1  0  0  0
 47113  1  0  0  0
 47114  1  0  0  0
 48 56  1  0  0  0
 48 65  1  0  0  0
 48115  1  0  0  0
 49 50  1  0  0  0
 49 53  1  0  0  0
 49 64  1  0  0  0
 49116  1  0  0  0
 50 51  1  0  0  0
 50117  1  0  0  0
 50118  1  0  0  0
 51 52  1  0  0  0
 51119  1  0  0  0
 51120  1  0  0  0
 52121  1  0  0  0
 52122  1  0  0  0
 53 54  1  0  0  0
 54 55  2  0  0  0
 54123  1  0  0  0
 55 57  1  0  0  0
 55124  1  0  0  0
 56 69  2  0  0  0
 57 58  2  0  0  0
 57125  1  0  0  0
 58126  1  0  0  0
 59 60  1  0  0  0
 59 61  1  0  0  0
 59 62  1  0  0  0
 60127  1  0  0  0
 60128  1  0  0  0
 60129  1  0  0  0
 61130  1  0  0  0
 61131  1  0  0  0
 61132  1  0  0  0
 62133  1  0  0  0
 62134  1  0  0  0
 62135  1  0  0  0
 63 65  1  0  0  0
 63136  1  0  0  0
 63137  1  0  0  0
 63138  1  0  0  0
 64139  1  0  0  0
 65140  1  0  0  0
 68 79  1  0  0  0
 71 72  1  0  0  0
 71 73  2  0  0  0
 71141  1  0  0  0
 72 74  2  0  0  0
 72142  1  0  0  0
 73 75  1  0  0  0
 73 81  1  0  0  0
 74 77  1  0  0  0
 74 81  1  0  0  0
 75 76  2  0  0  0
 75143  1  0  0  0
 76 78  1  0  0  0
 76144  1  0  0  0
 77 80  2  0  0  0
 78 79  1  0  0  0
 78145  1  0  0  0
 78146  1  0  0  0
 79147  1  0  0  0
 79148  1  0  0  0
 80149  1  0  0  0
M  ISO  4   1 100  68 101  77 100  79 101
M  END
> <chiral flag>
0

> <version>
0

> <s_m_source_file>
/data/baiqing/PycharmProjects/Reinvent-master-3.2/result/LINK_invent/BTK/process_docking_weight1_custom_product_contain_oxygen_bond_distance_aromatic_linkinvent_7_9_3/rearranged_h_0118.sdf

> <i_m_source_file_index>
50

> <r_mmod_Potential_Energy-OPLS-2005>
494.313537597656

> <r_mmod_Stretch_Energy-OPLS-2005>
134.765884399414

> <r_mmod_Bend_Energy-OPLS-2005>
205.642318725586

> <r_mmod_Torsional_Energy-OPLS-2005>
281.196258544922

> <r_mmod_Improper_Torsional_Energy-OPLS-2005>
38.6710243225098

> <r_mmod_Van_der_Waal_Energy-OPLS-2005>
114.806678771973

> <r_mmod_Electrostatic_Energy-OPLS-2005>
-200.73860168457

> <r_mmod_Solvation_Energy-OPLS-2005>
-209.086273193359

> <b_mmod_Minimization_Converged-OPLS-2005>
0

> <r_mmod_RMS_Derivative-OPLS-2005>
8.64298820495605

$$$$
51
                    3D
 Structure written by MMmdl.
165174  0  0  1  0            999 V2000
  -30.6210  -14.6303   20.5073 C   0  0  0  0  0  0
  -30.4433  -12.3889   19.4500 C   0  0  0  0  0  0
  -29.5116  -12.5139   18.2235 C   0  0  0  0  0  0
  -28.0329  -12.3524   18.6326 C   0  0  0  0  0  0
  -27.6561  -13.2156   19.8663 C   0  0  2  0  0  0
  -28.7012  -13.0567   20.9942 C   0  0  0  0  0  0
  -25.2566  -13.8166   20.5673 C   0  0  0  0  0  0
  -24.1832  -13.0433   20.9176 C   0  0  0  0  0  0
  -24.6401  -11.6904   20.8728 C   0  0  0  0  0  0
  -23.9067  -10.4289   21.0394 C   0  0  0  0  0  0
  -24.3619   -9.4206   21.9174 C   0  0  0  0  0  0
  -23.6291   -8.2242   22.0752 C   0  0  0  0  0  0
  -22.4275   -8.0275   21.3540 C   0  0  0  0  0  0
  -21.9904   -9.0251   20.4646 C   0  0  0  0  0  0
  -22.7237  -10.2129   20.3049 C   0  0  0  0  0  0
  -21.6852   -6.0725   22.5274 C   0  0  0  0  0  0
  -21.4014   -6.5633   23.8207 C   0  0  0  0  0  0
  -21.3662   -5.6788   24.9169 C   0  0  0  0  0  0
  -21.6047   -4.3051   24.7219 C   0  0  0  0  0  0
  -21.8823   -3.8139   23.4343 C   0  0  0  0  0  0
  -21.9193   -4.6953   22.3397 C   0  0  0  0  0  0
  -22.7854  -13.5226   21.1831 C   0  0  0  0  0  0
  -22.1659   -4.2139   21.0974 F   0  0  0  0  0  0
  -21.5633   -3.4535   25.7732 F   0  0  0  0  0  0
  -30.0187  -13.4019   20.4350 N   0  0  0  0  0  0
  -26.3005  -12.9347   20.3323 N   0  0  0  0  0  0
  -25.9332  -11.6504   20.5751 N   0  0  0  0  0  0
  -22.0494  -12.8233   22.0400 N   0  0  0  0  0  0
  -25.4277  -15.1886   20.4081 N   0  0  0  0  0  0
  -31.7786  -14.8077   20.1173 O   0  0  0  0  0  0
  -21.6640   -6.8870   21.4239 O   0  0  0  0  0  0
  -22.3538  -14.5524   20.6666 O   0  0  0  0  0  0
  -24.6251  -31.8613   23.2047 C   0  0  0  0  0  0
  -25.9106  -32.4785   23.8371 C   0  0  1  0  0  0
  -27.2193  -27.3249   20.1133 C   0  0  0  0  0  0
  -25.5928  -33.8587   24.2286 N   0  0  0  0  0  0
  -23.4182  -30.4869   21.5472 C   0  0  2  0  0  0
  -24.8639  -28.9446   20.1132 C   0  0  0  0  0  0
  -22.7467  -29.4636   22.4940 C   0  0  0  0  0  0
  -18.0285  -28.1387   22.8483 C   0  0  0  0  0  0
  -24.1491  -36.7298   23.2638 C   0  0  0  0  0  0
  -25.9604  -30.7926   21.3773 C   0  0  0  0  0  0
  -26.0337  -29.4209   20.7190 C   0  0  0  0  0  0
  -27.2156  -28.6225   20.7109 C   0  0  0  0  0  0
  -26.0318  -26.9125   19.4660 C   0  0  0  0  0  0
  -24.8641  -27.6949   19.4788 C   0  0  0  0  0  0
  -23.6329  -29.8248   20.1617 C   0  0  0  0  0  0
  -25.4116  -36.3088   24.0327 C   0  0  1  0  0  0
  -20.5883  -28.3692   23.1277 C   0  0  2  0  0  0
  -20.6775  -26.9415   22.5405 C   0  0  0  0  0  0
  -19.5756  -26.6383   21.5204 C   0  0  0  0  0  0
  -18.1934  -26.7929   22.1617 C   0  0  0  0  0  0
  -19.1536  -28.8854   23.2877 C   0  0  0  0  0  0
  -18.9460  -30.1453   23.8899 C   0  0  0  0  0  0
  -17.6463  -30.6589   24.0561 C   0  0  0  0  0  0
  -25.9050  -34.9456   23.5103 C   0  0  0  0  0  0
  -16.5351  -29.9089   23.6328 C   0  0  0  0  0  0
  -16.7273  -28.6504   23.0349 C   0  0  0  0  0  0
  -26.4491  -31.6598   25.0742 C   0  0  0  0  0  0
  -25.3727  -31.3736   26.1469 C   0  0  0  0  0  0
  -27.0329  -30.3021   24.6195 C   0  0  0  0  0  0
  -27.6053  -32.4332   25.7509 C   0  0  0  0  0  0
  -27.5578  -37.1806   24.8461 C   0  0  0  0  0  0
  -21.4181  -29.3049   22.3675 N   0  0  0  0  0  0
  -26.4292  -37.3781   23.9402 N   0  0  0  0  0  0
  -24.6867  -31.0629   22.0998 N   0  0  0  0  0  0
  -23.4195  -28.8166   23.3008 O   0  0  0  0  0  0
  -28.3312  -26.4701   20.1409 O   0  0  0  0  0  0
  -26.5613  -34.8917   22.4665 O   0  0  0  0  0  0
  -23.5415  -32.1409   23.7373 O   0  0  0  0  0  0
  -30.5532  -19.4338   21.0502 C   0  0  0  0  0  0
  -28.9250  -17.6367   19.6669 C   0  0  0  0  0  0
  -30.6591  -18.0261   21.2974 C   0  0  0  0  0  0
  -29.6498  -19.9797   20.0993 C   0  0  0  0  0  0
  -29.8521  -17.0887   20.5898 C   0  0  0  0  0  0
  -28.8301  -19.0340   19.4170 C   0  0  0  0  0  0
  -30.2840  -24.4277   19.4855 C   0  0  0  0  0  0
  -29.1651  -23.9723   20.0966 C   0  0  0  0  0  0
  -31.4389  -23.6218   19.0688 C   0  0  0  0  0  0
  -31.2479  -22.4118   18.1518 C   0  0  0  0  0  0
  -29.9388  -21.6384   18.3476 C   0  0  0  0  0  0
  -28.8963  -22.4462   20.4884 C   0  0  1  0  0  0
  -31.6364  -17.5363   22.3496 C   0  0  0  0  0  0
  -27.3952  -22.1002   20.4214 C   0  0  0  0  0  0
  -28.0784  -25.0424   20.4672 C   0  0  0  0  0  0
  -29.6624  -21.3823   19.7597 N   0  0  0  0  0  0
  -29.8053  -15.6600   20.8892 N   0  0  0  0  0  0
  -32.5881  -23.9370   19.3882 O   0  0  0  0  0  0
  -27.9377  -19.4622   18.4892 F   0  0  0  0  0  0
  -31.4844  -12.5202   19.1493 H   0  0  0  0  0  0
  -30.3812  -11.3901   19.8841 H   0  0  0  0  0  0
  -29.7763  -11.7691   17.4719 H   0  0  0  0  0  0
  -29.6561  -13.4873   17.7517 H   0  0  0  0  0  0
  -27.8674  -11.2980   18.8563 H   0  0  0  0  0  0
  -27.3805  -12.5910   17.7916 H   0  0  0  0  0  0
  -27.6768  -14.2534   19.5342 H   0  0  0  0  0  0
  -28.7105  -12.0314   21.3657 H   0  0  0  0  0  0
  -28.4474  -13.6786   21.8539 H   0  0  0  0  0  0
  -25.2765   -9.5684   22.4744 H   0  0  0  0  0  0
  -24.0000   -7.4637   22.7479 H   0  0  0  0  0  0
  -21.0829   -8.8772   19.8959 H   0  0  0  0  0  0
  -22.3693  -10.9663   19.6155 H   0  0  0  0  0  0
  -21.2010   -7.6142   23.9709 H   0  0  0  0  0  0
  -21.1481   -6.0515   25.9074 H   0  0  0  0  0  0
  -22.0602   -2.7601   23.2845 H   0  0  0  0  0  0
  -22.4103  -11.9901   22.4805 H   0  0  0  0  0  0
  -21.1115  -13.1272   22.2595 H   0  0  0  0  0  0
  -24.6593  -15.8423   20.5122 H   0  0  0  0  0  0
  -26.2750  -15.6273   20.0737 H   0  0  0  0  0  0
  -26.7175  -32.5454   23.1123 H   0  0  0  0  0  0
  -25.0089  -33.9739   25.0439 H   0  0  0  0  0  0
  -22.7126  -31.3082   21.4054 H   0  0  0  0  0  0
  -23.3748  -35.9636   23.3306 H   0  0  0  0  0  0
  -24.3586  -36.8910   22.2050 H   0  0  0  0  0  0
  -23.7251  -37.6505   23.6656 H   0  0  0  0  0  0
  -26.0935  -31.5567   20.6102 H   0  0  0  0  0  0
  -26.8405  -30.8396   22.0070 H   0  0  0  0  0  0
  -28.1133  -28.9830   21.1936 H   0  0  0  0  0  0
  -25.9812  -25.9781   18.9290 H   0  0  0  0  0  0
  -23.9720  -27.3305   18.9883 H   0  0  0  0  0  0
  -23.7539  -30.6028   19.4068 H   0  0  0  0  0  0
  -22.7528  -29.2553   19.8571 H   0  0  0  0  0  0
  -25.1297  -36.1944   25.0820 H   0  0  0  0  0  0
  -20.9979  -28.3268   24.1395 H   0  0  0  0  0  0
  -20.5668  -26.2306   23.3607 H   0  0  0  0  0  0
  -21.6645  -26.7446   22.1203 H   0  0  0  0  0  0
  -19.6919  -25.6290   21.1243 H   0  0  0  0  0  0
  -19.6697  -27.3181   20.6724 H   0  0  0  0  0  0
  -17.4204  -26.6669   21.4019 H   0  0  0  0  0  0
  -18.0341  -26.0069   22.9015 H   0  0  0  0  0  0
  -19.7937  -30.7259   24.2276 H   0  0  0  0  0  0
  -17.5020  -31.6271   24.5159 H   0  0  0  0  0  0
  -15.5351  -30.2993   23.7650 H   0  0  0  0  0  0
  -15.8672  -28.0821   22.7071 H   0  0  0  0  0  0
  -24.5902  -30.7085   25.7798 H   0  0  0  0  0  0
  -24.8917  -32.2903   26.4893 H   0  0  0  0  0  0
  -25.8054  -30.8917   27.0246 H   0  0  0  0  0  0
  -26.2903  -29.6782   24.1208 H   0  0  0  0  0  0
  -27.4012  -29.7270   25.4701 H   0  0  0  0  0  0
  -27.8782  -30.4302   23.9429 H   0  0  0  0  0  0
  -27.2665  -33.3627   26.2093 H   0  0  0  0  0  0
  -28.3862  -32.6899   25.0340 H   0  0  0  0  0  0
  -28.0727  -31.8458   26.5422 H   0  0  0  0  0  0
  -28.2598  -38.0100   24.7500 H   0  0  0  0  0  0
  -28.1074  -36.2631   24.6300 H   0  0  0  0  0  0
  -27.2298  -37.1467   25.8865 H   0  0  0  0  0  0
  -20.9354  -29.8794   21.6906 H   0  0  0  0  0  0
  -26.0175  -38.2857   24.1400 H   0  0  0  0  0  0
  -31.2001  -20.1118   21.5883 H   0  0  0  0  0  0
  -28.2623  -16.9799   19.1243 H   0  0  0  0  0  0
  -30.3805  -25.4850   19.2926 H   0  0  0  0  0  0
  -32.0847  -21.7348   18.3239 H   0  0  0  0  0  0
  -31.3278  -22.7429   17.1164 H   0  0  0  0  0  0
  -30.0060  -20.7137   17.7732 H   0  0  0  0  0  0
  -29.1094  -22.1950   17.9072 H   0  0  0  0  0  0
  -29.1894  -22.3658   21.5367 H   0  0  0  0  0  0
  -32.0955  -18.3648   22.8899 H   0  0  0  0  0  0
  -32.4322  -16.9535   21.8852 H   0  0  0  0  0  0
  -31.1299  -16.9040   23.0790 H   0  0  0  0  0  0
  -27.0050  -22.1934   19.4072 H   0  0  0  0  0  0
  -26.7983  -22.7368   21.0739 H   0  0  0  0  0  0
  -27.2005  -21.0811   20.7557 H   0  0  0  0  0  0
  -27.9085  -24.9807   21.5425 H   0  0  0  0  0  0
  -27.1649  -24.6918   19.9994 H   0  0  0  0  0  0
  -28.8923  -15.3224   21.1516 H   0  0  0  0  0  0
  1 25  1  0  0  0
  1 30  2  0  0  0
  1 87  1  0  0  0
  2  3  1  0  0  0
  2 25  1  0  0  0
  2 90  1  0  0  0
  2 91  1  0  0  0
  3  4  1  0  0  0
  3 92  1  0  0  0
  3 93  1  0  0  0
  4  5  1  0  0  0
  4 94  1  0  0  0
  4 95  1  0  0  0
  5  6  1  0  0  0
  5 26  1  0  0  0
  5 96  1  0  0  0
  6 25  1  0  0  0
  6 97  1  0  0  0
  6 98  1  0  0  0
  7  8  2  0  0  0
  7 26  1  0  0  0
  7 29  1  0  0  0
  8  9  1  0  0  0
  8 22  1  0  0  0
  9 10  1  0  0  0
  9 27  2  0  0  0
 10 11  2  0  0  0
 10 15  1  0  0  0
 11 12  1  0  0  0
 11 99  1  0  0  0
 12 13  2  0  0  0
 12100  1  0  0  0
 13 14  1  0  0  0
 13 31  1  0  0  0
 14 15  2  0  0  0
 14101  1  0  0  0
 15102  1  0  0  0
 16 17  2  0  0  0
 16 21  1  0  0  0
 16 31  1  0  0  0
 17 18  1  0  0  0
 17103  1  0  0  0
 18 19  2  0  0  0
 18104  1  0  0  0
 19 20  1  0  0  0
 19 24  1  0  0  0
 20 21  2  0  0  0
 20105  1  0  0  0
 21 23  1  0  0  0
 22 28  1  0  0  0
 22 32  2  0  0  0
 26 27  1  0  0  0
 28106  1  0  0  0
 28107  1  0  0  0
 29108  1  0  0  0
 29109  1  0  0  0
 33 34  1  0  0  0
 33 66  1  0  0  0
 33 70  2  0  0  0
 34 36  1  0  0  0
 34 59  1  0  0  0
 34110  1  0  0  0
 35 44  2  0  0  0
 35 45  1  0  0  0
 35 68  1  0  0  0
 36 56  1  0  0  0
 36111  1  0  0  0
 37 39  1  0  0  0
 37 47  1  0  0  0
 37 66  1  0  0  0
 37112  1  0  0  0
 38 43  2  0  0  0
 38 46  1  0  0  0
 38 47  1  0  0  0
 39 64  1  0  0  0
 39 67  2  0  0  0
 40 52  1  0  0  0
 40 53  2  0  0  0
 40 58  1  0  0  0
 41113  1  0  0  0
 41114  1  0  0  0
 41115  1  0  0  0
 41 48  1  0  0  0
 42 43  1  0  0  0
 42 66  1  0  0  0
 42116  1  0  0  0
 42117  1  0  0  0
 43 44  1  0  0  0
 44118  1  0  0  0
 45 46  2  0  0  0
 45119  1  0  0  0
 46120  1  0  0  0
 47121  1  0  0  0
 47122  1  0  0  0
 48 56  1  0  0  0
 48 65  1  0  0  0
 48123  1  0  0  0
 49 50  1  0  0  0
 49 53  1  0  0  0
 49 64  1  0  0  0
 49124  1  0  0  0
 50 51  1  0  0  0
 50125  1  0  0  0
 50126  1  0  0  0
 51 52  1  0  0  0
 51127  1  0  0  0
 51128  1  0  0  0
 52129  1  0  0  0
 52130  1  0  0  0
 53 54  1  0  0  0
 54 55  2  0  0  0
 54131  1  0  0  0
 55 57  1  0  0  0
 55132  1  0  0  0
 56 69  2  0  0  0
 57 58  2  0  0  0
 57133  1  0  0  0
 58134  1  0  0  0
 59 60  1  0  0  0
 59 61  1  0  0  0
 59 62  1  0  0  0
 60135  1  0  0  0
 60136  1  0  0  0
 60137  1  0  0  0
 61138  1  0  0  0
 61139  1  0  0  0
 61140  1  0  0  0
 62141  1  0  0  0
 62142  1  0  0  0
 62143  1  0  0  0
 63 65  1  0  0  0
 63144  1  0  0  0
 63145  1  0  0  0
 63146  1  0  0  0
 64147  1  0  0  0
 65148  1  0  0  0
 68 85  1  0  0  0
 71 73  2  0  0  0
 71 74  1  0  0  0
 71149  1  0  0  0
 72 75  2  0  0  0
 72 76  1  0  0  0
 72150  1  0  0  0
 73 75  1  0  0  0
 73 83  1  0  0  0
 74 76  2  0  0  0
 74 86  1  0  0  0
 75 87  1  0  0  0
 76 89  1  0  0  0
 77 78  2  0  0  0
 77 79  1  0  0  0
 77151  1  0  0  0
 78 82  1  0  0  0
 78 85  1  0  0  0
 79 80  1  0  0  0
 79 88  2  0  0  0
 80 81  1  0  0  0
 80152  1  0  0  0
 80153  1  0  0  0
 81 86  1  0  0  0
 81154  1  0  0  0
 81155  1  0  0  0
 82 84  1  0  0  0
 82 86  1  0  0  0
 82156  1  0  0  0
 83157  1  0  0  0
 83158  1  0  0  0
 83159  1  0  0  0
 84160  1  0  0  0
 84161  1  0  0  0
 84162  1  0  0  0
 85163  1  0  0  0
 85164  1  0  0  0
 87165  1  0  0  0
M  ISO  4   1 100  68 101  85 101  87 100
M  END
> <chiral flag>
0

> <version>
0

> <s_m_source_file>
/data/baiqing/PycharmProjects/Reinvent-master-3.2/result/LINK_invent/BTK/process_docking_weight1_custom_product_contain_oxygen_bond_distance_aromatic_linkinvent_7_9_3/rearranged_h_0118.sdf

> <i_m_source_file_index>
51

> <r_mmod_Potential_Energy-OPLS-2005>
115.988487243652

> <r_mmod_Stretch_Energy-OPLS-2005>
84.3966445922852

> <r_mmod_Bend_Energy-OPLS-2005>
146.782897949219

> <r_mmod_Torsional_Energy-OPLS-2005>
283.067352294922

> <r_mmod_Improper_Torsional_Energy-OPLS-2005>
8.04475116729736

> <r_mmod_Van_der_Waal_Energy-OPLS-2005>
156.044616699219

> <r_mmod_Electrostatic_Energy-OPLS-2005>
-386.739898681641

> <r_mmod_Solvation_Energy-OPLS-2005>
-221.556427001953

> <b_mmod_Minimization_Converged-OPLS-2005>
0

> <r_mmod_RMS_Derivative-OPLS-2005>
0.905482470989227

$$$$
52
                    3D
 Structure written by MMmdl.
160169  0  0  1  0            999 V2000
  -30.6012  -14.8095   20.4433 C   0  0  0  0  0  0
  -30.4366  -12.4980   19.4743 C   0  0  0  0  0  0
  -29.5124  -12.5146   18.2364 C   0  0  0  0  0  0
  -28.0417  -12.3241   18.6549 C   0  0  0  0  0  0
  -27.6370  -13.2368   19.8427 C   0  0  2  0  0  0
  -28.6859  -13.2103   20.9760 C   0  0  0  0  0  0
  -25.2496  -13.8202   20.5696 C   0  0  0  0  0  0
  -24.1797  -13.0437   20.9216 C   0  0  0  0  0  0
  -24.6403  -11.6918   20.8752 C   0  0  0  0  0  0
  -23.9080  -10.4294   21.0403 C   0  0  0  0  0  0
  -24.3635   -9.4212   21.9177 C   0  0  0  0  0  0
  -23.6309   -8.2248   22.0748 C   0  0  0  0  0  0
  -22.4289   -8.0285   21.3546 C   0  0  0  0  0  0
  -21.9922   -9.0253   20.4642 C   0  0  0  0  0  0
  -22.7251  -10.2133   20.3051 C   0  0  0  0  0  0
  -21.6855   -6.0739   22.5283 C   0  0  0  0  0  0
  -21.4017   -6.5644   23.8214 C   0  0  0  0  0  0
  -21.3659   -5.6790   24.9171 C   0  0  0  0  0  0
  -21.6050   -4.3056   24.7219 C   0  0  0  0  0  0
  -21.8817   -3.8146   23.4342 C   0  0  0  0  0  0
  -21.9195   -4.6965   22.3402 C   0  0  0  0  0  0
  -22.7817  -13.5212   21.1872 C   0  0  0  0  0  0
  -22.1660   -4.2154   21.0979 F   0  0  0  0  0  0
  -21.5631   -3.4536   25.7730 F   0  0  0  0  0  0
  -29.9766  -13.5782   20.3800 N   0  0  0  0  0  0
  -26.2924  -12.9418   20.3262 N   0  0  0  0  0  0
  -25.9342  -11.6557   20.5757 N   0  0  0  0  0  0
  -22.0472  -12.8202   22.0429 N   0  0  0  0  0  0
  -25.4157  -15.1929   20.4079 N   0  0  0  0  0  0
  -31.8072  -14.8757   20.1846 O   0  0  0  0  0  0
  -21.6653   -6.8881   21.4243 O   0  0  0  0  0  0
  -22.3495  -14.5517   20.6725 O   0  0  0  0  0  0
  -24.6366  -31.8515   23.1965 C   0  0  0  0  0  0
  -25.9170  -32.4734   23.8322 C   0  0  1  0  0  0
  -27.2188  -27.2230   20.1123 C   0  0  0  0  0  0
  -25.5945  -33.8540   24.2238 N   0  0  0  0  0  0
  -23.4359  -30.4768   21.5402 C   0  0  2  0  0  0
  -24.8824  -28.9233   20.1089 C   0  0  0  0  0  0
  -22.7533  -29.4590   22.4874 C   0  0  0  0  0  0
  -18.0301  -28.1394   22.8479 C   0  0  0  0  0  0
  -24.1490  -36.7279   23.2639 C   0  0  0  0  0  0
  -25.9880  -30.7518   21.3837 C   0  0  0  0  0  0
  -26.0606  -29.3731   20.7191 C   0  0  0  0  0  0
  -27.2311  -28.5359   20.7113 C   0  0  0  0  0  0
  -26.0003  -26.8480   19.4956 C   0  0  0  0  0  0
  -24.8589  -27.6689   19.4878 C   0  0  0  0  0  0
  -23.6572  -29.8163   20.1561 C   0  0  0  0  0  0
  -25.4118  -36.3052   24.0319 C   0  0  1  0  0  0
  -20.5911  -28.3711   23.1248 C   0  0  2  0  0  0
  -20.6788  -26.9423   22.5402 C   0  0  0  0  0  0
  -19.5762  -26.6383   21.5210 C   0  0  0  0  0  0
  -18.1944  -26.7935   22.1624 C   0  0  0  0  0  0
  -19.1557  -28.8868   23.2861 C   0  0  0  0  0  0
  -18.9472  -30.1466   23.8884 C   0  0  0  0  0  0
  -17.6469  -30.6591   24.0560 C   0  0  0  0  0  0
  -25.9060  -34.9426   23.5080 C   0  0  0  0  0  0
  -16.5361  -29.9085   23.6334 C   0  0  0  0  0  0
  -16.7286  -28.6505   23.0354 C   0  0  0  0  0  0
  -26.4512  -31.6579   25.0737 C   0  0  0  0  0  0
  -25.3713  -31.3759   26.1445 C   0  0  0  0  0  0
  -27.0368  -30.2981   24.6276 C   0  0  0  0  0  0
  -27.6049  -32.4335   25.7523 C   0  0  0  0  0  0
  -27.5578  -37.1796   24.8460 C   0  0  0  0  0  0
  -21.4231  -29.3057   22.3628 N   0  0  0  0  0  0
  -26.4284  -37.3758   23.9406 N   0  0  0  0  0  0
  -24.7064  -31.0447   22.0959 N   0  0  0  0  0  0
  -23.4216  -28.8115   23.2976 O   0  0  0  0  0  0
  -28.2738  -26.2615   20.1812 O   0  0  0  0  0  0
  -26.5633  -34.8906   22.4649 O   0  0  0  0  0  0
  -23.5503  -32.1353   23.7232 O   0  0  0  0  0  0
  -30.8599  -20.2185   21.0731 C   0  0  0  0  0  0
  -31.3750  -17.8062   21.2559 C   0  0  0  0  0  0
  -29.3002  -18.5545   20.2520 C   0  0  0  0  0  0
  -31.7157  -19.1633   21.4682 C   0  0  0  0  0  0
  -29.6247  -19.9828   20.4315 C   0  0  0  0  0  0
  -30.1557  -17.4295   20.6484 C   0  0  0  0  0  0
  -28.5257  -23.7612   19.2953 C   0  0  0  0  0  0
  -28.2693  -25.1468   19.2867 C   0  0  0  0  0  0
  -28.2712  -23.0620   17.9688 C   0  0  0  0  0  0
  -28.9932  -22.6404   20.3470 C   0  0  0  0  0  0
  -27.2469  -21.9460   18.1844 C   0  0  0  0  0  0
  -27.8335  -20.7642   18.9692 C   0  0  0  0  0  0
  -33.0313  -19.4981   22.1461 C   0  0  0  0  0  0
  -28.8282  -21.1383   19.9827 N   0  0  0  0  0  0
  -29.8144  -15.9671   20.5305 N   0  0  0  0  0  0
  -31.4758  -12.6306   19.1682 H   0  0  0  0  0  0
  -30.3927  -11.5314   19.9786 H   0  0  0  0  0  0
  -29.8082  -11.7341   17.5345 H   0  0  0  0  0  0
  -29.6238  -13.4626   17.7064 H   0  0  0  0  0  0
  -27.9146  -11.2780   18.9345 H   0  0  0  0  0  0
  -27.3797  -12.4921   17.8043 H   0  0  0  0  0  0
  -27.6167  -14.2507   19.4427 H   0  0  0  0  0  0
  -28.7398  -12.2235   21.4390 H   0  0  0  0  0  0
  -28.4135  -13.9092   21.7691 H   0  0  0  0  0  0
  -25.2776   -9.5698   22.4755 H   0  0  0  0  0  0
  -24.0023   -7.4642   22.7470 H   0  0  0  0  0  0
  -21.0848   -8.8770   19.8950 H   0  0  0  0  0  0
  -22.3700  -10.9675   19.6167 H   0  0  0  0  0  0
  -21.2007   -7.6154   23.9721 H   0  0  0  0  0  0
  -21.1484   -6.0518   25.9076 H   0  0  0  0  0  0
  -22.0599   -2.7608   23.2837 H   0  0  0  0  0  0
  -22.4099  -11.9875   22.4826 H   0  0  0  0  0  0
  -21.1087  -13.1225   22.2627 H   0  0  0  0  0  0
  -24.6427  -15.8412   20.5124 H   0  0  0  0  0  0
  -26.2506  -15.6336   20.0465 H   0  0  0  0  0  0
  -26.7235  -32.5362   23.1058 H   0  0  0  0  0  0
  -25.0080  -33.9670   25.0373 H   0  0  0  0  0  0
  -22.7353  -31.3015   21.3938 H   0  0  0  0  0  0
  -23.3747  -35.9615   23.3286 H   0  0  0  0  0  0
  -24.3580  -36.8922   22.2057 H   0  0  0  0  0  0
  -23.7252  -37.6476   23.6680 H   0  0  0  0  0  0
  -26.1360  -31.5129   20.6166 H   0  0  0  0  0  0
  -26.8625  -30.7964   22.0217 H   0  0  0  0  0  0
  -28.1308  -28.8733   21.2066 H   0  0  0  0  0  0
  -25.8834  -25.8751   19.0418 H   0  0  0  0  0  0
  -23.9530  -27.3123   19.0173 H   0  0  0  0  0  0
  -23.7913  -30.5952   19.4046 H   0  0  0  0  0  0
  -22.7733  -29.2575   19.8430 H   0  0  0  0  0  0
  -25.1302  -36.1886   25.0809 H   0  0  0  0  0  0
  -21.0011  -28.3293   24.1365 H   0  0  0  0  0  0
  -20.5688  -26.2320   23.3610 H   0  0  0  0  0  0
  -21.6654  -26.7438   22.1192 H   0  0  0  0  0  0
  -19.6922  -25.6289   21.1252 H   0  0  0  0  0  0
  -19.6701  -27.3180   20.6730 H   0  0  0  0  0  0
  -17.4212  -26.6678   21.4029 H   0  0  0  0  0  0
  -18.0348  -26.0082   22.9025 H   0  0  0  0  0  0
  -19.7945  -30.7289   24.2250 H   0  0  0  0  0  0
  -17.5021  -31.6271   24.5163 H   0  0  0  0  0  0
  -15.5361  -30.2983   23.7666 H   0  0  0  0  0  0
  -15.8687  -28.0821   22.7075 H   0  0  0  0  0  0
  -24.5871  -30.7134   25.7764 H   0  0  0  0  0  0
  -24.8932  -32.2945   26.4853 H   0  0  0  0  0  0
  -25.8002  -30.8931   27.0235 H   0  0  0  0  0  0
  -26.2976  -29.6719   24.1268 H   0  0  0  0  0  0
  -27.3980  -29.7261   25.4834 H   0  0  0  0  0  0
  -27.8881  -30.4229   23.9583 H   0  0  0  0  0  0
  -27.2635  -33.3635   26.2082 H   0  0  0  0  0  0
  -28.3874  -32.6900   25.0369 H   0  0  0  0  0  0
  -28.0701  -31.8478   26.5462 H   0  0  0  0  0  0
  -28.2575  -38.0110   24.7507 H   0  0  0  0  0  0
  -28.1092  -36.2638   24.6275 H   0  0  0  0  0  0
  -27.2299  -37.1428   25.8863 H   0  0  0  0  0  0
  -20.9419  -29.8783   21.6833 H   0  0  0  0  0  0
  -26.0154  -38.2822   24.1417 H   0  0  0  0  0  0
  -31.1889  -21.2293   21.2573 H   0  0  0  0  0  0
  -32.0637  -17.0461   21.5972 H   0  0  0  0  0  0
  -28.3586  -18.2996   19.7893 H   0  0  0  0  0  0
  -27.9816  -25.5511   18.3262 H   0  0  0  0  0  0
  -29.2070  -22.6558   17.5816 H   0  0  0  0  0  0
  -27.8980  -23.7478   17.2072 H   0  0  0  0  0  0
  -28.4804  -22.8302   21.2907 H   0  0  0  0  0  0
  -30.0458  -22.8450   20.5366 H   0  0  0  0  0  0
  -26.8698  -21.5889   17.2250 H   0  0  0  0  0  0
  -26.3803  -22.3478   18.7124 H   0  0  0  0  0  0
  -28.3097  -20.0974   18.2476 H   0  0  0  0  0  0
  -27.0244  -20.1964   19.4320 H   0  0  0  0  0  0
  -33.3726  -20.5003   21.8820 H   0  0  0  0  0  0
  -33.8125  -18.7947   21.8550 H   0  0  0  0  0  0
  -32.9194  -19.4553   23.2297 H   0  0  0  0  0  0
  -28.8261  -15.7674   20.5208 H   0  0  0  0  0  0
  1 25  1  0  0  0
  1 30  2  0  0  0
  1 85  1  0  0  0
  2  3  1  0  0  0
  2 25  1  0  0  0
  2 86  1  0  0  0
  2 87  1  0  0  0
  3  4  1  0  0  0
  3 88  1  0  0  0
  3 89  1  0  0  0
  4  5  1  0  0  0
  4 90  1  0  0  0
  4 91  1  0  0  0
  5  6  1  0  0  0
  5 26  1  0  0  0
  5 92  1  0  0  0
  6 25  1  0  0  0
  6 93  1  0  0  0
  6 94  1  0  0  0
  7  8  2  0  0  0
  7 26  1  0  0  0
  7 29  1  0  0  0
  8  9  1  0  0  0
  8 22  1  0  0  0
  9 10  1  0  0  0
  9 27  2  0  0  0
 10 11  2  0  0  0
 10 15  1  0  0  0
 11 12  1  0  0  0
 11 95  1  0  0  0
 12 13  2  0  0  0
 12 96  1  0  0  0
 13 14  1  0  0  0
 13 31  1  0  0  0
 14 15  2  0  0  0
 14 97  1  0  0  0
 15 98  1  0  0  0
 16 17  2  0  0  0
 16 21  1  0  0  0
 16 31  1  0  0  0
 17 18  1  0  0  0
 17 99  1  0  0  0
 18 19  2  0  0  0
 18100  1  0  0  0
 19 20  1  0  0  0
 19 24  1  0  0  0
 20 21  2  0  0  0
 20101  1  0  0  0
 21 23  1  0  0  0
 22 28  1  0  0  0
 22 32  2  0  0  0
 26 27  1  0  0  0
 28102  1  0  0  0
 28103  1  0  0  0
 29104  1  0  0  0
 29105  1  0  0  0
 33 34  1  0  0  0
 33 66  1  0  0  0
 33 70  2  0  0  0
 34 36  1  0  0  0
 34 59  1  0  0  0
 34106  1  0  0  0
 35 44  2  0  0  0
 35 45  1  0  0  0
 35 68  1  0  0  0
 36 56  1  0  0  0
 36107  1  0  0  0
 37 39  1  0  0  0
 37 47  1  0  0  0
 37 66  1  0  0  0
 37108  1  0  0  0
 38 43  2  0  0  0
 38 46  1  0  0  0
 38 47  1  0  0  0
 39 64  1  0  0  0
 39 67  2  0  0  0
 40 52  1  0  0  0
 40 53  2  0  0  0
 40 58  1  0  0  0
 41109  1  0  0  0
 41110  1  0  0  0
 41111  1  0  0  0
 41 48  1  0  0  0
 42 43  1  0  0  0
 42 66  1  0  0  0
 42112  1  0  0  0
 42113  1  0  0  0
 43 44  1  0  0  0
 44114  1  0  0  0
 45 46  2  0  0  0
 45115  1  0  0  0
 46116  1  0  0  0
 47117  1  0  0  0
 47118  1  0  0  0
 48 56  1  0  0  0
 48 65  1  0  0  0
 48119  1  0  0  0
 49 50  1  0  0  0
 49 53  1  0  0  0
 49 64  1  0  0  0
 49120  1  0  0  0
 50 51  1  0  0  0
 50121  1  0  0  0
 50122  1  0  0  0
 51 52  1  0  0  0
 51123  1  0  0  0
 51124  1  0  0  0
 52125  1  0  0  0
 52126  1  0  0  0
 53 54  1  0  0  0
 54 55  2  0  0  0
 54127  1  0  0  0
 55 57  1  0  0  0
 55128  1  0  0  0
 56 69  2  0  0  0
 57 58  2  0  0  0
 57129  1  0  0  0
 58130  1  0  0  0
 59 60  1  0  0  0
 59 61  1  0  0  0
 59 62  1  0  0  0
 60131  1  0  0  0
 60132  1  0  0  0
 60133  1  0  0  0
 61134  1  0  0  0
 61135  1  0  0  0
 61136  1  0  0  0
 62137  1  0  0  0
 62138  1  0  0  0
 62139  1  0  0  0
 63 65  1  0  0  0
 63140  1  0  0  0
 63141  1  0  0  0
 63142  1  0  0  0
 64143  1  0  0  0
 65144  1  0  0  0
 68 78  1  0  0  0
 71 74  2  0  0  0
 71 75  1  0  0  0
 71145  1  0  0  0
 72 74  1  0  0  0
 72 76  2  0  0  0
 72146  1  0  0  0
 73 75  2  0  0  0
 73 76  1  0  0  0
 73147  1  0  0  0
 74 83  1  0  0  0
 75 84  1  0  0  0
 76 85  1  0  0  0
 77 78  2  0  0  0
 77 79  1  0  0  0
 77 80  1  0  0  0
 78148  1  0  0  0
 79 81  1  0  0  0
 79149  1  0  0  0
 79150  1  0  0  0
 80 84  1  0  0  0
 80151  1  0  0  0
 80152  1  0  0  0
 81 82  1  0  0  0
 81153  1  0  0  0
 81154  1  0  0  0
 82 84  1  0  0  0
 82155  1  0  0  0
 82156  1  0  0  0
 83157  1  0  0  0
 83158  1  0  0  0
 83159  1  0  0  0
 85160  1  0  0  0
M  ISO  4   1 100  68 101  78 101  85 100
M  END
> <chiral flag>
0

> <version>
0

> <s_m_source_file>
/data/baiqing/PycharmProjects/Reinvent-master-3.2/result/LINK_invent/BTK/process_docking_weight1_custom_product_contain_oxygen_bond_distance_aromatic_linkinvent_7_9_3/rearranged_h_0118.sdf

> <i_m_source_file_index>
52

> <r_mmod_Potential_Energy-OPLS-2005>
363.922668457031

> <r_mmod_Stretch_Energy-OPLS-2005>
160.753173828125

> <r_mmod_Bend_Energy-OPLS-2005>
237.544296264648

> <r_mmod_Torsional_Energy-OPLS-2005>
235.118927001953

> <r_mmod_Improper_Torsional_Energy-OPLS-2005>
6.71271753311157

> <r_mmod_Van_der_Waal_Energy-OPLS-2005>
158.659652709961

> <r_mmod_Electrostatic_Energy-OPLS-2005>
-331.293701171875

> <r_mmod_Solvation_Energy-OPLS-2005>
-222.619995117188

> <b_mmod_Minimization_Converged-OPLS-2005>
0

> <r_mmod_RMS_Derivative-OPLS-2005>
1.23789417743683

$$$$
53
                    3D
 Structure written by MMmdl.
159167  0  0  1  0            999 V2000
  -30.6979  -14.4499   20.6400 C   0  0  0  0  0  0
  -30.4302  -12.3172   19.4006 C   0  0  0  0  0  0
  -29.4897  -12.5228   18.1959 C   0  0  0  0  0  0
  -28.0128  -12.3753   18.6140 C   0  0  0  0  0  0
  -27.6671  -13.2007   19.8821 C   0  0  2  0  0  0
  -28.7117  -12.9475   20.9923 C   0  0  0  0  0  0
  -25.2619  -13.8150   20.5693 C   0  0  0  0  0  0
  -24.1856  -13.0436   20.9171 C   0  0  0  0  0  0
  -24.6400  -11.6900   20.8733 C   0  0  0  0  0  0
  -23.9059  -10.4293   21.0402 C   0  0  0  0  0  0
  -24.3612   -9.4209   21.9183 C   0  0  0  0  0  0
  -23.6288   -8.2243   22.0756 C   0  0  0  0  0  0
  -22.4272   -8.0283   21.3543 C   0  0  0  0  0  0
  -21.9907   -9.0255   20.4642 C   0  0  0  0  0  0
  -22.7233  -10.2135   20.3052 C   0  0  0  0  0  0
  -21.6850   -6.0740   22.5281 C   0  0  0  0  0  0
  -21.4012   -6.5644   23.8215 C   0  0  0  0  0  0
  -21.3658   -5.6796   24.9177 C   0  0  0  0  0  0
  -21.6044   -4.3059   24.7226 C   0  0  0  0  0  0
  -21.8820   -3.8151   23.4347 C   0  0  0  0  0  0
  -21.9193   -4.6968   22.3404 C   0  0  0  0  0  0
  -22.7878  -13.5239   21.1837 C   0  0  0  0  0  0
  -22.1662   -4.2154   21.0981 F   0  0  0  0  0  0
  -21.5629   -3.4542   25.7739 F   0  0  0  0  0  0
  -30.0382  -13.2745   20.4455 N   0  0  0  0  0  0
  -26.3059  -12.9308   20.3411 N   0  0  0  0  0  0
  -25.9328  -11.6471   20.5777 N   0  0  0  0  0  0
  -22.0515  -12.8232   22.0392 N   0  0  0  0  0  0
  -25.4359  -15.1867   20.4106 N   0  0  0  0  0  0
  -31.7754  -14.6897   20.0840 O   0  0  0  0  0  0
  -21.6635   -6.8882   21.4241 O   0  0  0  0  0  0
  -22.3566  -14.5549   20.6692 O   0  0  0  0  0  0
  -24.6139  -31.8679   23.2098 C   0  0  0  0  0  0
  -25.9036  -32.4819   23.8395 C   0  0  1  0  0  0
  -27.2393  -27.4417   20.0963 C   0  0  0  0  0  0
  -25.5899  -33.8617   24.2332 N   0  0  0  0  0  0
  -23.4027  -30.4891   21.5497 C   0  0  2  0  0  0
  -24.8526  -28.9519   20.1173 C   0  0  0  0  0  0
  -22.7404  -29.4653   22.4995 C   0  0  0  0  0  0
  -18.0268  -28.1373   22.8493 C   0  0  0  0  0  0
  -24.1485  -36.7310   23.2641 C   0  0  0  0  0  0
  -25.9302  -30.8341   21.3629 C   0  0  0  0  0  0
  -26.0107  -29.4666   20.7151 C   0  0  0  0  0  0
  -27.2093  -28.7167   20.7061 C   0  0  0  0  0  0
  -26.0699  -26.9378   19.4943 C   0  0  0  0  0  0
  -24.8758  -27.6848   19.5062 C   0  0  0  0  0  0
  -23.6128  -29.8172   20.1657 C   0  0  0  0  0  0
  -25.4105  -36.3107   24.0341 C   0  0  1  0  0  0
  -20.5858  -28.3660   23.1323 C   0  0  2  0  0  0
  -20.6759  -26.9398   22.5419 C   0  0  0  0  0  0
  -19.5738  -26.6383   21.5213 C   0  0  0  0  0  0
  -18.1915  -26.7922   22.1623 C   0  0  0  0  0  0
  -19.1517  -28.8832   23.2905 C   0  0  0  0  0  0
  -18.9446  -30.1441   23.8909 C   0  0  0  0  0  0
  -17.6450  -30.6583   24.0561 C   0  0  0  0  0  0
  -25.9032  -34.9473   23.5134 C   0  0  0  0  0  0
  -16.5341  -29.9085   23.6326 C   0  0  0  0  0  0
  -16.7258  -28.6501   23.0348 C   0  0  0  0  0  0
  -26.4476  -31.6592   25.0715 C   0  0  0  0  0  0
  -25.3749  -31.3674   26.1463 C   0  0  0  0  0  0
  -27.0318  -30.3043   24.6076 C   0  0  0  0  0  0
  -27.6048  -32.4313   25.7485 C   0  0  0  0  0  0
  -27.5577  -37.1810   24.8468 C   0  0  0  0  0  0
  -21.4132  -29.3029   22.3730 N   0  0  0  0  0  0
  -26.4291  -37.3790   23.9409 N   0  0  0  0  0  0
  -24.6668  -31.0782   22.0995 N   0  0  0  0  0  0
  -23.4174  -28.8200   23.3042 O   0  0  0  0  0  0
  -28.3861  -26.6825   20.0673 O   0  0  0  0  0  0
  -26.5588  -34.8925   22.4693 O   0  0  0  0  0  0
  -23.5335  -32.1432   23.7495 O   0  0  0  0  0  0
  -28.7820  -21.3037   20.2262 C   0  0  0  0  0  0
  -30.8131  -19.8613   21.5047 C   0  0  0  0  0  0
  -29.6980  -22.0124   21.0393 C   0  0  0  0  0  0
  -28.8683  -19.8997   20.0620 C   0  0  0  0  0  0
  -30.7314  -21.2648   21.6699 C   0  0  0  0  0  0
  -29.8742  -19.1539   20.7177 C   0  0  0  0  0  0
  -29.5659  -23.4823   21.2677 C   0  0  0  0  0  0
  -28.6133  -24.3291   20.8147 C   0  0  0  0  0  0
  -27.8537  -19.1832   19.1902 C   0  0  0  0  0  0
  -31.7716  -21.9404   22.5512 C   0  0  0  0  0  0
  -28.5412  -25.8095   21.1929 C   0  0  0  0  0  0
  -30.0677  -15.5218   21.5631 C   0  0  0  0  0  0
  -30.6248  -16.9702   21.4834 C   0  0  0  0  0  0
  -29.8855  -17.7755   20.5530 O   0  0  0  0  0  0
  -31.4703  -12.4370   19.0928 H   0  0  0  0  0  0
  -30.3492  -11.2977   19.7805 H   0  0  0  0  0  0
  -29.7273  -11.8095   17.4056 H   0  0  0  0  0  0
  -29.6520  -13.5150   17.7723 H   0  0  0  0  0  0
  -27.8224  -11.3174   18.7980 H   0  0  0  0  0  0
  -27.3582  -12.6621   17.7899 H   0  0  0  0  0  0
  -27.7214  -14.2535   19.6047 H   0  0  0  0  0  0
  -28.6930  -11.8987   21.2922 H   0  0  0  0  0  0
  -28.4685  -13.5017   21.8982 H   0  0  0  0  0  0
  -25.2759   -9.5689   22.4755 H   0  0  0  0  0  0
  -24.0000   -7.4640   22.7478 H   0  0  0  0  0  0
  -21.0841   -8.8772   19.8944 H   0  0  0  0  0  0
  -22.3694  -10.9676   19.6160 H   0  0  0  0  0  0
  -21.2001   -7.6153   23.9718 H   0  0  0  0  0  0
  -21.1479   -6.0527   25.9080 H   0  0  0  0  0  0
  -22.0600   -2.7613   23.2847 H   0  0  0  0  0  0
  -22.4127  -11.9883   22.4768 H   0  0  0  0  0  0
  -21.1137  -13.1264   22.2603 H   0  0  0  0  0  0
  -24.6731  -15.8458   20.5204 H   0  0  0  0  0  0
  -26.2985  -15.6244   20.1122 H   0  0  0  0  0  0
  -26.7107  -32.5547   23.1162 H   0  0  0  0  0  0
  -25.0066  -33.9778   25.0487 H   0  0  0  0  0  0
  -22.6910  -31.3052   21.4079 H   0  0  0  0  0  0
  -23.3743  -35.9649   23.3312 H   0  0  0  0  0  0
  -24.3578  -36.8916   22.2054 H   0  0  0  0  0  0
  -23.7242  -37.6520   23.6650 H   0  0  0  0  0  0
  -26.0390  -31.5975   20.5912 H   0  0  0  0  0  0
  -26.8192  -30.8925   21.9789 H   0  0  0  0  0  0
  -28.1053  -29.1099   21.1659 H   0  0  0  0  0  0
  -26.0855  -25.9660   19.0208 H   0  0  0  0  0  0
  -23.9854  -27.2818   19.0432 H   0  0  0  0  0  0
  -23.7195  -30.5896   19.4033 H   0  0  0  0  0  0
  -22.7380  -29.2344   19.8721 H   0  0  0  0  0  0
  -25.1279  -36.1973   25.0834 H   0  0  0  0  0  0
  -20.9949  -28.3225   24.1445 H   0  0  0  0  0  0
  -20.5669  -26.2264   23.3601 H   0  0  0  0  0  0
  -21.6630  -26.7448   22.1210 H   0  0  0  0  0  0
  -19.6901  -25.6300   21.1229 H   0  0  0  0  0  0
  -19.6678  -27.3202   20.6749 H   0  0  0  0  0  0
  -17.4188  -26.6674   21.4020 H   0  0  0  0  0  0
  -18.0311  -26.0057   22.9012 H   0  0  0  0  0  0
  -19.7924  -30.7248   24.2287 H   0  0  0  0  0  0
  -17.5008  -31.6266   24.5159 H   0  0  0  0  0  0
  -15.5341  -30.2989   23.7649 H   0  0  0  0  0  0
  -15.8657  -28.0825   22.7058 H   0  0  0  0  0  0
  -24.5928  -30.7017   25.7792 H   0  0  0  0  0  0
  -24.8931  -32.2819   26.4933 H   0  0  0  0  0  0
  -25.8115  -30.8827   27.0204 H   0  0  0  0  0  0
  -26.2859  -29.6789   24.1159 H   0  0  0  0  0  0
  -27.4134  -29.7289   25.4520 H   0  0  0  0  0  0
  -27.8669  -30.4371   23.9193 H   0  0  0  0  0  0
  -27.2663  -33.3603   26.2084 H   0  0  0  0  0  0
  -28.3854  -32.6889   25.0314 H   0  0  0  0  0  0
  -28.0721  -31.8423   26.5388 H   0  0  0  0  0  0
  -28.2601  -38.0101   24.7514 H   0  0  0  0  0  0
  -28.1068  -36.2633   24.6301 H   0  0  0  0  0  0
  -27.2292  -37.1467   25.8871 H   0  0  0  0  0  0
  -20.9291  -29.8753   21.6954 H   0  0  0  0  0  0
  -26.0181  -38.2871   24.1402 H   0  0  0  0  0  0
  -27.9856  -21.8349   19.7267 H   0  0  0  0  0  0
  -31.6141  -19.3312   21.9991 H   0  0  0  0  0  0
  -30.3209  -23.9307   21.8958 H   0  0  0  0  0  0
  -27.8189  -23.9759   20.1748 H   0  0  0  0  0  0
  -27.1968  -19.8841   18.6746 H   0  0  0  0  0  0
  -27.2351  -18.5207   19.7962 H   0  0  0  0  0  0
  -28.3597  -18.5801   18.4357 H   0  0  0  0  0  0
  -32.5017  -21.2271   22.9353 H   0  0  0  0  0  0
  -31.2969  -22.4179   23.4087 H   0  0  0  0  0  0
  -32.3188  -22.6979   21.9893 H   0  0  0  0  0  0
  -29.4493  -26.0989   21.7231 H   0  0  0  0  0  0
  -27.7244  -25.9266   21.9084 H   0  0  0  0  0  0
  -28.9919  -15.5768   21.4039 H   0  0  0  0  0  0
  -30.2079  -15.1573   22.5809 H   0  0  0  0  0  0
  -31.6868  -16.9873   21.2350 H   0  0  0  0  0  0
  -30.5329  -17.3955   22.4841 H   0  0  0  0  0  0
  1 25  1  0  0  0
  1 30  2  0  0  0
  1 82  1  0  0  0
  2  3  1  0  0  0
  2 25  1  0  0  0
  2 85  1  0  0  0
  2 86  1  0  0  0
  3  4  1  0  0  0
  3 87  1  0  0  0
  3 88  1  0  0  0
  4  5  1  0  0  0
  4 89  1  0  0  0
  4 90  1  0  0  0
  5  6  1  0  0  0
  5 26  1  0  0  0
  5 91  1  0  0  0
  6 25  1  0  0  0
  6 92  1  0  0  0
  6 93  1  0  0  0
  7  8  2  0  0  0
  7 26  1  0  0  0
  7 29  1  0  0  0
  8  9  1  0  0  0
  8 22  1  0  0  0
  9 10  1  0  0  0
  9 27  2  0  0  0
 10 11  2  0  0  0
 10 15  1  0  0  0
 11 12  1  0  0  0
 11 94  1  0  0  0
 12 13  2  0  0  0
 12 95  1  0  0  0
 13 14  1  0  0  0
 13 31  1  0  0  0
 14 15  2  0  0  0
 14 96  1  0  0  0
 15 97  1  0  0  0
 16 17  2  0  0  0
 16 21  1  0  0  0
 16 31  1  0  0  0
 17 18  1  0  0  0
 17 98  1  0  0  0
 18 19  2  0  0  0
 18 99  1  0  0  0
 19 20  1  0  0  0
 19 24  1  0  0  0
 20 21  2  0  0  0
 20100  1  0  0  0
 21 23  1  0  0  0
 22 28  1  0  0  0
 22 32  2  0  0  0
 26 27  1  0  0  0
 28101  1  0  0  0
 28102  1  0  0  0
 29103  1  0  0  0
 29104  1  0  0  0
 33 34  1  0  0  0
 33 66  1  0  0  0
 33 70  2  0  0  0
 34 36  1  0  0  0
 34 59  1  0  0  0
 34105  1  0  0  0
 35 44  2  0  0  0
 35 45  1  0  0  0
 35 68  1  0  0  0
 36 56  1  0  0  0
 36106  1  0  0  0
 37 39  1  0  0  0
 37 47  1  0  0  0
 37 66  1  0  0  0
 37107  1  0  0  0
 38 43  2  0  0  0
 38 46  1  0  0  0
 38 47  1  0  0  0
 39 64  1  0  0  0
 39 67  2  0  0  0
 40 52  1  0  0  0
 40 53  2  0  0  0
 40 58  1  0  0  0
 41108  1  0  0  0
 41109  1  0  0  0
 41110  1  0  0  0
 41 48  1  0  0  0
 42 43  1  0  0  0
 42 66  1  0  0  0
 42111  1  0  0  0
 42112  1  0  0  0
 43 44  1  0  0  0
 44113  1  0  0  0
 45 46  2  0  0  0
 45114  1  0  0  0
 46115  1  0  0  0
 47116  1  0  0  0
 47117  1  0  0  0
 48 56  1  0  0  0
 48 65  1  0  0  0
 48118  1  0  0  0
 49 50  1  0  0  0
 49 53  1  0  0  0
 49 64  1  0  0  0
 49119  1  0  0  0
 50 51  1  0  0  0
 50120  1  0  0  0
 50121  1  0  0  0
 51 52  1  0  0  0
 51122  1  0  0  0
 51123  1  0  0  0
 52124  1  0  0  0
 52125  1  0  0  0
 53 54  1  0  0  0
 54 55  2  0  0  0
 54126  1  0  0  0
 55 57  1  0  0  0
 55127  1  0  0  0
 56 69  2  0  0  0
 57 58  2  0  0  0
 57128  1  0  0  0
 58129  1  0  0  0
 59 60  1  0  0  0
 59 61  1  0  0  0
 59 62  1  0  0  0
 60130  1  0  0  0
 60131  1  0  0  0
 60132  1  0  0  0
 61133  1  0  0  0
 61134  1  0  0  0
 61135  1  0  0  0
 62136  1  0  0  0
 62137  1  0  0  0
 62138  1  0  0  0
 63 65  1  0  0  0
 63139  1  0  0  0
 63140  1  0  0  0
 63141  1  0  0  0
 64142  1  0  0  0
 65143  1  0  0  0
 68 81  1  0  0  0
 71 73  2  0  0  0
 71 74  1  0  0  0
 71144  1  0  0  0
 72 75  2  0  0  0
 72 76  1  0  0  0
 72145  1  0  0  0
 73 75  1  0  0  0
 73 77  1  0  0  0
 74 76  2  0  0  0
 74 79  1  0  0  0
 75 80  1  0  0  0
 76 84  1  0  0  0
 77 78  2  0  0  0
 77146  1  0  0  0
 78 81  1  0  0  0
 78147  1  0  0  0
 79148  1  0  0  0
 79149  1  0  0  0
 79150  1  0  0  0
 80151  1  0  0  0
 80152  1  0  0  0
 80153  1  0  0  0
 81154  1  0  0  0
 81155  1  0  0  0
 82 83  1  0  0  0
 82156  1  0  0  0
 82157  1  0  0  0
 83 84  1  0  0  0
 83158  1  0  0  0
 83159  1  0  0  0
M  ISO  4   1 100  68 101  81 101  82 100
M  END
> <chiral flag>
0

> <version>
0

> <s_m_source_file>
/data/baiqing/PycharmProjects/Reinvent-master-3.2/result/LINK_invent/BTK/process_docking_weight1_custom_product_contain_oxygen_bond_distance_aromatic_linkinvent_7_9_3/rearranged_h_0118.sdf

> <i_m_source_file_index>
53

> <r_mmod_Potential_Energy-OPLS-2005>
-58.0531616210938

> <r_mmod_Stretch_Energy-OPLS-2005>
39.5296974182129

> <r_mmod_Bend_Energy-OPLS-2005>
98.4677200317383

> <r_mmod_Torsional_Energy-OPLS-2005>
188.769104003906

> <r_mmod_Improper_Torsional_Energy-OPLS-2005>
1.99444878101349

> <r_mmod_Van_der_Waal_Energy-OPLS-2005>
156.781921386719

> <r_mmod_Electrostatic_Energy-OPLS-2005>
-356.315795898438

> <r_mmod_Solvation_Energy-OPLS-2005>
-196.952987670898

> <b_mmod_Minimization_Converged-OPLS-2005>
0

> <r_mmod_RMS_Derivative-OPLS-2005>
0.467776417732239

$$$$
54
                    3D
 Structure written by MMmdl.
160169  0  0  1  0            999 V2000
  -30.6269  -14.7791   20.4651 C   0  0  0  0  0  0
  -30.4293  -12.4783   19.4837 C   0  0  0  0  0  0
  -29.5100  -12.5139   18.2437 C   0  0  0  0  0  0
  -28.0389  -12.3294   18.6597 C   0  0  0  0  0  0
  -27.6405  -13.2379   19.8529 C   0  0  2  0  0  0
  -28.6863  -13.1984   20.9897 C   0  0  0  0  0  0
  -25.2495  -13.8207   20.5714 C   0  0  0  0  0  0
  -24.1792  -13.0443   20.9206 C   0  0  0  0  0  0
  -24.6391  -11.6923   20.8749 C   0  0  0  0  0  0
  -23.9073  -10.4294   21.0399 C   0  0  0  0  0  0
  -24.3619   -9.4212   21.9181 C   0  0  0  0  0  0
  -23.6293   -8.2247   22.0752 C   0  0  0  0  0  0
  -22.4281   -8.0281   21.3538 C   0  0  0  0  0  0
  -21.9917   -9.0256   20.4643 C   0  0  0  0  0  0
  -22.7243  -10.2134   20.3050 C   0  0  0  0  0  0
  -21.6856   -6.0737   22.5276 C   0  0  0  0  0  0
  -21.4018   -6.5638   23.8211 C   0  0  0  0  0  0
  -21.3665   -5.6789   24.9171 C   0  0  0  0  0  0
  -21.6042   -4.3051   24.7217 C   0  0  0  0  0  0
  -21.8820   -3.8147   23.4338 C   0  0  0  0  0  0
  -21.9195   -4.6966   22.3396 C   0  0  0  0  0  0
  -22.7814  -13.5223   21.1859 C   0  0  0  0  0  0
  -22.1663   -4.2154   21.0974 F   0  0  0  0  0  0
  -21.5630   -3.4535   25.7728 F   0  0  0  0  0  0
  -29.9840  -13.5561   20.4028 N   0  0  0  0  0  0
  -26.2936  -12.9429   20.3317 N   0  0  0  0  0  0
  -25.9327  -11.6567   20.5777 N   0  0  0  0  0  0
  -22.0456  -12.8216   22.0415 N   0  0  0  0  0  0
  -25.4167  -15.1930   20.4127 N   0  0  0  0  0  0
  -31.8007  -14.8381   20.0936 O   0  0  0  0  0  0
  -21.6641   -6.8878   21.4237 O   0  0  0  0  0  0
  -22.3498  -14.5526   20.6700 O   0  0  0  0  0  0
  -24.6366  -31.8533   23.1974 C   0  0  0  0  0  0
  -25.9191  -32.4735   23.8326 C   0  0  1  0  0  0
  -27.2165  -27.2367   20.1273 C   0  0  0  0  0  0
  -25.5978  -33.8538   24.2254 N   0  0  0  0  0  0
  -23.4352  -30.4774   21.5398 C   0  0  2  0  0  0
  -24.8856  -28.9270   20.1022 C   0  0  0  0  0  0
  -22.7539  -29.4598   22.4873 C   0  0  0  0  0  0
  -18.0312  -28.1387   22.8490 C   0  0  0  0  0  0
  -24.1475  -36.7245   23.2633 C   0  0  0  0  0  0
  -25.9853  -30.7554   21.3863 C   0  0  0  0  0  0
  -26.0600  -29.3789   20.7214 C   0  0  0  0  0  0
  -27.2311  -28.5454   20.7285 C   0  0  0  0  0  0
  -26.0268  -26.8735   19.4582 C   0  0  0  0  0  0
  -24.8753  -27.6821   19.4584 C   0  0  0  0  0  0
  -23.6576  -29.8178   20.1538 C   0  0  0  0  0  0
  -25.4103  -36.3042   24.0326 C   0  0  1  0  0  0
  -20.5923  -28.3708   23.1238 C   0  0  2  0  0  0
  -20.6793  -26.9416   22.5396 C   0  0  0  0  0  0
  -19.5762  -26.6380   21.5209 C   0  0  0  0  0  0
  -18.1947  -26.7930   22.1624 C   0  0  0  0  0  0
  -19.1570  -28.8867   23.2859 C   0  0  0  0  0  0
  -18.9484  -30.1470   23.8868 C   0  0  0  0  0  0
  -17.6482  -30.6585   24.0564 C   0  0  0  0  0  0
  -25.9065  -34.9419   23.5083 C   0  0  0  0  0  0
  -16.5374  -29.9076   23.6343 C   0  0  0  0  0  0
  -16.7298  -28.6497   23.0362 C   0  0  0  0  0  0
  -26.4542  -31.6568   25.0729 C   0  0  0  0  0  0
  -25.3762  -31.3746   26.1453 C   0  0  0  0  0  0
  -27.0405  -30.2974   24.6265 C   0  0  0  0  0  0
  -27.6082  -32.4316   25.7519 C   0  0  0  0  0  0
  -27.5569  -37.1772   24.8462 C   0  0  0  0  0  0
  -21.4242  -29.3045   22.3611 N   0  0  0  0  0  0
  -26.4260  -37.3765   23.9438 N   0  0  0  0  0  0
  -24.7045  -31.0469   22.0969 N   0  0  0  0  0  0
  -23.4221  -28.8151   23.2999 O   0  0  0  0  0  0
  -28.2112  -26.2234   20.2296 O   0  0  0  0  0  0
  -26.5619  -34.8905   22.4642 O   0  0  0  0  0  0
  -23.5509  -32.1361   23.7255 O   0  0  0  0  0  0
  -31.8075  -19.1845   21.5871 C   0  0  0  0  0  0
  -30.9420  -20.2176   21.1786 C   0  0  0  0  0  0
  -29.3789  -18.5080   20.4743 C   0  0  0  0  0  0
  -31.4800  -17.8124   21.4785 C   0  0  0  0  0  0
  -29.6701  -19.9453   20.6397 C   0  0  0  0  0  0
  -30.2631  -17.3986   20.8568 C   0  0  0  0  0  0
  -28.0122  -23.6238   20.8628 C   0  0  0  0  0  0
  -27.7386  -25.0047   20.8202 C   0  0  0  0  0  0
  -27.0056  -22.8018   21.6578 C   0  0  0  0  0  0
  -29.0822  -22.5914   20.2678 C   0  0  0  0  0  0
  -26.3698  -21.7579   20.7317 C   0  0  0  0  0  0
  -27.3592  -20.6731   20.2739 C   0  0  0  0  0  0
  -32.4632  -16.8485   22.1261 C   0  0  0  0  0  0
  -28.7680  -21.0744   20.3645 N   0  0  0  0  0  0
  -29.8908  -15.9403   20.7315 N   0  0  0  0  0  0
  -31.4705  -12.5925   19.1779 H   0  0  0  0  0  0
  -30.3724  -11.5082   19.9800 H   0  0  0  0  0  0
  -29.7991  -11.7382   17.5331 H   0  0  0  0  0  0
  -29.6289  -13.4662   17.7245 H   0  0  0  0  0  0
  -27.9048  -11.2826   18.9351 H   0  0  0  0  0  0
  -27.3789  -12.5062   17.8099 H   0  0  0  0  0  0
  -27.6281  -14.2546   19.4596 H   0  0  0  0  0  0
  -28.7306  -12.2079   21.4457 H   0  0  0  0  0  0
  -28.4145  -13.8902   21.7883 H   0  0  0  0  0  0
  -25.2758   -9.5699   22.4762 H   0  0  0  0  0  0
  -24.0002   -7.4642   22.7475 H   0  0  0  0  0  0
  -21.0852   -8.8774   19.8948 H   0  0  0  0  0  0
  -22.3694  -10.9673   19.6164 H   0  0  0  0  0  0
  -21.2010   -7.6145   23.9714 H   0  0  0  0  0  0
  -21.1490   -6.0517   25.9073 H   0  0  0  0  0  0
  -22.0593   -2.7610   23.2834 H   0  0  0  0  0  0
  -22.4082  -11.9892   22.4822 H   0  0  0  0  0  0
  -21.1074  -13.1250   22.2614 H   0  0  0  0  0  0
  -24.6435  -15.8424   20.5092 H   0  0  0  0  0  0
  -26.2628  -15.6353   20.0791 H   0  0  0  0  0  0
  -26.7271  -32.5383   23.1075 H   0  0  0  0  0  0
  -25.0181  -33.9665   25.0438 H   0  0  0  0  0  0
  -22.7333  -31.3013   21.3958 H   0  0  0  0  0  0
  -23.3755  -35.9557   23.3274 H   0  0  0  0  0  0
  -24.3560  -36.8881   22.2050 H   0  0  0  0  0  0
  -23.7199  -37.6429   23.6664 H   0  0  0  0  0  0
  -26.1355  -31.5179   20.6211 H   0  0  0  0  0  0
  -26.8567  -30.7989   22.0275 H   0  0  0  0  0  0
  -28.1184  -28.8722   21.2515 H   0  0  0  0  0  0
  -25.9640  -25.9079   18.9765 H   0  0  0  0  0  0
  -23.9780  -27.3285   18.9688 H   0  0  0  0  0  0
  -23.7880  -30.5976   19.4028 H   0  0  0  0  0  0
  -22.7736  -29.2588   19.8419 H   0  0  0  0  0  0
  -25.1282  -36.1866   25.0815 H   0  0  0  0  0  0
  -21.0036  -28.3298   24.1351 H   0  0  0  0  0  0
  -20.5691  -26.2325   23.3612 H   0  0  0  0  0  0
  -21.6658  -26.7423   22.1193 H   0  0  0  0  0  0
  -19.6908  -25.6289   21.1239 H   0  0  0  0  0  0
  -19.6688  -27.3181   20.6730 H   0  0  0  0  0  0
  -17.4220  -26.6694   21.4018 H   0  0  0  0  0  0
  -18.0335  -26.0065   22.9011 H   0  0  0  0  0  0
  -19.7962  -30.7308   24.2194 H   0  0  0  0  0  0
  -17.5035  -31.6257   24.5178 H   0  0  0  0  0  0
  -15.5371  -30.2971   23.7674 H   0  0  0  0  0  0
  -15.8699  -28.0808   22.7082 H   0  0  0  0  0  0
  -24.5940  -30.7081   25.7805 H   0  0  0  0  0  0
  -24.8964  -32.2932   26.4841 H   0  0  0  0  0  0
  -25.8089  -30.8964   27.0251 H   0  0  0  0  0  0
  -26.3013  -29.6711   24.1264 H   0  0  0  0  0  0
  -27.4030  -29.7256   25.4819 H   0  0  0  0  0  0
  -27.8914  -30.4221   23.9563 H   0  0  0  0  0  0
  -27.2674  -33.3624   26.2065 H   0  0  0  0  0  0
  -28.3920  -32.6865   25.0373 H   0  0  0  0  0  0
  -28.0730  -31.8470   26.5471 H   0  0  0  0  0  0
  -28.2561  -38.0099   24.7569 H   0  0  0  0  0  0
  -28.1090  -36.2637   24.6205 H   0  0  0  0  0  0
  -27.2304  -37.1318   25.8867 H   0  0  0  0  0  0
  -20.9431  -29.8752   21.6797 H   0  0  0  0  0  0
  -26.0120  -38.2813   24.1521 H   0  0  0  0  0  0
  -32.7452  -19.4667   22.0462 H   0  0  0  0  0  0
  -31.2667  -21.2325   21.3477 H   0  0  0  0  0  0
  -28.4286  -18.2305   20.0436 H   0  0  0  0  0  0
  -26.8782  -25.2852   21.4128 H   0  0  0  0  0  0
  -26.2173  -23.4147   22.0954 H   0  0  0  0  0  0
  -27.5104  -22.3189   22.4962 H   0  0  0  0  0  0
  -30.0239  -22.8085   20.7687 H   0  0  0  0  0  0
  -29.2405  -22.8442   19.2186 H   0  0  0  0  0  0
  -25.9553  -22.2631   19.8578 H   0  0  0  0  0  0
  -25.5219  -21.2844   21.2286 H   0  0  0  0  0  0
  -27.1258  -20.3475   19.2582 H   0  0  0  0  0  0
  -27.1864  -19.8126   20.9218 H   0  0  0  0  0  0
  -33.0203  -17.3379   22.9258 H   0  0  0  0  0  0
  -33.1926  -16.4923   21.3989 H   0  0  0  0  0  0
  -31.9604  -15.9975   22.5829 H   0  0  0  0  0  0
  -28.9048  -15.7547   20.8307 H   0  0  0  0  0  0
  1 25  1  0  0  0
  1 30  2  0  0  0
  1 85  1  0  0  0
  2  3  1  0  0  0
  2 25  1  0  0  0
  2 86  1  0  0  0
  2 87  1  0  0  0
  3  4  1  0  0  0
  3 88  1  0  0  0
  3 89  1  0  0  0
  4  5  1  0  0  0
  4 90  1  0  0  0
  4 91  1  0  0  0
  5  6  1  0  0  0
  5 26  1  0  0  0
  5 92  1  0  0  0
  6 25  1  0  0  0
  6 93  1  0  0  0
  6 94  1  0  0  0
  7  8  2  0  0  0
  7 26  1  0  0  0
  7 29  1  0  0  0
  8  9  1  0  0  0
  8 22  1  0  0  0
  9 10  1  0  0  0
  9 27  2  0  0  0
 10 11  2  0  0  0
 10 15  1  0  0  0
 11 12  1  0  0  0
 11 95  1  0  0  0
 12 13  2  0  0  0
 12 96  1  0  0  0
 13 14  1  0  0  0
 13 31  1  0  0  0
 14 15  2  0  0  0
 14 97  1  0  0  0
 15 98  1  0  0  0
 16 17  2  0  0  0
 16 21  1  0  0  0
 16 31  1  0  0  0
 17 18  1  0  0  0
 17 99  1  0  0  0
 18 19  2  0  0  0
 18100  1  0  0  0
 19 20  1  0  0  0
 19 24  1  0  0  0
 20 21  2  0  0  0
 20101  1  0  0  0
 21 23  1  0  0  0
 22 28  1  0  0  0
 22 32  2  0  0  0
 26 27  1  0  0  0
 28102  1  0  0  0
 28103  1  0  0  0
 29104  1  0  0  0
 29105  1  0  0  0
 33 34  1  0  0  0
 33 66  1  0  0  0
 33 70  2  0  0  0
 34 36  1  0  0  0
 34 59  1  0  0  0
 34106  1  0  0  0
 35 44  2  0  0  0
 35 45  1  0  0  0
 35 68  1  0  0  0
 36 56  1  0  0  0
 36107  1  0  0  0
 37 39  1  0  0  0
 37 47  1  0  0  0
 37 66  1  0  0  0
 37108  1  0  0  0
 38 43  2  0  0  0
 38 46  1  0  0  0
 38 47  1  0  0  0
 39 64  1  0  0  0
 39 67  2  0  0  0
 40 52  1  0  0  0
 40 53  2  0  0  0
 40 58  1  0  0  0
 41109  1  0  0  0
 41110  1  0  0  0
 41111  1  0  0  0
 41 48  1  0  0  0
 42 43  1  0  0  0
 42 66  1  0  0  0
 42112  1  0  0  0
 42113  1  0  0  0
 43 44  1  0  0  0
 44114  1  0  0  0
 45 46  2  0  0  0
 45115  1  0  0  0
 46116  1  0  0  0
 47117  1  0  0  0
 47118  1  0  0  0
 48 56  1  0  0  0
 48 65  1  0  0  0
 48119  1  0  0  0
 49 50  1  0  0  0
 49 53  1  0  0  0
 49 64  1  0  0  0
 49120  1  0  0  0
 50 51  1  0  0  0
 50121  1  0  0  0
 50122  1  0  0  0
 51 52  1  0  0  0
 51123  1  0  0  0
 51124  1  0  0  0
 52125  1  0  0  0
 52126  1  0  0  0
 53 54  1  0  0  0
 54 55  2  0  0  0
 54127  1  0  0  0
 55 57  1  0  0  0
 55128  1  0  0  0
 56 69  2  0  0  0
 57 58  2  0  0  0
 57129  1  0  0  0
 58130  1  0  0  0
 59 60  1  0  0  0
 59 61  1  0  0  0
 59 62  1  0  0  0
 60131  1  0  0  0
 60132  1  0  0  0
 60133  1  0  0  0
 61134  1  0  0  0
 61135  1  0  0  0
 61136  1  0  0  0
 62137  1  0  0  0
 62138  1  0  0  0
 62139  1  0  0  0
 63 65  1  0  0  0
 63140  1  0  0  0
 63141  1  0  0  0
 63142  1  0  0  0
 64143  1  0  0  0
 65144  1  0  0  0
 68 78  1  0  0  0
 71 72  2  0  0  0
 71 74  1  0  0  0
 71145  1  0  0  0
 72 75  1  0  0  0
 72146  1  0  0  0
 73 75  2  0  0  0
 73 76  1  0  0  0
 73147  1  0  0  0
 74 76  2  0  0  0
 74 83  1  0  0  0
 75 84  1  0  0  0
 76 85  1  0  0  0
 77 78  2  0  0  0
 77 79  1  0  0  0
 77 80  1  0  0  0
 78148  1  0  0  0
 79 81  1  0  0  0
 79149  1  0  0  0
 79150  1  0  0  0
 80 84  1  0  0  0
 80151  1  0  0  0
 80152  1  0  0  0
 81 82  1  0  0  0
 81153  1  0  0  0
 81154  1  0  0  0
 82 84  1  0  0  0
 82155  1  0  0  0
 82156  1  0  0  0
 83157  1  0  0  0
 83158  1  0  0  0
 83159  1  0  0  0
 85160  1  0  0  0
M  ISO  4   1 100  68 101  78 101  85 100
M  END
> <chiral flag>
0

> <version>
0

> <s_m_source_file>
/data/baiqing/PycharmProjects/Reinvent-master-3.2/result/LINK_invent/BTK/process_docking_weight1_custom_product_contain_oxygen_bond_distance_aromatic_linkinvent_7_9_3/rearranged_h_0118.sdf

> <i_m_source_file_index>
54

> <r_mmod_Potential_Energy-OPLS-2005>
363.580718994141

> <r_mmod_Stretch_Energy-OPLS-2005>
159.104110717773

> <r_mmod_Bend_Energy-OPLS-2005>
253.467834472656

> <r_mmod_Torsional_Energy-OPLS-2005>
246.738006591797

> <r_mmod_Improper_Torsional_Energy-OPLS-2005>
5.75021886825562

> <r_mmod_Van_der_Waal_Energy-OPLS-2005>
167.644454956055

> <r_mmod_Electrostatic_Energy-OPLS-2005>
-365.527526855469

> <r_mmod_Solvation_Energy-OPLS-2005>
-217.379653930664

> <b_mmod_Minimization_Converged-OPLS-2005>
0

> <r_mmod_RMS_Derivative-OPLS-2005>
1.34117352962494

$$$$
55
                    3D
 Structure written by MMmdl.
157165  0  0  1  0            999 V2000
  -30.6430  -14.6039   20.5005 C   0  0  0  0  0  0
  -30.4380  -12.3676   19.4454 C   0  0  0  0  0  0
  -29.5069  -12.5024   18.2195 C   0  0  0  0  0  0
  -28.0292  -12.3476   18.6319 C   0  0  0  0  0  0
  -27.6585  -13.2126   19.8658 C   0  0  2  0  0  0
  -28.7050  -13.0513   20.9929 C   0  0  0  0  0  0
  -25.2593  -13.8167   20.5688 C   0  0  0  0  0  0
  -24.1850  -13.0442   20.9193 C   0  0  0  0  0  0
  -24.6407  -11.6907   20.8741 C   0  0  0  0  0  0
  -23.9073  -10.4293   21.0406 C   0  0  0  0  0  0
  -24.3619   -9.4208   21.9186 C   0  0  0  0  0  0
  -23.6292   -8.2246   22.0759 C   0  0  0  0  0  0
  -22.4276   -8.0285   21.3548 C   0  0  0  0  0  0
  -21.9913   -9.0260   20.4647 C   0  0  0  0  0  0
  -22.7244  -10.2139   20.3055 C   0  0  0  0  0  0
  -21.6853   -6.0738   22.5282 C   0  0  0  0  0  0
  -21.4014   -6.5643   23.8214 C   0  0  0  0  0  0
  -21.3658   -5.6795   24.9175 C   0  0  0  0  0  0
  -21.6044   -4.3058   24.7226 C   0  0  0  0  0  0
  -21.8817   -3.8150   23.4345 C   0  0  0  0  0  0
  -21.9192   -4.6967   22.3402 C   0  0  0  0  0  0
  -22.7868  -13.5242   21.1848 C   0  0  0  0  0  0
  -22.1660   -4.2153   21.0980 F   0  0  0  0  0  0
  -21.5629   -3.4540   25.7736 F   0  0  0  0  0  0
  -30.0257  -13.3835   20.4307 N   0  0  0  0  0  0
  -26.3022  -12.9338   20.3330 N   0  0  0  0  0  0
  -25.9340  -11.6500   20.5762 N   0  0  0  0  0  0
  -22.0497  -12.8235   22.0392 N   0  0  0  0  0  0
  -25.4310  -15.1886   20.4086 N   0  0  0  0  0  0
  -31.8007  -14.7673   20.1052 O   0  0  0  0  0  0
  -21.6641   -6.8880   21.4244 O   0  0  0  0  0  0
  -22.3555  -14.5547   20.6693 O   0  0  0  0  0  0
  -24.6244  -31.8610   23.2044 C   0  0  0  0  0  0
  -25.9102  -32.4786   23.8360 C   0  0  1  0  0  0
  -27.2248  -27.3415   20.1045 C   0  0  0  0  0  0
  -25.5931  -33.8586   24.2291 N   0  0  0  0  0  0
  -23.4161  -30.4860   21.5467 C   0  0  2  0  0  0
  -24.8612  -28.9471   20.1097 C   0  0  0  0  0  0
  -22.7472  -29.4621   22.4941 C   0  0  0  0  0  0
  -18.0285  -28.1376   22.8469 C   0  0  0  0  0  0
  -24.1493  -36.7290   23.2640 C   0  0  0  0  0  0
  -25.9559  -30.7989   21.3720 C   0  0  0  0  0  0
  -26.0302  -29.4300   20.7107 C   0  0  0  0  0  0
  -27.2144  -28.6384   20.6989 C   0  0  0  0  0  0
  -26.0300  -26.9079   19.4813 C   0  0  0  0  0  0
  -24.8624  -27.6900   19.4881 C   0  0  0  0  0  0
  -23.6283  -29.8230   20.1617 C   0  0  0  0  0  0
  -25.4111  -36.3079   24.0335 C   0  0  1  0  0  0
  -20.5887  -28.3661   23.1286 C   0  0  2  0  0  0
  -20.6776  -26.9386   22.5405 C   0  0  0  0  0  0
  -19.5753  -26.6370   21.5202 C   0  0  0  0  0  0
  -18.1935  -26.7920   22.1611 C   0  0  0  0  0  0
  -19.1541  -28.8835   23.2873 C   0  0  0  0  0  0
  -18.9468  -30.1440   23.8885 C   0  0  0  0  0  0
  -17.6469  -30.6576   24.0546 C   0  0  0  0  0  0
  -25.9048  -34.9452   23.5107 C   0  0  0  0  0  0
  -16.5357  -29.9066   23.6340 C   0  0  0  0  0  0
  -16.7276  -28.6498   23.0337 C   0  0  0  0  0  0
  -26.4494  -31.6589   25.0724 C   0  0  0  0  0  0
  -25.3732  -31.3734   26.1460 C   0  0  0  0  0  0
  -27.0345  -30.3022   24.6163 C   0  0  0  0  0  0
  -27.6062  -32.4313   25.7492 C   0  0  0  0  0  0
  -27.5580  -37.1792   24.8464 C   0  0  0  0  0  0
  -21.4182  -29.3024   22.3687 N   0  0  0  0  0  0
  -26.4288  -37.3771   23.9416 N   0  0  0  0  0  0
  -24.6845  -31.0645   22.0978 N   0  0  0  0  0  0
  -23.4213  -28.8160   23.3003 O   0  0  0  0  0  0
  -28.3519  -26.5102   20.1496 O   0  0  0  0  0  0
  -26.5599  -34.8912   22.4664 O   0  0  0  0  0  0
  -23.5407  -32.1393   23.7385 O   0  0  0  0  0  0
  -28.7757  -17.8531   21.0355 C   0  0  0  0  0  0
  -31.0508  -17.8169   20.2832 C   0  0  0  0  0  0
  -29.8825  -20.0265   20.5287 C   0  0  0  0  0  0
  -28.7396  -19.2751   20.9446 C   0  0  0  0  0  0
  -31.0336  -19.2431   20.1839 C   0  0  0  0  0  0
  -29.9212  -17.0852   20.7218 C   0  0  0  0  0  0
  -29.9548  -21.5557   20.4514 C   0  0  0  0  0  0
  -29.0164  -22.5518   20.3867 C   0  0  0  0  0  0
  -27.4461  -19.9534   21.3583 C   0  0  0  0  0  0
  -32.3122  -19.9197   19.7075 C   0  0  0  0  0  0
  -29.3167  -24.0859   20.3960 C   0  0  0  0  0  0
  -28.1434  -25.0593   19.9860 C   0  0  0  0  0  0
  -29.8384  -15.6382   20.8813 N   0  0  0  0  0  0
  -31.4807  -12.4827   19.1445 H   0  0  0  0  0  0
  -30.3613  -11.3687   19.8788 H   0  0  0  0  0  0
  -29.7640  -11.7545   17.4685 H   0  0  0  0  0  0
  -29.6571  -13.4739   17.7454 H   0  0  0  0  0  0
  -27.8599  -11.2946   18.8573 H   0  0  0  0  0  0
  -27.3755  -12.5871   17.7923 H   0  0  0  0  0  0
  -27.6816  -14.2498   19.5330 H   0  0  0  0  0  0
  -28.7067  -12.0270   21.3687 H   0  0  0  0  0  0
  -28.4559  -13.6774   21.8507 H   0  0  0  0  0  0
  -25.2762   -9.5685   22.4760 H   0  0  0  0  0  0
  -24.0002   -7.4636   22.7481 H   0  0  0  0  0  0
  -21.0846   -8.8783   19.8944 H   0  0  0  0  0  0
  -22.3711  -10.9681   19.6163 H   0  0  0  0  0  0
  -21.2006   -7.6150   23.9720 H   0  0  0  0  0  0
  -21.1482   -6.0523   25.9078 H   0  0  0  0  0  0
  -22.0595   -2.7613   23.2847 H   0  0  0  0  0  0
  -22.4108  -11.9904   22.4796 H   0  0  0  0  0  0
  -21.1108  -13.1266   22.2568 H   0  0  0  0  0  0
  -24.6610  -15.8409   20.5078 H   0  0  0  0  0  0
  -26.2717  -15.6225   20.0495 H   0  0  0  0  0  0
  -26.7167  -32.5459   23.1101 H   0  0  0  0  0  0
  -25.0116  -33.9733   25.0464 H   0  0  0  0  0  0
  -22.7078  -31.3056   21.4057 H   0  0  0  0  0  0
  -23.3757  -35.9622   23.3297 H   0  0  0  0  0  0
  -24.3590  -36.8910   22.2057 H   0  0  0  0  0  0
  -23.7250  -37.6490   23.6660 H   0  0  0  0  0  0
  -26.0861  -31.5655   20.6068 H   0  0  0  0  0  0
  -26.8376  -30.8442   22.0000 H   0  0  0  0  0  0
  -28.1110  -29.0050   21.1782 H   0  0  0  0  0  0
  -25.9692  -25.9495   18.9886 H   0  0  0  0  0  0
  -23.9667  -27.3133   19.0135 H   0  0  0  0  0  0
  -23.7395  -30.6003   19.4047 H   0  0  0  0  0  0
  -22.7500  -29.2481   19.8615 H   0  0  0  0  0  0
  -25.1290  -36.1925   25.0827 H   0  0  0  0  0  0
  -20.9974  -28.3217   24.1409 H   0  0  0  0  0  0
  -20.5669  -26.2260   23.3592 H   0  0  0  0  0  0
  -21.6644  -26.7402   22.1199 H   0  0  0  0  0  0
  -19.6919  -25.6286   21.1221 H   0  0  0  0  0  0
  -19.6718  -27.3184   20.6738 H   0  0  0  0  0  0
  -17.4208  -26.6662   21.4013 H   0  0  0  0  0  0
  -18.0326  -26.0067   22.9009 H   0  0  0  0  0  0
  -19.7952  -30.7257   24.2242 H   0  0  0  0  0  0
  -17.5028  -31.6259   24.5141 H   0  0  0  0  0  0
  -15.5358  -30.2955   23.7684 H   0  0  0  0  0  0
  -15.8678  -28.0818   22.7040 H   0  0  0  0  0  0
  -24.5911  -30.7071   25.7797 H   0  0  0  0  0  0
  -24.8916  -32.2907   26.4854 H   0  0  0  0  0  0
  -25.8055  -30.8939   27.0252 H   0  0  0  0  0  0
  -26.2916  -29.6766   24.1196 H   0  0  0  0  0  0
  -27.4081  -29.7276   25.4647 H   0  0  0  0  0  0
  -27.8763  -30.4333   23.9363 H   0  0  0  0  0  0
  -27.2687  -33.3620   26.2060 H   0  0  0  0  0  0
  -28.3875  -32.6852   25.0320 H   0  0  0  0  0  0
  -28.0722  -31.8445   26.5414 H   0  0  0  0  0  0
  -28.2577  -38.0105   24.7505 H   0  0  0  0  0  0
  -28.1092  -36.2628   24.6283 H   0  0  0  0  0  0
  -27.2300  -37.1431   25.8869 H   0  0  0  0  0  0
  -20.9347  -29.8757   21.6922 H   0  0  0  0  0  0
  -26.0170  -38.2845   24.1423 H   0  0  0  0  0  0
  -27.8891  -17.3341   21.3732 H   0  0  0  0  0  0
  -31.9559  -17.2877   20.0227 H   0  0  0  0  0  0
  -30.9629  -21.9388   20.4936 H   0  0  0  0  0  0
  -27.9687  -22.3018   20.3434 H   0  0  0  0  0  0
  -26.7738  -19.2584   21.8625 H   0  0  0  0  0  0
  -26.9201  -20.3383   20.4845 H   0  0  0  0  0  0
  -27.6405  -20.7682   22.0551 H   0  0  0  0  0  0
  -33.0265  -19.2037   19.3013 H   0  0  0  0  0  0
  -32.7996  -20.4360   20.5353 H   0  0  0  0  0  0
  -32.1021  -20.6448   18.9208 H   0  0  0  0  0  0
  -30.1829  -24.2737   19.7608 H   0  0  0  0  0  0
  -29.6267  -24.3405   21.4093 H   0  0  0  0  0  0
  -27.2692  -24.7694   20.5720 H   0  0  0  0  0  0
  -27.9030  -24.8611   18.9411 H   0  0  0  0  0  0
  -28.9449  -15.3105   21.2132 H   0  0  0  0  0  0
  1 25  1  0  0  0
  1 30  2  0  0  0
  1 83  1  0  0  0
  2  3  1  0  0  0
  2 25  1  0  0  0
  2 84  1  0  0  0
  2 85  1  0  0  0
  3  4  1  0  0  0
  3 86  1  0  0  0
  3 87  1  0  0  0
  4  5  1  0  0  0
  4 88  1  0  0  0
  4 89  1  0  0  0
  5  6  1  0  0  0
  5 26  1  0  0  0
  5 90  1  0  0  0
  6 25  1  0  0  0
  6 91  1  0  0  0
  6 92  1  0  0  0
  7  8  2  0  0  0
  7 26  1  0  0  0
  7 29  1  0  0  0
  8  9  1  0  0  0
  8 22  1  0  0  0
  9 10  1  0  0  0
  9 27  2  0  0  0
 10 11  2  0  0  0
 10 15  1  0  0  0
 11 12  1  0  0  0
 11 93  1  0  0  0
 12 13  2  0  0  0
 12 94  1  0  0  0
 13 14  1  0  0  0
 13 31  1  0  0  0
 14 15  2  0  0  0
 14 95  1  0  0  0
 15 96  1  0  0  0
 16 17  2  0  0  0
 16 21  1  0  0  0
 16 31  1  0  0  0
 17 18  1  0  0  0
 17 97  1  0  0  0
 18 19  2  0  0  0
 18 98  1  0  0  0
 19 20  1  0  0  0
 19 24  1  0  0  0
 20 21  2  0  0  0
 20 99  1  0  0  0
 21 23  1  0  0  0
 22 28  1  0  0  0
 22 32  2  0  0  0
 26 27  1  0  0  0
 28100  1  0  0  0
 28101  1  0  0  0
 29102  1  0  0  0
 29103  1  0  0  0
 33 34  1  0  0  0
 33 66  1  0  0  0
 33 70  2  0  0  0
 34 36  1  0  0  0
 34 59  1  0  0  0
 34104  1  0  0  0
 35 44  2  0  0  0
 35 45  1  0  0  0
 35 68  1  0  0  0
 36 56  1  0  0  0
 36105  1  0  0  0
 37 39  1  0  0  0
 37 47  1  0  0  0
 37 66  1  0  0  0
 37106  1  0  0  0
 38 43  2  0  0  0
 38 46  1  0  0  0
 38 47  1  0  0  0
 39 64  1  0  0  0
 39 67  2  0  0  0
 40 52  1  0  0  0
 40 53  2  0  0  0
 40 58  1  0  0  0
 41107  1  0  0  0
 41108  1  0  0  0
 41109  1  0  0  0
 41 48  1  0  0  0
 42 43  1  0  0  0
 42 66  1  0  0  0
 42110  1  0  0  0
 42111  1  0  0  0
 43 44  1  0  0  0
 44112  1  0  0  0
 45 46  2  0  0  0
 45113  1  0  0  0
 46114  1  0  0  0
 47115  1  0  0  0
 47116  1  0  0  0
 48 56  1  0  0  0
 48 65  1  0  0  0
 48117  1  0  0  0
 49 50  1  0  0  0
 49 53  1  0  0  0
 49 64  1  0  0  0
 49118  1  0  0  0
 50 51  1  0  0  0
 50119  1  0  0  0
 50120  1  0  0  0
 51 52  1  0  0  0
 51121  1  0  0  0
 51122  1  0  0  0
 52123  1  0  0  0
 52124  1  0  0  0
 53 54  1  0  0  0
 54 55  2  0  0  0
 54125  1  0  0  0
 55 57  1  0  0  0
 55126  1  0  0  0
 56 69  2  0  0  0
 57 58  2  0  0  0
 57127  1  0  0  0
 58128  1  0  0  0
 59 60  1  0  0  0
 59 61  1  0  0  0
 59 62  1  0  0  0
 60129  1  0  0  0
 60130  1  0  0  0
 60131  1  0  0  0
 61132  1  0  0  0
 61133  1  0  0  0
 61134  1  0  0  0
 62135  1  0  0  0
 62136  1  0  0  0
 62137  1  0  0  0
 63 65  1  0  0  0
 63138  1  0  0  0
 63139  1  0  0  0
 63140  1  0  0  0
 64141  1  0  0  0
 65142  1  0  0  0
 68 82  1  0  0  0
 71 74  2  0  0  0
 71 76  1  0  0  0
 71143  1  0  0  0
 72 75  1  0  0  0
 72 76  2  0  0  0
 72144  1  0  0  0
 73 74  1  0  0  0
 73 75  2  0  0  0
 73 77  1  0  0  0
 74 79  1  0  0  0
 75 80  1  0  0  0
 76 83  1  0  0  0
 77 78  2  0  0  0
 77145  1  0  0  0
 78 81  1  0  0  0
 78146  1  0  0  0
 79147  1  0  0  0
 79148  1  0  0  0
 79149  1  0  0  0
 80150  1  0  0  0
 80151  1  0  0  0
 80152  1  0  0  0
 81 82  1  0  0  0
 81153  1  0  0  0
 81154  1  0  0  0
 82155  1  0  0  0
 82156  1  0  0  0
 83157  1  0  0  0
M  ISO  4   1 100  68 101  82 101  83 100
M  END
> <chiral flag>
0

> <version>
0

> <s_m_source_file>
/data/baiqing/PycharmProjects/Reinvent-master-3.2/result/LINK_invent/BTK/process_docking_weight1_custom_product_contain_oxygen_bond_distance_aromatic_linkinvent_7_9_3/rearranged_h_0118.sdf

> <i_m_source_file_index>
55

> <r_mmod_Potential_Energy-OPLS-2005>
42.2073287963867

> <r_mmod_Stretch_Energy-OPLS-2005>
71.834114074707

> <r_mmod_Bend_Energy-OPLS-2005>
134.454986572266

> <r_mmod_Torsional_Energy-OPLS-2005>
215.684844970703

> <r_mmod_Improper_Torsional_Energy-OPLS-2005>
4.30672931671143

> <r_mmod_Van_der_Waal_Energy-OPLS-2005>
155.656265258789

> <r_mmod_Electrostatic_Energy-OPLS-2005>
-375.334503173828

> <r_mmod_Solvation_Energy-OPLS-2005>
-202.717132568359

> <b_mmod_Minimization_Converged-OPLS-2005>
0

> <r_mmod_RMS_Derivative-OPLS-2005>
1.29719388484955

$$$$
56
                    3D
 Structure written by MMmdl.
156164  0  0  1  0            999 V2000
  -30.6113  -14.7170   20.4659 C   0  0  0  0  0  0
  -30.4318  -12.4338   19.4851 C   0  0  0  0  0  0
  -29.5165  -12.5144   18.2427 C   0  0  0  0  0  0
  -28.0400  -12.3431   18.6463 C   0  0  0  0  0  0
  -27.6475  -13.2313   19.8577 C   0  0  2  0  0  0
  -28.6860  -13.1418   20.9991 C   0  0  0  0  0  0
  -25.2538  -13.8206   20.5690 C   0  0  0  0  0  0
  -24.1819  -13.0452   20.9181 C   0  0  0  0  0  0
  -24.6405  -11.6930   20.8725 C   0  0  0  0  0  0
  -23.9080  -10.4304   21.0402 C   0  0  0  0  0  0
  -24.3627   -9.4214   21.9179 C   0  0  0  0  0  0
  -23.6297   -8.2253   22.0756 C   0  0  0  0  0  0
  -22.4272   -8.0293   21.3555 C   0  0  0  0  0  0
  -21.9913   -9.0267   20.4651 C   0  0  0  0  0  0
  -22.7249  -10.2143   20.3051 C   0  0  0  0  0  0
  -21.6856   -6.0743   22.5284 C   0  0  0  0  0  0
  -21.4024   -6.5646   23.8216 C   0  0  0  0  0  0
  -21.3654   -5.6793   24.9175 C   0  0  0  0  0  0
  -21.6037   -4.3057   24.7221 C   0  0  0  0  0  0
  -21.8818   -3.8150   23.4343 C   0  0  0  0  0  0
  -21.9197   -4.6974   22.3399 C   0  0  0  0  0  0
  -22.7834  -13.5239   21.1845 C   0  0  0  0  0  0
  -22.1663   -4.2167   21.0974 F   0  0  0  0  0  0
  -21.5620   -3.4534   25.7733 F   0  0  0  0  0  0
  -29.9979  -13.4848   20.4357 N   0  0  0  0  0  0
  -26.2965  -12.9410   20.3278 N   0  0  0  0  0  0
  -25.9339  -11.6555   20.5735 N   0  0  0  0  0  0
  -22.0475  -12.8233   22.0399 N   0  0  0  0  0  0
  -25.4246  -15.1931   20.4155 N   0  0  0  0  0  0
  -31.7764  -14.8334   20.0720 O   0  0  0  0  0  0
  -21.6642   -6.8888   21.4242 O   0  0  0  0  0  0
  -22.3513  -14.5536   20.6687 O   0  0  0  0  0  0
  -24.6320  -31.8567   23.1994 C   0  0  0  0  0  0
  -25.9144  -32.4764   23.8340 C   0  0  1  0  0  0
  -27.2113  -27.2566   20.1169 C   0  0  0  0  0  0
  -25.5938  -33.8567   24.2262 N   0  0  0  0  0  0
  -23.4274  -30.4805   21.5451 C   0  0  2  0  0  0
  -24.8716  -28.9328   20.1075 C   0  0  0  0  0  0
  -22.7506  -29.4602   22.4923 C   0  0  0  0  0  0
  -18.0293  -28.1382   22.8486 C   0  0  0  0  0  0
  -24.1491  -36.7294   23.2639 C   0  0  0  0  0  0
  -25.9750  -30.7653   21.3822 C   0  0  0  0  0  0
  -26.0441  -29.3883   20.7229 C   0  0  0  0  0  0
  -27.2139  -28.5600   20.7234 C   0  0  0  0  0  0
  -26.0186  -26.8859   19.4508 C   0  0  0  0  0  0
  -24.8642  -27.6891   19.4629 C   0  0  0  0  0  0
  -23.6439  -29.8209   20.1591 C   0  0  0  0  0  0
  -25.4116  -36.3077   24.0326 C   0  0  1  0  0  0
  -20.5898  -28.3694   23.1270 C   0  0  2  0  0  0
  -20.6782  -26.9413   22.5406 C   0  0  0  0  0  0
  -19.5752  -26.6379   21.5212 C   0  0  0  0  0  0
  -18.1935  -26.7923   22.1628 C   0  0  0  0  0  0
  -19.1548  -28.8855   23.2871 C   0  0  0  0  0  0
  -18.9470  -30.1456   23.8888 C   0  0  0  0  0  0
  -17.6466  -30.6582   24.0562 C   0  0  0  0  0  0
  -25.9059  -34.9446   23.5098 C   0  0  0  0  0  0
  -16.5356  -29.9081   23.6328 C   0  0  0  0  0  0
  -16.7278  -28.6498   23.0351 C   0  0  0  0  0  0
  -26.4497  -31.6590   25.0734 C   0  0  0  0  0  0
  -25.3702  -31.3761   26.1446 C   0  0  0  0  0  0
  -27.0344  -30.3002   24.6232 C   0  0  0  0  0  0
  -27.6052  -32.4324   25.7510 C   0  0  0  0  0  0
  -27.5579  -37.1805   24.8464 C   0  0  0  0  0  0
  -21.4213  -29.3044   22.3668 N   0  0  0  0  0  0
  -26.4290  -37.3774   23.9405 N   0  0  0  0  0  0
  -24.6977  -31.0514   22.0990 N   0  0  0  0  0  0
  -23.4206  -28.8138   23.3017 O   0  0  0  0  0  0
  -28.2961  -26.3473   20.2009 O   0  0  0  0  0  0
  -26.5629  -34.8921   22.4665 O   0  0  0  0  0  0
  -23.5467  -32.1399   23.7278 O   0  0  0  0  0  0
  -29.5098  -19.5690   18.5923 C   0  0  0  0  0  0
  -29.5925  -18.4498   20.7455 C   0  0  0  0  0  0
  -29.8513  -17.1404   18.7093 C   0  0  0  0  0  0
  -29.4595  -19.6974   19.9994 C   0  0  0  0  0  0
  -29.7030  -18.3233   17.9584 C   0  0  0  0  0  0
  -29.8060  -17.1485   20.1207 C   0  0  0  0  0  0
  -29.2754  -21.1206   20.5855 C   0  0  0  0  0  0
  -28.9509  -22.3107   19.9412 C   0  0  0  0  0  0
  -28.8602  -23.7332   20.5385 C   0  0  0  0  0  0
  -28.3394  -18.2879   15.8260 C   0  0  0  0  0  0
  -29.7416  -18.2551   16.4426 C   0  0  0  0  0  0
  -28.1073  -24.9142   19.7649 C   0  0  0  0  0  0
  -29.8667  -15.8353   20.8078 N   0  0  0  0  0  0
  -29.3554  -23.9880   21.6410 O   0  0  0  0  0  0
  -31.4762  -12.5460   19.1883 H   0  0  0  0  0  0
  -30.3622  -11.4499   19.9513 H   0  0  0  0  0  0
  -29.7977  -11.7535   17.5130 H   0  0  0  0  0  0
  -29.6525  -13.4770   17.7472 H   0  0  0  0  0  0
  -27.8865  -11.2919   18.8930 H   0  0  0  0  0  0
  -27.3889  -12.5538   17.7968 H   0  0  0  0  0  0
  -27.6511  -14.2585   19.4914 H   0  0  0  0  0  0
  -28.7076  -12.1377   21.4245 H   0  0  0  0  0  0
  -28.4184  -13.8116   21.8176 H   0  0  0  0  0  0
  -25.2778   -9.5691   22.4745 H   0  0  0  0  0  0
  -24.0014   -7.4641   22.7468 H   0  0  0  0  0  0
  -21.0845   -8.8785   19.8949 H   0  0  0  0  0  0
  -22.3714  -10.9680   19.6148 H   0  0  0  0  0  0
  -21.2025   -7.6155   23.9724 H   0  0  0  0  0  0
  -21.1470   -6.0523   25.9079 H   0  0  0  0  0  0
  -22.0602   -2.7615   23.2834 H   0  0  0  0  0  0
  -22.4091  -11.9912   22.4821 H   0  0  0  0  0  0
  -21.1086  -13.1249   22.2584 H   0  0  0  0  0  0
  -24.6590  -15.8480   20.5316 H   0  0  0  0  0  0
  -26.2783  -15.6343   20.0983 H   0  0  0  0  0  0
  -26.7216  -32.5405   23.1087 H   0  0  0  0  0  0
  -25.0065  -33.9711   25.0391 H   0  0  0  0  0  0
  -22.7233  -31.3029   21.4023 H   0  0  0  0  0  0
  -23.3750  -35.9631   23.3303 H   0  0  0  0  0  0
  -24.3578  -36.8915   22.2054 H   0  0  0  0  0  0
  -23.7252  -37.6500   23.6660 H   0  0  0  0  0  0
  -26.1125  -31.5248   20.6112 H   0  0  0  0  0  0
  -26.8544  -30.8146   22.0130 H   0  0  0  0  0  0
  -28.1076  -28.8986   21.2295 H   0  0  0  0  0  0
  -25.9288  -25.9556   18.9125 H   0  0  0  0  0  0
  -23.9698  -27.3384   18.9657 H   0  0  0  0  0  0
  -23.7693  -30.6003   19.4064 H   0  0  0  0  0  0
  -22.7608  -29.2571   19.8532 H   0  0  0  0  0  0
  -25.1295  -36.1932   25.0818 H   0  0  0  0  0  0
  -20.9979  -28.3268   24.1393 H   0  0  0  0  0  0
  -20.5678  -26.2305   23.3611 H   0  0  0  0  0  0
  -21.6652  -26.7431   22.1201 H   0  0  0  0  0  0
  -19.6910  -25.6287   21.1253 H   0  0  0  0  0  0
  -19.6683  -27.3183   20.6736 H   0  0  0  0  0  0
  -17.4201  -26.6664   21.4038 H   0  0  0  0  0  0
  -18.0333  -26.0067   22.9026 H   0  0  0  0  0  0
  -19.7947  -30.7278   24.2249 H   0  0  0  0  0  0
  -17.5021  -31.6260   24.5167 H   0  0  0  0  0  0
  -15.5359  -30.2980   23.7648 H   0  0  0  0  0  0
  -15.8681  -28.0811   22.7067 H   0  0  0  0  0  0
  -24.5866  -30.7126   25.7773 H   0  0  0  0  0  0
  -24.8906  -32.2944   26.4847 H   0  0  0  0  0  0
  -25.7996  -30.8948   27.0241 H   0  0  0  0  0  0
  -26.2940  -29.6752   24.1229 H   0  0  0  0  0  0
  -27.3992  -29.7265   25.4764 H   0  0  0  0  0  0
  -27.8830  -30.4276   23.9506 H   0  0  0  0  0  0
  -27.2666  -33.3631   26.2077 H   0  0  0  0  0  0
  -28.3874  -32.6872   25.0344 H   0  0  0  0  0  0
  -28.0708  -31.8453   26.5440 H   0  0  0  0  0  0
  -28.2599  -38.0099   24.7498 H   0  0  0  0  0  0
  -28.1071  -36.2630   24.6299 H   0  0  0  0  0  0
  -27.2293  -37.1468   25.8866 H   0  0  0  0  0  0
  -20.9393  -29.8785   21.6894 H   0  0  0  0  0  0
  -26.0174  -38.2852   24.1387 H   0  0  0  0  0  0
  -29.4132  -20.4409   17.9630 H   0  0  0  0  0  0
  -29.5368  -18.4977   21.8238 H   0  0  0  0  0  0
  -29.9720  -16.2052   18.1797 H   0  0  0  0  0  0
  -29.4586  -21.1867   21.6495 H   0  0  0  0  0  0
  -28.7429  -22.2734   18.8836 H   0  0  0  0  0  0
  -28.3945  -18.2120   14.7399 H   0  0  0  0  0  0
  -27.8221  -19.2165   16.0688 H   0  0  0  0  0  0
  -27.7284  -17.4599   16.1865 H   0  0  0  0  0  0
  -30.2595  -17.3478   16.1281 H   0  0  0  0  0  0
  -30.3335  -19.0878   16.0606 H   0  0  0  0  0  0
  -27.0626  -24.6293   19.8649 H   0  0  0  0  0  0
  -28.3512  -24.8441   18.7050 H   0  0  0  0  0  0
  -29.0687  -15.6329   21.3920 H   0  0  0  0  0  0
  1 25  1  0  0  0
  1 30  2  0  0  0
  1 83  1  0  0  0
  2  3  1  0  0  0
  2 25  1  0  0  0
  2 85  1  0  0  0
  2 86  1  0  0  0
  3  4  1  0  0  0
  3 87  1  0  0  0
  3 88  1  0  0  0
  4  5  1  0  0  0
  4 89  1  0  0  0
  4 90  1  0  0  0
  5  6  1  0  0  0
  5 26  1  0  0  0
  5 91  1  0  0  0
  6 25  1  0  0  0
  6 92  1  0  0  0
  6 93  1  0  0  0
  7  8  2  0  0  0
  7 26  1  0  0  0
  7 29  1  0  0  0
  8  9  1  0  0  0
  8 22  1  0  0  0
  9 10  1  0  0  0
  9 27  2  0  0  0
 10 11  2  0  0  0
 10 15  1  0  0  0
 11 12  1  0  0  0
 11 94  1  0  0  0
 12 13  2  0  0  0
 12 95  1  0  0  0
 13 14  1  0  0  0
 13 31  1  0  0  0
 14 15  2  0  0  0
 14 96  1  0  0  0
 15 97  1  0  0  0
 16 17  2  0  0  0
 16 21  1  0  0  0
 16 31  1  0  0  0
 17 18  1  0  0  0
 17 98  1  0  0  0
 18 19  2  0  0  0
 18 99  1  0  0  0
 19 20  1  0  0  0
 19 24  1  0  0  0
 20 21  2  0  0  0
 20100  1  0  0  0
 21 23  1  0  0  0
 22 28  1  0  0  0
 22 32  2  0  0  0
 26 27  1  0  0  0
 28101  1  0  0  0
 28102  1  0  0  0
 29103  1  0  0  0
 29104  1  0  0  0
 33 34  1  0  0  0
 33 66  1  0  0  0
 33 70  2  0  0  0
 34 36  1  0  0  0
 34 59  1  0  0  0
 34105  1  0  0  0
 35 44  2  0  0  0
 35 45  1  0  0  0
 35 68  1  0  0  0
 36 56  1  0  0  0
 36106  1  0  0  0
 37 39  1  0  0  0
 37 47  1  0  0  0
 37 66  1  0  0  0
 37107  1  0  0  0
 38 43  2  0  0  0
 38 46  1  0  0  0
 38 47  1  0  0  0
 39 64  1  0  0  0
 39 67  2  0  0  0
 40 52  1  0  0  0
 40 53  2  0  0  0
 40 58  1  0  0  0
 41108  1  0  0  0
 41109  1  0  0  0
 41110  1  0  0  0
 41 48  1  0  0  0
 42 43  1  0  0  0
 42 66  1  0  0  0
 42111  1  0  0  0
 42112  1  0  0  0
 43 44  1  0  0  0
 44113  1  0  0  0
 45 46  2  0  0  0
 45114  1  0  0  0
 46115  1  0  0  0
 47116  1  0  0  0
 47117  1  0  0  0
 48 56  1  0  0  0
 48 65  1  0  0  0
 48118  1  0  0  0
 49 50  1  0  0  0
 49 53  1  0  0  0
 49 64  1  0  0  0
 49119  1  0  0  0
 50 51  1  0  0  0
 50120  1  0  0  0
 50121  1  0  0  0
 51 52  1  0  0  0
 51122  1  0  0  0
 51123  1  0  0  0
 52124  1  0  0  0
 52125  1  0  0  0
 53 54  1  0  0  0
 54 55  2  0  0  0
 54126  1  0  0  0
 55 57  1  0  0  0
 55127  1  0  0  0
 56 69  2  0  0  0
 57 58  2  0  0  0
 57128  1  0  0  0
 58129  1  0  0  0
 59 60  1  0  0  0
 59 61  1  0  0  0
 59 62  1  0  0  0
 60130  1  0  0  0
 60131  1  0  0  0
 60132  1  0  0  0
 61133  1  0  0  0
 61134  1  0  0  0
 61135  1  0  0  0
 62136  1  0  0  0
 62137  1  0  0  0
 62138  1  0  0  0
 63 65  1  0  0  0
 63139  1  0  0  0
 63140  1  0  0  0
 63141  1  0  0  0
 64142  1  0  0  0
 65143  1  0  0  0
 68 82  1  0  0  0
 71 74  2  0  0  0
 71 75  1  0  0  0
 71144  1  0  0  0
 72 74  1  0  0  0
 72 76  2  0  0  0
 72145  1  0  0  0
 73 75  2  0  0  0
 73 76  1  0  0  0
 73146  1  0  0  0
 74 77  1  0  0  0
 75 81  1  0  0  0
 76 83  1  0  0  0
 77 78  2  0  0  0
 77147  1  0  0  0
 78 79  1  0  0  0
 78148  1  0  0  0
 79 82  1  0  0  0
 79 84  2  0  0  0
 80 81  1  0  0  0
 80149  1  0  0  0
 80150  1  0  0  0
 80151  1  0  0  0
 81152  1  0  0  0
 81153  1  0  0  0
 82154  1  0  0  0
 82155  1  0  0  0
 83156  1  0  0  0
M  ISO  4   1 100  68 101  82 101  83 100
M  END
> <chiral flag>
0

> <version>
0

> <s_m_source_file>
/data/baiqing/PycharmProjects/Reinvent-master-3.2/result/LINK_invent/BTK/process_docking_weight1_custom_product_contain_oxygen_bond_distance_aromatic_linkinvent_7_9_3/rearranged_h_0118.sdf

> <i_m_source_file_index>
56

> <r_mmod_Potential_Energy-OPLS-2005>
160.154983520508

> <r_mmod_Stretch_Energy-OPLS-2005>
121.555358886719

> <r_mmod_Bend_Energy-OPLS-2005>
148.938507080078

> <r_mmod_Torsional_Energy-OPLS-2005>
239.808029174805

> <r_mmod_Improper_Torsional_Energy-OPLS-2005>
4.81443357467651

> <r_mmod_Van_der_Waal_Energy-OPLS-2005>
140.337066650391

> <r_mmod_Electrostatic_Energy-OPLS-2005>
-342.771850585938

> <r_mmod_Solvation_Energy-OPLS-2005>
-233.965454101562

> <b_mmod_Minimization_Converged-OPLS-2005>
0

> <r_mmod_RMS_Derivative-OPLS-2005>
1.39516627788544

$$$$
57
                    3D
 Structure written by MMmdl.
156164  0  0  1  0            999 V2000
  -30.6911  -14.5116   20.5638 C   0  0  0  0  0  0
  -30.4269  -12.3266   19.4367 C   0  0  0  0  0  0
  -29.5012  -12.5111   18.2145 C   0  0  0  0  0  0
  -28.0198  -12.3698   18.6190 C   0  0  0  0  0  0
  -27.6619  -13.2079   19.8756 C   0  0  2  0  0  0
  -28.7019  -12.9823   20.9944 C   0  0  0  0  0  0
  -25.2591  -13.8158   20.5677 C   0  0  0  0  0  0
  -24.1833  -13.0440   20.9157 C   0  0  0  0  0  0
  -24.6385  -11.6906   20.8716 C   0  0  0  0  0  0
  -23.9051  -10.4295   21.0396 C   0  0  0  0  0  0
  -24.3606   -9.4214   21.9177 C   0  0  0  0  0  0
  -23.6283   -8.2251   22.0754 C   0  0  0  0  0  0
  -22.4264   -8.0284   21.3546 C   0  0  0  0  0  0
  -21.9897   -9.0256   20.4650 C   0  0  0  0  0  0
  -22.7222  -10.2134   20.3051 C   0  0  0  0  0  0
  -21.6853   -6.0731   22.5276 C   0  0  0  0  0  0
  -21.4019   -6.5636   23.8210 C   0  0  0  0  0  0
  -21.3661   -5.6789   24.9170 C   0  0  0  0  0  0
  -21.6039   -4.3051   24.7223 C   0  0  0  0  0  0
  -21.8820   -3.8142   23.4346 C   0  0  0  0  0  0
  -21.9197   -4.6960   22.3403 C   0  0  0  0  0  0
  -22.7861  -13.5248   21.1828 C   0  0  0  0  0  0
  -22.1662   -4.2145   21.0979 F   0  0  0  0  0  0
  -21.5629   -3.4536   25.7737 F   0  0  0  0  0  0
  -30.0310  -13.3177   20.4549 N   0  0  0  0  0  0
  -26.3025  -12.9327   20.3358 N   0  0  0  0  0  0
  -25.9311  -11.6485   20.5741 N   0  0  0  0  0  0
  -22.0499  -12.8251   22.0390 N   0  0  0  0  0  0
  -25.4333  -15.1874   20.4117 N   0  0  0  0  0  0
  -31.8124  -14.6669   20.0703 O   0  0  0  0  0  0
  -21.6637   -6.8875   21.4238 O   0  0  0  0  0  0
  -22.3552  -14.5558   20.6680 O   0  0  0  0  0  0
  -24.6174  -31.8670   23.2094 C   0  0  0  0  0  0
  -25.9059  -32.4816   23.8396 C   0  0  1  0  0  0
  -27.2272  -27.4033   20.1058 C   0  0  0  0  0  0
  -25.5905  -33.8615   24.2318 N   0  0  0  0  0  0
  -23.4069  -30.4914   21.5502 C   0  0  2  0  0  0
  -24.8535  -28.9578   20.1128 C   0  0  0  0  0  0
  -22.7428  -29.4656   22.4975 C   0  0  0  0  0  0
  -18.0275  -28.1374   22.8491 C   0  0  0  0  0  0
  -24.1485  -36.7309   23.2638 C   0  0  0  0  0  0
  -25.9405  -30.8221   21.3709 C   0  0  0  0  0  0
  -26.0170  -29.4567   20.7131 C   0  0  0  0  0  0
  -27.2092  -28.6892   20.7027 C   0  0  0  0  0  0
  -26.0499  -26.9398   19.4772 C   0  0  0  0  0  0
  -24.8668  -27.7000   19.4891 C   0  0  0  0  0  0
  -23.6171  -29.8272   20.1641 C   0  0  0  0  0  0
  -25.4108  -36.3107   24.0335 C   0  0  1  0  0  0
  -20.5868  -28.3670   23.1301 C   0  0  2  0  0  0
  -20.6761  -26.9403   22.5408 C   0  0  0  0  0  0
  -19.5742  -26.6382   21.5203 C   0  0  0  0  0  0
  -18.1922  -26.7919   22.1619 C   0  0  0  0  0  0
  -19.1526  -28.8838   23.2894 C   0  0  0  0  0  0
  -18.9456  -30.1440   23.8911 C   0  0  0  0  0  0
  -17.6460  -30.6583   24.0562 C   0  0  0  0  0  0
  -25.9040  -34.9473   23.5125 C   0  0  0  0  0  0
  -16.5350  -29.9086   23.6324 C   0  0  0  0  0  0
  -16.7264  -28.6496   23.0357 C   0  0  0  0  0  0
  -26.4476  -31.6608   25.0739 C   0  0  0  0  0  0
  -25.3729  -31.3740   26.1481 C   0  0  0  0  0  0
  -27.0320  -30.3041   24.6159 C   0  0  0  0  0  0
  -27.6045  -32.4344   25.7500 C   0  0  0  0  0  0
  -27.5583  -37.1805   24.8462 C   0  0  0  0  0  0
  -21.4152  -29.3040   22.3711 N   0  0  0  0  0  0
  -26.4293  -37.3793   23.9409 N   0  0  0  0  0  0
  -24.6728  -31.0751   22.1009 N   0  0  0  0  0  0
  -23.4187  -28.8196   23.3026 O   0  0  0  0  0  0
  -28.3660  -26.6133   20.1223 O   0  0  0  0  0  0
  -26.5608  -34.8927   22.4691 O   0  0  0  0  0  0
  -23.5359  -32.1439   23.7464 O   0  0  0  0  0  0
  -28.6265  -18.0607   22.4508 C   0  0  0  0  0  0
  -28.0891  -19.2182   23.0373 C   0  0  0  0  0  0
  -29.8986  -19.4523   20.9290 C   0  0  0  0  0  0
  -29.5683  -18.1508   21.4063 C   0  0  0  0  0  0
  -28.4665  -20.5113   22.6104 C   0  0  0  0  0  0
  -29.3462  -20.6422   21.4904 C   0  0  0  0  0  0
  -26.8081  -21.7173   24.0802 C   0  0  0  0  0  0
  -30.2033  -16.9219   20.8387 C   0  0  0  0  0  0
  -27.9325  -21.6815   23.3436 C   0  0  0  0  0  0
  -29.9647  -15.6275   21.1918 C   0  0  0  0  0  0
  -28.8944  -22.7783   20.6048 C   0  0  0  0  0  0
  -29.2148  -24.2129   20.1421 C   0  0  0  0  0  0
  -28.1821  -25.2672   20.6393 C   0  0  0  0  0  0
  -29.7582  -21.8998   20.9719 N   0  0  0  0  0  0
  -31.4717  -12.4225   19.1366 H   0  0  0  0  0  0
  -30.3319  -11.3165   19.8386 H   0  0  0  0  0  0
  -29.7482  -11.7830   17.4410 H   0  0  0  0  0  0
  -29.6688  -13.4945   17.7724 H   0  0  0  0  0  0
  -27.8285  -11.3136   18.8131 H   0  0  0  0  0  0
  -27.3740  -12.6458   17.7848 H   0  0  0  0  0  0
  -27.7089  -14.2571   19.5832 H   0  0  0  0  0  0
  -28.6912  -11.9362   21.3038 H   0  0  0  0  0  0
  -28.4407  -13.5331   21.8954 H   0  0  0  0  0  0
  -25.2754   -9.5693   22.4748 H   0  0  0  0  0  0
  -23.9995   -7.4644   22.7472 H   0  0  0  0  0  0
  -21.0828   -8.8769   19.8958 H   0  0  0  0  0  0
  -22.3678  -10.9669   19.6159 H   0  0  0  0  0  0
  -21.2010   -7.6144   23.9711 H   0  0  0  0  0  0
  -21.1480   -6.0519   25.9073 H   0  0  0  0  0  0
  -22.0598   -2.7606   23.2845 H   0  0  0  0  0  0
  -22.4115  -11.9917   22.4787 H   0  0  0  0  0  0
  -21.1123  -13.1292   22.2597 H   0  0  0  0  0  0
  -24.6731  -15.8478   20.5297 H   0  0  0  0  0  0
  -26.2990  -15.6268   20.1235 H   0  0  0  0  0  0
  -26.7132  -32.5515   23.1160 H   0  0  0  0  0  0
  -25.0047  -33.9777   25.0457 H   0  0  0  0  0  0
  -22.6969  -31.3093   21.4113 H   0  0  0  0  0  0
  -23.3745  -35.9644   23.3310 H   0  0  0  0  0  0
  -24.3577  -36.8916   22.2050 H   0  0  0  0  0  0
  -23.7239  -37.6517   23.6650 H   0  0  0  0  0  0
  -26.0663  -31.5913   20.6076 H   0  0  0  0  0  0
  -26.8226  -30.8665   21.9980 H   0  0  0  0  0  0
  -28.1053  -29.0686   21.1736 H   0  0  0  0  0  0
  -26.0363  -25.9859   18.9699 H   0  0  0  0  0  0
  -23.9763  -27.3146   19.0116 H   0  0  0  0  0  0
  -23.7285  -30.6039   19.4066 H   0  0  0  0  0  0
  -22.7399  -29.2501   19.8655 H   0  0  0  0  0  0
  -25.1283  -36.1972   25.0828 H   0  0  0  0  0  0
  -20.9958  -28.3235   24.1421 H   0  0  0  0  0  0
  -20.5645  -26.2286   23.3602 H   0  0  0  0  0  0
  -21.6635  -26.7433   22.1216 H   0  0  0  0  0  0
  -19.6905  -25.6294   21.1232 H   0  0  0  0  0  0
  -19.6675  -27.3192   20.6733 H   0  0  0  0  0  0
  -17.4188  -26.6663   21.4025 H   0  0  0  0  0  0
  -18.0333  -26.0055   22.9011 H   0  0  0  0  0  0
  -19.7935  -30.7244   24.2292 H   0  0  0  0  0  0
  -17.5021  -31.6264   24.5160 H   0  0  0  0  0  0
  -15.5353  -30.2999   23.7634 H   0  0  0  0  0  0
  -15.8662  -28.0813   22.7082 H   0  0  0  0  0  0
  -24.5878  -30.7120   25.7813 H   0  0  0  0  0  0
  -24.8951  -32.2911   26.4939 H   0  0  0  0  0  0
  -25.8059  -30.8889   27.0238 H   0  0  0  0  0  0
  -26.2887  -29.6800   24.1184 H   0  0  0  0  0  0
  -27.4040  -29.7288   25.4648 H   0  0  0  0  0  0
  -27.8746  -30.4347   23.9363 H   0  0  0  0  0  0
  -27.2651  -33.3626   26.2112 H   0  0  0  0  0  0
  -28.3829  -32.6942   25.0312 H   0  0  0  0  0  0
  -28.0750  -31.8459   26.5388 H   0  0  0  0  0  0
  -28.2600  -38.0103   24.7520 H   0  0  0  0  0  0
  -28.1079  -36.2638   24.6272 H   0  0  0  0  0  0
  -27.2307  -37.1439   25.8866 H   0  0  0  0  0  0
  -20.9316  -29.8779   21.6944 H   0  0  0  0  0  0
  -26.0183  -38.2872   24.1409 H   0  0  0  0  0  0
  -28.3190  -17.1056   22.8486 H   0  0  0  0  0  0
  -27.4093  -19.0909   23.8668 H   0  0  0  0  0  0
  -30.6073  -19.5418   20.1176 H   0  0  0  0  0  0
  -26.5191  -22.6230   24.5947 H   0  0  0  0  0  0
  -26.1544  -20.8644   24.1860 H   0  0  0  0  0  0
  -30.9368  -17.1076   20.0651 H   0  0  0  0  0  0
  -28.5266  -22.5833   23.3033 H   0  0  0  0  0  0
  -29.2413  -15.4250   21.9601 H   0  0  0  0  0  0
  -27.8229  -22.5562   20.6139 H   0  0  0  0  0  0
  -29.2412  -24.2168   19.0528 H   0  0  0  0  0  0
  -30.2141  -24.4869   20.4802 H   0  0  0  0  0  0
  -28.2357  -25.3281   21.7271 H   0  0  0  0  0  0
  -27.1874  -24.8775   20.4270 H   0  0  0  0  0  0
  1 25  1  0  0  0
  1 30  2  0  0  0
  1 80  1  0  0  0
  2  3  1  0  0  0
  2 25  1  0  0  0
  2 85  1  0  0  0
  2 86  1  0  0  0
  3  4  1  0  0  0
  3 87  1  0  0  0
  3 88  1  0  0  0
  4  5  1  0  0  0
  4 89  1  0  0  0
  4 90  1  0  0  0
  5  6  1  0  0  0
  5 26  1  0  0  0
  5 91  1  0  0  0
  6 25  1  0  0  0
  6 92  1  0  0  0
  6 93  1  0  0  0
  7  8  2  0  0  0
  7 26  1  0  0  0
  7 29  1  0  0  0
  8  9  1  0  0  0
  8 22  1  0  0  0
  9 10  1  0  0  0
  9 27  2  0  0  0
 10 11  2  0  0  0
 10 15  1  0  0  0
 11 12  1  0  0  0
 11 94  1  0  0  0
 12 13  2  0  0  0
 12 95  1  0  0  0
 13 14  1  0  0  0
 13 31  1  0  0  0
 14 15  2  0  0  0
 14 96  1  0  0  0
 15 97  1  0  0  0
 16 17  2  0  0  0
 16 21  1  0  0  0
 16 31  1  0  0  0
 17 18  1  0  0  0
 17 98  1  0  0  0
 18 19  2  0  0  0
 18 99  1  0  0  0
 19 20  1  0  0  0
 19 24  1  0  0  0
 20 21  2  0  0  0
 20100  1  0  0  0
 21 23  1  0  0  0
 22 28  1  0  0  0
 22 32  2  0  0  0
 26 27  1  0  0  0
 28101  1  0  0  0
 28102  1  0  0  0
 29103  1  0  0  0
 29104  1  0  0  0
 33 34  1  0  0  0
 33 66  1  0  0  0
 33 70  2  0  0  0
 34 36  1  0  0  0
 34 59  1  0  0  0
 34105  1  0  0  0
 35 44  2  0  0  0
 35 45  1  0  0  0
 35 68  1  0  0  0
 36 56  1  0  0  0
 36106  1  0  0  0
 37 39  1  0  0  0
 37 47  1  0  0  0
 37 66  1  0  0  0
 37107  1  0  0  0
 38 43  2  0  0  0
 38 46  1  0  0  0
 38 47  1  0  0  0
 39 64  1  0  0  0
 39 67  2  0  0  0
 40 52  1  0  0  0
 40 53  2  0  0  0
 40 58  1  0  0  0
 41108  1  0  0  0
 41109  1  0  0  0
 41110  1  0  0  0
 41 48  1  0  0  0
 42 43  1  0  0  0
 42 66  1  0  0  0
 42111  1  0  0  0
 42112  1  0  0  0
 43 44  1  0  0  0
 44113  1  0  0  0
 45 46  2  0  0  0
 45114  1  0  0  0
 46115  1  0  0  0
 47116  1  0  0  0
 47117  1  0  0  0
 48 56  1  0  0  0
 48 65  1  0  0  0
 48118  1  0  0  0
 49 50  1  0  0  0
 49 53  1  0  0  0
 49 64  1  0  0  0
 49119  1  0  0  0
 50 51  1  0  0  0
 50120  1  0  0  0
 50121  1  0  0  0
 51 52  1  0  0  0
 51122  1  0  0  0
 51123  1  0  0  0
 52124  1  0  0  0
 52125  1  0  0  0
 53 54  1  0  0  0
 54 55  2  0  0  0
 54126  1  0  0  0
 55 57  1  0  0  0
 55127  1  0  0  0
 56 69  2  0  0  0
 57 58  2  0  0  0
 57128  1  0  0  0
 58129  1  0  0  0
 59 60  1  0  0  0
 59 61  1  0  0  0
 59 62  1  0  0  0
 60130  1  0  0  0
 60131  1  0  0  0
 60132  1  0  0  0
 61133  1  0  0  0
 61134  1  0  0  0
 61135  1  0  0  0
 62136  1  0  0  0
 62137  1  0  0  0
 62138  1  0  0  0
 63 65  1  0  0  0
 63139  1  0  0  0
 63140  1  0  0  0
 63141  1  0  0  0
 64142  1  0  0  0
 65143  1  0  0  0
 68 83  1  0  0  0
 71 72  2  0  0  0
 71 74  1  0  0  0
 71144  1  0  0  0
 72 75  1  0  0  0
 72145  1  0  0  0
 73 74  2  0  0  0
 73 76  1  0  0  0
 73146  1  0  0  0
 74 78  1  0  0  0
 75 76  2  0  0  0
 75 79  1  0  0  0
 76 84  1  0  0  0
 77 79  2  0  0  0
 77147  1  0  0  0
 77148  1  0  0  0
 78 80  2  0  0  0
 78149  1  0  0  0
 79150  1  0  0  0
 80151  1  0  0  0
 81 82  1  0  0  0
 81 84  2  0  0  0
 81152  1  0  0  0
 82 83  1  0  0  0
 82153  1  0  0  0
 82154  1  0  0  0
 83155  1  0  0  0
 83156  1  0  0  0
M  ISO  4   1 100  68 101  80 100  83 101
M  END
> <chiral flag>
0

> <version>
0

> <s_m_source_file>
/data/baiqing/PycharmProjects/Reinvent-master-3.2/result/LINK_invent/BTK/process_docking_weight1_custom_product_contain_oxygen_bond_distance_aromatic_linkinvent_7_9_3/rearranged_h_0118.sdf

> <i_m_source_file_index>
57

> <r_mmod_Potential_Energy-OPLS-2005>
-3.34429430961609

> <r_mmod_Stretch_Energy-OPLS-2005>
49.9632987976074

> <r_mmod_Bend_Energy-OPLS-2005>
101.977737426758

> <r_mmod_Torsional_Energy-OPLS-2005>
212.208587646484

> <r_mmod_Improper_Torsional_Energy-OPLS-2005>
2.96856760978699

> <r_mmod_Van_der_Waal_Energy-OPLS-2005>
169.648956298828

> <r_mmod_Electrostatic_Energy-OPLS-2005>
-357.867218017578

> <r_mmod_Solvation_Energy-OPLS-2005>
-200.115631103516

> <b_mmod_Minimization_Converged-OPLS-2005>
0

> <r_mmod_RMS_Derivative-OPLS-2005>
0.615559458732605

$$$$
58
                    3D
 Structure written by MMmdl.
153161  0  0  1  0            999 V2000
  -30.6226  -14.7635   20.3836 C   0  0  0  0  0  0
  -30.4365  -12.4592   19.4500 C   0  0  0  0  0  0
  -29.5002  -12.4809   18.2223 C   0  0  0  0  0  0
  -28.0338  -12.2717   18.6538 C   0  0  0  0  0  0
  -27.6248  -13.1932   19.8303 C   0  0  2  0  0  0
  -28.6864  -13.2048   20.9519 C   0  0  0  0  0  0
  -25.2539  -13.8082   20.5756 C   0  0  0  0  0  0
  -24.1786  -13.0398   20.9259 C   0  0  0  0  0  0
  -24.6319  -11.6857   20.8787 C   0  0  0  0  0  0
  -23.8980  -10.4270   21.0430 C   0  0  0  0  0  0
  -24.3562   -9.4196   21.9196 C   0  0  0  0  0  0
  -23.6260   -8.2225   22.0746 C   0  0  0  0  0  0
  -22.4243   -8.0266   21.3539 C   0  0  0  0  0  0
  -21.9860   -9.0224   20.4640 C   0  0  0  0  0  0
  -22.7166  -10.2114   20.3058 C   0  0  0  0  0  0
  -21.6848   -6.0725   22.5279 C   0  0  0  0  0  0
  -21.4013   -6.5635   23.8211 C   0  0  0  0  0  0
  -21.3652   -5.6784   24.9173 C   0  0  0  0  0  0
  -21.6042   -4.3050   24.7222 C   0  0  0  0  0  0
  -21.8824   -3.8142   23.4344 C   0  0  0  0  0  0
  -21.9191   -4.6955   22.3400 C   0  0  0  0  0  0
  -22.7824  -13.5239   21.1880 C   0  0  0  0  0  0
  -22.1651   -4.2147   21.0975 F   0  0  0  0  0  0
  -21.5622   -3.4534   25.7733 F   0  0  0  0  0  0
  -29.9877  -13.5380   20.3541 N   0  0  0  0  0  0
  -26.2873  -12.9170   20.3287 N   0  0  0  0  0  0
  -25.9225  -11.6368   20.5778 N   0  0  0  0  0  0
  -22.0430  -12.8236   22.0408 N   0  0  0  0  0  0
  -25.4350  -15.1798   20.4188 N   0  0  0  0  0  0
  -31.8500  -14.8260   20.2797 O   0  0  0  0  0  0
  -21.6622   -6.8858   21.4235 O   0  0  0  0  0  0
  -22.3553  -14.5549   20.6714 O   0  0  0  0  0  0
  -24.6298  -31.8568   23.1991 C   0  0  0  0  0  0
  -25.9136  -32.4763   23.8322 C   0  0  1  0  0  0
  -27.2324  -27.2935   20.1268 C   0  0  0  0  0  0
  -25.5938  -33.8568   24.2257 N   0  0  0  0  0  0
  -23.4241  -30.4779   21.5431 C   0  0  2  0  0  0
  -24.8731  -28.9203   20.1180 C   0  0  0  0  0  0
  -22.7476  -29.4622   22.4949 C   0  0  0  0  0  0
  -18.0287  -28.1385   22.8489 C   0  0  0  0  0  0
  -24.1490  -36.7274   23.2640 C   0  0  0  0  0  0
  -25.9668  -30.7799   21.3724 C   0  0  0  0  0  0
  -26.0440  -29.4020   20.7191 C   0  0  0  0  0  0
  -27.2284  -28.6021   20.7086 C   0  0  0  0  0  0
  -26.0384  -26.8619   19.5133 C   0  0  0  0  0  0
  -24.8724  -27.6549   19.5072 C   0  0  0  0  0  0
  -23.6409  -29.8039   20.1624 C   0  0  0  0  0  0
  -25.4120  -36.3071   24.0322 C   0  0  1  0  0  0
  -20.5885  -28.3694   23.1281 C   0  0  2  0  0  0
  -20.6778  -26.9414   22.5418 C   0  0  0  0  0  0
  -19.5761  -26.6383   21.5215 C   0  0  0  0  0  0
  -18.1933  -26.7929   22.1613 C   0  0  0  0  0  0
  -19.1542  -28.8857   23.2874 C   0  0  0  0  0  0
  -18.9468  -30.1456   23.8893 C   0  0  0  0  0  0
  -17.6470  -30.6589   24.0564 C   0  0  0  0  0  0
  -25.9062  -34.9446   23.5091 C   0  0  0  0  0  0
  -16.5359  -29.9086   23.6342 C   0  0  0  0  0  0
  -16.7274  -28.6502   23.0366 C   0  0  0  0  0  0
  -26.4505  -31.6585   25.0710 C   0  0  0  0  0  0
  -25.3717  -31.3734   26.1417 C   0  0  0  0  0  0
  -27.0363  -30.3007   24.6192 C   0  0  0  0  0  0
  -27.6058  -32.4322   25.7493 C   0  0  0  0  0  0
  -27.5576  -37.1796   24.8462 C   0  0  0  0  0  0
  -21.4192  -29.3038   22.3669 N   0  0  0  0  0  0
  -26.4288  -37.3775   23.9406 N   0  0  0  0  0  0
  -24.6926  -31.0554   22.0955 N   0  0  0  0  0  0
  -23.4176  -28.8179   23.3060 O   0  0  0  0  0  0
  -28.3475  -26.4366   20.0961 O   0  0  0  0  0  0
  -26.5630  -34.8917   22.4656 O   0  0  0  0  0  0
  -23.5458  -32.1388   23.7305 O   0  0  0  0  0  0
  -29.5019  -19.9012   22.1427 C   0  0  0  0  0  0
  -29.8101  -17.4644   22.0748 C   0  0  0  0  0  0
  -29.5961  -20.0201   20.7399 C   0  0  0  0  0  0
  -29.8660  -17.4555   20.6667 C   0  0  0  0  0  0
  -29.7975  -18.7709   20.0110 C   0  0  0  0  0  0
  -29.6336  -18.6605   22.7964 C   0  0  0  0  0  0
  -29.4720  -21.4423   20.1377 C   0  0  0  0  0  0
  -28.8935  -22.5901   20.6539 C   0  0  0  0  0  0
  -28.9180  -23.9875   20.0843 C   0  0  0  0  0  0
  -28.2399  -25.0974   20.5536 C   0  0  0  0  0  0
  -29.7777  -16.0668   19.9663 C   0  0  0  0  0  0
  -29.9368  -18.8653   18.4940 C   0  0  0  0  0  0
  -29.0200  -16.0079   18.9538 N   0  0  0  0  0  0
  -29.5625  -18.6141   24.1473 F   0  0  0  0  0  0
  -31.4711  -12.5975   19.1318 H   0  0  0  0  0  0
  -30.3955  -11.4921   19.9539 H   0  0  0  0  0  0
  -29.7962  -11.7098   17.5105 H   0  0  0  0  0  0
  -29.5978  -13.4319   17.6958 H   0  0  0  0  0  0
  -27.9277  -11.2288   18.9545 H   0  0  0  0  0  0
  -27.3624  -12.4123   17.8063 H   0  0  0  0  0  0
  -27.5525  -14.1776   19.3949 H   0  0  0  0  0  0
  -28.7370  -12.2325   21.4440 H   0  0  0  0  0  0
  -28.4210  -13.9303   21.7224 H   0  0  0  0  0  0
  -25.2709   -9.5694   22.4767 H   0  0  0  0  0  0
  -23.9976   -7.4608   22.7458 H   0  0  0  0  0  0
  -21.0788   -8.8726   19.8945 H   0  0  0  0  0  0
  -22.3613  -10.9643   19.6163 H   0  0  0  0  0  0
  -21.2011   -7.6141   23.9720 H   0  0  0  0  0  0
  -21.1461   -6.0513   25.9075 H   0  0  0  0  0  0
  -22.0612   -2.7605   23.2849 H   0  0  0  0  0  0
  -22.4047  -11.9892   22.4790 H   0  0  0  0  0  0
  -21.1054  -13.1272   22.2622 H   0  0  0  0  0  0
  -24.6822  -15.8492   20.5362 H   0  0  0  0  0  0
  -26.2977  -15.5990   20.0912 H   0  0  0  0  0  0
  -26.7209  -32.5427   23.1075 H   0  0  0  0  0  0
  -25.0105  -33.9713   25.0410 H   0  0  0  0  0  0
  -22.7200  -31.2991   21.3949 H   0  0  0  0  0  0
  -23.3761  -35.9598   23.3306 H   0  0  0  0  0  0
  -24.3573  -36.8894   22.2052 H   0  0  0  0  0  0
  -23.7238  -37.6470   23.6666 H   0  0  0  0  0  0
  -26.0992  -31.5413   20.6023 H   0  0  0  0  0  0
  -26.8461  -30.8309   22.0034 H   0  0  0  0  0  0
  -28.1332  -28.9744   21.1685 H   0  0  0  0  0  0
  -26.0048  -25.8901   19.0424 H   0  0  0  0  0  0
  -23.9749  -27.2767   19.0389 H   0  0  0  0  0  0
  -23.7588  -30.5760   19.4011 H   0  0  0  0  0  0
  -22.7603  -29.2316   19.8645 H   0  0  0  0  0  0
  -25.1309  -36.1911   25.0815 H   0  0  0  0  0  0
  -20.9981  -28.3277   24.1400 H   0  0  0  0  0  0
  -20.5682  -26.2305   23.3623 H   0  0  0  0  0  0
  -21.6649  -26.7442   22.1216 H   0  0  0  0  0  0
  -19.6928  -25.6292   21.1249 H   0  0  0  0  0  0
  -19.6712  -27.3191   20.6746 H   0  0  0  0  0  0
  -17.4215  -26.6709   21.3993 H   0  0  0  0  0  0
  -18.0309  -26.0050   22.8989 H   0  0  0  0  0  0
  -19.7946  -30.7275   24.2259 H   0  0  0  0  0  0
  -17.5027  -31.6273   24.5153 H   0  0  0  0  0  0
  -15.5363  -30.2992   23.7668 H   0  0  0  0  0  0
  -15.8671  -28.0820   22.7093 H   0  0  0  0  0  0
  -24.5951  -30.7011   25.7750 H   0  0  0  0  0  0
  -24.8838  -32.2900   26.4745 H   0  0  0  0  0  0
  -25.8029  -30.9003   27.0249 H   0  0  0  0  0  0
  -26.2960  -29.6750   24.1200 H   0  0  0  0  0  0
  -27.4034  -29.7276   25.4713 H   0  0  0  0  0  0
  -27.8829  -30.4295   23.9448 H   0  0  0  0  0  0
  -27.2675  -33.3642   26.2034 H   0  0  0  0  0  0
  -28.3894  -32.6843   25.0335 H   0  0  0  0  0  0
  -28.0693  -31.8461   26.5441 H   0  0  0  0  0  0
  -28.2595  -38.0091   24.7502 H   0  0  0  0  0  0
  -28.1069  -36.2620   24.6299 H   0  0  0  0  0  0
  -27.2286  -37.1450   25.8863 H   0  0  0  0  0  0
  -20.9382  -29.8722   21.6839 H   0  0  0  0  0  0
  -26.0164  -38.2844   24.1408 H   0  0  0  0  0  0
  -29.3571  -20.7818   22.7501 H   0  0  0  0  0  0
  -29.8419  -16.5348   22.6247 H   0  0  0  0  0  0
  -29.9604  -21.5729   19.1838 H   0  0  0  0  0  0
  -28.3833  -22.4871   21.6010 H   0  0  0  0  0  0
  -29.5662  -24.1503   19.2338 H   0  0  0  0  0  0
  -27.5538  -25.0276   21.3874 H   0  0  0  0  0  0
  -30.4804  -19.7558   18.1869 H   0  0  0  0  0  0
  -28.9560  -18.8853   18.0188 H   0  0  0  0  0  0
  -30.5044  -18.0312   18.0831 H   0  0  0  0  0  0
  -28.5776  -16.9033   18.7890 H   0  0  0  0  0  0
  1 25  1  0  0  0
  1 30  2  0  0  0
  1 81  1  0  0  0
  2  3  1  0  0  0
  2 25  1  0  0  0
  2 85  1  0  0  0
  2 86  1  0  0  0
  3  4  1  0  0  0
  3 87  1  0  0  0
  3 88  1  0  0  0
  4  5  1  0  0  0
  4 89  1  0  0  0
  4 90  1  0  0  0
  5  6  1  0  0  0
  5 26  1  0  0  0
  5 91  1  0  0  0
  6 25  1  0  0  0
  6 92  1  0  0  0
  6 93  1  0  0  0
  7  8  2  0  0  0
  7 26  1  0  0  0
  7 29  1  0  0  0
  8  9  1  0  0  0
  8 22  1  0  0  0
  9 10  1  0  0  0
  9 27  2  0  0  0
 10 11  2  0  0  0
 10 15  1  0  0  0
 11 12  1  0  0  0
 11 94  1  0  0  0
 12 13  2  0  0  0
 12 95  1  0  0  0
 13 14  1  0  0  0
 13 31  1  0  0  0
 14 15  2  0  0  0
 14 96  1  0  0  0
 15 97  1  0  0  0
 16 17  2  0  0  0
 16 21  1  0  0  0
 16 31  1  0  0  0
 17 18  1  0  0  0
 17 98  1  0  0  0
 18 19  2  0  0  0
 18 99  1  0  0  0
 19 20  1  0  0  0
 19 24  1  0  0  0
 20 21  2  0  0  0
 20100  1  0  0  0
 21 23  1  0  0  0
 22 28  1  0  0  0
 22 32  2  0  0  0
 26 27  1  0  0  0
 28101  1  0  0  0
 28102  1  0  0  0
 29103  1  0  0  0
 29104  1  0  0  0
 33 34  1  0  0  0
 33 66  1  0  0  0
 33 70  2  0  0  0
 34 36  1  0  0  0
 34 59  1  0  0  0
 34105  1  0  0  0
 35 44  2  0  0  0
 35 45  1  0  0  0
 35 68  1  0  0  0
 36 56  1  0  0  0
 36106  1  0  0  0
 37 39  1  0  0  0
 37 47  1  0  0  0
 37 66  1  0  0  0
 37107  1  0  0  0
 38 43  2  0  0  0
 38 46  1  0  0  0
 38 47  1  0  0  0
 39 64  1  0  0  0
 39 67  2  0  0  0
 40 52  1  0  0  0
 40 53  2  0  0  0
 40 58  1  0  0  0
 41108  1  0  0  0
 41109  1  0  0  0
 41110  1  0  0  0
 41 48  1  0  0  0
 42 43  1  0  0  0
 42 66  1  0  0  0
 42111  1  0  0  0
 42112  1  0  0  0
 43 44  1  0  0  0
 44113  1  0  0  0
 45 46  2  0  0  0
 45114  1  0  0  0
 46115  1  0  0  0
 47116  1  0  0  0
 47117  1  0  0  0
 48 56  1  0  0  0
 48 65  1  0  0  0
 48118  1  0  0  0
 49 50  1  0  0  0
 49 53  1  0  0  0
 49 64  1  0  0  0
 49119  1  0  0  0
 50 51  1  0  0  0
 50120  1  0  0  0
 50121  1  0  0  0
 51 52  1  0  0  0
 51122  1  0  0  0
 51123  1  0  0  0
 52124  1  0  0  0
 52125  1  0  0  0
 53 54  1  0  0  0
 54 55  2  0  0  0
 54126  1  0  0  0
 55 57  1  0  0  0
 55127  1  0  0  0
 56 69  2  0  0  0
 57 58  2  0  0  0
 57128  1  0  0  0
 58129  1  0  0  0
 59 60  1  0  0  0
 59 61  1  0  0  0
 59 62  1  0  0  0
 60130  1  0  0  0
 60131  1  0  0  0
 60132  1  0  0  0
 61133  1  0  0  0
 61134  1  0  0  0
 61135  1  0  0  0
 62136  1  0  0  0
 62137  1  0  0  0
 62138  1  0  0  0
 63 65  1  0  0  0
 63139  1  0  0  0
 63140  1  0  0  0
 63141  1  0  0  0
 64142  1  0  0  0
 65143  1  0  0  0
 68 80  1  0  0  0
 71 73  2  0  0  0
 71 76  1  0  0  0
 71144  1  0  0  0
 72 74  1  0  0  0
 72 76  2  0  0  0
 72145  1  0  0  0
 73 75  1  0  0  0
 73 77  1  0  0  0
 74 75  2  0  0  0
 74 81  1  0  0  0
 75 82  1  0  0  0
 76 84  1  0  0  0
 77 78  2  0  0  0
 77146  1  0  0  0
 78 79  1  0  0  0
 78147  1  0  0  0
 79 80  2  0  0  0
 79148  1  0  0  0
 80149  1  0  0  0
 81 83  2  0  0  0
 82150  1  0  0  0
 82151  1  0  0  0
 82152  1  0  0  0
 83153  1  0  0  0
M  ISO  4   1 100  68 101  80 101  81 100
M  END
> <chiral flag>
0

> <version>
0

> <s_m_source_file>
/data/baiqing/PycharmProjects/Reinvent-master-3.2/result/LINK_invent/BTK/process_docking_weight1_custom_product_contain_oxygen_bond_distance_aromatic_linkinvent_7_9_3/rearranged_h_0118.sdf

> <i_m_source_file_index>
58

> <r_mmod_Potential_Energy-OPLS-2005>
336.862091064453

> <r_mmod_Stretch_Energy-OPLS-2005>
118.576385498047

> <r_mmod_Bend_Energy-OPLS-2005>
145.177963256836

> <r_mmod_Torsional_Energy-OPLS-2005>
246.122863769531

> <r_mmod_Improper_Torsional_Energy-OPLS-2005>
17.8175354003906

> <r_mmod_Van_der_Waal_Energy-OPLS-2005>
145.788070678711

> <r_mmod_Electrostatic_Energy-OPLS-2005>
-241.580902099609

> <r_mmod_Solvation_Energy-OPLS-2005>
-184.134292602539

> <b_mmod_Minimization_Converged-OPLS-2005>
0

> <r_mmod_RMS_Derivative-OPLS-2005>
1.71293985843658

$$$$
59
                    3D
 Structure written by MMmdl.
157165  0  0  1  0            999 V2000
  -30.7444  -14.4331   20.6415 C   0  0  0  0  0  0
  -30.4160  -12.3138   19.4107 C   0  0  0  0  0  0
  -29.4857  -12.5187   18.2004 C   0  0  0  0  0  0
  -28.0108  -12.3681   18.6173 C   0  0  0  0  0  0
  -27.6600  -13.2098   19.8730 C   0  0  2  0  0  0
  -28.6992  -12.9926   20.9945 C   0  0  0  0  0  0
  -25.2554  -13.8152   20.5633 C   0  0  0  0  0  0
  -24.1814  -13.0441   20.9168 C   0  0  0  0  0  0
  -24.6374  -11.6909   20.8741 C   0  0  0  0  0  0
  -23.9041  -10.4299   21.0414 C   0  0  0  0  0  0
  -24.3600   -9.4211   21.9186 C   0  0  0  0  0  0
  -23.6272   -8.2250   22.0759 C   0  0  0  0  0  0
  -22.4260   -8.0282   21.3543 C   0  0  0  0  0  0
  -21.9892   -9.0258   20.4655 C   0  0  0  0  0  0
  -22.7215  -10.2140   20.3062 C   0  0  0  0  0  0
  -21.6848   -6.0730   22.5267 C   0  0  0  0  0  0
  -21.4020   -6.5635   23.8203 C   0  0  0  0  0  0
  -21.3659   -5.6785   24.9163 C   0  0  0  0  0  0
  -21.6040   -4.3047   24.7215 C   0  0  0  0  0  0
  -21.8817   -3.8140   23.4335 C   0  0  0  0  0  0
  -21.9189   -4.6959   22.3395 C   0  0  0  0  0  0
  -22.7839  -13.5250   21.1829 C   0  0  0  0  0  0
  -22.1653   -4.2144   21.0972 F   0  0  0  0  0  0
  -21.5632   -3.4534   25.7732 F   0  0  0  0  0  0
  -30.0369  -13.2864   20.4494 N   0  0  0  0  0  0
  -26.3005  -12.9341   20.3344 N   0  0  0  0  0  0
  -25.9305  -11.6498   20.5770 N   0  0  0  0  0  0
  -22.0475  -12.8264   22.0402 N   0  0  0  0  0  0
  -25.4226  -15.1855   20.3949 N   0  0  0  0  0  0
  -31.8033  -14.6735   20.0548 O   0  0  0  0  0  0
  -21.6626   -6.8879   21.4233 O   0  0  0  0  0  0
  -22.3521  -14.5546   20.6660 O   0  0  0  0  0  0
  -24.6154  -31.8670   23.2075 C   0  0  0  0  0  0
  -25.9053  -32.4805   23.8370 C   0  0  1  0  0  0
  -27.2350  -27.4358   20.0930 C   0  0  0  0  0  0
  -25.5912  -33.8603   24.2304 N   0  0  0  0  0  0
  -23.4032  -30.4892   21.5482 C   0  0  2  0  0  0
  -24.8491  -28.9505   20.1155 C   0  0  0  0  0  0
  -22.7403  -29.4668   22.4981 C   0  0  0  0  0  0
  -18.0274  -28.1338   22.8490 C   0  0  0  0  0  0
  -24.1484  -36.7313   23.2628 C   0  0  0  0  0  0
  -25.9306  -30.8328   21.3585 C   0  0  0  0  0  0
  -26.0106  -29.4660   20.7069 C   0  0  0  0  0  0
  -27.2101  -28.7171   20.6891 C   0  0  0  0  0  0
  -26.0607  -26.9306   19.5004 C   0  0  0  0  0  0
  -24.8686  -27.6812   19.5095 C   0  0  0  0  0  0
  -23.6113  -29.8173   20.1647 C   0  0  0  0  0  0
  -25.4101  -36.3097   24.0323 C   0  0  1  0  0  0
  -20.5856  -28.3678   23.1325 C   0  0  2  0  0  0
  -20.6787  -26.9414   22.5434 C   0  0  0  0  0  0
  -19.5793  -26.6405   21.5211 C   0  0  0  0  0  0
  -18.1965  -26.7872   22.1634 C   0  0  0  0  0  0
  -19.1507  -28.8823   23.2892 C   0  0  0  0  0  0
  -18.9424  -30.1433   23.8883 C   0  0  0  0  0  0
  -17.6419  -30.6567   24.0525 C   0  0  0  0  0  0
  -25.9031  -34.9467   23.5110 C   0  0  0  0  0  0
  -16.5321  -29.9045   23.6285 C   0  0  0  0  0  0
  -16.7258  -28.6455   23.0330 C   0  0  0  0  0  0
  -26.4486  -31.6581   25.0696 C   0  0  0  0  0  0
  -25.3767  -31.3715   26.1460 C   0  0  0  0  0  0
  -27.0314  -30.3019   24.6078 C   0  0  0  0  0  0
  -27.6050  -32.4309   25.7470 C   0  0  0  0  0  0
  -27.5571  -37.1803   24.8462 C   0  0  0  0  0  0
  -21.4128  -29.3054   22.3726 N   0  0  0  0  0  0
  -26.4283  -37.3784   23.9404 N   0  0  0  0  0  0
  -24.6676  -31.0776   22.0968 N   0  0  0  0  0  0
  -23.4166  -28.8194   23.3014 O   0  0  0  0  0  0
  -28.3880  -26.6851   20.0753 O   0  0  0  0  0  0
  -26.5594  -34.8939   22.4673 O   0  0  0  0  0  0
  -23.5353  -32.1422   23.7477 O   0  0  0  0  0  0
  -30.7503  -17.6477   21.1984 C   0  0  0  0  0  0
  -28.4569  -16.8843   21.4459 C   0  0  0  0  0  0
  -30.3141  -18.9950   21.1639 C   0  0  0  0  0  0
  -29.8319  -16.5844   21.3596 C   0  0  0  0  0  0
  -28.9307  -19.2955   21.2801 C   0  0  0  0  0  0
  -28.0138  -18.2257   21.4073 C   0  0  0  0  0  0
  -31.3616  -20.0927   21.0901 C   0  0  0  0  0  0
  -28.4388  -24.1677   20.0987 C   0  0  0  0  0  0
  -28.4767  -22.9400   21.0470 C   0  0  0  0  0  0
  -28.3550  -25.5007   20.8869 C   0  0  0  0  0  0
  -28.5545  -21.5380   20.3933 C   0  0  0  0  0  0
  -30.2999  -15.2584   21.6018 N   0  0  0  0  0  0
  -28.4483  -20.5807   21.4525 O   0  0  0  0  0  0
  -26.6929  -18.4908   21.5469 F   0  0  0  0  0  0
  -31.4599  -12.4123   19.1052 H   0  0  0  0  0  0
  -30.3177  -11.2990   19.8006 H   0  0  0  0  0  0
  -29.7277  -11.8041   17.4121 H   0  0  0  0  0  0
  -29.6470  -13.5101   17.7748 H   0  0  0  0  0  0
  -27.8263  -11.3113   18.8174 H   0  0  0  0  0  0
  -27.3575  -12.6388   17.7876 H   0  0  0  0  0  0
  -27.7067  -14.2586   19.5782 H   0  0  0  0  0  0
  -28.6718  -11.9597   21.3455 H   0  0  0  0  0  0
  -28.4466  -13.6014   21.8626 H   0  0  0  0  0  0
  -25.2753   -9.5683   22.4745 H   0  0  0  0  0  0
  -23.9977   -7.4647   22.7483 H   0  0  0  0  0  0
  -21.0819   -8.8775   19.8967 H   0  0  0  0  0  0
  -22.3669  -10.9674   19.6165 H   0  0  0  0  0  0
  -21.2015   -7.6144   23.9706 H   0  0  0  0  0  0
  -21.1484   -6.0515   25.9068 H   0  0  0  0  0  0
  -22.0598   -2.7602   23.2828 H   0  0  0  0  0  0
  -22.4084  -11.9926   22.4800 H   0  0  0  0  0  0
  -21.1107  -13.1325   22.2631 H   0  0  0  0  0  0
  -24.6607  -15.8435   20.5181 H   0  0  0  0  0  0
  -26.2609  -15.6195   20.0336 H   0  0  0  0  0  0
  -26.7119  -32.5525   23.1124 H   0  0  0  0  0  0
  -25.0115  -33.9753   25.0490 H   0  0  0  0  0  0
  -22.6911  -31.3058   21.4051 H   0  0  0  0  0  0
  -23.3736  -35.9660   23.3309 H   0  0  0  0  0  0
  -24.3583  -36.8916   22.2044 H   0  0  0  0  0  0
  -23.7260  -37.6526   23.6647 H   0  0  0  0  0  0
  -26.0415  -31.5962   20.5873 H   0  0  0  0  0  0
  -26.8193  -30.8885   21.9760 H   0  0  0  0  0  0
  -28.1107  -29.1091   21.1415 H   0  0  0  0  0  0
  -26.0702  -25.9572   19.0317 H   0  0  0  0  0  0
  -23.9767  -27.2757   19.0501 H   0  0  0  0  0  0
  -23.7200  -30.5894   19.4022 H   0  0  0  0  0  0
  -22.7346  -29.2367   19.8701 H   0  0  0  0  0  0
  -25.1277  -36.1946   25.0814 H   0  0  0  0  0  0
  -20.9914  -28.3287   24.1455 H   0  0  0  0  0  0
  -20.5672  -26.2293   23.3618 H   0  0  0  0  0  0
  -21.6672  -26.7465   22.1263 H   0  0  0  0  0  0
  -19.6981  -25.6335   21.1206 H   0  0  0  0  0  0
  -19.6729  -27.3273   20.6786 H   0  0  0  0  0  0
  -17.4230  -26.6522   21.4062 H   0  0  0  0  0  0
  -18.0465  -26.0008   22.9052 H   0  0  0  0  0  0
  -19.7894  -30.7263   24.2244 H   0  0  0  0  0  0
  -17.4969  -31.6254   24.5096 H   0  0  0  0  0  0
  -15.5322  -30.2933   23.7592 H   0  0  0  0  0  0
  -15.8670  -28.0753   22.7049 H   0  0  0  0  0  0
  -24.5911  -30.7073   25.7829 H   0  0  0  0  0  0
  -24.8990  -32.2891   26.4917 H   0  0  0  0  0  0
  -25.8131  -30.8892   27.0216 H   0  0  0  0  0  0
  -26.2856  -29.6763   24.1147 H   0  0  0  0  0  0
  -27.4102  -29.7267   25.4535 H   0  0  0  0  0  0
  -27.8693  -30.4322   23.9217 H   0  0  0  0  0  0
  -27.2640  -33.3584   26.2096 H   0  0  0  0  0  0
  -28.3853  -32.6909   25.0299 H   0  0  0  0  0  0
  -28.0736  -31.8407   26.5358 H   0  0  0  0  0  0
  -28.2591  -38.0093   24.7495 H   0  0  0  0  0  0
  -28.1058  -36.2624   24.6299 H   0  0  0  0  0  0
  -27.2299  -37.1482   25.8868 H   0  0  0  0  0  0
  -20.9267  -29.8833   21.7009 H   0  0  0  0  0  0
  -26.0169  -38.2856   24.1418 H   0  0  0  0  0  0
  -31.8103  -17.4339   21.1533 H   0  0  0  0  0  0
  -27.7355  -16.0988   21.6101 H   0  0  0  0  0  0
  -32.3149  -19.7560   21.4987 H   0  0  0  0  0  0
  -31.0558  -20.9723   21.6572 H   0  0  0  0  0  0
  -31.5291  -20.3895   20.0535 H   0  0  0  0  0  0
  -27.5857  -24.0779   19.4267 H   0  0  0  0  0  0
  -29.3302  -24.1741   19.4700 H   0  0  0  0  0  0
  -27.5920  -22.9708   21.6840 H   0  0  0  0  0  0
  -29.3289  -23.0494   21.7182 H   0  0  0  0  0  0
  -29.2092  -25.5639   21.5634 H   0  0  0  0  0  0
  -27.4749  -25.4883   21.5336 H   0  0  0  0  0  0
  -27.7235  -21.3919   19.7021 H   0  0  0  0  0  0
  -29.4703  -21.4363   19.8129 H   0  0  0  0  0  0
  -30.9753  -15.2514   22.3522 H   0  0  0  0  0  0
  1 25  1  0  0  0
  1 30  2  0  0  0
  1 82  1  0  0  0
  2  3  1  0  0  0
  2 25  1  0  0  0
  2 85  1  0  0  0
  2 86  1  0  0  0
  3  4  1  0  0  0
  3 87  1  0  0  0
  3 88  1  0  0  0
  4  5  1  0  0  0
  4 89  1  0  0  0
  4 90  1  0  0  0
  5  6  1  0  0  0
  5 26  1  0  0  0
  5 91  1  0  0  0
  6 25  1  0  0  0
  6 92  1  0  0  0
  6 93  1  0  0  0
  7  8  2  0  0  0
  7 26  1  0  0  0
  7 29  1  0  0  0
  8  9  1  0  0  0
  8 22  1  0  0  0
  9 10  1  0  0  0
  9 27  2  0  0  0
 10 11  2  0  0  0
 10 15  1  0  0  0
 11 12  1  0  0  0
 11 94  1  0  0  0
 12 13  2  0  0  0
 12 95  1  0  0  0
 13 14  1  0  0  0
 13 31  1  0  0  0
 14 15  2  0  0  0
 14 96  1  0  0  0
 15 97  1  0  0  0
 16 17  2  0  0  0
 16 21  1  0  0  0
 16 31  1  0  0  0
 17 18  1  0  0  0
 17 98  1  0  0  0
 18 19  2  0  0  0
 18 99  1  0  0  0
 19 20  1  0  0  0
 19 24  1  0  0  0
 20 21  2  0  0  0
 20100  1  0  0  0
 21 23  1  0  0  0
 22 28  1  0  0  0
 22 32  2  0  0  0
 26 27  1  0  0  0
 28101  1  0  0  0
 28102  1  0  0  0
 29103  1  0  0  0
 29104  1  0  0  0
 33 34  1  0  0  0
 33 66  1  0  0  0
 33 70  2  0  0  0
 34 36  1  0  0  0
 34 59  1  0  0  0
 34105  1  0  0  0
 35 44  2  0  0  0
 35 45  1  0  0  0
 35 68  1  0  0  0
 36 56  1  0  0  0
 36106  1  0  0  0
 37 39  1  0  0  0
 37 47  1  0  0  0
 37 66  1  0  0  0
 37107  1  0  0  0
 38 43  2  0  0  0
 38 46  1  0  0  0
 38 47  1  0  0  0
 39 64  1  0  0  0
 39 67  2  0  0  0
 40 52  1  0  0  0
 40 53  2  0  0  0
 40 58  1  0  0  0
 41108  1  0  0  0
 41109  1  0  0  0
 41110  1  0  0  0
 41 48  1  0  0  0
 42 43  1  0  0  0
 42 66  1  0  0  0
 42111  1  0  0  0
 42112  1  0  0  0
 43 44  1  0  0  0
 44113  1  0  0  0
 45 46  2  0  0  0
 45114  1  0  0  0
 46115  1  0  0  0
 47116  1  0  0  0
 47117  1  0  0  0
 48 56  1  0  0  0
 48 65  1  0  0  0
 48118  1  0  0  0
 49 50  1  0  0  0
 49 53  1  0  0  0
 49 64  1  0  0  0
 49119  1  0  0  0
 50 51  1  0  0  0
 50120  1  0  0  0
 50121  1  0  0  0
 51 52  1  0  0  0
 51122  1  0  0  0
 51123  1  0  0  0
 52124  1  0  0  0
 52125  1  0  0  0
 53 54  1  0  0  0
 54 55  2  0  0  0
 54126  1  0  0  0
 55 57  1  0  0  0
 55127  1  0  0  0
 56 69  2  0  0  0
 57 58  2  0  0  0
 57128  1  0  0  0
 58129  1  0  0  0
 59 60  1  0  0  0
 59 61  1  0  0  0
 59 62  1  0  0  0
 60130  1  0  0  0
 60131  1  0  0  0
 60132  1  0  0  0
 61133  1  0  0  0
 61134  1  0  0  0
 61135  1  0  0  0
 62136  1  0  0  0
 62137  1  0  0  0
 62138  1  0  0  0
 63 65  1  0  0  0
 63139  1  0  0  0
 63140  1  0  0  0
 63141  1  0  0  0
 64142  1  0  0  0
 65143  1  0  0  0
 68 80  1  0  0  0
 71 73  2  0  0  0
 71 74  1  0  0  0
 71144  1  0  0  0
 72 74  2  0  0  0
 72 76  1  0  0  0
 72145  1  0  0  0
 73 75  1  0  0  0
 73 77  1  0  0  0
 74 82  1  0  0  0
 75 76  2  0  0  0
 75 83  1  0  0  0
 76 84  1  0  0  0
 77146  1  0  0  0
 77147  1  0  0  0
 77148  1  0  0  0
 78 79  1  0  0  0
 78 80  1  0  0  0
 78149  1  0  0  0
 78150  1  0  0  0
 79 81  1  0  0  0
 79151  1  0  0  0
 79152  1  0  0  0
 80153  1  0  0  0
 80154  1  0  0  0
 81 83  1  0  0  0
 81155  1  0  0  0
 81156  1  0  0  0
 82157  1  0  0  0
M  ISO  4   1 100  68 101  80 101  82 100
M  END
> <chiral flag>
0

> <version>
0

> <s_m_source_file>
/data/baiqing/PycharmProjects/Reinvent-master-3.2/result/LINK_invent/BTK/process_docking_weight1_custom_product_contain_oxygen_bond_distance_aromatic_linkinvent_7_9_3/rearranged_h_0118.sdf

> <i_m_source_file_index>
59

> <r_mmod_Potential_Energy-OPLS-2005>
67.1787414550781

> <r_mmod_Stretch_Energy-OPLS-2005>
36.8374404907227

> <r_mmod_Bend_Energy-OPLS-2005>
107.19100189209

> <r_mmod_Torsional_Energy-OPLS-2005>
323.59375

> <r_mmod_Improper_Torsional_Energy-OPLS-2005>
9.03255558013916

> <r_mmod_Van_der_Waal_Energy-OPLS-2005>
137.888442993164

> <r_mmod_Electrostatic_Energy-OPLS-2005>
-362.818115234375

> <r_mmod_Solvation_Energy-OPLS-2005>
-194.33512878418

> <b_mmod_Minimization_Converged-OPLS-2005>
0

> <r_mmod_RMS_Derivative-OPLS-2005>
2.15412402153015

$$$$
60
                    3D
 Structure written by MMmdl.
155163  0  0  1  0            999 V2000
  -30.7530  -14.4164   20.5230 C   0  0  0  0  0  0
  -30.4033  -12.2564   19.4381 C   0  0  0  0  0  0
  -29.4949  -12.4791   18.2119 C   0  0  0  0  0  0
  -28.0109  -12.3661   18.6150 C   0  0  0  0  0  0
  -27.6600  -13.2113   19.8703 C   0  0  2  0  0  0
  -28.6987  -13.0109   20.9970 C   0  0  0  0  0  0
  -25.2601  -13.8177   20.5678 C   0  0  0  0  0  0
  -24.1844  -13.0457   20.9170 C   0  0  0  0  0  0
  -24.6388  -11.6924   20.8717 C   0  0  0  0  0  0
  -23.9045  -10.4307   21.0389 C   0  0  0  0  0  0
  -24.3600   -9.4231   21.9170 C   0  0  0  0  0  0
  -23.6293   -8.2256   22.0744 C   0  0  0  0  0  0
  -22.4278   -8.0272   21.3533 C   0  0  0  0  0  0
  -21.9901   -9.0248   20.4634 C   0  0  0  0  0  0
  -22.7212  -10.2139   20.3044 C   0  0  0  0  0  0
  -21.6859   -6.0732   22.5264 C   0  0  0  0  0  0
  -21.4014   -6.5633   23.8199 C   0  0  0  0  0  0
  -21.3660   -5.6790   24.9161 C   0  0  0  0  0  0
  -21.6053   -4.3057   24.7216 C   0  0  0  0  0  0
  -21.8822   -3.8139   23.4342 C   0  0  0  0  0  0
  -21.9199   -4.6957   22.3396 C   0  0  0  0  0  0
  -22.7860  -13.5254   21.1827 C   0  0  0  0  0  0
  -22.1658   -4.2145   21.0981 F   0  0  0  0  0  0
  -21.5645   -3.4542   25.7730 F   0  0  0  0  0  0
  -30.0369  -13.2647   20.4463 N   0  0  0  0  0  0
  -26.3023  -12.9344   20.3357 N   0  0  0  0  0  0
  -25.9314  -11.6504   20.5753 N   0  0  0  0  0  0
  -22.0482  -12.8275   22.0387 N   0  0  0  0  0  0
  -25.4401  -15.1878   20.4058 N   0  0  0  0  0  0
  -31.9164  -14.4840   20.1158 O   0  0  0  0  0  0
  -21.6649   -6.8863   21.4221 O   0  0  0  0  0  0
  -22.3554  -14.5554   20.6659 O   0  0  0  0  0  0
  -24.6129  -31.8714   23.2133 C   0  0  0  0  0  0
  -25.9036  -32.4849   23.8417 C   0  0  1  0  0  0
  -27.2401  -27.4638   20.0854 C   0  0  0  0  0  0
  -25.5879  -33.8646   24.2342 N   0  0  0  0  0  0
  -23.3994  -30.4975   21.5521 C   0  0  2  0  0  0
  -24.8457  -28.9688   20.1155 C   0  0  0  0  0  0
  -22.7404  -29.4688   22.4992 C   0  0  0  0  0  0
  -18.0276  -28.1384   22.8503 C   0  0  0  0  0  0
  -24.1463  -36.7322   23.2641 C   0  0  0  0  0  0
  -25.9253  -30.8486   21.3605 C   0  0  0  0  0  0
  -26.0039  -29.4839   20.7089 C   0  0  0  0  0  0
  -27.2019  -28.7380   20.6918 C   0  0  0  0  0  0
  -26.0603  -26.9584   19.4873 C   0  0  0  0  0  0
  -24.8666  -27.7037   19.5052 C   0  0  0  0  0  0
  -23.6087  -29.8350   20.1644 C   0  0  0  0  0  0
  -25.4083  -36.3134   24.0346 C   0  0  1  0  0  0
  -20.5866  -28.3669   23.1327 C   0  0  2  0  0  0
  -20.6771  -26.9409   22.5421 C   0  0  0  0  0  0
  -19.5748  -26.6395   21.5218 C   0  0  0  0  0  0
  -18.1927  -26.7937   22.1623 C   0  0  0  0  0  0
  -19.1524  -28.8839   23.2916 C   0  0  0  0  0  0
  -18.9453  -30.1448   23.8921 C   0  0  0  0  0  0
  -17.6453  -30.6597   24.0559 C   0  0  0  0  0  0
  -25.9020  -34.9496   23.5143 C   0  0  0  0  0  0
  -16.5345  -29.9103   23.6313 C   0  0  0  0  0  0
  -16.7267  -28.6515   23.0340 C   0  0  0  0  0  0
  -26.4463  -31.6632   25.0741 C   0  0  0  0  0  0
  -25.3730  -31.3728   26.1492 C   0  0  0  0  0  0
  -27.0303  -30.3092   24.6100 C   0  0  0  0  0  0
  -27.6059  -32.4337   25.7488 C   0  0  0  0  0  0
  -27.5575  -37.1803   24.8459 C   0  0  0  0  0  0
  -21.4137  -29.3048   22.3732 N   0  0  0  0  0  0
  -26.4271  -37.3823   23.9428 N   0  0  0  0  0  0
  -24.6641  -31.0848   22.1022 N   0  0  0  0  0  0
  -23.4194  -28.8232   23.3018 O   0  0  0  0  0  0
  -28.4317  -26.7700   20.1038 O   0  0  0  0  0  0
  -26.5597  -34.8948   22.4715 O   0  0  0  0  0  0
  -23.5327  -32.1446   23.7552 O   0  0  0  0  0  0
  -29.3463  -18.6356   21.5070 C   0  0  0  0  0  0
  -30.3513  -19.0220   19.3302 C   0  0  0  0  0  0
  -29.1766  -20.0284   21.6610 C   0  0  0  0  0  0
  -30.1774  -20.4062   19.4801 C   0  0  0  0  0  0
  -29.9737  -18.1300   20.3504 C   0  0  0  0  0  0
  -29.6060  -20.9340   20.6653 C   0  0  0  0  0  0
  -30.3505  -16.7258   20.1729 C   0  0  0  0  0  0
  -30.0511  -15.6327   20.9096 C   0  0  0  0  0  0
  -29.5975  -23.1895   20.0291 C   0  0  0  0  0  0
  -30.9757  -25.2697   19.7685 C   0  0  0  0  0  0
  -28.4093  -25.3831   19.7682 C   0  0  0  0  0  0
  -29.6629  -24.6782   20.3148 C   0  0  1  0  0  0
  -29.5142  -22.3063   20.9443 N   0  0  0  0  0  0
  -31.4531  -12.3028   19.1403 H   0  0  0  0  0  0
  -30.2607  -11.2540   19.8431 H   0  0  0  0  0  0
  -29.7288  -11.7438   17.4407 H   0  0  0  0  0  0
  -29.6903  -13.4571   17.7716 H   0  0  0  0  0  0
  -27.8045  -11.3116   18.8052 H   0  0  0  0  0  0
  -27.3711  -12.6528   17.7791 H   0  0  0  0  0  0
  -27.7029  -14.2580   19.5690 H   0  0  0  0  0  0
  -28.6554  -11.9876   21.3728 H   0  0  0  0  0  0
  -28.4761  -13.6477   21.8538 H   0  0  0  0  0  0
  -25.2741   -9.5742   22.4747 H   0  0  0  0  0  0
  -24.0020   -7.4658   22.7469 H   0  0  0  0  0  0
  -21.0833   -8.8734   19.8949 H   0  0  0  0  0  0
  -22.3628  -10.9669   19.6161 H   0  0  0  0  0  0
  -21.1987   -7.6137   23.9699 H   0  0  0  0  0  0
  -21.1486   -6.0520   25.9074 H   0  0  0  0  0  0
  -22.0606   -2.7600   23.2834 H   0  0  0  0  0  0
  -22.4070  -11.9953   22.4841 H   0  0  0  0  0  0
  -21.1083  -13.1303   22.2513 H   0  0  0  0  0  0
  -24.6911  -15.8613   20.5190 H   0  0  0  0  0  0
  -26.3115  -15.6103   20.1091 H   0  0  0  0  0  0
  -26.7124  -32.5588   23.1204 H   0  0  0  0  0  0
  -24.9970  -33.9804   25.0445 H   0  0  0  0  0  0
  -22.6882  -31.3150   21.4156 H   0  0  0  0  0  0
  -23.3740  -35.9638   23.3289 H   0  0  0  0  0  0
  -24.3562  -36.8954   22.2058 H   0  0  0  0  0  0
  -23.7181  -37.6510   23.6662 H   0  0  0  0  0  0
  -26.0281  -31.6179   20.5935 H   0  0  0  0  0  0
  -26.8171  -30.9075   21.9722 H   0  0  0  0  0  0
  -28.0983  -29.1376   21.1477 H   0  0  0  0  0  0
  -26.0404  -25.9983   18.9940 H   0  0  0  0  0  0
  -23.9769  -27.3019   19.0407 H   0  0  0  0  0  0
  -23.7250  -30.6144   19.4098 H   0  0  0  0  0  0
  -22.7321  -29.2613   19.8603 H   0  0  0  0  0  0
  -25.1251  -36.1994   25.0838 H   0  0  0  0  0  0
  -20.9961  -28.3229   24.1442 H   0  0  0  0  0  0
  -20.5683  -26.2271   23.3600 H   0  0  0  0  0  0
  -21.6640  -26.7474   22.1194 H   0  0  0  0  0  0
  -19.6900  -25.6308   21.1238 H   0  0  0  0  0  0
  -19.6681  -27.3208   20.6751 H   0  0  0  0  0  0
  -17.4197  -26.6706   21.4021 H   0  0  0  0  0  0
  -18.0317  -26.0067   22.9004 H   0  0  0  0  0  0
  -19.7930  -30.7266   24.2297 H   0  0  0  0  0  0
  -17.5012  -31.6284   24.5145 H   0  0  0  0  0  0
  -15.5350  -30.3014   23.7613 H   0  0  0  0  0  0
  -15.8669  -28.0847   22.7026 H   0  0  0  0  0  0
  -24.5862  -30.7137   25.7802 H   0  0  0  0  0  0
  -24.8963  -32.2885   26.5008 H   0  0  0  0  0  0
  -25.8065  -30.8818   27.0214 H   0  0  0  0  0  0
  -26.2856  -29.6850   24.1149 H   0  0  0  0  0  0
  -27.4093  -29.7334   25.4554 H   0  0  0  0  0  0
  -27.8674  -30.4444   23.9245 H   0  0  0  0  0  0
  -27.2701  -33.3606   26.2152 H   0  0  0  0  0  0
  -28.3817  -32.6953   25.0279 H   0  0  0  0  0  0
  -28.0795  -31.8408   26.5324 H   0  0  0  0  0  0
  -28.2584  -38.0113   24.7560 H   0  0  0  0  0  0
  -28.1077  -36.2656   24.6202 H   0  0  0  0  0  0
  -27.2319  -37.1363   25.8869 H   0  0  0  0  0  0
  -20.9280  -29.8767   21.6960 H   0  0  0  0  0  0
  -26.0161  -38.2898   24.1467 H   0  0  0  0  0  0
  -29.0495  -17.9714   22.3048 H   0  0  0  0  0  0
  -30.8333  -18.6564   18.4332 H   0  0  0  0  0  0
  -28.7485  -20.4029   22.5802 H   0  0  0  0  0  0
  -30.5419  -21.0372   18.6836 H   0  0  0  0  0  0
  -31.0092  -16.5856   19.3249 H   0  0  0  0  0  0
  -29.3753  -15.6701   21.7495 H   0  0  0  0  0  0
  -29.6366  -22.9519   18.9624 H   0  0  0  0  0  0
  -31.8434  -24.7301   20.1525 H   0  0  0  0  0  0
  -31.0889  -26.3127   20.0643 H   0  0  0  0  0  0
  -31.0168  -25.2292   18.6790 H   0  0  0  0  0  0
  -27.5390  -24.8999   20.2167 H   0  0  0  0  0  0
  -28.3337  -25.2677   18.6855 H   0  0  0  0  0  0
  -29.6685  -24.8032   21.3988 H   0  0  0  0  0  0
  1 25  1  0  0  0
  1 30  2  0  0  0
  1 78  1  0  0  0
  2  3  1  0  0  0
  2 25  1  0  0  0
  2 84  1  0  0  0
  2 85  1  0  0  0
  3  4  1  0  0  0
  3 86  1  0  0  0
  3 87  1  0  0  0
  4  5  1  0  0  0
  4 88  1  0  0  0
  4 89  1  0  0  0
  5  6  1  0  0  0
  5 26  1  0  0  0
  5 90  1  0  0  0
  6 25  1  0  0  0
  6 91  1  0  0  0
  6 92  1  0  0  0
  7  8  2  0  0  0
  7 26  1  0  0  0
  7 29  1  0  0  0
  8  9  1  0  0  0
  8 22  1  0  0  0
  9 10  1  0  0  0
  9 27  2  0  0  0
 10 11  2  0  0  0
 10 15  1  0  0  0
 11 12  1  0  0  0
 11 93  1  0  0  0
 12 13  2  0  0  0
 12 94  1  0  0  0
 13 14  1  0  0  0
 13 31  1  0  0  0
 14 15  2  0  0  0
 14 95  1  0  0  0
 15 96  1  0  0  0
 16 17  2  0  0  0
 16 21  1  0  0  0
 16 31  1  0  0  0
 17 18  1  0  0  0
 17 97  1  0  0  0
 18 19  2  0  0  0
 18 98  1  0  0  0
 19 20  1  0  0  0
 19 24  1  0  0  0
 20 21  2  0  0  0
 20 99  1  0  0  0
 21 23  1  0  0  0
 22 28  1  0  0  0
 22 32  2  0  0  0
 26 27  1  0  0  0
 28100  1  0  0  0
 28101  1  0  0  0
 29102  1  0  0  0
 29103  1  0  0  0
 33 34  1  0  0  0
 33 66  1  0  0  0
 33 70  2  0  0  0
 34 36  1  0  0  0
 34 59  1  0  0  0
 34104  1  0  0  0
 35 44  2  0  0  0
 35 45  1  0  0  0
 35 68  1  0  0  0
 36 56  1  0  0  0
 36105  1  0  0  0
 37 39  1  0  0  0
 37 47  1  0  0  0
 37 66  1  0  0  0
 37106  1  0  0  0
 38 43  2  0  0  0
 38 46  1  0  0  0
 38 47  1  0  0  0
 39 64  1  0  0  0
 39 67  2  0  0  0
 40 52  1  0  0  0
 40 53  2  0  0  0
 40 58  1  0  0  0
 41107  1  0  0  0
 41108  1  0  0  0
 41109  1  0  0  0
 41 48  1  0  0  0
 42 43  1  0  0  0
 42 66  1  0  0  0
 42110  1  0  0  0
 42111  1  0  0  0
 43 44  1  0  0  0
 44112  1  0  0  0
 45 46  2  0  0  0
 45113  1  0  0  0
 46114  1  0  0  0
 47115  1  0  0  0
 47116  1  0  0  0
 48 56  1  0  0  0
 48 65  1  0  0  0
 48117  1  0  0  0
 49 50  1  0  0  0
 49 53  1  0  0  0
 49 64  1  0  0  0
 49118  1  0  0  0
 50 51  1  0  0  0
 50119  1  0  0  0
 50120  1  0  0  0
 51 52  1  0  0  0
 51121  1  0  0  0
 51122  1  0  0  0
 52123  1  0  0  0
 52124  1  0  0  0
 53 54  1  0  0  0
 54 55  2  0  0  0
 54125  1  0  0  0
 55 57  1  0  0  0
 55126  1  0  0  0
 56 69  2  0  0  0
 57 58  2  0  0  0
 57127  1  0  0  0
 58128  1  0  0  0
 59 60  1  0  0  0
 59 61  1  0  0  0
 59 62  1  0  0  0
 60129  1  0  0  0
 60130  1  0  0  0
 60131  1  0  0  0
 61132  1  0  0  0
 61133  1  0  0  0
 61134  1  0  0  0
 62135  1  0  0  0
 62136  1  0  0  0
 62137  1  0  0  0
 63 65  1  0  0  0
 63138  1  0  0  0
 63139  1  0  0  0
 63140  1  0  0  0
 64141  1  0  0  0
 65142  1  0  0  0
 68 81  1  0  0  0
 71 73  2  0  0  0
 71 75  1  0  0  0
 71143  1  0  0  0
 72 74  1  0  0  0
 72 75  2  0  0  0
 72144  1  0  0  0
 73 76  1  0  0  0
 73145  1  0  0  0
 74 76  2  0  0  0
 74146  1  0  0  0
 75 77  1  0  0  0
 76 83  1  0  0  0
 77 78  2  0  0  0
 77147  1  0  0  0
 78148  1  0  0  0
 79 82  1  0  0  0
 79 83  2  0  0  0
 79149  1  0  0  0
 80150  1  0  0  0
 80151  1  0  0  0
 80152  1  0  0  0
 80 82  1  0  0  0
 81 82  1  0  0  0
 81153  1  0  0  0
 81154  1  0  0  0
 82155  1  0  0  0
M  ISO  4   1 100  68 101  78 100  81 101
M  END
> <chiral flag>
0

> <version>
0

> <s_m_source_file>
/data/baiqing/PycharmProjects/Reinvent-master-3.2/result/LINK_invent/BTK/process_docking_weight1_custom_product_contain_oxygen_bond_distance_aromatic_linkinvent_7_9_3/rearranged_h_0118.sdf

> <i_m_source_file_index>
60

> <r_mmod_Potential_Energy-OPLS-2005>
-21.9410915374756

> <r_mmod_Stretch_Energy-OPLS-2005>
32.7864265441895

> <r_mmod_Bend_Energy-OPLS-2005>
110.976234436035

> <r_mmod_Torsional_Energy-OPLS-2005>
191.587295532227

> <r_mmod_Improper_Torsional_Energy-OPLS-2005>
5.1337890625

> <r_mmod_Van_der_Waal_Energy-OPLS-2005>
174.419006347656

> <r_mmod_Electrostatic_Energy-OPLS-2005>
-355.097412109375

> <r_mmod_Solvation_Energy-OPLS-2005>
-198.596893310547

> <b_mmod_Minimization_Converged-OPLS-2005>
0

> <r_mmod_RMS_Derivative-OPLS-2005>
2.11314415931702

$$$$
61
                    3D
 Structure written by MMmdl.
155163  0  0  1  0            999 V2000
  -30.7189  -14.4992   20.6486 C   0  0  0  0  0  0
  -30.4261  -12.3540   19.4306 C   0  0  0  0  0  0
  -29.4955  -12.5323   18.2136 C   0  0  0  0  0  0
  -28.0208  -12.3660   18.6252 C   0  0  0  0  0  0
  -27.6605  -13.2082   19.8764 C   0  0  2  0  0  0
  -28.6956  -12.9881   21.0008 C   0  0  0  0  0  0
  -25.2577  -13.8163   20.5673 C   0  0  0  0  0  0
  -24.1829  -13.0435   20.9162 C   0  0  0  0  0  0
  -24.6385  -11.6907   20.8720 C   0  0  0  0  0  0
  -23.9053  -10.4291   21.0403 C   0  0  0  0  0  0
  -24.3608   -9.4207   21.9177 C   0  0  0  0  0  0
  -23.6286   -8.2242   22.0748 C   0  0  0  0  0  0
  -22.4268   -8.0277   21.3539 C   0  0  0  0  0  0
  -21.9900   -9.0251   20.4639 C   0  0  0  0  0  0
  -22.7229  -10.2131   20.3049 C   0  0  0  0  0  0
  -21.6850   -6.0734   22.5280 C   0  0  0  0  0  0
  -21.4017   -6.5638   23.8214 C   0  0  0  0  0  0
  -21.3657   -5.6788   24.9172 C   0  0  0  0  0  0
  -21.6045   -4.3051   24.7225 C   0  0  0  0  0  0
  -21.8821   -3.8144   23.4346 C   0  0  0  0  0  0
  -21.9192   -4.6962   22.3402 C   0  0  0  0  0  0
  -22.7854  -13.5233   21.1842 C   0  0  0  0  0  0
  -22.1659   -4.2150   21.0978 F   0  0  0  0  0  0
  -21.5625   -3.4532   25.7735 F   0  0  0  0  0  0
  -30.0315  -13.3247   20.4704 N   0  0  0  0  0  0
  -26.3008  -12.9338   20.3352 N   0  0  0  0  0  0
  -25.9308  -11.6493   20.5740 N   0  0  0  0  0  0
  -22.0504  -12.8220   22.0401 N   0  0  0  0  0  0
  -25.4297  -15.1880   20.4078 N   0  0  0  0  0  0
  -31.7468  -14.7684   20.0166 O   0  0  0  0  0  0
  -21.6631   -6.8878   21.4244 O   0  0  0  0  0  0
  -22.3535  -14.5542   20.6697 O   0  0  0  0  0  0
  -24.6213  -31.8649   23.2061 C   0  0  0  0  0  0
  -25.9080  -32.4797   23.8382 C   0  0  1  0  0  0
  -27.2236  -27.3698   20.1009 C   0  0  0  0  0  0
  -25.5916  -33.8594   24.2308 N   0  0  0  0  0  0
  -23.4119  -30.4917   21.5473 C   0  0  2  0  0  0
  -24.8556  -28.9579   20.1087 C   0  0  0  0  0  0
  -22.7444  -29.4666   22.4933 C   0  0  0  0  0  0
  -18.0289  -28.1379   22.8493 C   0  0  0  0  0  0
  -24.1485  -36.7310   23.2633 C   0  0  0  0  0  0
  -25.9494  -30.8083   21.3736 C   0  0  0  0  0  0
  -26.0216  -29.4408   20.7153 C   0  0  0  0  0  0
  -27.2063  -28.6555   20.7088 C   0  0  0  0  0  0
  -26.0373  -26.9366   19.4606 C   0  0  0  0  0  0
  -24.8623  -27.7066   19.4766 C   0  0  0  0  0  0
  -23.6215  -29.8324   20.1605 C   0  0  0  0  0  0
  -25.4109  -36.3098   24.0332 C   0  0  1  0  0  0
  -20.5888  -28.3686   23.1277 C   0  0  2  0  0  0
  -20.6778  -26.9410   22.5402 C   0  0  0  0  0  0
  -19.5747  -26.6389   21.5207 C   0  0  0  0  0  0
  -18.1932  -26.7925   22.1629 C   0  0  0  0  0  0
  -19.1547  -28.8842   23.2886 C   0  0  0  0  0  0
  -18.9469  -30.1448   23.8893 C   0  0  0  0  0  0
  -17.6472  -30.6578   24.0575 C   0  0  0  0  0  0
  -25.9042  -34.9460   23.5120 C   0  0  0  0  0  0
  -16.5359  -29.9086   23.6325 C   0  0  0  0  0  0
  -16.7278  -28.6510   23.0340 C   0  0  0  0  0  0
  -26.4483  -31.6582   25.0722 C   0  0  0  0  0  0
  -25.3722  -31.3712   26.1461 C   0  0  0  0  0  0
  -27.0308  -30.3004   24.6154 C   0  0  0  0  0  0
  -27.6054  -32.4309   25.7481 C   0  0  0  0  0  0
  -27.5583  -37.1794   24.8455 C   0  0  0  0  0  0
  -21.4170  -29.3047   22.3659 N   0  0  0  0  0  0
  -26.4288  -37.3794   23.9413 N   0  0  0  0  0  0
  -24.6794  -31.0712   22.0991 N   0  0  0  0  0  0
  -23.4189  -28.8199   23.2995 O   0  0  0  0  0  0
  -28.3573  -26.5558   20.1607 O   0  0  0  0  0  0
  -26.5608  -34.8922   22.4681 O   0  0  0  0  0  0
  -23.5382  -32.1426   23.7412 O   0  0  0  0  0  0
  -30.2595  -17.8693   20.7003 C   0  0  0  0  0  0
  -29.4431  -19.0696   20.7072 C   0  0  0  0  0  0
  -29.7265  -16.7996   21.4029 C   0  0  0  0  0  0
  -28.2619  -18.8618   21.3837 C   0  0  0  0  0  0
  -30.2403  -15.4516   21.7623 C   0  0  0  0  0  0
  -27.1076  -19.7944   21.5621 C   0  0  0  0  0  0
  -29.2137  -24.1215   20.4774 C   0  0  0  0  0  0
  -28.9940  -22.6374   20.0026 C   0  0  0  0  0  0
  -28.1808  -25.1333   19.8766 C   0  0  0  0  0  0
  -29.7577  -21.4958   20.7598 C   0  0  0  0  0  0
  -30.2619  -15.0773   22.9762 N   0  0  0  0  0  0
  -29.7426  -20.2328   20.0428 O   0  0  0  0  0  0
  -28.1753  -17.2536   22.0613 S   0  0  0  0  0  0
  -31.4683  -12.4699   19.1285 H   0  0  0  0  0  0
  -30.3481  -11.3393   19.8237 H   0  0  0  0  0  0
  -29.7498  -11.8113   17.4356 H   0  0  0  0  0  0
  -29.6458  -13.5215   17.7778 H   0  0  0  0  0  0
  -27.8499  -11.3087   18.8295 H   0  0  0  0  0  0
  -27.3639  -12.6223   17.7937 H   0  0  0  0  0  0
  -27.7054  -14.2570   19.5808 H   0  0  0  0  0  0
  -28.6841  -11.9463   21.3260 H   0  0  0  0  0  0
  -28.4074  -13.5628   21.8792 H   0  0  0  0  0  0
  -25.2760   -9.5679   22.4740 H   0  0  0  0  0  0
  -23.9994   -7.4634   22.7468 H   0  0  0  0  0  0
  -21.0830   -8.8769   19.8944 H   0  0  0  0  0  0
  -22.3696  -10.9661   19.6144 H   0  0  0  0  0  0
  -21.2016   -7.6147   23.9721 H   0  0  0  0  0  0
  -21.1474   -6.0513   25.9075 H   0  0  0  0  0  0
  -22.0605   -2.7606   23.2842 H   0  0  0  0  0  0
  -22.4112  -11.9871   22.4781 H   0  0  0  0  0  0
  -21.1125  -13.1245   22.2631 H   0  0  0  0  0  0
  -24.6661  -15.8452   20.5212 H   0  0  0  0  0  0
  -26.2877  -15.6270   20.0995 H   0  0  0  0  0  0
  -26.7149  -32.5483   23.1134 H   0  0  0  0  0  0
  -25.0036  -33.9756   25.0432 H   0  0  0  0  0  0
  -22.7053  -31.3119   21.4091 H   0  0  0  0  0  0
  -23.3743  -35.9645   23.3298 H   0  0  0  0  0  0
  -24.3584  -36.8922   22.2046 H   0  0  0  0  0  0
  -23.7243  -37.6516   23.6654 H   0  0  0  0  0  0
  -26.0781  -31.5734   20.6065 H   0  0  0  0  0  0
  -26.8318  -30.8539   22.0004 H   0  0  0  0  0  0
  -28.0996  -29.0206   21.1953 H   0  0  0  0  0  0
  -25.9844  -25.9929   18.9389 H   0  0  0  0  0  0
  -23.9707  -27.3317   18.9933 H   0  0  0  0  0  0
  -23.7327  -30.6117   19.4056 H   0  0  0  0  0  0
  -22.7426  -29.2586   19.8611 H   0  0  0  0  0  0
  -25.1274  -36.1964   25.0825 H   0  0  0  0  0  0
  -21.0001  -28.3271   24.1390 H   0  0  0  0  0  0
  -20.5680  -26.2294   23.3599 H   0  0  0  0  0  0
  -21.6644  -26.7432   22.1190 H   0  0  0  0  0  0
  -19.6906  -25.6305   21.1224 H   0  0  0  0  0  0
  -19.6680  -27.3204   20.6742 H   0  0  0  0  0  0
  -17.4197  -26.6672   21.4036 H   0  0  0  0  0  0
  -18.0337  -26.0059   22.9018 H   0  0  0  0  0  0
  -19.7945  -30.7274   24.2245 H   0  0  0  0  0  0
  -17.5026  -31.6252   24.5179 H   0  0  0  0  0  0
  -15.5361  -30.2991   23.7640 H   0  0  0  0  0  0
  -15.8690  -28.0838   22.7027 H   0  0  0  0  0  0
  -24.5917  -30.7029   25.7806 H   0  0  0  0  0  0
  -24.8876  -32.2860   26.4874 H   0  0  0  0  0  0
  -25.8051  -30.8916   27.0246 H   0  0  0  0  0  0
  -26.2856  -29.6773   24.1184 H   0  0  0  0  0  0
  -27.4008  -29.7250   25.4652 H   0  0  0  0  0  0
  -27.8743  -30.4278   23.9360 H   0  0  0  0  0  0
  -27.2681  -33.3617   26.2062 H   0  0  0  0  0  0
  -28.3865  -32.6860   25.0300 H   0  0  0  0  0  0
  -28.0735  -31.8431   26.5390 H   0  0  0  0  0  0
  -28.2577  -38.0113   24.7543 H   0  0  0  0  0  0
  -28.1105  -36.2647   24.6235 H   0  0  0  0  0  0
  -27.2308  -37.1392   25.8857 H   0  0  0  0  0  0
  -20.9317  -29.8788   21.6902 H   0  0  0  0  0  0
  -26.0175  -38.2868   24.1443 H   0  0  0  0  0  0
  -31.2169  -17.8423   20.2003 H   0  0  0  0  0  0
  -26.9222  -20.3652   20.6532 H   0  0  0  0  0  0
  -27.2891  -20.4947   22.3774 H   0  0  0  0  0  0
  -26.1934  -19.2474   21.7952 H   0  0  0  0  0  0
  -30.2258  -24.4340   20.2190 H   0  0  0  0  0  0
  -29.1521  -24.1656   21.5655 H   0  0  0  0  0  0
  -29.2612  -22.5873   18.9465 H   0  0  0  0  0  0
  -27.9281  -22.4133   20.0412 H   0  0  0  0  0  0
  -27.2149  -24.7991   20.2579 H   0  0  0  0  0  0
  -28.1543  -25.0109   18.7932 H   0  0  0  0  0  0
  -29.3741  -21.3933   21.7758 H   0  0  0  0  0  0
  -30.8033  -21.7853   20.8699 H   0  0  0  0  0  0
  -29.9142  -15.8041   23.5899 H   0  0  0  0  0  0
  1 25  1  0  0  0
  1 30  2  0  0  0
  1 75  1  0  0  0
  2  3  1  0  0  0
  2 25  1  0  0  0
  2 84  1  0  0  0
  2 85  1  0  0  0
  3  4  1  0  0  0
  3 86  1  0  0  0
  3 87  1  0  0  0
  4  5  1  0  0  0
  4 88  1  0  0  0
  4 89  1  0  0  0
  5  6  1  0  0  0
  5 26  1  0  0  0
  5 90  1  0  0  0
  6 25  1  0  0  0
  6 91  1  0  0  0
  6 92  1  0  0  0
  7  8  2  0  0  0
  7 26  1  0  0  0
  7 29  1  0  0  0
  8  9  1  0  0  0
  8 22  1  0  0  0
  9 10  1  0  0  0
  9 27  2  0  0  0
 10 11  2  0  0  0
 10 15  1  0  0  0
 11 12  1  0  0  0
 11 93  1  0  0  0
 12 13  2  0  0  0
 12 94  1  0  0  0
 13 14  1  0  0  0
 13 31  1  0  0  0
 14 15  2  0  0  0
 14 95  1  0  0  0
 15 96  1  0  0  0
 16 17  2  0  0  0
 16 21  1  0  0  0
 16 31  1  0  0  0
 17 18  1  0  0  0
 17 97  1  0  0  0
 18 19  2  0  0  0
 18 98  1  0  0  0
 19 20  1  0  0  0
 19 24  1  0  0  0
 20 21  2  0  0  0
 20 99  1  0  0  0
 21 23  1  0  0  0
 22 28  1  0  0  0
 22 32  2  0  0  0
 26 27  1  0  0  0
 28100  1  0  0  0
 28101  1  0  0  0
 29102  1  0  0  0
 29103  1  0  0  0
 33 34  1  0  0  0
 33 66  1  0  0  0
 33 70  2  0  0  0
 34 36  1  0  0  0
 34 59  1  0  0  0
 34104  1  0  0  0
 35 44  2  0  0  0
 35 45  1  0  0  0
 35 68  1  0  0  0
 36 56  1  0  0  0
 36105  1  0  0  0
 37 39  1  0  0  0
 37 47  1  0  0  0
 37 66  1  0  0  0
 37106  1  0  0  0
 38 43  2  0  0  0
 38 46  1  0  0  0
 38 47  1  0  0  0
 39 64  1  0  0  0
 39 67  2  0  0  0
 40 52  1  0  0  0
 40 53  2  0  0  0
 40 58  1  0  0  0
 41107  1  0  0  0
 41108  1  0  0  0
 41109  1  0  0  0
 41 48  1  0  0  0
 42 43  1  0  0  0
 42 66  1  0  0  0
 42110  1  0  0  0
 42111  1  0  0  0
 43 44  1  0  0  0
 44112  1  0  0  0
 45 46  2  0  0  0
 45113  1  0  0  0
 46114  1  0  0  0
 47115  1  0  0  0
 47116  1  0  0  0
 48 56  1  0  0  0
 48 65  1  0  0  0
 48117  1  0  0  0
 49 50  1  0  0  0
 49 53  1  0  0  0
 49 64  1  0  0  0
 49118  1  0  0  0
 50 51  1  0  0  0
 50119  1  0  0  0
 50120  1  0  0  0
 51 52  1  0  0  0
 51121  1  0  0  0
 51122  1  0  0  0
 52123  1  0  0  0
 52124  1  0  0  0
 53 54  1  0  0  0
 54 55  2  0  0  0
 54125  1  0  0  0
 55 57  1  0  0  0
 55126  1  0  0  0
 56 69  2  0  0  0
 57 58  2  0  0  0
 57127  1  0  0  0
 58128  1  0  0  0
 59 60  1  0  0  0
 59 61  1  0  0  0
 59 62  1  0  0  0
 60129  1  0  0  0
 60130  1  0  0  0
 60131  1  0  0  0
 61132  1  0  0  0
 61133  1  0  0  0
 61134  1  0  0  0
 62135  1  0  0  0
 62136  1  0  0  0
 62137  1  0  0  0
 63 65  1  0  0  0
 63138  1  0  0  0
 63139  1  0  0  0
 63140  1  0  0  0
 64141  1  0  0  0
 65142  1  0  0  0
 68 79  1  0  0  0
 71 72  1  0  0  0
 71 73  2  0  0  0
 71143  1  0  0  0
 72 74  2  0  0  0
 72 82  1  0  0  0
 73 75  1  0  0  0
 73 83  1  0  0  0
 74 76  1  0  0  0
 74 83  1  0  0  0
 75 81  2  0  0  0
 76144  1  0  0  0
 76145  1  0  0  0
 76146  1  0  0  0
 77 78  1  0  0  0
 77 79  1  0  0  0
 77147  1  0  0  0
 77148  1  0  0  0
 78 80  1  0  0  0
 78149  1  0  0  0
 78150  1  0  0  0
 79151  1  0  0  0
 79152  1  0  0  0
 80 82  1  0  0  0
 80153  1  0  0  0
 80154  1  0  0  0
 81155  1  0  0  0
M  ISO  4   1 100  68 101  75 100  79 101
M  END
> <chiral flag>
0

> <version>
0

> <s_m_source_file>
/data/baiqing/PycharmProjects/Reinvent-master-3.2/result/LINK_invent/BTK/process_docking_weight1_custom_product_contain_oxygen_bond_distance_aromatic_linkinvent_7_9_3/rearranged_h_0118.sdf

> <i_m_source_file_index>
61

> <r_mmod_Potential_Energy-OPLS-2005>
103.908180236816

> <r_mmod_Stretch_Energy-OPLS-2005>
55.5869407653809

> <r_mmod_Bend_Energy-OPLS-2005>
122.067398071289

> <r_mmod_Torsional_Energy-OPLS-2005>
228.929611206055

> <r_mmod_Improper_Torsional_Energy-OPLS-2005>
2.90437054634094

> <r_mmod_Van_der_Waal_Energy-OPLS-2005>
125.704933166504

> <r_mmod_Electrostatic_Energy-OPLS-2005>
-258.829864501953

> <r_mmod_Solvation_Energy-OPLS-2005>
-195.709045410156

> <b_mmod_Minimization_Converged-OPLS-2005>
0

> <r_mmod_RMS_Derivative-OPLS-2005>
1.46510767936707

$$$$
62
                    3D
 Structure written by MMmdl.
162171  0  0  1  0            999 V2000
  -30.6283  -14.7156   20.4849 C   0  0  0  0  0  0
  -30.4484  -12.4413   19.4718 C   0  0  0  0  0  0
  -29.5273  -12.5168   18.2338 C   0  0  0  0  0  0
  -28.0512  -12.3362   18.6449 C   0  0  0  0  0  0
  -27.6499  -13.2315   19.8446 C   0  0  2  0  0  0
  -28.6908  -13.1529   20.9872 C   0  0  0  0  0  0
  -25.2496  -13.8224   20.5678 C   0  0  0  0  0  0
  -24.1831  -13.0461   20.9268 C   0  0  0  0  0  0
  -24.6385  -11.6948   20.8715 C   0  0  0  0  0  0
  -23.9070  -10.4321   21.0396 C   0  0  0  0  0  0
  -24.3633   -9.4253   21.9168 C   0  0  0  0  0  0
  -23.6344   -8.2266   22.0756 C   0  0  0  0  0  0
  -22.4321   -8.0260   21.3517 C   0  0  0  0  0  0
  -21.9942   -9.0230   20.4669 C   0  0  0  0  0  0
  -22.7223  -10.2137   20.3033 C   0  0  0  0  0  0
  -21.6873   -6.0733   22.5294 C   0  0  0  0  0  0
  -21.4059   -6.5646   23.8227 C   0  0  0  0  0  0
  -21.3678   -5.6786   24.9175 C   0  0  0  0  0  0
  -21.6062   -4.3030   24.7217 C   0  0  0  0  0  0
  -21.8817   -3.8126   23.4315 C   0  0  0  0  0  0
  -21.9206   -4.6968   22.3390 C   0  0  0  0  0  0
  -22.7828  -13.5249   21.1937 C   0  0  0  0  0  0
  -22.1672   -4.2168   21.0962 F   0  0  0  0  0  0
  -21.5642   -3.4517   25.7706 F   0  0  0  0  0  0
  -30.0070  -13.4898   20.4162 N   0  0  0  0  0  0
  -26.2941  -12.9454   20.3145 N   0  0  0  0  0  0
  -25.9303  -11.6602   20.5590 N   0  0  0  0  0  0
  -22.0461  -12.8210   22.0453 N   0  0  0  0  0  0
  -25.3967  -15.1969   20.4055 N   0  0  0  0  0  0
  -31.8148  -14.8501   20.1759 O   0  0  0  0  0  0
  -21.6679   -6.8861   21.4237 O   0  0  0  0  0  0
  -22.3497  -14.5534   20.6749 O   0  0  0  0  0  0
  -24.6271  -31.8552   23.1980 C   0  0  0  0  0  0
  -25.9153  -32.4714   23.8301 C   0  0  1  0  0  0
  -27.2393  -27.3176   20.1145 C   0  0  0  0  0  0
  -25.5958  -33.8525   24.2251 N   0  0  0  0  0  0
  -23.4173  -30.4771   21.5440 C   0  0  2  0  0  0
  -24.8651  -28.9155   20.1179 C   0  0  0  0  0  0
  -22.7442  -29.4649   22.4972 C   0  0  0  0  0  0
  -18.0286  -28.1352   22.8465 C   0  0  0  0  0  0
  -24.1496  -36.7309   23.2623 C   0  0  0  0  0  0
  -25.9556  -30.7803   21.3668 C   0  0  0  0  0  0
  -26.0302  -29.4032   20.7202 C   0  0  0  0  0  0
  -27.2190  -28.6174   20.7078 C   0  0  0  0  0  0
  -26.0514  -26.8697   19.4948 C   0  0  0  0  0  0
  -24.8756  -27.6533   19.4955 C   0  0  0  0  0  0
  -23.6298  -29.7970   20.1633 C   0  0  0  0  0  0
  -25.4092  -36.3046   24.0326 C   0  0  1  0  0  0
  -20.5866  -28.3706   23.1268 C   0  0  2  0  0  0
  -20.6783  -26.9438   22.5397 C   0  0  0  0  0  0
  -19.5780  -26.6389   21.5177 C   0  0  0  0  0  0
  -18.1944  -26.7907   22.1582 C   0  0  0  0  0  0
  -19.1530  -28.8848   23.2854 C   0  0  0  0  0  0
  -18.9459  -30.1432   23.8884 C   0  0  0  0  0  0
  -17.6467  -30.6573   24.0542 C   0  0  0  0  0  0
  -25.9053  -34.9414   23.5087 C   0  0  0  0  0  0
  -16.5361  -29.9075   23.6327 C   0  0  0  0  0  0
  -16.7259  -28.6484   23.0364 C   0  0  0  0  0  0
  -26.4550  -31.6492   25.0662 C   0  0  0  0  0  0
  -25.3837  -31.3638   26.1442 C   0  0  0  0  0  0
  -27.0339  -30.2885   24.6084 C   0  0  0  0  0  0
  -27.6113  -32.4207   25.7442 C   0  0  0  0  0  0
  -27.5618  -37.1727   24.8415 C   0  0  0  0  0  0
  -21.4167  -29.3050   22.3677 N   0  0  0  0  0  0
  -26.4238  -37.3780   23.9492 N   0  0  0  0  0  0
  -24.6864  -31.0552   22.0946 N   0  0  0  0  0  0
  -23.4145  -28.8226   23.3107 O   0  0  0  0  0  0
  -28.3893  -26.5184   20.0826 O   0  0  0  0  0  0
  -26.5617  -34.8907   22.4648 O   0  0  0  0  0  0
  -23.5449  -32.1396   23.7314 O   0  0  0  0  0  0
  -29.0461  -19.4813   19.9002 C   0  0  0  0  0  0
  -30.7643  -17.9877   21.5371 C   0  0  0  0  0  0
  -29.0471  -18.0426   19.8090 C   0  0  0  0  0  0
  -29.7849  -20.2028   20.8918 C   0  0  0  0  0  0
  -29.9419  -17.2586   20.6235 C   0  0  0  0  0  0
  -30.6542  -19.4027   21.6980 C   0  0  0  0  0  0
  -31.1476  -23.4447   20.6554 C   0  0  0  0  0  0
  -27.4533  -17.7054   17.7856 C   0  0  0  0  0  0
  -28.0533  -17.3348   18.9377 C   0  0  0  0  0  0
  -31.3531  -24.6103   19.6922 C   0  0  0  0  0  0
  -30.1099  -24.5057   18.8101 C   0  0  0  0  0  0
  -29.0547  -23.9287   19.7719 C   0  0  2  0  0  0
  -29.4300  -21.7086   21.2922 C   0  0  0  0  0  0
  -28.3310  -25.1193   20.5764 C   0  0  0  0  0  0
  -29.8939  -22.9559   20.5680 N   0  0  0  0  0  0
  -29.7898  -15.7920   20.6779 N   0  0  0  0  0  0
  -32.0471  -23.0317   21.3866 O   0  0  0  0  0  0
  -31.3268  -19.9757   22.7298 F   0  0  0  0  0  0
  -31.4944  -12.5628   19.1847 H   0  0  0  0  0  0
  -30.3765  -11.4606   19.9468 H   0  0  0  0  0  0
  -29.8128  -11.7499   17.5133 H   0  0  0  0  0  0
  -29.6596  -13.4719   17.7189 H   0  0  0  0  0  0
  -27.9067  -11.2894   18.9136 H   0  0  0  0  0  0
  -27.3937  -12.5217   17.7951 H   0  0  0  0  0  0
  -27.6488  -14.2498   19.4583 H   0  0  0  0  0  0
  -28.7083  -12.1621   21.4444 H   0  0  0  0  0  0
  -28.4221  -13.8467   21.7879 H   0  0  0  0  0  0
  -25.2801   -9.5800   22.4706 H   0  0  0  0  0  0
  -24.0108   -7.4699   22.7473 H   0  0  0  0  0  0
  -21.0866   -8.8724   19.8991 H   0  0  0  0  0  0
  -22.3670  -10.9641   19.6126 H   0  0  0  0  0  0
  -21.2078   -7.6160   23.9721 H   0  0  0  0  0  0
  -21.1529   -6.0515   25.9089 H   0  0  0  0  0  0
  -22.0584   -2.7588   23.2783 H   0  0  0  0  0  0
  -22.4087  -11.9904   22.4883 H   0  0  0  0  0  0
  -21.1037  -13.1196   22.2564 H   0  0  0  0  0  0
  -24.5733  -15.7800   20.5029 H   0  0  0  0  0  0
  -26.0749  -15.5918   19.7703 H   0  0  0  0  0  0
  -26.7199  -32.5392   23.1024 H   0  0  0  0  0  0
  -25.0083  -33.9623   25.0383 H   0  0  0  0  0  0
  -22.7141  -31.3004   21.3978 H   0  0  0  0  0  0
  -23.3745  -35.9641   23.3125 H   0  0  0  0  0  0
  -24.3663  -36.9084   22.2078 H   0  0  0  0  0  0
  -23.7217  -37.6455   23.6739 H   0  0  0  0  0  0
  -26.0779  -31.5281   20.5815 H   0  0  0  0  0  0
  -26.8396  -30.8365   21.9912 H   0  0  0  0  0  0
  -28.1184  -28.9917   21.1745 H   0  0  0  0  0  0
  -26.0333  -25.9076   18.9988 H   0  0  0  0  0  0
  -23.9847  -27.2784   19.0124 H   0  0  0  0  0  0
  -23.7419  -30.5660   19.3975 H   0  0  0  0  0  0
  -22.7477  -29.2234   19.8722 H   0  0  0  0  0  0
  -25.1215  -36.1852   25.0794 H   0  0  0  0  0  0
  -20.9932  -28.3291   24.1409 H   0  0  0  0  0  0
  -20.5690  -26.2334   23.3604 H   0  0  0  0  0  0
  -21.6659  -26.7495   22.1217 H   0  0  0  0  0  0
  -19.6979  -25.6305   21.1221 H   0  0  0  0  0  0
  -19.6695  -27.3191   20.6697 H   0  0  0  0  0  0
  -17.4230  -26.6641   21.3959 H   0  0  0  0  0  0
  -18.0357  -26.0020   22.8959 H   0  0  0  0  0  0
  -19.7944  -30.7217   24.2270 H   0  0  0  0  0  0
  -17.5048  -31.6263   24.5142 H   0  0  0  0  0  0
  -15.5357  -30.2984   23.7656 H   0  0  0  0  0  0
  -15.8663  -28.0784   22.7116 H   0  0  0  0  0  0
  -24.6016  -30.6936   25.7867 H   0  0  0  0  0  0
  -24.9030  -32.2795   26.4883 H   0  0  0  0  0  0
  -25.8242  -30.8872   27.0207 H   0  0  0  0  0  0
  -26.2834  -29.6612   24.1254 H   0  0  0  0  0  0
  -27.4175  -29.7151   25.4536 H   0  0  0  0  0  0
  -27.8669  -30.4094   23.9153 H   0  0  0  0  0  0
  -27.2704  -33.3494   26.2021 H   0  0  0  0  0  0
  -28.3933  -32.6758   25.0286 H   0  0  0  0  0  0
  -28.0771  -31.8329   26.5362 H   0  0  0  0  0  0
  -28.2412  -38.0240   24.7732 H   0  0  0  0  0  0
  -28.1293  -36.2782   24.5792 H   0  0  0  0  0  0
  -27.2422  -37.0860   25.8819 H   0  0  0  0  0  0
  -20.9401  -29.8707   21.6790 H   0  0  0  0  0  0
  -26.0078  -38.2803   24.1631 H   0  0  0  0  0  0
  -28.3489  -20.0392   19.2940 H   0  0  0  0  0  0
  -31.4104  -17.4590   22.2283 H   0  0  0  0  0  0
  -26.7113  -17.0387   17.3414 H   0  0  0  0  0  0
  -27.6574  -18.6231   17.2549 H   0  0  0  0  0  0
  -27.7073  -16.3848   19.3039 H   0  0  0  0  0  0
  -32.2854  -24.5430   19.1307 H   0  0  0  0  0  0
  -31.3598  -25.5449   20.2579 H   0  0  0  0  0  0
  -30.3027  -23.7915   18.0041 H   0  0  0  0  0  0
  -29.8273  -25.4453   18.3346 H   0  0  0  0  0  0
  -28.3057  -23.3779   19.2027 H   0  0  0  0  0  0
  -29.7852  -21.8351   22.3199 H   0  0  0  0  0  0
  -28.3483  -21.7856   21.3898 H   0  0  0  0  0  0
  -28.7606  -25.1586   21.5762 H   0  0  0  0  0  0
  -27.2956  -24.8176   20.7394 H   0  0  0  0  0  0
  -28.8272  -15.5051   20.6958 H   0  0  0  0  0  0
  1 25  1  0  0  0
  1 30  2  0  0  0
  1 86  1  0  0  0
  2  3  1  0  0  0
  2 25  1  0  0  0
  2 89  1  0  0  0
  2 90  1  0  0  0
  3  4  1  0  0  0
  3 91  1  0  0  0
  3 92  1  0  0  0
  4  5  1  0  0  0
  4 93  1  0  0  0
  4 94  1  0  0  0
  5  6  1  0  0  0
  5 26  1  0  0  0
  5 95  1  0  0  0
  6 25  1  0  0  0
  6 96  1  0  0  0
  6 97  1  0  0  0
  7  8  2  0  0  0
  7 26  1  0  0  0
  7 29  1  0  0  0
  8  9  1  0  0  0
  8 22  1  0  0  0
  9 10  1  0  0  0
  9 27  2  0  0  0
 10 11  2  0  0  0
 10 15  1  0  0  0
 11 12  1  0  0  0
 11 98  1  0  0  0
 12 13  2  0  0  0
 12 99  1  0  0  0
 13 14  1  0  0  0
 13 31  1  0  0  0
 14 15  2  0  0  0
 14100  1  0  0  0
 15101  1  0  0  0
 16 17  2  0  0  0
 16 21  1  0  0  0
 16 31  1  0  0  0
 17 18  1  0  0  0
 17102  1  0  0  0
 18 19  2  0  0  0
 18103  1  0  0  0
 19 20  1  0  0  0
 19 24  1  0  0  0
 20 21  2  0  0  0
 20104  1  0  0  0
 21 23  1  0  0  0
 22 28  1  0  0  0
 22 32  2  0  0  0
 26 27  1  0  0  0
 28105  1  0  0  0
 28106  1  0  0  0
 29107  1  0  0  0
 29108  1  0  0  0
 33 34  1  0  0  0
 33 66  1  0  0  0
 33 70  2  0  0  0
 34 36  1  0  0  0
 34 59  1  0  0  0
 34109  1  0  0  0
 35 44  2  0  0  0
 35 45  1  0  0  0
 35 68  1  0  0  0
 36 56  1  0  0  0
 36110  1  0  0  0
 37 39  1  0  0  0
 37 47  1  0  0  0
 37 66  1  0  0  0
 37111  1  0  0  0
 38 43  2  0  0  0
 38 46  1  0  0  0
 38 47  1  0  0  0
 39 64  1  0  0  0
 39 67  2  0  0  0
 40 52  1  0  0  0
 40 53  2  0  0  0
 40 58  1  0  0  0
 41112  1  0  0  0
 41113  1  0  0  0
 41114  1  0  0  0
 41 48  1  0  0  0
 42 43  1  0  0  0
 42 66  1  0  0  0
 42115  1  0  0  0
 42116  1  0  0  0
 43 44  1  0  0  0
 44117  1  0  0  0
 45 46  2  0  0  0
 45118  1  0  0  0
 46119  1  0  0  0
 47120  1  0  0  0
 47121  1  0  0  0
 48 56  1  0  0  0
 48 65  1  0  0  0
 48122  1  0  0  0
 49 50  1  0  0  0
 49 53  1  0  0  0
 49 64  1  0  0  0
 49123  1  0  0  0
 50 51  1  0  0  0
 50124  1  0  0  0
 50125  1  0  0  0
 51 52  1  0  0  0
 51126  1  0  0  0
 51127  1  0  0  0
 52128  1  0  0  0
 52129  1  0  0  0
 53 54  1  0  0  0
 54 55  2  0  0  0
 54130  1  0  0  0
 55 57  1  0  0  0
 55131  1  0  0  0
 56 69  2  0  0  0
 57 58  2  0  0  0
 57132  1  0  0  0
 58133  1  0  0  0
 59 60  1  0  0  0
 59 61  1  0  0  0
 59 62  1  0  0  0
 60134  1  0  0  0
 60135  1  0  0  0
 60136  1  0  0  0
 61137  1  0  0  0
 61138  1  0  0  0
 61139  1  0  0  0
 62140  1  0  0  0
 62141  1  0  0  0
 62142  1  0  0  0
 63 65  1  0  0  0
 63143  1  0  0  0
 63144  1  0  0  0
 63145  1  0  0  0
 64146  1  0  0  0
 65147  1  0  0  0
 68 84  1  0  0  0
 71 73  2  0  0  0
 71 74  1  0  0  0
 71148  1  0  0  0
 72 75  2  0  0  0
 72 76  1  0  0  0
 72149  1  0  0  0
 73 75  1  0  0  0
 73 79  1  0  0  0
 74 76  2  0  0  0
 74 83  1  0  0  0
 75 86  1  0  0  0
 76 88  1  0  0  0
 77 80  1  0  0  0
 77 85  1  0  0  0
 77 87  2  0  0  0
 78 79  2  0  0  0
 78150  1  0  0  0
 78151  1  0  0  0
 79152  1  0  0  0
 80 81  1  0  0  0
 80153  1  0  0  0
 80154  1  0  0  0
 81 82  1  0  0  0
 81155  1  0  0  0
 81156  1  0  0  0
 82 84  1  0  0  0
 82 85  1  0  0  0
 82157  1  0  0  0
 83 85  1  0  0  0
 83158  1  0  0  0
 83159  1  0  0  0
 84160  1  0  0  0
 84161  1  0  0  0
 86162  1  0  0  0
M  ISO  4   1 100  68 101  84 101  86 100
M  END
> <chiral flag>
0

> <version>
0

> <s_m_source_file>
/data/baiqing/PycharmProjects/Reinvent-master-3.2/result/LINK_invent/BTK/process_docking_weight1_custom_product_contain_oxygen_bond_distance_aromatic_linkinvent_7_9_3/rearranged_h_0118.sdf

> <i_m_source_file_index>
62

> <r_mmod_Potential_Energy-OPLS-2005>
207.783966064453

> <r_mmod_Stretch_Energy-OPLS-2005>
104.177703857422

> <r_mmod_Bend_Energy-OPLS-2005>
204.924896240234

> <r_mmod_Torsional_Energy-OPLS-2005>
324.161590576172

> <r_mmod_Improper_Torsional_Energy-OPLS-2005>
12.9930353164673

> <r_mmod_Van_der_Waal_Energy-OPLS-2005>
124.373878479004

> <r_mmod_Electrostatic_Energy-OPLS-2005>
-395.964782714844

> <r_mmod_Solvation_Energy-OPLS-2005>
-229.156600952148

> <b_mmod_Minimization_Converged-OPLS-2005>
0

> <r_mmod_RMS_Derivative-OPLS-2005>
7.95644187927246

$$$$
63
                    3D
 Structure written by MMmdl.
152160  0  0  1  0            999 V2000
  -30.5736  -14.7748   20.4315 C   0  0  0  0  0  0
  -30.4291  -12.4636   19.4933 C   0  0  0  0  0  0
  -29.5143  -12.5121   18.2492 C   0  0  0  0  0  0
  -28.0374  -12.3310   18.6521 C   0  0  0  0  0  0
  -27.6365  -13.2342   19.8499 C   0  0  2  0  0  0
  -28.6743  -13.1743   20.9909 C   0  0  0  0  0  0
  -25.2482  -13.8191   20.5675 C   0  0  0  0  0  0
  -24.1784  -13.0452   20.9163 C   0  0  0  0  0  0
  -24.6381  -11.6928   20.8732 C   0  0  0  0  0  0
  -23.9075  -10.4288   21.0366 C   0  0  0  0  0  0
  -24.3615   -9.4193   21.9152 C   0  0  0  0  0  0
  -23.6277   -8.2237   22.0749 C   0  0  0  0  0  0
  -22.4270   -8.0260   21.3530 C   0  0  0  0  0  0
  -21.9890   -9.0237   20.4652 C   0  0  0  0  0  0
  -22.7226  -10.2110   20.3040 C   0  0  0  0  0  0
  -21.6859   -6.0709   22.5267 C   0  0  0  0  0  0
  -21.4018   -6.5627   23.8190 C   0  0  0  0  0  0
  -21.3657   -5.6787   24.9159 C   0  0  0  0  0  0
  -21.6042   -4.3046   24.7224 C   0  0  0  0  0  0
  -21.8821   -3.8128   23.4348 C   0  0  0  0  0  0
  -21.9192   -4.6937   22.3393 C   0  0  0  0  0  0
  -22.7794  -13.5213   21.1848 C   0  0  0  0  0  0
  -22.1658   -4.2123   21.0970 F   0  0  0  0  0  0
  -21.5625   -3.4536   25.7735 F   0  0  0  0  0  0
  -29.9777  -13.5311   20.4187 N   0  0  0  0  0  0
  -26.2906  -12.9415   20.3237 N   0  0  0  0  0  0
  -25.9310  -11.6555   20.5713 N   0  0  0  0  0  0
  -22.0484  -12.8196   22.0432 N   0  0  0  0  0  0
  -25.4167  -15.1929   20.4100 N   0  0  0  0  0  0
  -31.7576  -14.8717   20.0908 O   0  0  0  0  0  0
  -21.6636   -6.8857   21.4237 O   0  0  0  0  0  0
  -22.3455  -14.5514   20.6679 O   0  0  0  0  0  0
  -24.6313  -31.8479   23.1951 C   0  0  0  0  0  0
  -25.9125  -32.4726   23.8292 C   0  0  1  0  0  0
  -27.2259  -27.2539   20.1045 C   0  0  0  0  0  0
  -25.5897  -33.8532   24.2210 N   0  0  0  0  0  0
  -23.4314  -30.4689   21.5406 C   0  0  2  0  0  0
  -24.8807  -28.9141   20.1116 C   0  0  0  0  0  0
  -22.7527  -29.4548   22.4916 C   0  0  0  0  0  0
  -18.0286  -28.1417   22.8475 C   0  0  0  0  0  0
  -24.1483  -36.7290   23.2639 C   0  0  0  0  0  0
  -25.9773  -30.7591   21.3770 C   0  0  0  0  0  0
  -26.0517  -29.3812   20.7187 C   0  0  0  0  0  0
  -27.2261  -28.5607   20.7062 C   0  0  0  0  0  0
  -26.0247  -26.8468   19.4864 C   0  0  0  0  0  0
  -24.8710  -27.6559   19.4922 C   0  0  0  0  0  0
  -23.6526  -29.7987   20.1582 C   0  0  0  0  0  0
  -25.4103  -36.3067   24.0325 C   0  0  1  0  0  0
  -20.5890  -28.3703   23.1309 C   0  0  2  0  0  0
  -20.6765  -26.9422   22.5437 C   0  0  0  0  0  0
  -19.5743  -26.6390   21.5249 C   0  0  0  0  0  0
  -18.1912  -26.7940   22.1637 C   0  0  0  0  0  0
  -19.1539  -28.8880   23.2863 C   0  0  0  0  0  0
  -18.9459  -30.1476   23.8883 C   0  0  0  0  0  0
  -17.6467  -30.6604   24.0569 C   0  0  0  0  0  0
  -25.9062  -34.9424   23.5082 C   0  0  0  0  0  0
  -16.5358  -29.9109   23.6348 C   0  0  0  0  0  0
  -16.7273  -28.6542   23.0333 C   0  0  0  0  0  0
  -26.4480  -31.6591   25.0709 C   0  0  0  0  0  0
  -25.3689  -31.3816   26.1431 C   0  0  0  0  0  0
  -27.0286  -30.2973   24.6231 C   0  0  0  0  0  0
  -27.6028  -32.4340   25.7464 C   0  0  0  0  0  0
  -27.5570  -37.1765   24.8455 C   0  0  0  0  0  0
  -21.4231  -29.3030   22.3692 N   0  0  0  0  0  0
  -26.4279  -37.3765   23.9413 N   0  0  0  0  0  0
  -24.6996  -31.0434   22.0941 N   0  0  0  0  0  0
  -23.4221  -28.8080   23.3014 O   0  0  0  0  0  0
  -28.3287  -26.3669   20.1819 O   0  0  0  0  0  0
  -26.5658  -34.8900   22.4666 O   0  0  0  0  0  0
  -23.5459  -32.1299   23.7251 O   0  0  0  0  0  0
  -29.9156  -19.7354   18.5227 C   0  0  0  0  0  0
  -30.3122  -17.3167   18.6889 C   0  0  0  0  0  0
  -29.4601  -19.8234   19.8563 C   0  0  0  0  0  0
  -29.3839  -18.5447   20.5806 C   0  0  0  0  0  0
  -29.8465  -17.2650   20.0216 C   0  0  0  0  0  0
  -30.3298  -18.5157   17.9519 C   0  0  0  0  0  0
  -29.1315  -21.2559   20.3876 C   0  0  0  0  0  0
  -28.8640  -22.4550   19.7239 C   0  0  0  0  0  0
  -28.7157  -23.8597   20.2975 C   0  0  0  0  0  0
  -28.3254  -25.0349   19.6576 C   0  0  0  0  0  0
  -28.7887  -18.5621   21.9781 C   0  0  0  0  0  0
  -29.7930  -15.9111   20.6674 N   0  0  0  0  0  0
  -30.7614  -18.4940   16.6671 F   0  0  0  0  0  0
  -31.4715  -12.5864   19.1979 H   0  0  0  0  0  0
  -30.3745  -11.4860   19.9765 H   0  0  0  0  0  0
  -29.8010  -11.7410   17.5347 H   0  0  0  0  0  0
  -29.6386  -13.4658   17.7337 H   0  0  0  0  0  0
  -27.8959  -11.2839   18.9174 H   0  0  0  0  0  0
  -27.3831  -12.5130   17.7979 H   0  0  0  0  0  0
  -27.6286  -14.2541   19.4659 H   0  0  0  0  0  0
  -28.7079  -12.1772   21.4299 H   0  0  0  0  0  0
  -28.4027  -13.8499   21.8031 H   0  0  0  0  0  0
  -25.2765   -9.5663   22.4722 H   0  0  0  0  0  0
  -23.9977   -7.4631   22.7487 H   0  0  0  0  0  0
  -21.0796   -8.8746   19.8979 H   0  0  0  0  0  0
  -22.3653  -10.9638   19.6141 H   0  0  0  0  0  0
  -21.2023   -7.6142   23.9691 H   0  0  0  0  0  0
  -21.1480   -6.0516   25.9052 H   0  0  0  0  0  0
  -22.0612   -2.7598   23.2856 H   0  0  0  0  0  0
  -22.4122  -11.9845   22.4787 H   0  0  0  0  0  0
  -21.1107  -13.1199   22.2717 H   0  0  0  0  0  0
  -24.6458  -15.8444   20.5075 H   0  0  0  0  0  0
  -26.2661  -15.6330   20.0820 H   0  0  0  0  0  0
  -26.7180  -32.5344   23.1021 H   0  0  0  0  0  0
  -24.9992  -33.9703   25.0307 H   0  0  0  0  0  0
  -22.7246  -31.2878   21.3896 H   0  0  0  0  0  0
  -23.3769  -35.9607   23.3302 H   0  0  0  0  0  0
  -24.3593  -36.8926   22.2068 H   0  0  0  0  0  0
  -23.7213  -37.6460   23.6694 H   0  0  0  0  0  0
  -26.1123  -31.5190   20.6059 H   0  0  0  0  0  0
  -26.8546  -30.8098   22.0103 H   0  0  0  0  0  0
  -28.1251  -28.9044   21.1978 H   0  0  0  0  0  0
  -25.9481  -25.8740   19.0230 H   0  0  0  0  0  0
  -23.9667  -27.2912   19.0262 H   0  0  0  0  0  0
  -23.7767  -30.5694   19.3965 H   0  0  0  0  0  0
  -22.7695  -29.2302   19.8594 H   0  0  0  0  0  0
  -25.1289  -36.1906   25.0825 H   0  0  0  0  0  0
  -20.9929  -28.3261   24.1455 H   0  0  0  0  0  0
  -20.5686  -26.2305   23.3631 H   0  0  0  0  0  0
  -21.6621  -26.7425   22.1208 H   0  0  0  0  0  0
  -19.6905  -25.6304   21.1267 H   0  0  0  0  0  0
  -19.6711  -27.3217   20.6796 H   0  0  0  0  0  0
  -17.4186  -26.6736   21.4039 H   0  0  0  0  0  0
  -18.0251  -26.0092   22.9031 H   0  0  0  0  0  0
  -19.7944  -30.7292   24.2245 H   0  0  0  0  0  0
  -17.5018  -31.6267   24.5181 H   0  0  0  0  0  0
  -15.5348  -30.2998   23.7685 H   0  0  0  0  0  0
  -15.8663  -28.0871   22.7039 H   0  0  0  0  0  0
  -24.5864  -30.7164   25.7754 H   0  0  0  0  0  0
  -24.8896  -32.3040   26.4732 H   0  0  0  0  0  0
  -25.7951  -30.9059   27.0267 H   0  0  0  0  0  0
  -26.2857  -29.6743   24.1229 H   0  0  0  0  0  0
  -27.3897  -29.7226   25.4753 H   0  0  0  0  0  0
  -27.8766  -30.4202   23.9493 H   0  0  0  0  0  0
  -27.2646  -33.3676   26.1977 H   0  0  0  0  0  0
  -28.3850  -32.6837   25.0292 H   0  0  0  0  0  0
  -28.0685  -31.8516   26.5435 H   0  0  0  0  0  0
  -28.2551  -38.0081   24.7487 H   0  0  0  0  0  0
  -28.1080  -36.2602   24.6276 H   0  0  0  0  0  0
  -27.2313  -37.1401   25.8862 H   0  0  0  0  0  0
  -20.9440  -29.8767   21.6900 H   0  0  0  0  0  0
  -26.0172  -38.2825   24.1467 H   0  0  0  0  0  0
  -29.9873  -20.6259   17.9139 H   0  0  0  0  0  0
  -30.6394  -16.4171   18.1870 H   0  0  0  0  0  0
  -29.1760  -21.3324   21.4633 H   0  0  0  0  0  0
  -28.7861  -22.3931   18.6457 H   0  0  0  0  0  0
  -28.9947  -23.9702   21.3365 H   0  0  0  0  0  0
  -28.0165  -25.0352   18.6198 H   0  0  0  0  0  0
  -28.0477  -19.3578   22.0777 H   0  0  0  0  0  0
  -29.5634  -18.7276   22.7238 H   0  0  0  0  0  0
  -28.2773  -17.6295   22.2090 H   0  0  0  0  0  0
  -28.9456  -15.7209   21.1807 H   0  0  0  0  0  0
  1 25  1  0  0  0
  1 30  2  0  0  0
  1 82  1  0  0  0
  2  3  1  0  0  0
  2 25  1  0  0  0
  2 84  1  0  0  0
  2 85  1  0  0  0
  3  4  1  0  0  0
  3 86  1  0  0  0
  3 87  1  0  0  0
  4  5  1  0  0  0
  4 88  1  0  0  0
  4 89  1  0  0  0
  5  6  1  0  0  0
  5 26  1  0  0  0
  5 90  1  0  0  0
  6 25  1  0  0  0
  6 91  1  0  0  0
  6 92  1  0  0  0
  7  8  2  0  0  0
  7 26  1  0  0  0
  7 29  1  0  0  0
  8  9  1  0  0  0
  8 22  1  0  0  0
  9 10  1  0  0  0
  9 27  2  0  0  0
 10 11  2  0  0  0
 10 15  1  0  0  0
 11 12  1  0  0  0
 11 93  1  0  0  0
 12 13  2  0  0  0
 12 94  1  0  0  0
 13 14  1  0  0  0
 13 31  1  0  0  0
 14 15  2  0  0  0
 14 95  1  0  0  0
 15 96  1  0  0  0
 16 17  2  0  0  0
 16 21  1  0  0  0
 16 31  1  0  0  0
 17 18  1  0  0  0
 17 97  1  0  0  0
 18 19  2  0  0  0
 18 98  1  0  0  0
 19 20  1  0  0  0
 19 24  1  0  0  0
 20 21  2  0  0  0
 20 99  1  0  0  0
 21 23  1  0  0  0
 22 28  1  0  0  0
 22 32  2  0  0  0
 26 27  1  0  0  0
 28100  1  0  0  0
 28101  1  0  0  0
 29102  1  0  0  0
 29103  1  0  0  0
 33 34  1  0  0  0
 33 66  1  0  0  0
 33 70  2  0  0  0
 34 36  1  0  0  0
 34 59  1  0  0  0
 34104  1  0  0  0
 35 44  2  0  0  0
 35 45  1  0  0  0
 35 68  1  0  0  0
 36 56  1  0  0  0
 36105  1  0  0  0
 37 39  1  0  0  0
 37 47  1  0  0  0
 37 66  1  0  0  0
 37106  1  0  0  0
 38 43  2  0  0  0
 38 46  1  0  0  0
 38 47  1  0  0  0
 39 64  1  0  0  0
 39 67  2  0  0  0
 40 52  1  0  0  0
 40 53  2  0  0  0
 40 58  1  0  0  0
 41107  1  0  0  0
 41108  1  0  0  0
 41109  1  0  0  0
 41 48  1  0  0  0
 42 43  1  0  0  0
 42 66  1  0  0  0
 42110  1  0  0  0
 42111  1  0  0  0
 43 44  1  0  0  0
 44112  1  0  0  0
 45 46  2  0  0  0
 45113  1  0  0  0
 46114  1  0  0  0
 47115  1  0  0  0
 47116  1  0  0  0
 48 56  1  0  0  0
 48 65  1  0  0  0
 48117  1  0  0  0
 49 50  1  0  0  0
 49 53  1  0  0  0
 49 64  1  0  0  0
 49118  1  0  0  0
 50 51  1  0  0  0
 50119  1  0  0  0
 50120  1  0  0  0
 51 52  1  0  0  0
 51121  1  0  0  0
 51122  1  0  0  0
 52123  1  0  0  0
 52124  1  0  0  0
 53 54  1  0  0  0
 54 55  2  0  0  0
 54125  1  0  0  0
 55 57  1  0  0  0
 55126  1  0  0  0
 56 69  2  0  0  0
 57 58  2  0  0  0
 57127  1  0  0  0
 58128  1  0  0  0
 59 60  1  0  0  0
 59 61  1  0  0  0
 59 62  1  0  0  0
 60129  1  0  0  0
 60130  1  0  0  0
 60131  1  0  0  0
 61132  1  0  0  0
 61133  1  0  0  0
 61134  1  0  0  0
 62135  1  0  0  0
 62136  1  0  0  0
 62137  1  0  0  0
 63 65  1  0  0  0
 63138  1  0  0  0
 63139  1  0  0  0
 63140  1  0  0  0
 64141  1  0  0  0
 65142  1  0  0  0
 68 80  1  0  0  0
 71 73  2  0  0  0
 71 76  1  0  0  0
 71143  1  0  0  0
 72 75  1  0  0  0
 72 76  2  0  0  0
 72144  1  0  0  0
 73 74  1  0  0  0
 73 77  1  0  0  0
 74 75  2  0  0  0
 74 81  1  0  0  0
 75 82  1  0  0  0
 76 83  1  0  0  0
 77 78  2  0  0  0
 77145  1  0  0  0
 78 79  1  0  0  0
 78146  1  0  0  0
 79 80  2  0  0  0
 79147  1  0  0  0
 80148  1  0  0  0
 81149  1  0  0  0
 81150  1  0  0  0
 81151  1  0  0  0
 82152  1  0  0  0
M  ISO  4   1 100  68 101  80 101  82 100
M  END
> <chiral flag>
0

> <version>
0

> <s_m_source_file>
/data/baiqing/PycharmProjects/Reinvent-master-3.2/result/LINK_invent/BTK/process_docking_weight1_custom_product_contain_oxygen_bond_distance_aromatic_linkinvent_7_9_3/rearranged_h_0118.sdf

> <i_m_source_file_index>
63

> <r_mmod_Potential_Energy-OPLS-2005>
205.154556274414

> <r_mmod_Stretch_Energy-OPLS-2005>
135.356948852539

> <r_mmod_Bend_Energy-OPLS-2005>
150.720504760742

> <r_mmod_Torsional_Energy-OPLS-2005>
237.349273681641

> <r_mmod_Improper_Torsional_Energy-OPLS-2005>
5.88082933425903

> <r_mmod_Van_der_Waal_Energy-OPLS-2005>
139.52507019043

> <r_mmod_Electrostatic_Energy-OPLS-2005>
-358.114929199219

> <r_mmod_Solvation_Energy-OPLS-2005>
-200.903594970703

> <b_mmod_Minimization_Converged-OPLS-2005>
0

> <r_mmod_RMS_Derivative-OPLS-2005>
4.4460506439209

$$$$
64
                    3D
 Structure written by MMmdl.
159167  0  0  1  0            999 V2000
  -30.7370  -14.4113   20.6519 C   0  0  0  0  0  0
  -30.4188  -12.3006   19.4129 C   0  0  0  0  0  0
  -29.4919  -12.5319   18.2021 C   0  0  0  0  0  0
  -28.0120  -12.3846   18.6065 C   0  0  0  0  0  0
  -27.6633  -13.2004   19.8786 C   0  0  2  0  0  0
  -28.6953  -12.9303   20.9931 C   0  0  0  0  0  0
  -25.2591  -13.8153   20.5660 C   0  0  0  0  0  0
  -24.1837  -13.0437   20.9154 C   0  0  0  0  0  0
  -24.6381  -11.6899   20.8716 C   0  0  0  0  0  0
  -23.9048  -10.4292   21.0402 C   0  0  0  0  0  0
  -24.3607   -9.4210   21.9182 C   0  0  0  0  0  0
  -23.6285   -8.2244   22.0753 C   0  0  0  0  0  0
  -22.4269   -8.0278   21.3545 C   0  0  0  0  0  0
  -21.9903   -9.0249   20.4643 C   0  0  0  0  0  0
  -22.7223  -10.2131   20.3052 C   0  0  0  0  0  0
  -21.6850   -6.0729   22.5280 C   0  0  0  0  0  0
  -21.4019   -6.5636   23.8214 C   0  0  0  0  0  0
  -21.3660   -5.6791   24.9178 C   0  0  0  0  0  0
  -21.6043   -4.3053   24.7231 C   0  0  0  0  0  0
  -21.8821   -3.8142   23.4353 C   0  0  0  0  0  0
  -21.9191   -4.6957   22.3405 C   0  0  0  0  0  0
  -22.7863  -13.5239   21.1830 C   0  0  0  0  0  0
  -22.1655   -4.2139   21.0984 F   0  0  0  0  0  0
  -21.5631   -3.4538   25.7748 F   0  0  0  0  0  0
  -30.0380  -13.2518   20.4714 N   0  0  0  0  0  0
  -26.3018  -12.9309   20.3341 N   0  0  0  0  0  0
  -25.9300  -11.6472   20.5719 N   0  0  0  0  0  0
  -22.0512  -12.8234   22.0398 N   0  0  0  0  0  0
  -25.4318  -15.1876   20.4088 N   0  0  0  0  0  0
  -31.7861  -14.6679   20.0490 O   0  0  0  0  0  0
  -21.6637   -6.8872   21.4241 O   0  0  0  0  0  0
  -22.3545  -14.5543   20.6678 O   0  0  0  0  0  0
  -24.6124  -31.8692   23.2112 C   0  0  0  0  0  0
  -25.9026  -32.4826   23.8398 C   0  0  1  0  0  0
  -27.2406  -27.4505   20.0789 C   0  0  0  0  0  0
  -25.5886  -33.8625   24.2325 N   0  0  0  0  0  0
  -23.3989  -30.4934   21.5516 C   0  0  2  0  0  0
  -24.8426  -28.9568   20.1191 C   0  0  0  0  0  0
  -22.7390  -29.4672   22.4999 C   0  0  0  0  0  0
  -18.0267  -28.1386   22.8498 C   0  0  0  0  0  0
  -24.1486  -36.7323   23.2641 C   0  0  0  0  0  0
  -25.9258  -30.8375   21.3621 C   0  0  0  0  0  0
  -26.0012  -29.4715   20.7114 C   0  0  0  0  0  0
  -27.1978  -28.7231   20.6922 C   0  0  0  0  0  0
  -26.0524  -26.9346   19.5085 C   0  0  0  0  0  0
  -24.8606  -27.6846   19.5219 C   0  0  0  0  0  0
  -23.6058  -29.8250   20.1667 C   0  0  0  0  0  0
  -25.4110  -36.3115   24.0338 C   0  0  1  0  0  0
  -20.5851  -28.3674   23.1327 C   0  0  2  0  0  0
  -20.6757  -26.9415   22.5423 C   0  0  0  0  0  0
  -19.5738  -26.6395   21.5218 C   0  0  0  0  0  0
  -18.1915  -26.7934   22.1626 C   0  0  0  0  0  0
  -19.1514  -28.8848   23.2911 C   0  0  0  0  0  0
  -18.9442  -30.1450   23.8925 C   0  0  0  0  0  0
  -17.6446  -30.6594   24.0576 C   0  0  0  0  0  0
  -25.9035  -34.9479   23.5131 C   0  0  0  0  0  0
  -16.5340  -29.9103   23.6325 C   0  0  0  0  0  0
  -16.7256  -28.6516   23.0352 C   0  0  0  0  0  0
  -26.4465  -31.6600   25.0718 C   0  0  0  0  0  0
  -25.3736  -31.3679   26.1463 C   0  0  0  0  0  0
  -27.0314  -30.3056   24.6081 C   0  0  0  0  0  0
  -27.6039  -32.4320   25.7481 C   0  0  0  0  0  0
  -27.5583  -37.1815   24.8467 C   0  0  0  0  0  0
  -21.4121  -29.3042   22.3733 N   0  0  0  0  0  0
  -26.4299  -37.3795   23.9405 N   0  0  0  0  0  0
  -24.6640  -31.0808   22.1005 N   0  0  0  0  0  0
  -23.4166  -28.8220   23.3042 O   0  0  0  0  0  0
  -28.4509  -26.7859   20.0664 O   0  0  0  0  0  0
  -26.5604  -34.8925   22.4697 O   0  0  0  0  0  0
  -23.5320  -32.1440   23.7518 O   0  0  0  0  0  0
  -29.9297  -17.9431   21.8786 C   0  0  0  0  0  0
  -29.6094  -19.2216   21.3799 C   0  0  0  0  0  0
  -29.4081  -16.9709   19.7257 C   0  0  0  0  0  0
  -29.8455  -16.7917   21.0609 C   0  0  0  0  0  0
  -29.0987  -18.2509   19.2031 C   0  0  0  0  0  0
  -29.1984  -19.3946   20.0360 C   0  0  0  0  0  0
  -28.1937  -17.4231   16.9988 C   0  0  0  0  0  0
  -28.6248  -18.4041   17.8114 C   0  0  0  0  0  0
  -30.1627  -15.4383   21.6296 C   0  0  0  0  0  0
  -28.4396  -24.3355   20.1919 C   0  0  0  0  0  0
  -28.6466  -23.0192   19.4142 C   0  0  0  0  0  0
  -28.6172  -25.5856   19.3088 C   0  0  0  0  0  0
  -28.8468  -21.7855   20.3133 C   0  0  0  0  0  0
  -30.0143  -15.1872   22.8662 N   0  0  0  0  0  0
  -28.8888  -20.6255   19.4840 O   0  0  0  0  0  0
  -31.4632  -12.4015   19.1129 H   0  0  0  0  0  0
  -30.3183  -11.2773   19.7784 H   0  0  0  0  0  0
  -29.7326  -11.8298   17.4028 H   0  0  0  0  0  0
  -29.6622  -13.5299   17.7946 H   0  0  0  0  0  0
  -27.8160  -11.3255   18.7795 H   0  0  0  0  0  0
  -27.3645  -12.6815   17.7807 H   0  0  0  0  0  0
  -27.7227  -14.2558   19.6137 H   0  0  0  0  0  0
  -28.6667  -11.8789   21.2832 H   0  0  0  0  0  0
  -28.4154  -13.4699   21.8952 H   0  0  0  0  0  0
  -25.2756   -9.5685   22.4751 H   0  0  0  0  0  0
  -23.9994   -7.4639   22.7477 H   0  0  0  0  0  0
  -21.0837   -8.8762   19.8949 H   0  0  0  0  0  0
  -22.3680  -10.9667   19.6159 H   0  0  0  0  0  0
  -21.2017   -7.6145   23.9715 H   0  0  0  0  0  0
  -21.1481   -6.0523   25.9080 H   0  0  0  0  0  0
  -22.0600   -2.7604   23.2859 H   0  0  0  0  0  0
  -22.4127  -11.9890   22.4778 H   0  0  0  0  0  0
  -21.1134  -13.1260   22.2612 H   0  0  0  0  0  0
  -24.6664  -15.8431   20.5234 H   0  0  0  0  0  0
  -26.2909  -15.6325   20.1125 H   0  0  0  0  0  0
  -26.7097  -32.5544   23.1162 H   0  0  0  0  0  0
  -25.0019  -33.9790   25.0459 H   0  0  0  0  0  0
  -22.6871  -31.3101   21.4135 H   0  0  0  0  0  0
  -23.3747  -35.9654   23.3296 H   0  0  0  0  0  0
  -24.3578  -36.8958   22.2059 H   0  0  0  0  0  0
  -23.7239  -37.6523   23.6669 H   0  0  0  0  0  0
  -26.0360  -31.6032   20.5930 H   0  0  0  0  0  0
  -26.8149  -30.8911   21.9791 H   0  0  0  0  0  0
  -28.0963  -29.1251   21.1398 H   0  0  0  0  0  0
  -26.0180  -25.9564   19.0536 H   0  0  0  0  0  0
  -23.9646  -27.2760   19.0749 H   0  0  0  0  0  0
  -23.7170  -30.6002   19.4074 H   0  0  0  0  0  0
  -22.7290  -29.2468   19.8698 H   0  0  0  0  0  0
  -25.1287  -36.1985   25.0832 H   0  0  0  0  0  0
  -20.9942  -28.3245   24.1448 H   0  0  0  0  0  0
  -20.5675  -26.2284   23.3606 H   0  0  0  0  0  0
  -21.6628  -26.7470   22.1213 H   0  0  0  0  0  0
  -19.6903  -25.6311   21.1240 H   0  0  0  0  0  0
  -19.6679  -27.3210   20.6753 H   0  0  0  0  0  0
  -17.4187  -26.6695   21.4022 H   0  0  0  0  0  0
  -18.0311  -26.0071   22.9014 H   0  0  0  0  0  0
  -19.7917  -30.7260   24.2310 H   0  0  0  0  0  0
  -17.5006  -31.6275   24.5181 H   0  0  0  0  0  0
  -15.5346  -30.3026   23.7629 H   0  0  0  0  0  0
  -15.8650  -28.0851   22.7057 H   0  0  0  0  0  0
  -24.5919  -30.7023   25.7784 H   0  0  0  0  0  0
  -24.8910  -32.2822   26.4925 H   0  0  0  0  0  0
  -25.8092  -30.8833   27.0210 H   0  0  0  0  0  0
  -26.2856  -29.6801   24.1161 H   0  0  0  0  0  0
  -27.4134  -29.7306   25.4526 H   0  0  0  0  0  0
  -27.8660  -30.4398   23.9199 H   0  0  0  0  0  0
  -27.2663  -33.3619   26.2068 H   0  0  0  0  0  0
  -28.3838  -32.6881   25.0298 H   0  0  0  0  0  0
  -28.0716  -31.8438   26.5388 H   0  0  0  0  0  0
  -28.2597  -38.0116   24.7523 H   0  0  0  0  0  0
  -28.1087  -36.2647   24.6291 H   0  0  0  0  0  0
  -27.2297  -37.1467   25.8869 H   0  0  0  0  0  0
  -20.9276  -29.8773   21.6966 H   0  0  0  0  0  0
  -26.0193  -38.2875   24.1407 H   0  0  0  0  0  0
  -30.2492  -17.8584   22.9081 H   0  0  0  0  0  0
  -29.6927  -20.0576   22.0580 H   0  0  0  0  0  0
  -29.3170  -16.1086   19.0837 H   0  0  0  0  0  0
  -27.8788  -17.6520   15.9903 H   0  0  0  0  0  0
  -28.1356  -16.3887   17.3027 H   0  0  0  0  0  0
  -28.6418  -19.4074   17.4076 H   0  0  0  0  0  0
  -29.1567  -24.3892   21.0117 H   0  0  0  0  0  0
  -27.4500  -24.3379   20.6495 H   0  0  0  0  0  0
  -29.5186  -23.1135   18.7655 H   0  0  0  0  0  0
  -27.7933  -22.8585   18.7538 H   0  0  0  0  0  0
  -27.9977  -25.5512   18.4132 H   0  0  0  0  0  0
  -29.6413  -25.5992   18.9343 H   0  0  0  0  0  0
  -28.0304  -21.6965   21.0314 H   0  0  0  0  0  0
  -29.7788  -21.9044   20.8672 H   0  0  0  0  0  0
  -29.6379  -15.9898   23.3547 H   0  0  0  0  0  0
  1 25  1  0  0  0
  1 30  2  0  0  0
  1 79  1  0  0  0
  2  3  1  0  0  0
  2 25  1  0  0  0
  2 86  1  0  0  0
  2 87  1  0  0  0
  3  4  1  0  0  0
  3 88  1  0  0  0
  3 89  1  0  0  0
  4  5  1  0  0  0
  4 90  1  0  0  0
  4 91  1  0  0  0
  5  6  1  0  0  0
  5 26  1  0  0  0
  5 92  1  0  0  0
  6 25  1  0  0  0
  6 93  1  0  0  0
  6 94  1  0  0  0
  7  8  2  0  0  0
  7 26  1  0  0  0
  7 29  1  0  0  0
  8  9  1  0  0  0
  8 22  1  0  0  0
  9 10  1  0  0  0
  9 27  2  0  0  0
 10 11  2  0  0  0
 10 15  1  0  0  0
 11 12  1  0  0  0
 11 95  1  0  0  0
 12 13  2  0  0  0
 12 96  1  0  0  0
 13 14  1  0  0  0
 13 31  1  0  0  0
 14 15  2  0  0  0
 14 97  1  0  0  0
 15 98  1  0  0  0
 16 17  2  0  0  0
 16 21  1  0  0  0
 16 31  1  0  0  0
 17 18  1  0  0  0
 17 99  1  0  0  0
 18 19  2  0  0  0
 18100  1  0  0  0
 19 20  1  0  0  0
 19 24  1  0  0  0
 20 21  2  0  0  0
 20101  1  0  0  0
 21 23  1  0  0  0
 22 28  1  0  0  0
 22 32  2  0  0  0
 26 27  1  0  0  0
 28102  1  0  0  0
 28103  1  0  0  0
 29104  1  0  0  0
 29105  1  0  0  0
 33 34  1  0  0  0
 33 66  1  0  0  0
 33 70  2  0  0  0
 34 36  1  0  0  0
 34 59  1  0  0  0
 34106  1  0  0  0
 35 44  2  0  0  0
 35 45  1  0  0  0
 35 68  1  0  0  0
 36 56  1  0  0  0
 36107  1  0  0  0
 37 39  1  0  0  0
 37 47  1  0  0  0
 37 66  1  0  0  0
 37108  1  0  0  0
 38 43  2  0  0  0
 38 46  1  0  0  0
 38 47  1  0  0  0
 39 64  1  0  0  0
 39 67  2  0  0  0
 40 52  1  0  0  0
 40 53  2  0  0  0
 40 58  1  0  0  0
 41109  1  0  0  0
 41110  1  0  0  0
 41111  1  0  0  0
 41 48  1  0  0  0
 42 43  1  0  0  0
 42 66  1  0  0  0
 42112  1  0  0  0
 42113  1  0  0  0
 43 44  1  0  0  0
 44114  1  0  0  0
 45 46  2  0  0  0
 45115  1  0  0  0
 46116  1  0  0  0
 47117  1  0  0  0
 47118  1  0  0  0
 48 56  1  0  0  0
 48 65  1  0  0  0
 48119  1  0  0  0
 49 50  1  0  0  0
 49 53  1  0  0  0
 49 64  1  0  0  0
 49120  1  0  0  0
 50 51  1  0  0  0
 50121  1  0  0  0
 50122  1  0  0  0
 51 52  1  0  0  0
 51123  1  0  0  0
 51124  1  0  0  0
 52125  1  0  0  0
 52126  1  0  0  0
 53 54  1  0  0  0
 54 55  2  0  0  0
 54127  1  0  0  0
 55 57  1  0  0  0
 55128  1  0  0  0
 56 69  2  0  0  0
 57 58  2  0  0  0
 57129  1  0  0  0
 58130  1  0  0  0
 59 60  1  0  0  0
 59 61  1  0  0  0
 59 62  1  0  0  0
 60131  1  0  0  0
 60132  1  0  0  0
 60133  1  0  0  0
 61134  1  0  0  0
 61135  1  0  0  0
 61136  1  0  0  0
 62137  1  0  0  0
 62138  1  0  0  0
 62139  1  0  0  0
 63 65  1  0  0  0
 63140  1  0  0  0
 63141  1  0  0  0
 63142  1  0  0  0
 64143  1  0  0  0
 65144  1  0  0  0
 68 82  1  0  0  0
 71 72  2  0  0  0
 71 74  1  0  0  0
 71145  1  0  0  0
 72 76  1  0  0  0
 72146  1  0  0  0
 73 74  2  0  0  0
 73 75  1  0  0  0
 73147  1  0  0  0
 74 79  1  0  0  0
 75 76  2  0  0  0
 75 78  1  0  0  0
 76 85  1  0  0  0
 77 78  2  0  0  0
 77148  1  0  0  0
 77149  1  0  0  0
 78150  1  0  0  0
 79 84  2  0  0  0
 80 81  1  0  0  0
 80 82  1  0  0  0
 80151  1  0  0  0
 80152  1  0  0  0
 81 83  1  0  0  0
 81153  1  0  0  0
 81154  1  0  0  0
 82155  1  0  0  0
 82156  1  0  0  0
 83 85  1  0  0  0
 83157  1  0  0  0
 83158  1  0  0  0
 84159  1  0  0  0
M  ISO  4   1 100  68 101  79 100  82 101
M  END
> <chiral flag>
0

> <version>
0

> <s_m_source_file>
/data/baiqing/PycharmProjects/Reinvent-master-3.2/result/LINK_invent/BTK/process_docking_weight1_custom_product_contain_oxygen_bond_distance_aromatic_linkinvent_7_9_3/rearranged_h_0118.sdf

> <i_m_source_file_index>
64

> <r_mmod_Potential_Energy-OPLS-2005>
98.6769866943359

> <r_mmod_Stretch_Energy-OPLS-2005>
39.7094841003418

> <r_mmod_Bend_Energy-OPLS-2005>
112.009323120117

> <r_mmod_Torsional_Energy-OPLS-2005>
199.656753540039

> <r_mmod_Improper_Torsional_Energy-OPLS-2005>
2.19836187362671

> <r_mmod_Van_der_Waal_Energy-OPLS-2005>
164.019821166992

> <r_mmod_Electrostatic_Energy-OPLS-2005>
-229.818359375

> <r_mmod_Solvation_Energy-OPLS-2005>
-197.582092285156

> <b_mmod_Minimization_Converged-OPLS-2005>
0

> <r_mmod_RMS_Derivative-OPLS-2005>
0.714635074138641

$$$$
65
                    3D
 Structure written by MMmdl.
162171  0  0  1  0            999 V2000
  -30.6276  -14.6222   20.5981 C   0  0  0  0  0  0
  -30.4506  -12.4079   19.4439 C   0  0  0  0  0  0
  -29.5144  -12.5317   18.2191 C   0  0  0  0  0  0
  -28.0338  -12.3645   18.6208 C   0  0  0  0  0  0
  -27.6598  -13.2085   19.8674 C   0  0  2  0  0  0
  -28.6986  -12.9955   20.9863 C   0  0  0  0  0  0
  -25.2594  -13.8147   20.5656 C   0  0  0  0  0  0
  -24.1838  -13.0430   20.9142 C   0  0  0  0  0  0
  -24.6386  -11.6893   20.8690 C   0  0  0  0  0  0
  -23.9044  -10.4288   21.0383 C   0  0  0  0  0  0
  -24.3600   -9.4212   21.9167 C   0  0  0  0  0  0
  -23.6273   -8.2251   22.0753 C   0  0  0  0  0  0
  -22.4255   -8.0277   21.3547 C   0  0  0  0  0  0
  -21.9877   -9.0245   20.4652 C   0  0  0  0  0  0
  -22.7207  -10.2124   20.3048 C   0  0  0  0  0  0
  -21.6852   -6.0717   22.5272 C   0  0  0  0  0  0
  -21.4023   -6.5629   23.8202 C   0  0  0  0  0  0
  -21.3661   -5.6785   24.9167 C   0  0  0  0  0  0
  -21.6048   -4.3047   24.7223 C   0  0  0  0  0  0
  -21.8824   -3.8132   23.4343 C   0  0  0  0  0  0
  -21.9197   -4.6945   22.3398 C   0  0  0  0  0  0
  -22.7868  -13.5241   21.1816 C   0  0  0  0  0  0
  -22.1662   -4.2133   21.0974 F   0  0  0  0  0  0
  -21.5623   -3.4531   25.7735 F   0  0  0  0  0  0
  -30.0189  -13.3947   20.4577 N   0  0  0  0  0  0
  -26.3014  -12.9308   20.3285 N   0  0  0  0  0  0
  -25.9316  -11.6468   20.5699 N   0  0  0  0  0  0
  -22.0509  -12.8250   22.0387 N   0  0  0  0  0  0
  -25.4345  -15.1868   20.4113 N   0  0  0  0  0  0
  -31.7250  -14.8370   20.0732 O   0  0  0  0  0  0
  -21.6639   -6.8860   21.4231 O   0  0  0  0  0  0
  -22.3547  -14.5544   20.6663 O   0  0  0  0  0  0
  -24.6238  -31.8606   23.2037 C   0  0  0  0  0  0
  -25.9091  -32.4782   23.8363 C   0  0  1  0  0  0
  -27.2317  -27.3432   20.1133 C   0  0  0  0  0  0
  -25.5909  -33.8584   24.2290 N   0  0  0  0  0  0
  -23.4186  -30.4822   21.5452 C   0  0  2  0  0  0
  -24.8690  -28.9341   20.1179 C   0  0  0  0  0  0
  -22.7465  -29.4620   22.4943 C   0  0  0  0  0  0
  -18.0282  -28.1382   22.8482 C   0  0  0  0  0  0
  -24.1488  -36.7302   23.2639 C   0  0  0  0  0  0
  -25.9577  -30.7960   21.3742 C   0  0  0  0  0  0
  -26.0357  -29.4216   20.7236 C   0  0  0  0  0  0
  -27.2243  -28.6342   20.7190 C   0  0  0  0  0  0
  -26.0481  -26.8953   19.4968 C   0  0  0  0  0  0
  -24.8737  -27.6719   19.5002 C   0  0  0  0  0  0
  -23.6357  -29.8132   20.1620 C   0  0  0  0  0  0
  -25.4109  -36.3090   24.0331 C   0  0  1  0  0  0
  -20.5880  -28.3683   23.1288 C   0  0  2  0  0  0
  -20.6768  -26.9403   22.5419 C   0  0  0  0  0  0
  -19.5750  -26.6376   21.5214 C   0  0  0  0  0  0
  -18.1927  -26.7927   22.1619 C   0  0  0  0  0  0
  -19.1533  -28.8849   23.2882 C   0  0  0  0  0  0
  -18.9459  -30.1451   23.8900 C   0  0  0  0  0  0
  -17.6460  -30.6585   24.0563 C   0  0  0  0  0  0
  -25.9041  -34.9455   23.5110 C   0  0  0  0  0  0
  -16.5350  -29.9087   23.6325 C   0  0  0  0  0  0
  -16.7271  -28.6504   23.0348 C   0  0  0  0  0  0
  -26.4485  -31.6589   25.0724 C   0  0  0  0  0  0
  -25.3728  -31.3741   26.1465 C   0  0  0  0  0  0
  -27.0316  -30.3008   24.6168 C   0  0  0  0  0  0
  -27.6051  -32.4322   25.7492 C   0  0  0  0  0  0
  -27.5581  -37.1803   24.8460 C   0  0  0  0  0  0
  -21.4181  -29.3039   22.3685 N   0  0  0  0  0  0
  -26.4293  -37.3780   23.9404 N   0  0  0  0  0  0
  -24.6850  -31.0627   22.0981 N   0  0  0  0  0  0
  -23.4194  -28.8158   23.3019 O   0  0  0  0  0  0
  -28.3284  -26.4863   20.0562 O   0  0  0  0  0  0
  -26.5610  -34.8921   22.4681 O   0  0  0  0  0  0
  -23.5401  -32.1398   23.7368 O   0  0  0  0  0  0
  -30.9504  -18.0960   19.4353 C   0  0  0  0  0  0
  -31.3873  -19.2666   18.7859 C   0  0  0  0  0  0
  -29.6399  -19.5033   20.9147 C   0  0  0  0  0  0
  -30.1003  -18.1867   20.5486 C   0  0  0  0  0  0
  -30.9988  -20.5593   19.2158 C   0  0  0  0  0  0
  -30.0536  -20.7270   20.2706 C   0  0  0  0  0  0
  -28.7872  -24.2756   21.1926 C   0  0  0  0  0  0
  -29.7096  -16.9838   21.3781 C   0  0  0  0  0  0
  -28.5449  -25.6310   21.1325 C   0  0  0  0  0  0
  -29.8926  -15.6173   21.4273 C   0  0  0  0  0  0
  -29.1264  -23.6229   22.5143 C   0  0  0  0  0  0
  -29.5142  -22.1637   22.2146 C   0  0  0  0  0  0
  -28.8684  -23.1274   20.1540 C   0  0  1  0  0  0
  -31.7369  -21.7239   18.5754 C   0  0  0  0  0  0
  -29.2328  -23.5948   18.7422 C   0  0  0  0  0  0
  -29.6979  -22.0398   20.7708 N   0  0  0  0  0  0
  -31.4894  -12.5532   19.1429 H   0  0  0  0  0  0
  -30.4058  -11.3996   19.8578 H   0  0  0  0  0  0
  -29.7819  -11.7909   17.4650 H   0  0  0  0  0  0
  -29.6578  -13.5072   17.7524 H   0  0  0  0  0  0
  -27.8623  -11.3069   18.8254 H   0  0  0  0  0  0
  -27.3849  -12.6215   17.7832 H   0  0  0  0  0  0
  -27.6990  -14.2563   19.5675 H   0  0  0  0  0  0
  -28.7224  -11.9445   21.2771 H   0  0  0  0  0  0
  -28.3905  -13.5116   21.8909 H   0  0  0  0  0  0
  -25.2753   -9.5689   22.4724 H   0  0  0  0  0  0
  -23.9987   -7.4649   22.7476 H   0  0  0  0  0  0
  -21.0801   -8.8753   19.8965 H   0  0  0  0  0  0
  -22.3656  -10.9648   19.6141 H   0  0  0  0  0  0
  -21.2025   -7.6138   23.9699 H   0  0  0  0  0  0
  -21.1475   -6.0516   25.9068 H   0  0  0  0  0  0
  -22.0603   -2.7591   23.2852 H   0  0  0  0  0  0
  -22.4120  -11.9915   22.4789 H   0  0  0  0  0  0
  -21.1136  -13.1294   22.2608 H   0  0  0  0  0  0
  -24.6771  -15.8501   20.5346 H   0  0  0  0  0  0
  -26.3022  -15.6237   20.1251 H   0  0  0  0  0  0
  -26.7162  -32.5471   23.1118 H   0  0  0  0  0  0
  -25.0052  -33.9733   25.0430 H   0  0  0  0  0  0
  -22.7116  -31.3015   21.3996 H   0  0  0  0  0  0
  -23.3742  -35.9642   23.3310 H   0  0  0  0  0  0
  -24.3580  -36.8912   22.2052 H   0  0  0  0  0  0
  -23.7252  -37.6512   23.6655 H   0  0  0  0  0  0
  -26.0846  -31.5568   20.6026 H   0  0  0  0  0  0
  -26.8398  -30.8494   22.0009 H   0  0  0  0  0  0
  -28.1255  -29.0046   21.1871 H   0  0  0  0  0  0
  -26.0356  -25.9247   19.0205 H   0  0  0  0  0  0
  -23.9794  -27.2908   19.0271 H   0  0  0  0  0  0
  -23.7573  -30.5877   19.4040 H   0  0  0  0  0  0
  -22.7567  -29.2417   19.8587 H   0  0  0  0  0  0
  -25.1289  -36.1948   25.0823 H   0  0  0  0  0  0
  -20.9969  -28.3259   24.1411 H   0  0  0  0  0  0
  -20.5650  -26.2294   23.3620 H   0  0  0  0  0  0
  -21.6642  -26.7423   22.1229 H   0  0  0  0  0  0
  -19.6909  -25.6285   21.1248 H   0  0  0  0  0  0
  -19.6690  -27.3180   20.6740 H   0  0  0  0  0  0
  -17.4196  -26.6673   21.4022 H   0  0  0  0  0  0
  -18.0320  -26.0070   22.9015 H   0  0  0  0  0  0
  -19.7935  -30.7264   24.2272 H   0  0  0  0  0  0
  -17.5016  -31.6265   24.5163 H   0  0  0  0  0  0
  -15.5353  -30.2991   23.7647 H   0  0  0  0  0  0
  -15.8669  -28.0826   22.7061 H   0  0  0  0  0  0
  -24.5895  -30.7086   25.7818 H   0  0  0  0  0  0
  -24.8924  -32.2910   26.4885 H   0  0  0  0  0  0
  -25.8059  -30.8936   27.0243 H   0  0  0  0  0  0
  -26.2880  -29.6774   24.1182 H   0  0  0  0  0  0
  -27.4000  -29.7253   25.4669 H   0  0  0  0  0  0
  -27.8758  -30.4295   23.9391 H   0  0  0  0  0  0
  -27.2659  -33.3616   26.2081 H   0  0  0  0  0  0
  -28.3849  -32.6891   25.0309 H   0  0  0  0  0  0
  -28.0726  -31.8438   26.5397 H   0  0  0  0  0  0
  -28.2607  -38.0092   24.7492 H   0  0  0  0  0  0
  -28.1067  -36.2623   24.6295 H   0  0  0  0  0  0
  -27.2302  -37.1468   25.8866 H   0  0  0  0  0  0
  -20.9353  -29.8778   21.6912 H   0  0  0  0  0  0
  -26.0177  -38.2856   24.1400 H   0  0  0  0  0  0
  -31.3198  -17.1382   19.1004 H   0  0  0  0  0  0
  -32.0922  -19.1668   17.9725 H   0  0  0  0  0  0
  -28.9704  -19.5624   21.7586 H   0  0  0  0  0  0
  -29.0942  -17.3036   22.2082 H   0  0  0  0  0  0
  -28.5619  -26.2064   22.0476 H   0  0  0  0  0  0
  -29.4098  -15.2005   22.2943 H   0  0  0  0  0  0
  -28.2795  -23.6737   23.1999 H   0  0  0  0  0  0
  -29.9584  -24.1579   22.9743 H   0  0  0  0  0  0
  -28.7071  -21.5130   22.5521 H   0  0  0  0  0  0
  -30.4198  -21.8778   22.7527 H   0  0  0  0  0  0
  -27.8584  -22.7175   20.0935 H   0  0  0  0  0  0
  -32.7611  -21.4362   18.3361 H   0  0  0  0  0  0
  -31.8073  -22.5776   19.2482 H   0  0  0  0  0  0
  -31.2618  -22.0274   17.6441 H   0  0  0  0  0  0
  -30.2127  -24.0685   18.7054 H   0  0  0  0  0  0
  -28.5117  -24.3329   18.3904 H   0  0  0  0  0  0
  -29.1970  -22.7693   18.0326 H   0  0  0  0  0  0
  1 25  1  0  0  0
  1 30  2  0  0  0
  1 80  1  0  0  0
  2  3  1  0  0  0
  2 25  1  0  0  0
  2 87  1  0  0  0
  2 88  1  0  0  0
  3  4  1  0  0  0
  3 89  1  0  0  0
  3 90  1  0  0  0
  4  5  1  0  0  0
  4 91  1  0  0  0
  4 92  1  0  0  0
  5  6  1  0  0  0
  5 26  1  0  0  0
  5 93  1  0  0  0
  6 25  1  0  0  0
  6 94  1  0  0  0
  6 95  1  0  0  0
  7  8  2  0  0  0
  7 26  1  0  0  0
  7 29  1  0  0  0
  8  9  1  0  0  0
  8 22  1  0  0  0
  9 10  1  0  0  0
  9 27  2  0  0  0
 10 11  2  0  0  0
 10 15  1  0  0  0
 11 12  1  0  0  0
 11 96  1  0  0  0
 12 13  2  0  0  0
 12 97  1  0  0  0
 13 14  1  0  0  0
 13 31  1  0  0  0
 14 15  2  0  0  0
 14 98  1  0  0  0
 15 99  1  0  0  0
 16 17  2  0  0  0
 16 21  1  0  0  0
 16 31  1  0  0  0
 17 18  1  0  0  0
 17100  1  0  0  0
 18 19  2  0  0  0
 18101  1  0  0  0
 19 20  1  0  0  0
 19 24  1  0  0  0
 20 21  2  0  0  0
 20102  1  0  0  0
 21 23  1  0  0  0
 22 28  1  0  0  0
 22 32  2  0  0  0
 26 27  1  0  0  0
 28103  1  0  0  0
 28104  1  0  0  0
 29105  1  0  0  0
 29106  1  0  0  0
 33 34  1  0  0  0
 33 66  1  0  0  0
 33 70  2  0  0  0
 34 36  1  0  0  0
 34 59  1  0  0  0
 34107  1  0  0  0
 35 44  2  0  0  0
 35 45  1  0  0  0
 35 68  1  0  0  0
 36 56  1  0  0  0
 36108  1  0  0  0
 37 39  1  0  0  0
 37 47  1  0  0  0
 37 66  1  0  0  0
 37109  1  0  0  0
 38 43  2  0  0  0
 38 46  1  0  0  0
 38 47  1  0  0  0
 39 64  1  0  0  0
 39 67  2  0  0  0
 40 52  1  0  0  0
 40 53  2  0  0  0
 40 58  1  0  0  0
 41110  1  0  0  0
 41111  1  0  0  0
 41112  1  0  0  0
 41 48  1  0  0  0
 42 43  1  0  0  0
 42 66  1  0  0  0
 42113  1  0  0  0
 42114  1  0  0  0
 43 44  1  0  0  0
 44115  1  0  0  0
 45 46  2  0  0  0
 45116  1  0  0  0
 46117  1  0  0  0
 47118  1  0  0  0
 47119  1  0  0  0
 48 56  1  0  0  0
 48 65  1  0  0  0
 48120  1  0  0  0
 49 50  1  0  0  0
 49 53  1  0  0  0
 49 64  1  0  0  0
 49121  1  0  0  0
 50 51  1  0  0  0
 50122  1  0  0  0
 50123  1  0  0  0
 51 52  1  0  0  0
 51124  1  0  0  0
 51125  1  0  0  0
 52126  1  0  0  0
 52127  1  0  0  0
 53 54  1  0  0  0
 54 55  2  0  0  0
 54128  1  0  0  0
 55 57  1  0  0  0
 55129  1  0  0  0
 56 69  2  0  0  0
 57 58  2  0  0  0
 57130  1  0  0  0
 58131  1  0  0  0
 59 60  1  0  0  0
 59 61  1  0  0  0
 59 62  1  0  0  0
 60132  1  0  0  0
 60133  1  0  0  0
 60134  1  0  0  0
 61135  1  0  0  0
 61136  1  0  0  0
 61137  1  0  0  0
 62138  1  0  0  0
 62139  1  0  0  0
 62140  1  0  0  0
 63 65  1  0  0  0
 63141  1  0  0  0
 63142  1  0  0  0
 63143  1  0  0  0
 64144  1  0  0  0
 65145  1  0  0  0
 68 79  1  0  0  0
 71 72  2  0  0  0
 71 74  1  0  0  0
 71146  1  0  0  0
 72 75  1  0  0  0
 72147  1  0  0  0
 73 74  2  0  0  0
 73 76  1  0  0  0
 73148  1  0  0  0
 74 78  1  0  0  0
 75 76  2  0  0  0
 75 84  1  0  0  0
 76 86  1  0  0  0
 77 79  2  0  0  0
 77 81  1  0  0  0
 77 83  1  0  0  0
 78 80  2  0  0  0
 78149  1  0  0  0
 79150  1  0  0  0
 80151  1  0  0  0
 81 82  1  0  0  0
 81152  1  0  0  0
 81153  1  0  0  0
 82 86  1  0  0  0
 82154  1  0  0  0
 82155  1  0  0  0
 83 85  1  0  0  0
 83 86  1  0  0  0
 83156  1  0  0  0
 84157  1  0  0  0
 84158  1  0  0  0
 84159  1  0  0  0
 85160  1  0  0  0
 85161  1  0  0  0
 85162  1  0  0  0
M  ISO  4   1 100  68 101  79 101  80 100
M  END
> <chiral flag>
0

> <version>
0

> <s_m_source_file>
/data/baiqing/PycharmProjects/Reinvent-master-3.2/result/LINK_invent/BTK/process_docking_weight1_custom_product_contain_oxygen_bond_distance_aromatic_linkinvent_7_9_3/rearranged_h_0118.sdf

> <i_m_source_file_index>
65

> <r_mmod_Potential_Energy-OPLS-2005>
179.922988891602

> <r_mmod_Stretch_Energy-OPLS-2005>
75.5281524658203

> <r_mmod_Bend_Energy-OPLS-2005>
246.374099731445

> <r_mmod_Torsional_Energy-OPLS-2005>
232.029266357422

> <r_mmod_Improper_Torsional_Energy-OPLS-2005>
5.85326290130615

> <r_mmod_Van_der_Waal_Energy-OPLS-2005>
143.668029785156

> <r_mmod_Electrostatic_Energy-OPLS-2005>
-362.614074707031

> <r_mmod_Solvation_Energy-OPLS-2005>
-200.680252075195

> <b_mmod_Minimization_Converged-OPLS-2005>
0

> <r_mmod_RMS_Derivative-OPLS-2005>
1.16648030281067

$$$$
66
                    3D
 Structure written by MMmdl.
155163  0  0  1  0            999 V2000
  -30.7363  -14.4774   20.6390 C   0  0  0  0  0  0
  -30.4206  -12.3366   19.4305 C   0  0  0  0  0  0
  -29.4955  -12.5359   18.2126 C   0  0  0  0  0  0
  -28.0174  -12.3800   18.6170 C   0  0  0  0  0  0
  -27.6622  -13.2089   19.8778 C   0  0  2  0  0  0
  -28.6978  -12.9772   20.9988 C   0  0  0  0  0  0
  -25.2590  -13.8158   20.5672 C   0  0  0  0  0  0
  -24.1835  -13.0434   20.9154 C   0  0  0  0  0  0
  -24.6387  -11.6904   20.8704 C   0  0  0  0  0  0
  -23.9051  -10.4296   21.0391 C   0  0  0  0  0  0
  -24.3612   -9.4217   21.9170 C   0  0  0  0  0  0
  -23.6290   -8.2251   22.0750 C   0  0  0  0  0  0
  -22.4270   -8.0283   21.3544 C   0  0  0  0  0  0
  -21.9901   -9.0253   20.4643 C   0  0  0  0  0  0
  -22.7223  -10.2136   20.3046 C   0  0  0  0  0  0
  -21.6852   -6.0730   22.5276 C   0  0  0  0  0  0
  -21.4012   -6.5638   23.8208 C   0  0  0  0  0  0
  -21.3664   -5.6793   24.9172 C   0  0  0  0  0  0
  -21.6048   -4.3055   24.7226 C   0  0  0  0  0  0
  -21.8819   -3.8145   23.4346 C   0  0  0  0  0  0
  -21.9194   -4.6958   22.3399 C   0  0  0  0  0  0
  -22.7861  -13.5233   21.1842 C   0  0  0  0  0  0
  -22.1662   -4.2143   21.0977 F   0  0  0  0  0  0
  -21.5638   -3.4542   25.7740 F   0  0  0  0  0  0
  -30.0368  -13.3086   20.4730 N   0  0  0  0  0  0
  -26.3023  -12.9333   20.3362 N   0  0  0  0  0  0
  -25.9314  -11.6488   20.5729 N   0  0  0  0  0  0
  -22.0518  -12.8218   22.0407 N   0  0  0  0  0  0
  -25.4314  -15.1875   20.4101 N   0  0  0  0  0  0
  -31.7839  -14.7096   20.0234 O   0  0  0  0  0  0
  -21.6641   -6.8875   21.4239 O   0  0  0  0  0  0
  -22.3541  -14.5544   20.6707 O   0  0  0  0  0  0
  -24.6193  -31.8678   23.2102 C   0  0  0  0  0  0
  -25.9077  -32.4819   23.8400 C   0  0  1  0  0  0
  -27.2268  -27.3917   20.0984 C   0  0  0  0  0  0
  -25.5915  -33.8618   24.2322 N   0  0  0  0  0  0
  -23.4087  -30.4928   21.5532 C   0  0  2  0  0  0
  -24.8549  -28.9643   20.1111 C   0  0  0  0  0  0
  -22.7453  -29.4664   22.4997 C   0  0  0  0  0  0
  -18.0280  -28.1378   22.8499 C   0  0  0  0  0  0
  -24.1487  -36.7315   23.2635 C   0  0  0  0  0  0
  -25.9438  -30.8188   21.3736 C   0  0  0  0  0  0
  -26.0201  -29.4540   20.7131 C   0  0  0  0  0  0
  -27.2099  -28.6785   20.7016 C   0  0  0  0  0  0
  -26.0370  -26.9439   19.4719 C   0  0  0  0  0  0
  -24.8606  -27.7113   19.4832 C   0  0  0  0  0  0
  -23.6190  -29.8345   20.1648 C   0  0  0  0  0  0
  -25.4108  -36.3109   24.0325 C   0  0  1  0  0  0
  -20.5876  -28.3685   23.1316 C   0  0  2  0  0  0
  -20.6780  -26.9419   22.5427 C   0  0  0  0  0  0
  -19.5751  -26.6387   21.5228 C   0  0  0  0  0  0
  -18.1922  -26.7926   22.1626 C   0  0  0  0  0  0
  -19.1529  -28.8847   23.2895 C   0  0  0  0  0  0
  -18.9460  -30.1444   23.8913 C   0  0  0  0  0  0
  -17.6465  -30.6590   24.0569 C   0  0  0  0  0  0
  -25.9050  -34.9478   23.5118 C   0  0  0  0  0  0
  -16.5356  -29.9092   23.6325 C   0  0  0  0  0  0
  -16.7271  -28.6503   23.0361 C   0  0  0  0  0  0
  -26.4477  -31.6607   25.0743 C   0  0  0  0  0  0
  -25.3725  -31.3712   26.1474 C   0  0  0  0  0  0
  -27.0300  -30.3041   24.6137 C   0  0  0  0  0  0
  -27.6049  -32.4341   25.7506 C   0  0  0  0  0  0
  -27.5587  -37.1803   24.8454 C   0  0  0  0  0  0
  -21.4181  -29.3043   22.3730 N   0  0  0  0  0  0
  -26.4292  -37.3803   23.9409 N   0  0  0  0  0  0
  -24.6754  -31.0749   22.1027 N   0  0  0  0  0  0
  -23.4215  -28.8212   23.3055 O   0  0  0  0  0  0
  -28.3639  -26.5873   20.1473 O   0  0  0  0  0  0
  -26.5629  -34.8932   22.4696 O   0  0  0  0  0  0
  -23.5378  -32.1465   23.7466 O   0  0  0  0  0  0
  -29.5825  -18.0520   21.8499 C   0  0  0  0  0  0
  -29.4597  -19.0923   20.8772 C   0  0  0  0  0  0
  -30.0059  -16.9072   21.2134 C   0  0  0  0  0  0
  -29.8554  -18.5169   19.6981 C   0  0  0  0  0  0
  -30.2216  -15.5083   21.6656 C   0  0  0  0  0  0
  -29.9196  -19.0029   18.2906 C   0  0  0  0  0  0
  -29.2500  -24.1600   20.4350 C   0  0  0  0  0  0
  -28.7273  -22.6827   20.4047 C   0  0  0  0  0  0
  -28.1251  -25.1583   20.0276 C   0  0  0  0  0  0
  -29.6919  -21.5253   20.8050 C   0  0  0  0  0  0
  -30.0212  -15.1950   22.8801 N   0  0  0  0  0  0
  -30.1889  -17.2004   19.8888 O   0  0  0  0  0  0
  -28.9126  -20.3482   21.0817 O   0  0  0  0  0  0
  -31.4653  -12.4336   19.1308 H   0  0  0  0  0  0
  -30.3241  -11.3213   19.8178 H   0  0  0  0  0  0
  -29.7451  -11.8203   17.4288 H   0  0  0  0  0  0
  -29.6555  -13.5272   17.7854 H   0  0  0  0  0  0
  -27.8314  -11.3220   18.8042 H   0  0  0  0  0  0
  -27.3674  -12.6613   17.7877 H   0  0  0  0  0  0
  -27.7111  -14.2601   19.5949 H   0  0  0  0  0  0
  -28.6812  -11.9339   21.3159 H   0  0  0  0  0  0
  -28.4102  -13.5398   21.8835 H   0  0  0  0  0  0
  -25.2758   -9.5704   22.4739 H   0  0  0  0  0  0
  -24.0007   -7.4647   22.7472 H   0  0  0  0  0  0
  -21.0829   -8.8765   19.8947 H   0  0  0  0  0  0
  -22.3670  -10.9676   19.6159 H   0  0  0  0  0  0
  -21.1997   -7.6147   23.9706 H   0  0  0  0  0  0
  -21.1491   -6.0528   25.9077 H   0  0  0  0  0  0
  -22.0595   -2.7608   23.2848 H   0  0  0  0  0  0
  -22.4154  -11.9875   22.4774 H   0  0  0  0  0  0
  -21.1143  -13.1247   22.2652 H   0  0  0  0  0  0
  -24.6661  -15.8446   20.5146 H   0  0  0  0  0  0
  -26.2924  -15.6277   20.1099 H   0  0  0  0  0  0
  -26.7152  -32.5517   23.1166 H   0  0  0  0  0  0
  -25.0044  -33.9773   25.0448 H   0  0  0  0  0  0
  -22.6981  -31.3105   21.4179 H   0  0  0  0  0  0
  -23.3756  -35.9643   23.3285 H   0  0  0  0  0  0
  -24.3575  -36.8941   22.2049 H   0  0  0  0  0  0
  -23.7226  -37.6501   23.6681 H   0  0  0  0  0  0
  -26.0660  -31.5868   20.6084 H   0  0  0  0  0  0
  -26.8275  -30.8662   21.9969 H   0  0  0  0  0  0
  -28.1040  -29.0492   21.1836 H   0  0  0  0  0  0
  -25.9814  -25.9924   18.9656 H   0  0  0  0  0  0
  -23.9688  -27.3324   19.0016 H   0  0  0  0  0  0
  -23.7320  -30.6163   19.4126 H   0  0  0  0  0  0
  -22.7403  -29.2592   19.8651 H   0  0  0  0  0  0
  -25.1276  -36.1970   25.0816 H   0  0  0  0  0  0
  -20.9938  -28.3267   24.1450 H   0  0  0  0  0  0
  -20.5717  -26.2293   23.3624 H   0  0  0  0  0  0
  -21.6646  -26.7492   22.1196 H   0  0  0  0  0  0
  -19.6931  -25.6300   21.1255 H   0  0  0  0  0  0
  -19.6680  -27.3204   20.6765 H   0  0  0  0  0  0
  -17.4201  -26.6685   21.4024 H   0  0  0  0  0  0
  -18.0301  -26.0056   22.9008 H   0  0  0  0  0  0
  -19.7939  -30.7235   24.2311 H   0  0  0  0  0  0
  -17.5031  -31.6279   24.5160 H   0  0  0  0  0  0
  -15.5357  -30.3008   23.7635 H   0  0  0  0  0  0
  -15.8670  -28.0829   22.7081 H   0  0  0  0  0  0
  -24.5947  -30.7002   25.7812 H   0  0  0  0  0  0
  -24.8861  -32.2855   26.4897 H   0  0  0  0  0  0
  -25.8070  -30.8929   27.0260 H   0  0  0  0  0  0
  -26.2849  -29.6811   24.1180 H   0  0  0  0  0  0
  -27.4024  -29.7271   25.4608 H   0  0  0  0  0  0
  -27.8717  -30.4324   23.9321 H   0  0  0  0  0  0
  -27.2673  -33.3650   26.2084 H   0  0  0  0  0  0
  -28.3864  -32.6882   25.0332 H   0  0  0  0  0  0
  -28.0722  -31.8467   26.5413 H   0  0  0  0  0  0
  -28.2582  -38.0132   24.7552 H   0  0  0  0  0  0
  -28.1102  -36.2654   24.6219 H   0  0  0  0  0  0
  -27.2310  -37.1377   25.8860 H   0  0  0  0  0  0
  -20.9371  -29.8758   21.6924 H   0  0  0  0  0  0
  -26.0170  -38.2870   24.1454 H   0  0  0  0  0  0
  -29.3342  -18.1167   22.8990 H   0  0  0  0  0  0
  -29.2443  -19.8457   18.1381 H   0  0  0  0  0  0
  -29.6333  -18.2160   17.5931 H   0  0  0  0  0  0
  -30.9273  -19.3312   18.0396 H   0  0  0  0  0  0
  -30.1041  -24.2714   19.7660 H   0  0  0  0  0  0
  -29.6059  -24.4037   21.4357 H   0  0  0  0  0  0
  -28.3366  -22.4663   19.4098 H   0  0  0  0  0  0
  -27.8638  -22.6292   21.0683 H   0  0  0  0  0  0
  -27.2571  -24.9085   20.6428 H   0  0  0  0  0  0
  -27.8603  -24.9374   18.9936 H   0  0  0  0  0  0
  -30.2307  -21.7877   21.7158 H   0  0  0  0  0  0
  -30.4361  -21.3505   20.0261 H   0  0  0  0  0  0
  -29.7069  -15.9970   23.4118 H   0  0  0  0  0  0
  1 25  1  0  0  0
  1 30  2  0  0  0
  1 75  1  0  0  0
  2  3  1  0  0  0
  2 25  1  0  0  0
  2 84  1  0  0  0
  2 85  1  0  0  0
  3  4  1  0  0  0
  3 86  1  0  0  0
  3 87  1  0  0  0
  4  5  1  0  0  0
  4 88  1  0  0  0
  4 89  1  0  0  0
  5  6  1  0  0  0
  5 26  1  0  0  0
  5 90  1  0  0  0
  6 25  1  0  0  0
  6 91  1  0  0  0
  6 92  1  0  0  0
  7  8  2  0  0  0
  7 26  1  0  0  0
  7 29  1  0  0  0
  8  9  1  0  0  0
  8 22  1  0  0  0
  9 10  1  0  0  0
  9 27  2  0  0  0
 10 11  2  0  0  0
 10 15  1  0  0  0
 11 12  1  0  0  0
 11 93  1  0  0  0
 12 13  2  0  0  0
 12 94  1  0  0  0
 13 14  1  0  0  0
 13 31  1  0  0  0
 14 15  2  0  0  0
 14 95  1  0  0  0
 15 96  1  0  0  0
 16 17  2  0  0  0
 16 21  1  0  0  0
 16 31  1  0  0  0
 17 18  1  0  0  0
 17 97  1  0  0  0
 18 19  2  0  0  0
 18 98  1  0  0  0
 19 20  1  0  0  0
 19 24  1  0  0  0
 20 21  2  0  0  0
 20 99  1  0  0  0
 21 23  1  0  0  0
 22 28  1  0  0  0
 22 32  2  0  0  0
 26 27  1  0  0  0
 28100  1  0  0  0
 28101  1  0  0  0
 29102  1  0  0  0
 29103  1  0  0  0
 33 34  1  0  0  0
 33 66  1  0  0  0
 33 70  2  0  0  0
 34 36  1  0  0  0
 34 59  1  0  0  0
 34104  1  0  0  0
 35 44  2  0  0  0
 35 45  1  0  0  0
 35 68  1  0  0  0
 36 56  1  0  0  0
 36105  1  0  0  0
 37 39  1  0  0  0
 37 47  1  0  0  0
 37 66  1  0  0  0
 37106  1  0  0  0
 38 43  2  0  0  0
 38 46  1  0  0  0
 38 47  1  0  0  0
 39 64  1  0  0  0
 39 67  2  0  0  0
 40 52  1  0  0  0
 40 53  2  0  0  0
 40 58  1  0  0  0
 41107  1  0  0  0
 41108  1  0  0  0
 41109  1  0  0  0
 41 48  1  0  0  0
 42 43  1  0  0  0
 42 66  1  0  0  0
 42110  1  0  0  0
 42111  1  0  0  0
 43 44  1  0  0  0
 44112  1  0  0  0
 45 46  2  0  0  0
 45113  1  0  0  0
 46114  1  0  0  0
 47115  1  0  0  0
 47116  1  0  0  0
 48 56  1  0  0  0
 48 65  1  0  0  0
 48117  1  0  0  0
 49 50  1  0  0  0
 49 53  1  0  0  0
 49 64  1  0  0  0
 49118  1  0  0  0
 50 51  1  0  0  0
 50119  1  0  0  0
 50120  1  0  0  0
 51 52  1  0  0  0
 51121  1  0  0  0
 51122  1  0  0  0
 52123  1  0  0  0
 52124  1  0  0  0
 53 54  1  0  0  0
 54 55  2  0  0  0
 54125  1  0  0  0
 55 57  1  0  0  0
 55126  1  0  0  0
 56 69  2  0  0  0
 57 58  2  0  0  0
 57127  1  0  0  0
 58128  1  0  0  0
 59 60  1  0  0  0
 59 61  1  0  0  0
 59 62  1  0  0  0
 60129  1  0  0  0
 60130  1  0  0  0
 60131  1  0  0  0
 61132  1  0  0  0
 61133  1  0  0  0
 61134  1  0  0  0
 62135  1  0  0  0
 62136  1  0  0  0
 62137  1  0  0  0
 63 65  1  0  0  0
 63138  1  0  0  0
 63139  1  0  0  0
 63140  1  0  0  0
 64141  1  0  0  0
 65142  1  0  0  0
 68 79  1  0  0  0
 71 72  1  0  0  0
 71 73  2  0  0  0
 71143  1  0  0  0
 72 74  2  0  0  0
 72 83  1  0  0  0
 73 75  1  0  0  0
 73 82  1  0  0  0
 74 76  1  0  0  0
 74 82  1  0  0  0
 75 81  2  0  0  0
 76144  1  0  0  0
 76145  1  0  0  0
 76146  1  0  0  0
 77 78  1  0  0  0
 77 79  1  0  0  0
 77147  1  0  0  0
 77148  1  0  0  0
 78 80  1  0  0  0
 78149  1  0  0  0
 78150  1  0  0  0
 79151  1  0  0  0
 79152  1  0  0  0
 80 83  1  0  0  0
 80153  1  0  0  0
 80154  1  0  0  0
 81155  1  0  0  0
M  ISO  4   1 100  68 101  75 100  79 101
M  END
> <chiral flag>
0

> <version>
0

> <s_m_source_file>
/data/baiqing/PycharmProjects/Reinvent-master-3.2/result/LINK_invent/BTK/process_docking_weight1_custom_product_contain_oxygen_bond_distance_aromatic_linkinvent_7_9_3/rearranged_h_0118.sdf

> <i_m_source_file_index>
66

> <r_mmod_Potential_Energy-OPLS-2005>
94.5690841674805

> <r_mmod_Stretch_Energy-OPLS-2005>
48.8150901794434

> <r_mmod_Bend_Energy-OPLS-2005>
117.193222045898

> <r_mmod_Torsional_Energy-OPLS-2005>
211.422988891602

> <r_mmod_Improper_Torsional_Energy-OPLS-2005>
2.90513110160828

> <r_mmod_Van_der_Waal_Energy-OPLS-2005>
133.219573974609

> <r_mmod_Electrostatic_Energy-OPLS-2005>
-236.396377563477

> <r_mmod_Solvation_Energy-OPLS-2005>
-200.29460144043

> <b_mmod_Minimization_Converged-OPLS-2005>
0

> <r_mmod_RMS_Derivative-OPLS-2005>
1.79171478748322

$$$$
67
                    3D
 Structure written by MMmdl.
153161  0  0  1  0            999 V2000
  -30.6675  -14.5492   20.4760 C   0  0  0  0  0  0
  -30.4251  -12.3269   19.4466 C   0  0  0  0  0  0
  -29.5033  -12.4913   18.2179 C   0  0  0  0  0  0
  -28.0206  -12.3522   18.6222 C   0  0  0  0  0  0
  -27.6533  -13.2105   19.8620 C   0  0  2  0  0  0
  -28.6977  -13.0384   20.9880 C   0  0  0  0  0  0
  -25.2581  -13.8170   20.5694 C   0  0  0  0  0  0
  -24.1839  -13.0441   20.9186 C   0  0  0  0  0  0
  -24.6390  -11.6901   20.8736 C   0  0  0  0  0  0
  -23.9056  -10.4291   21.0403 C   0  0  0  0  0  0
  -24.3611   -9.4214   21.9185 C   0  0  0  0  0  0
  -23.6295   -8.2242   22.0749 C   0  0  0  0  0  0
  -22.4273   -8.0280   21.3547 C   0  0  0  0  0  0
  -21.9906   -9.0251   20.4646 C   0  0  0  0  0  0
  -22.7226  -10.2137   20.3055 C   0  0  0  0  0  0
  -21.6852   -6.0738   22.5282 C   0  0  0  0  0  0
  -21.4013   -6.5639   23.8221 C   0  0  0  0  0  0
  -21.3666   -5.6789   24.9184 C   0  0  0  0  0  0
  -21.6046   -4.3054   24.7227 C   0  0  0  0  0  0
  -21.8820   -3.8144   23.4350 C   0  0  0  0  0  0
  -21.9201   -4.6964   22.3406 C   0  0  0  0  0  0
  -22.7861  -13.5242   21.1858 C   0  0  0  0  0  0
  -22.1664   -4.2157   21.0980 F   0  0  0  0  0  0
  -21.5635   -3.4532   25.7735 F   0  0  0  0  0  0
  -30.0244  -13.3452   20.4336 N   0  0  0  0  0  0
  -26.2990  -12.9330   20.3313 N   0  0  0  0  0  0
  -25.9314  -11.6492   20.5736 N   0  0  0  0  0  0
  -22.0497  -12.8247   22.0417 N   0  0  0  0  0  0
  -25.4306  -15.1892   20.4147 N   0  0  0  0  0  0
  -31.8532  -14.6481   20.1456 O   0  0  0  0  0  0
  -21.6645   -6.8875   21.4238 O   0  0  0  0  0  0
  -22.3552  -14.5554   20.6706 O   0  0  0  0  0  0
  -24.6179  -31.8656   23.2067 C   0  0  0  0  0  0
  -25.9055  -32.4801   23.8373 C   0  0  1  0  0  0
  -27.2264  -27.4003   20.1042 C   0  0  0  0  0  0
  -25.5893  -33.8599   24.2295 N   0  0  0  0  0  0
  -23.4068  -30.4888   21.5484 C   0  0  2  0  0  0
  -24.8519  -28.9483   20.1152 C   0  0  0  0  0  0
  -22.7425  -29.4649   22.4975 C   0  0  0  0  0  0
  -18.0276  -28.1388   22.8492 C   0  0  0  0  0  0
  -24.1491  -36.7317   23.2640 C   0  0  0  0  0  0
  -25.9394  -30.8214   21.3645 C   0  0  0  0  0  0
  -26.0155  -29.4535   20.7096 C   0  0  0  0  0  0
  -27.2092  -28.6895   20.6943 C   0  0  0  0  0  0
  -26.0448  -26.9137   19.5068 C   0  0  0  0  0  0
  -24.8621  -27.6789   19.5111 C   0  0  0  0  0  0
  -23.6160  -29.8206   20.1635 C   0  0  0  0  0  0
  -25.4113  -36.3097   24.0331 C   0  0  1  0  0  0
  -20.5867  -28.3674   23.1319 C   0  0  2  0  0  0
  -20.6769  -26.9405   22.5429 C   0  0  0  0  0  0
  -19.5737  -26.6386   21.5233 C   0  0  0  0  0  0
  -18.1913  -26.7929   22.1640 C   0  0  0  0  0  0
  -19.1524  -28.8844   23.2900 C   0  0  0  0  0  0
  -18.9456  -30.1455   23.8899 C   0  0  0  0  0  0
  -17.6454  -30.6586   24.0570 C   0  0  0  0  0  0
  -25.9046  -34.9461   23.5119 C   0  0  0  0  0  0
  -16.5345  -29.9090   23.6330 C   0  0  0  0  0  0
  -16.7264  -28.6519   23.0329 C   0  0  0  0  0  0
  -26.4470  -31.6585   25.0711 C   0  0  0  0  0  0
  -25.3743  -31.3719   26.1470 C   0  0  0  0  0  0
  -27.0296  -30.3007   24.6126 C   0  0  0  0  0  0
  -27.6028  -32.4318   25.7482 C   0  0  0  0  0  0
  -27.5583  -37.1811   24.8457 C   0  0  0  0  0  0
  -21.4149  -29.3036   22.3716 N   0  0  0  0  0  0
  -26.4292  -37.3789   23.9406 N   0  0  0  0  0  0
  -24.6729  -31.0738   22.0979 N   0  0  0  0  0  0
  -23.4188  -28.8195   23.3029 O   0  0  0  0  0  0
  -28.3743  -26.6280   20.0964 O   0  0  0  0  0  0
  -26.5621  -34.8926   22.4688 O   0  0  0  0  0  0
  -23.5366  -32.1414   23.7458 O   0  0  0  0  0  0
  -30.0266  -19.4814   19.8613 C   0  0  0  0  0  0
  -29.4869  -18.2490   20.3559 C   0  0  0  0  0  0
  -28.9865  -20.3730   19.9175 C   0  0  0  0  0  0
  -30.2653  -16.9822   20.3317 C   0  0  0  0  0  0
  -29.8185  -15.7414   20.6647 C   0  0  0  0  0  0
  -26.5339  -20.1342   20.6290 C   0  0  0  0  0  0
  -28.5988  -24.1159   19.6830 C   0  0  0  0  0  0
  -28.2579  -25.2912   20.6494 C   0  0  0  0  0  0
  -28.6792  -22.7152   20.3744 C   0  0  0  0  0  0
  -28.2185  -18.3965   20.7253 N   0  0  0  0  0  0
  -27.8991  -19.6871   20.4359 N   0  0  0  0  0  0
  -28.9125  -21.6522   19.4325 O   0  0  0  0  0  0
  -31.4703  -12.4198   19.1470 H   0  0  0  0  0  0
  -30.3263  -11.3280   19.8742 H   0  0  0  0  0  0
  -29.7545  -11.7507   17.4567 H   0  0  0  0  0  0
  -29.6712  -13.4681   17.7607 H   0  0  0  0  0  0
  -27.8357  -11.2987   18.8323 H   0  0  0  0  0  0
  -27.3742  -12.6099   17.7828 H   0  0  0  0  0  0
  -27.6760  -14.2479   19.5315 H   0  0  0  0  0  0
  -28.6847  -12.0144   21.3627 H   0  0  0  0  0  0
  -28.4637  -13.6652   21.8488 H   0  0  0  0  0  0
  -25.2758   -9.5702   22.4765 H   0  0  0  0  0  0
  -24.0024   -7.4627   22.7457 H   0  0  0  0  0  0
  -21.0839   -8.8754   19.8948 H   0  0  0  0  0  0
  -22.3673  -10.9672   19.6169 H   0  0  0  0  0  0
  -21.1993   -7.6142   23.9729 H   0  0  0  0  0  0
  -21.1492   -6.0515   25.9093 H   0  0  0  0  0  0
  -22.0597   -2.7606   23.2841 H   0  0  0  0  0  0
  -22.4083  -11.9905   22.4822 H   0  0  0  0  0  0
  -21.1115  -13.1285   22.2599 H   0  0  0  0  0  0
  -24.6695  -15.8466   20.5478 H   0  0  0  0  0  0
  -26.2962  -15.6398   20.1429 H   0  0  0  0  0  0
  -26.7127  -32.5501   23.1136 H   0  0  0  0  0  0
  -24.9981  -33.9750   25.0395 H   0  0  0  0  0  0
  -22.6970  -31.3066   21.4081 H   0  0  0  0  0  0
  -23.3740  -35.9665   23.3309 H   0  0  0  0  0  0
  -24.3591  -36.8931   22.2056 H   0  0  0  0  0  0
  -23.7265  -37.6534   23.6654 H   0  0  0  0  0  0
  -26.0598  -31.5888   20.5985 H   0  0  0  0  0  0
  -26.8250  -30.8707   21.9868 H   0  0  0  0  0  0
  -28.1072  -29.0747   21.1564 H   0  0  0  0  0  0
  -26.0361  -25.9388   19.0408 H   0  0  0  0  0  0
  -23.9662  -27.2818   19.0544 H   0  0  0  0  0  0
  -23.7285  -30.5958   19.4042 H   0  0  0  0  0  0
  -22.7380  -29.2443   19.8668 H   0  0  0  0  0  0
  -25.1296  -36.1955   25.0825 H   0  0  0  0  0  0
  -20.9966  -28.3244   24.1441 H   0  0  0  0  0  0
  -20.5697  -26.2278   23.3620 H   0  0  0  0  0  0
  -21.6633  -26.7452   22.1202 H   0  0  0  0  0  0
  -19.6894  -25.6304   21.1241 H   0  0  0  0  0  0
  -19.6675  -27.3219   20.6780 H   0  0  0  0  0  0
  -17.4194  -26.6683   21.4034 H   0  0  0  0  0  0
  -18.0294  -26.0079   22.9042 H   0  0  0  0  0  0
  -19.7932  -30.7275   24.2257 H   0  0  0  0  0  0
  -17.5011  -31.6267   24.5177 H   0  0  0  0  0  0
  -15.5345  -30.2993   23.7659 H   0  0  0  0  0  0
  -15.8663  -28.0859   22.7005 H   0  0  0  0  0  0
  -24.5864  -30.7120   25.7820 H   0  0  0  0  0  0
  -24.9010  -32.2902   26.4962 H   0  0  0  0  0  0
  -25.8105  -30.8844   27.0198 H   0  0  0  0  0  0
  -26.2855  -29.6773   24.1152 H   0  0  0  0  0  0
  -27.4000  -29.7239   25.4614 H   0  0  0  0  0  0
  -27.8721  -30.4290   23.9323 H   0  0  0  0  0  0
  -27.2597  -33.3571   26.2129 H   0  0  0  0  0  0
  -28.3804  -32.6963   25.0302 H   0  0  0  0  0  0
  -28.0733  -31.8408   26.5354 H   0  0  0  0  0  0
  -28.2592  -38.0116   24.7504 H   0  0  0  0  0  0
  -28.1082  -36.2645   24.6269 H   0  0  0  0  0  0
  -27.2300  -37.1452   25.8859 H   0  0  0  0  0  0
  -20.9299  -29.8764   21.6944 H   0  0  0  0  0  0
  -26.0171  -38.2861   24.1419 H   0  0  0  0  0  0
  -31.0147  -19.6687   19.4678 H   0  0  0  0  0  0
  -31.2816  -17.0880   19.9787 H   0  0  0  0  0  0
  -28.8094  -15.6562   21.0357 H   0  0  0  0  0  0
  -26.2447  -20.7945   19.8111 H   0  0  0  0  0  0
  -26.4486  -20.6707   21.5736 H   0  0  0  0  0  0
  -25.8527  -19.2828   20.6413 H   0  0  0  0  0  0
  -29.5504  -24.3202   19.1929 H   0  0  0  0  0  0
  -27.8508  -24.0824   18.8910 H   0  0  0  0  0  0
  -28.9502  -25.2468   21.4906 H   0  0  0  0  0  0
  -27.2729  -25.1200   21.0873 H   0  0  0  0  0  0
  -27.7575  -22.5377   20.9267 H   0  0  0  0  0  0
  -29.4896  -22.7161   21.1042 H   0  0  0  0  0  0
  1 25  1  0  0  0
  1 30  2  0  0  0
  1 75  1  0  0  0
  2  3  1  0  0  0
  2 25  1  0  0  0
  2 83  1  0  0  0
  2 84  1  0  0  0
  3  4  1  0  0  0
  3 85  1  0  0  0
  3 86  1  0  0  0
  4  5  1  0  0  0
  4 87  1  0  0  0
  4 88  1  0  0  0
  5  6  1  0  0  0
  5 26  1  0  0  0
  5 89  1  0  0  0
  6 25  1  0  0  0
  6 90  1  0  0  0
  6 91  1  0  0  0
  7  8  2  0  0  0
  7 26  1  0  0  0
  7 29  1  0  0  0
  8  9  1  0  0  0
  8 22  1  0  0  0
  9 10  1  0  0  0
  9 27  2  0  0  0
 10 11  2  0  0  0
 10 15  1  0  0  0
 11 12  1  0  0  0
 11 92  1  0  0  0
 12 13  2  0  0  0
 12 93  1  0  0  0
 13 14  1  0  0  0
 13 31  1  0  0  0
 14 15  2  0  0  0
 14 94  1  0  0  0
 15 95  1  0  0  0
 16 17  2  0  0  0
 16 21  1  0  0  0
 16 31  1  0  0  0
 17 18  1  0  0  0
 17 96  1  0  0  0
 18 19  2  0  0  0
 18 97  1  0  0  0
 19 20  1  0  0  0
 19 24  1  0  0  0
 20 21  2  0  0  0
 20 98  1  0  0  0
 21 23  1  0  0  0
 22 28  1  0  0  0
 22 32  2  0  0  0
 26 27  1  0  0  0
 28 99  1  0  0  0
 28100  1  0  0  0
 29101  1  0  0  0
 29102  1  0  0  0
 33 34  1  0  0  0
 33 66  1  0  0  0
 33 70  2  0  0  0
 34 36  1  0  0  0
 34 59  1  0  0  0
 34103  1  0  0  0
 35 44  2  0  0  0
 35 45  1  0  0  0
 35 68  1  0  0  0
 36 56  1  0  0  0
 36104  1  0  0  0
 37 39  1  0  0  0
 37 47  1  0  0  0
 37 66  1  0  0  0
 37105  1  0  0  0
 38 43  2  0  0  0
 38 46  1  0  0  0
 38 47  1  0  0  0
 39 64  1  0  0  0
 39 67  2  0  0  0
 40 52  1  0  0  0
 40 53  2  0  0  0
 40 58  1  0  0  0
 41106  1  0  0  0
 41107  1  0  0  0
 41108  1  0  0  0
 41 48  1  0  0  0
 42 43  1  0  0  0
 42 66  1  0  0  0
 42109  1  0  0  0
 42110  1  0  0  0
 43 44  1  0  0  0
 44111  1  0  0  0
 45 46  2  0  0  0
 45112  1  0  0  0
 46113  1  0  0  0
 47114  1  0  0  0
 47115  1  0  0  0
 48 56  1  0  0  0
 48 65  1  0  0  0
 48116  1  0  0  0
 49 50  1  0  0  0
 49 53  1  0  0  0
 49 64  1  0  0  0
 49117  1  0  0  0
 50 51  1  0  0  0
 50118  1  0  0  0
 50119  1  0  0  0
 51 52  1  0  0  0
 51120  1  0  0  0
 51121  1  0  0  0
 52122  1  0  0  0
 52123  1  0  0  0
 53 54  1  0  0  0
 54 55  2  0  0  0
 54124  1  0  0  0
 55 57  1  0  0  0
 55125  1  0  0  0
 56 69  2  0  0  0
 57 58  2  0  0  0
 57126  1  0  0  0
 58127  1  0  0  0
 59 60  1  0  0  0
 59 61  1  0  0  0
 59 62  1  0  0  0
 60128  1  0  0  0
 60129  1  0  0  0
 60130  1  0  0  0
 61131  1  0  0  0
 61132  1  0  0  0
 61133  1  0  0  0
 62134  1  0  0  0
 62135  1  0  0  0
 62136  1  0  0  0
 63 65  1  0  0  0
 63137  1  0  0  0
 63138  1  0  0  0
 63139  1  0  0  0
 64140  1  0  0  0
 65141  1  0  0  0
 68 78  1  0  0  0
 71 72  1  0  0  0
 71 73  2  0  0  0
 71142  1  0  0  0
 72 74  1  0  0  0
 72 80  2  0  0  0
 73 81  1  0  0  0
 73 82  1  0  0  0
 74 75  2  0  0  0
 74143  1  0  0  0
 75144  1  0  0  0
 76 81  1  0  0  0
 76145  1  0  0  0
 76146  1  0  0  0
 76147  1  0  0  0
 77 78  1  0  0  0
 77 79  1  0  0  0
 77148  1  0  0  0
 77149  1  0  0  0
 78150  1  0  0  0
 78151  1  0  0  0
 79 82  1  0  0  0
 79152  1  0  0  0
 79153  1  0  0  0
 80 81  1  0  0  0
M  ISO  4   1 100  68 101  75 100  78 101
M  END
> <chiral flag>
0

> <version>
0

> <s_m_source_file>
/data/baiqing/PycharmProjects/Reinvent-master-3.2/result/LINK_invent/BTK/process_docking_weight1_custom_product_contain_oxygen_bond_distance_aromatic_linkinvent_7_9_3/rearranged_h_0118.sdf

> <i_m_source_file_index>
67

> <r_mmod_Potential_Energy-OPLS-2005>
-95.9918746948242

> <r_mmod_Stretch_Energy-OPLS-2005>
42.812915802002

> <r_mmod_Bend_Energy-OPLS-2005>
101.684501647949

> <r_mmod_Torsional_Energy-OPLS-2005>
218.842514038086

> <r_mmod_Improper_Torsional_Energy-OPLS-2005>
7.24878263473511

> <r_mmod_Van_der_Waal_Energy-OPLS-2005>
126.482627868652

> <r_mmod_Electrostatic_Energy-OPLS-2005>
-421.852844238281

> <r_mmod_Solvation_Energy-OPLS-2005>
-195.715759277344

> <b_mmod_Minimization_Converged-OPLS-2005>
0

> <r_mmod_RMS_Derivative-OPLS-2005>
1.69970726966858

$$$$
68
                    3D
 Structure written by MMmdl.
155163  0  0  1  0            999 V2000
  -30.5148  -14.9215   20.4447 C   0  0  0  0  0  0
  -30.4548  -12.5692   19.4972 C   0  0  0  0  0  0
  -29.5285  -12.5389   18.2571 C   0  0  0  0  0  0
  -28.0588  -12.3254   18.6697 C   0  0  0  0  0  0
  -27.6405  -13.2394   19.8504 C   0  0  2  0  0  0
  -28.6838  -13.2172   20.9895 C   0  0  0  0  0  0
  -25.2488  -13.8172   20.5643 C   0  0  0  0  0  0
  -24.1804  -13.0425   20.9218 C   0  0  0  0  0  0
  -24.6413  -11.6910   20.8762 C   0  0  0  0  0  0
  -23.9087  -10.4286   21.0412 C   0  0  0  0  0  0
  -24.3628   -9.4201   21.9191 C   0  0  0  0  0  0
  -23.6295   -8.2242   22.0763 C   0  0  0  0  0  0
  -22.4279   -8.0285   21.3548 C   0  0  0  0  0  0
  -21.9923   -9.0259   20.4645 C   0  0  0  0  0  0
  -22.7260  -10.2133   20.3055 C   0  0  0  0  0  0
  -21.6853   -6.0736   22.5281 C   0  0  0  0  0  0
  -21.4012   -6.5639   23.8214 C   0  0  0  0  0  0
  -21.3659   -5.6792   24.9176 C   0  0  0  0  0  0
  -21.6045   -4.3055   24.7226 C   0  0  0  0  0  0
  -21.8820   -3.8148   23.4345 C   0  0  0  0  0  0
  -21.9195   -4.6965   22.3402 C   0  0  0  0  0  0
  -22.7824  -13.5213   21.1874 C   0  0  0  0  0  0
  -22.1664   -4.2151   21.0980 F   0  0  0  0  0  0
  -21.5628   -3.4539   25.7737 F   0  0  0  0  0  0
  -29.9691  -13.6399   20.4113 N   0  0  0  0  0  0
  -26.2938  -12.9405   20.3267 N   0  0  0  0  0  0
  -25.9351  -11.6545   20.5762 N   0  0  0  0  0  0
  -22.0471  -12.8206   22.0432 N   0  0  0  0  0  0
  -25.4107  -15.1873   20.3913 N   0  0  0  0  0  0
  -31.6930  -15.0605   20.0962 O   0  0  0  0  0  0
  -21.6639   -6.8885   21.4245 O   0  0  0  0  0  0
  -22.3506  -14.5518   20.6717 O   0  0  0  0  0  0
  -24.6441  -31.8446   23.1896 C   0  0  0  0  0  0
  -25.9214  -32.4698   23.8283 C   0  0  1  0  0  0
  -27.2193  -27.1395   20.1454 C   0  0  0  0  0  0
  -25.5962  -33.8503   24.2198 N   0  0  0  0  0  0
  -23.4476  -30.4654   21.5359 C   0  0  2  0  0  0
  -24.8975  -28.8962   20.1112 C   0  0  0  0  0  0
  -22.7570  -29.4551   22.4865 C   0  0  0  0  0  0
  -18.0302  -28.1400   22.8476 C   0  0  0  0  0  0
  -24.1491  -36.7252   23.2645 C   0  0  0  0  0  0
  -26.0050  -30.7191   21.3894 C   0  0  0  0  0  0
  -26.0769  -29.3317   20.7288 C   0  0  0  0  0  0
  -27.2393  -28.4707   20.7284 C   0  0  0  0  0  0
  -26.0108  -26.8102   19.4882 C   0  0  0  0  0  0
  -24.8777  -27.6483   19.4755 C   0  0  0  0  0  0
  -23.6741  -29.7976   20.1549 C   0  0  0  0  0  0
  -25.4124  -36.3032   24.0317 C   0  0  1  0  0  0
  -20.5916  -28.3726   23.1232 C   0  0  2  0  0  0
  -20.6787  -26.9429   22.5403 C   0  0  0  0  0  0
  -19.5762  -26.6385   21.5211 C   0  0  0  0  0  0
  -18.1941  -26.7940   22.1619 C   0  0  0  0  0  0
  -19.1560  -28.8881   23.2846 C   0  0  0  0  0  0
  -18.9476  -30.1477   23.8874 C   0  0  0  0  0  0
  -17.6471  -30.6596   24.0560 C   0  0  0  0  0  0
  -25.9074  -34.9407   23.5063 C   0  0  0  0  0  0
  -16.5362  -29.9088   23.6341 C   0  0  0  0  0  0
  -16.7286  -28.6506   23.0361 C   0  0  0  0  0  0
  -26.4534  -31.6567   25.0725 C   0  0  0  0  0  0
  -25.3716  -31.3752   26.1417 C   0  0  0  0  0  0
  -27.0408  -30.2965   24.6314 C   0  0  0  0  0  0
  -27.6064  -32.4337   25.7506 C   0  0  0  0  0  0
  -27.5574  -37.1786   24.8469 C   0  0  0  0  0  0
  -21.4262  -29.3050   22.3607 N   0  0  0  0  0  0
  -26.4288  -37.3745   23.9405 N   0  0  0  0  0  0
  -24.7188  -31.0303   22.0934 N   0  0  0  0  0  0
  -23.4209  -28.8096   23.3016 O   0  0  0  0  0  0
  -28.2631  -26.1415   20.2127 O   0  0  0  0  0  0
  -26.5653  -34.8904   22.4639 O   0  0  0  0  0  0
  -23.5559  -32.1319   23.7116 O   0  0  0  0  0  0
  -30.0870  -19.9200   19.8391 C   0  0  0  0  0  0
  -30.3514  -18.4787   19.9202 C   0  0  0  0  0  0
  -28.2441  -19.6457   21.2723 C   0  0  0  0  0  0
  -28.4897  -18.2174   21.3669 C   0  0  0  0  0  0
  -28.9945  -20.5875   20.5029 C   0  0  0  0  0  0
  -29.5580  -17.5366   20.6734 C   0  0  0  0  0  0
  -25.4020  -17.9691   23.4775 C   0  0  0  0  0  0
  -26.1268  -17.8911   22.3509 C   0  0  0  0  0  0
  -28.9419  -23.3589   20.2720 C   0  0  0  0  0  0
  -27.5663  -17.4131   22.2876 C   0  0  0  0  0  0
  -27.8968  -24.6327   20.0796 C   0  0  0  0  0  0
  -28.4707  -22.0256   20.3719 N   0  0  0  0  0  0
  -29.6558  -16.0036   20.7517 N   0  0  0  0  0  0
  -30.1529  -23.5926   20.3109 O   0  0  0  0  0  0
  -31.4870  -12.7409   19.1879 H   0  0  0  0  0  0
  -30.4534  -11.6035   20.0050 H   0  0  0  0  0  0
  -29.8433  -11.7539   17.5680 H   0  0  0  0  0  0
  -29.6201  -13.4793   17.7114 H   0  0  0  0  0  0
  -27.9457  -11.2794   18.9576 H   0  0  0  0  0  0
  -27.3976  -12.4790   17.8158 H   0  0  0  0  0  0
  -27.6185  -14.2523   19.4482 H   0  0  0  0  0  0
  -28.7628  -12.2206   21.4266 H   0  0  0  0  0  0
  -28.3833  -13.8798   21.8022 H   0  0  0  0  0  0
  -25.2770   -9.5671   22.4770 H   0  0  0  0  0  0
  -23.9993   -7.4631   22.7485 H   0  0  0  0  0  0
  -21.0860   -8.8780   19.8943 H   0  0  0  0  0  0
  -22.3727  -10.9672   19.6159 H   0  0  0  0  0  0
  -21.2000   -7.6146   23.9716 H   0  0  0  0  0  0
  -21.1481   -6.0522   25.9078 H   0  0  0  0  0  0
  -22.0598   -2.7609   23.2846 H   0  0  0  0  0  0
  -22.4092  -11.9870   22.4823 H   0  0  0  0  0  0
  -21.1090  -13.1233   22.2643 H   0  0  0  0  0  0
  -24.6359  -15.8305   20.5058 H   0  0  0  0  0  0
  -26.2360  -15.6270   20.0074 H   0  0  0  0  0  0
  -26.7280  -32.5305   23.1012 H   0  0  0  0  0  0
  -25.0106  -33.9620   25.0343 H   0  0  0  0  0  0
  -22.7503  -31.2916   21.3829 H   0  0  0  0  0  0
  -23.3758  -35.9580   23.3306 H   0  0  0  0  0  0
  -24.3571  -36.8884   22.2060 H   0  0  0  0  0  0
  -23.7243  -37.6446   23.6681 H   0  0  0  0  0  0
  -26.1627  -31.4747   20.6185 H   0  0  0  0  0  0
  -26.8744  -30.7670   22.0336 H   0  0  0  0  0  0
  -28.1365  -28.8001   21.2334 H   0  0  0  0  0  0
  -25.8951  -25.8621   18.9879 H   0  0  0  0  0  0
  -23.9786  -27.3096   18.9787 H   0  0  0  0  0  0
  -23.8109  -30.5734   19.4007 H   0  0  0  0  0  0
  -22.7888  -29.2403   19.8431 H   0  0  0  0  0  0
  -25.1314  -36.1864   25.0810 H   0  0  0  0  0  0
  -21.0003  -28.3319   24.1355 H   0  0  0  0  0  0
  -20.5682  -26.2340   23.3622 H   0  0  0  0  0  0
  -21.6653  -26.7436   22.1200 H   0  0  0  0  0  0
  -19.6921  -25.6289   21.1259 H   0  0  0  0  0  0
  -19.6700  -27.3181   20.6728 H   0  0  0  0  0  0
  -17.4210  -26.6688   21.4022 H   0  0  0  0  0  0
  -18.0336  -26.0088   22.9020 H   0  0  0  0  0  0
  -19.7951  -30.7302   24.2234 H   0  0  0  0  0  0
  -17.5024  -31.6274   24.5168 H   0  0  0  0  0  0
  -15.5363  -30.2980   23.7683 H   0  0  0  0  0  0
  -15.8685  -28.0817   22.7093 H   0  0  0  0  0  0
  -24.5922  -30.7068   25.7739 H   0  0  0  0  0  0
  -24.8872  -32.2927   26.4766 H   0  0  0  0  0  0
  -25.8001  -30.8986   27.0242 H   0  0  0  0  0  0
  -26.3033  -29.6680   24.1310 H   0  0  0  0  0  0
  -27.4009  -29.7274   25.4894 H   0  0  0  0  0  0
  -27.8944  -30.4203   23.9646 H   0  0  0  0  0  0
  -27.2667  -33.3671   26.2007 H   0  0  0  0  0  0
  -28.3913  -32.6843   25.0356 H   0  0  0  0  0  0
  -28.0691  -31.8511   26.5484 H   0  0  0  0  0  0
  -28.2593  -38.0080   24.7503 H   0  0  0  0  0  0
  -28.1068  -36.2607   24.6314 H   0  0  0  0  0  0
  -27.2286  -37.1455   25.8872 H   0  0  0  0  0  0
  -20.9475  -29.8761   21.6781 H   0  0  0  0  0  0
  -26.0156  -38.2815   24.1407 H   0  0  0  0  0  0
  -30.7282  -20.5125   19.2019 H   0  0  0  0  0  0
  -31.1807  -18.0909   19.3458 H   0  0  0  0  0  0
  -27.4085  -20.0498   21.8252 H   0  0  0  0  0  0
  -24.3759  -18.3083   23.4574 H   0  0  0  0  0  0
  -25.8189  -17.6964   24.4367 H   0  0  0  0  0  0
  -25.6698  -18.1614   21.4087 H   0  0  0  0  0  0
  -27.9973  -17.4047   23.2897 H   0  0  0  0  0  0
  -27.5095  -16.3736   21.9723 H   0  0  0  0  0  0
  -27.0574  -24.4441   20.7499 H   0  0  0  0  0  0
  -27.5141  -24.4890   19.0698 H   0  0  0  0  0  0
  -27.4612  -22.0492   20.4255 H   0  0  0  0  0  0
  -28.7981  -15.6110   21.1056 H   0  0  0  0  0  0
  1 25  1  0  0  0
  1 30  2  0  0  0
  1 83  1  0  0  0
  2  3  1  0  0  0
  2 25  1  0  0  0
  2 85  1  0  0  0
  2 86  1  0  0  0
  3  4  1  0  0  0
  3 87  1  0  0  0
  3 88  1  0  0  0
  4  5  1  0  0  0
  4 89  1  0  0  0
  4 90  1  0  0  0
  5  6  1  0  0  0
  5 26  1  0  0  0
  5 91  1  0  0  0
  6 25  1  0  0  0
  6 92  1  0  0  0
  6 93  1  0  0  0
  7  8  2  0  0  0
  7 26  1  0  0  0
  7 29  1  0  0  0
  8  9  1  0  0  0
  8 22  1  0  0  0
  9 10  1  0  0  0
  9 27  2  0  0  0
 10 11  2  0  0  0
 10 15  1  0  0  0
 11 12  1  0  0  0
 11 94  1  0  0  0
 12 13  2  0  0  0
 12 95  1  0  0  0
 13 14  1  0  0  0
 13 31  1  0  0  0
 14 15  2  0  0  0
 14 96  1  0  0  0
 15 97  1  0  0  0
 16 17  2  0  0  0
 16 21  1  0  0  0
 16 31  1  0  0  0
 17 18  1  0  0  0
 17 98  1  0  0  0
 18 19  2  0  0  0
 18 99  1  0  0  0
 19 20  1  0  0  0
 19 24  1  0  0  0
 20 21  2  0  0  0
 20100  1  0  0  0
 21 23  1  0  0  0
 22 28  1  0  0  0
 22 32  2  0  0  0
 26 27  1  0  0  0
 28101  1  0  0  0
 28102  1  0  0  0
 29103  1  0  0  0
 29104  1  0  0  0
 33 34  1  0  0  0
 33 66  1  0  0  0
 33 70  2  0  0  0
 34 36  1  0  0  0
 34 59  1  0  0  0
 34105  1  0  0  0
 35 44  2  0  0  0
 35 45  1  0  0  0
 35 68  1  0  0  0
 36 56  1  0  0  0
 36106  1  0  0  0
 37 39  1  0  0  0
 37 47  1  0  0  0
 37 66  1  0  0  0
 37107  1  0  0  0
 38 43  2  0  0  0
 38 46  1  0  0  0
 38 47  1  0  0  0
 39 64  1  0  0  0
 39 67  2  0  0  0
 40 52  1  0  0  0
 40 53  2  0  0  0
 40 58  1  0  0  0
 41108  1  0  0  0
 41109  1  0  0  0
 41110  1  0  0  0
 41 48  1  0  0  0
 42 43  1  0  0  0
 42 66  1  0  0  0
 42111  1  0  0  0
 42112  1  0  0  0
 43 44  1  0  0  0
 44113  1  0  0  0
 45 46  2  0  0  0
 45114  1  0  0  0
 46115  1  0  0  0
 47116  1  0  0  0
 47117  1  0  0  0
 48 56  1  0  0  0
 48 65  1  0  0  0
 48118  1  0  0  0
 49 50  1  0  0  0
 49 53  1  0  0  0
 49 64  1  0  0  0
 49119  1  0  0  0
 50 51  1  0  0  0
 50120  1  0  0  0
 50121  1  0  0  0
 51 52  1  0  0  0
 51122  1  0  0  0
 51123  1  0  0  0
 52124  1  0  0  0
 52125  1  0  0  0
 53 54  1  0  0  0
 54 55  2  0  0  0
 54126  1  0  0  0
 55 57  1  0  0  0
 55127  1  0  0  0
 56 69  2  0  0  0
 57 58  2  0  0  0
 57128  1  0  0  0
 58129  1  0  0  0
 59 60  1  0  0  0
 59 61  1  0  0  0
 59 62  1  0  0  0
 60130  1  0  0  0
 60131  1  0  0  0
 60132  1  0  0  0
 61133  1  0  0  0
 61134  1  0  0  0
 61135  1  0  0  0
 62136  1  0  0  0
 62137  1  0  0  0
 62138  1  0  0  0
 63 65  1  0  0  0
 63139  1  0  0  0
 63140  1  0  0  0
 63141  1  0  0  0
 64142  1  0  0  0
 65143  1  0  0  0
 68 81  1  0  0  0
 71 72  2  0  0  0
 71 75  1  0  0  0
 71144  1  0  0  0
 72 76  1  0  0  0
 72145  1  0  0  0
 73 74  1  0  0  0
 73 75  2  0  0  0
 73146  1  0  0  0
 74 76  2  0  0  0
 74 80  1  0  0  0
 75 82  1  0  0  0
 76 83  1  0  0  0
 77 78  2  0  0  0
 77147  1  0  0  0
 77148  1  0  0  0
 78 80  1  0  0  0
 78149  1  0  0  0
 79 81  1  0  0  0
 79 82  1  0  0  0
 79 84  2  0  0  0
 80150  1  0  0  0
 80151  1  0  0  0
 81152  1  0  0  0
 81153  1  0  0  0
 82154  1  0  0  0
 83155  1  0  0  0
M  ISO  4   1 100  68 101  81 101  83 100
M  END
> <chiral flag>
0

> <version>
0

> <s_m_source_file>
/data/baiqing/PycharmProjects/Reinvent-master-3.2/result/LINK_invent/BTK/process_docking_weight1_custom_product_contain_oxygen_bond_distance_aromatic_linkinvent_7_9_3/rearranged_h_0118.sdf

> <i_m_source_file_index>
68

> <r_mmod_Potential_Energy-OPLS-2005>
434.244934082031

> <r_mmod_Stretch_Energy-OPLS-2005>
225.085052490234

> <r_mmod_Bend_Energy-OPLS-2005>
276.789520263672

> <r_mmod_Torsional_Energy-OPLS-2005>
238.248779296875

> <r_mmod_Improper_Torsional_Energy-OPLS-2005>
4.23437690734863

> <r_mmod_Van_der_Waal_Energy-OPLS-2005>
131.575302124023

> <r_mmod_Electrostatic_Energy-OPLS-2005>
-379.513122558594

> <r_mmod_Solvation_Energy-OPLS-2005>
-245.084915161133

> <b_mmod_Minimization_Converged-OPLS-2005>
0

> <r_mmod_RMS_Derivative-OPLS-2005>
0.489227116107941

$$$$
69
                    3D
 Structure written by MMmdl.
157166  0  0  1  0            999 V2000
  -30.6283  -14.6369   20.5700 C   0  0  0  0  0  0
  -30.4384  -12.4095   19.4645 C   0  0  0  0  0  0
  -29.5118  -12.5460   18.2343 C   0  0  0  0  0  0
  -28.0360  -12.3729   18.6363 C   0  0  0  0  0  0
  -27.6586  -13.2227   19.8790 C   0  0  2  0  0  0
  -28.6978  -13.0559   21.0132 C   0  0  0  0  0  0
  -25.2557  -13.8187   20.5682 C   0  0  0  0  0  0
  -24.1821  -13.0453   20.9168 C   0  0  0  0  0  0
  -24.6394  -11.6913   20.8717 C   0  0  0  0  0  0
  -23.9058  -10.4296   21.0400 C   0  0  0  0  0  0
  -24.3602   -9.4215   21.9184 C   0  0  0  0  0  0
  -23.6269   -8.2259   22.0757 C   0  0  0  0  0  0
  -22.4256   -8.0299   21.3544 C   0  0  0  0  0  0
  -21.9892   -9.0272   20.4654 C   0  0  0  0  0  0
  -22.7217  -10.2143   20.3051 C   0  0  0  0  0  0
  -21.6873   -6.0731   22.5275 C   0  0  0  0  0  0
  -21.4032   -6.5632   23.8205 C   0  0  0  0  0  0
  -21.3646   -5.6785   24.9172 C   0  0  0  0  0  0
  -21.6042   -4.3053   24.7218 C   0  0  0  0  0  0
  -21.8819   -3.8125   23.4345 C   0  0  0  0  0  0
  -21.9191   -4.6959   22.3403 C   0  0  0  0  0  0
  -22.7843  -13.5259   21.1814 C   0  0  0  0  0  0
  -22.1664   -4.2142   21.0984 F   0  0  0  0  0  0
  -21.5602   -3.4534   25.7731 F   0  0  0  0  0  0
  -30.0196  -13.4099   20.4709 N   0  0  0  0  0  0
  -26.3011  -12.9380   20.3354 N   0  0  0  0  0  0
  -25.9337  -11.6529   20.5757 N   0  0  0  0  0  0
  -22.0479  -12.8280   22.0392 N   0  0  0  0  0  0
  -25.4263  -15.1905   20.4128 N   0  0  0  0  0  0
  -31.7340  -14.8400   20.0572 O   0  0  0  0  0  0
  -21.6629   -6.8887   21.4244 O   0  0  0  0  0  0
  -22.3545  -14.5564   20.6656 O   0  0  0  0  0  0
  -24.6251  -31.8590   23.2011 C   0  0  0  0  0  0
  -25.9094  -32.4784   23.8353 C   0  0  1  0  0  0
  -27.2331  -27.3304   20.1387 C   0  0  0  0  0  0
  -25.5916  -33.8586   24.2285 N   0  0  0  0  0  0
  -23.4204  -30.4792   21.5411 C   0  0  2  0  0  0
  -24.8707  -28.9261   20.1183 C   0  0  0  0  0  0
  -22.7473  -29.4617   22.4921 C   0  0  0  0  0  0
  -18.0288  -28.1384   22.8469 C   0  0  0  0  0  0
  -24.1487  -36.7305   23.2641 C   0  0  0  0  0  0
  -25.9574  -30.7972   21.3664 C   0  0  0  0  0  0
  -26.0373  -29.4213   20.7175 C   0  0  0  0  0  0
  -27.2256  -28.6370   20.7113 C   0  0  0  0  0  0
  -26.0480  -26.8711   19.5305 C   0  0  0  0  0  0
  -24.8770  -27.6560   19.5156 C   0  0  0  0  0  0
  -23.6384  -29.8074   20.1585 C   0  0  0  0  0  0
  -25.4112  -36.3096   24.0334 C   0  0  1  0  0  0
  -20.5881  -28.3694   23.1268 C   0  0  2  0  0  0
  -20.6778  -26.9418   22.5396 C   0  0  0  0  0  0
  -19.5759  -26.6378   21.5196 C   0  0  0  0  0  0
  -18.1937  -26.7930   22.1610 C   0  0  0  0  0  0
  -19.1538  -28.8858   23.2870 C   0  0  0  0  0  0
  -18.9467  -30.1452   23.8900 C   0  0  0  0  0  0
  -17.6471  -30.6586   24.0556 C   0  0  0  0  0  0
  -25.9047  -34.9459   23.5112 C   0  0  0  0  0  0
  -16.5363  -29.9092   23.6318 C   0  0  0  0  0  0
  -16.7269  -28.6508   23.0343 C   0  0  0  0  0  0
  -26.4493  -31.6603   25.0722 C   0  0  0  0  0  0
  -25.3740  -31.3743   26.1464 C   0  0  0  0  0  0
  -27.0342  -30.3038   24.6159 C   0  0  0  0  0  0
  -27.6052  -32.4342   25.7494 C   0  0  0  0  0  0
  -27.5581  -37.1812   24.8464 C   0  0  0  0  0  0
  -21.4183  -29.3050   22.3663 N   0  0  0  0  0  0
  -26.4296  -37.3784   23.9403 N   0  0  0  0  0  0
  -24.6861  -31.0621   22.0943 N   0  0  0  0  0  0
  -23.4196  -28.8159   23.3011 O   0  0  0  0  0  0
  -28.3600  -26.5074   20.1299 O   0  0  0  0  0  0
  -26.5606  -34.8926   22.4676 O   0  0  0  0  0  0
  -23.5411  -32.1377   23.7345 O   0  0  0  0  0  0
  -29.7042  -19.4038   21.8501 C   0  0  0  0  0  0
  -29.9982  -18.0178   22.0249 C   0  0  0  0  0  0
  -29.3637  -17.5852   19.7417 C   0  0  0  0  0  0
  -28.3418  -20.9930   18.8308 C   0  0  0  0  0  0
  -29.0302  -18.9650   19.5431 C   0  0  0  0  0  0
  -28.4727  -19.6832   18.4387 C   0  0  0  0  0  0
  -29.2024  -19.8971   20.6202 C   0  0  0  0  0  0
  -29.8360  -17.0675   20.9759 C   0  0  0  0  0  0
  -28.0686  -19.0948   17.1212 C   0  0  0  0  0  0
  -28.4699  -23.8396   20.0304 C   0  0  0  0  0  0
  -28.6266  -22.4862   20.8813 C   0  0  0  0  0  0
  -28.2896  -25.2084   20.8313 C   0  0  0  0  0  0
  -28.7594  -21.1729   20.1483 N   0  0  0  0  0  0
  -29.9400  -15.6279   21.2252 N   0  0  0  0  0  0
  -31.4809  -12.5358   19.1665 H   0  0  0  0  0  0
  -30.3712  -11.4062   19.8870 H   0  0  0  0  0  0
  -29.7756  -11.8160   17.4697 H   0  0  0  0  0  0
  -29.6531  -13.5265   17.7777 H   0  0  0  0  0  0
  -27.8690  -11.3165   18.8449 H   0  0  0  0  0  0
  -27.3854  -12.6274   17.7977 H   0  0  0  0  0  0
  -27.6853  -14.2640   19.5617 H   0  0  0  0  0  0
  -28.7107  -12.0263   21.3709 H   0  0  0  0  0  0
  -28.4284  -13.6625   21.8793 H   0  0  0  0  0  0
  -25.2771   -9.5672   22.4736 H   0  0  0  0  0  0
  -23.9982   -7.4638   22.7465 H   0  0  0  0  0  0
  -21.0808   -8.8783   19.8964 H   0  0  0  0  0  0
  -22.3682  -10.9674   19.6131 H   0  0  0  0  0  0
  -21.2057   -7.6142   23.9722 H   0  0  0  0  0  0
  -21.1458   -6.0511   25.9074 H   0  0  0  0  0  0
  -22.0603   -2.7591   23.2854 H   0  0  0  0  0  0
  -22.4108  -11.9959   22.4819 H   0  0  0  0  0  0
  -21.1093  -13.1311   22.2565 H   0  0  0  0  0  0
  -24.6615  -15.8471   20.5230 H   0  0  0  0  0  0
  -26.2881  -15.6325   20.1175 H   0  0  0  0  0  0
  -26.7167  -32.5475   23.1115 H   0  0  0  0  0  0
  -25.0102  -33.9739   25.0455 H   0  0  0  0  0  0
  -22.7147  -31.2991   21.3926 H   0  0  0  0  0  0
  -23.3741  -35.9648   23.3320 H   0  0  0  0  0  0
  -24.3568  -36.8902   22.2050 H   0  0  0  0  0  0
  -23.7253  -37.6520   23.6645 H   0  0  0  0  0  0
  -26.0806  -31.5555   20.5913 H   0  0  0  0  0  0
  -26.8401  -30.8540   21.9923 H   0  0  0  0  0  0
  -28.1283  -29.0182   21.1684 H   0  0  0  0  0  0
  -26.0287  -25.8929   19.0709 H   0  0  0  0  0  0
  -23.9833  -27.2687   19.0462 H   0  0  0  0  0  0
  -23.7652  -30.5808   19.3991 H   0  0  0  0  0  0
  -22.7590  -29.2370   19.8539 H   0  0  0  0  0  0
  -25.1285  -36.1958   25.0824 H   0  0  0  0  0  0
  -20.9969  -28.3275   24.1395 H   0  0  0  0  0  0
  -20.5662  -26.2316   23.3601 H   0  0  0  0  0  0
  -21.6655  -26.7441   22.1210 H   0  0  0  0  0  0
  -19.6928  -25.6283   21.1251 H   0  0  0  0  0  0
  -19.6701  -27.3165   20.6709 H   0  0  0  0  0  0
  -17.4201  -26.6655   21.4015 H   0  0  0  0  0  0
  -18.0350  -26.0069   22.9006 H   0  0  0  0  0  0
  -19.7950  -30.7246   24.2295 H   0  0  0  0  0  0
  -17.5036  -31.6272   24.5156 H   0  0  0  0  0  0
  -15.5362  -30.3007   23.7637 H   0  0  0  0  0  0
  -15.8671  -28.0824   22.7069 H   0  0  0  0  0  0
  -24.5870  -30.7145   25.7794 H   0  0  0  0  0  0
  -24.8997  -32.2920   26.4950 H   0  0  0  0  0  0
  -25.8069  -30.8865   27.0206 H   0  0  0  0  0  0
  -26.2913  -29.6779   24.1202 H   0  0  0  0  0  0
  -27.4079  -29.7302   25.4650 H   0  0  0  0  0  0
  -27.8758  -30.4346   23.9354 H   0  0  0  0  0  0
  -27.2653  -33.3625   26.2100 H   0  0  0  0  0  0
  -28.3852  -32.6930   25.0321 H   0  0  0  0  0  0
  -28.0737  -31.8459   26.5396 H   0  0  0  0  0  0
  -28.2610  -38.0097   24.7482 H   0  0  0  0  0  0
  -28.1061  -36.2623   24.6313 H   0  0  0  0  0  0
  -27.2295  -37.1496   25.8868 H   0  0  0  0  0  0
  -20.9366  -29.8796   21.6884 H   0  0  0  0  0  0
  -26.0179  -38.2866   24.1376 H   0  0  0  0  0  0
  -29.8280  -20.0871   22.6789 H   0  0  0  0  0  0
  -30.3298  -17.6841   23.0007 H   0  0  0  0  0  0
  -29.1832  -16.9035   18.9235 H   0  0  0  0  0  0
  -27.9389  -21.8180   18.2582 H   0  0  0  0  0  0
  -28.0981  -19.8310   16.3179 H   0  0  0  0  0  0
  -27.0534  -18.6966   17.1679 H   0  0  0  0  0  0
  -28.7277  -18.2728   16.8406 H   0  0  0  0  0  0
  -27.6049  -23.7468   19.3719 H   0  0  0  0  0  0
  -29.3399  -23.9364   19.3793 H   0  0  0  0  0  0
  -27.7528  -22.3920   21.5295 H   0  0  0  0  0  0
  -29.4799  -22.5776   21.5547 H   0  0  0  0  0  0
  -29.0950  -25.2485   21.5667 H   0  0  0  0  0  0
  -27.3780  -25.1538   21.4287 H   0  0  0  0  0  0
  -29.2199  -15.2630   21.8313 H   0  0  0  0  0  0
  1 25  1  0  0  0
  1 30  2  0  0  0
  1 84  1  0  0  0
  2  3  1  0  0  0
  2 25  1  0  0  0
  2 85  1  0  0  0
  2 86  1  0  0  0
  3  4  1  0  0  0
  3 87  1  0  0  0
  3 88  1  0  0  0
  4  5  1  0  0  0
  4 89  1  0  0  0
  4 90  1  0  0  0
  5  6  1  0  0  0
  5 26  1  0  0  0
  5 91  1  0  0  0
  6 25  1  0  0  0
  6 92  1  0  0  0
  6 93  1  0  0  0
  7  8  2  0  0  0
  7 26  1  0  0  0
  7 29  1  0  0  0
  8  9  1  0  0  0
  8 22  1  0  0  0
  9 10  1  0  0  0
  9 27  2  0  0  0
 10 11  2  0  0  0
 10 15  1  0  0  0
 11 12  1  0  0  0
 11 94  1  0  0  0
 12 13  2  0  0  0
 12 95  1  0  0  0
 13 14  1  0  0  0
 13 31  1  0  0  0
 14 15  2  0  0  0
 14 96  1  0  0  0
 15 97  1  0  0  0
 16 17  2  0  0  0
 16 21  1  0  0  0
 16 31  1  0  0  0
 17 18  1  0  0  0
 17 98  1  0  0  0
 18 19  2  0  0  0
 18 99  1  0  0  0
 19 20  1  0  0  0
 19 24  1  0  0  0
 20 21  2  0  0  0
 20100  1  0  0  0
 21 23  1  0  0  0
 22 28  1  0  0  0
 22 32  2  0  0  0
 26 27  1  0  0  0
 28101  1  0  0  0
 28102  1  0  0  0
 29103  1  0  0  0
 29104  1  0  0  0
 33 34  1  0  0  0
 33 66  1  0  0  0
 33 70  2  0  0  0
 34 36  1  0  0  0
 34 59  1  0  0  0
 34105  1  0  0  0
 35 44  2  0  0  0
 35 45  1  0  0  0
 35 68  1  0  0  0
 36 56  1  0  0  0
 36106  1  0  0  0
 37 39  1  0  0  0
 37 47  1  0  0  0
 37 66  1  0  0  0
 37107  1  0  0  0
 38 43  2  0  0  0
 38 46  1  0  0  0
 38 47  1  0  0  0
 39 64  1  0  0  0
 39 67  2  0  0  0
 40 52  1  0  0  0
 40 53  2  0  0  0
 40 58  1  0  0  0
 41108  1  0  0  0
 41109  1  0  0  0
 41110  1  0  0  0
 41 48  1  0  0  0
 42 43  1  0  0  0
 42 66  1  0  0  0
 42111  1  0  0  0
 42112  1  0  0  0
 43 44  1  0  0  0
 44113  1  0  0  0
 45 46  2  0  0  0
 45114  1  0  0  0
 46115  1  0  0  0
 47116  1  0  0  0
 47117  1  0  0  0
 48 56  1  0  0  0
 48 65  1  0  0  0
 48118  1  0  0  0
 49 50  1  0  0  0
 49 53  1  0  0  0
 49 64  1  0  0  0
 49119  1  0  0  0
 50 51  1  0  0  0
 50120  1  0  0  0
 50121  1  0  0  0
 51 52  1  0  0  0
 51122  1  0  0  0
 51123  1  0  0  0
 52124  1  0  0  0
 52125  1  0  0  0
 53 54  1  0  0  0
 54 55  2  0  0  0
 54126  1  0  0  0
 55 57  1  0  0  0
 55127  1  0  0  0
 56 69  2  0  0  0
 57 58  2  0  0  0
 57128  1  0  0  0
 58129  1  0  0  0
 59 60  1  0  0  0
 59 61  1  0  0  0
 59 62  1  0  0  0
 60130  1  0  0  0
 60131  1  0  0  0
 60132  1  0  0  0
 61133  1  0  0  0
 61134  1  0  0  0
 61135  1  0  0  0
 62136  1  0  0  0
 62137  1  0  0  0
 62138  1  0  0  0
 63 65  1  0  0  0
 63139  1  0  0  0
 63140  1  0  0  0
 63141  1  0  0  0
 64142  1  0  0  0
 65143  1  0  0  0
 68 82  1  0  0  0
 71 72  2  0  0  0
 71 77  1  0  0  0
 71144  1  0  0  0
 72 78  1  0  0  0
 72145  1  0  0  0
 73 75  1  0  0  0
 73 78  2  0  0  0
 73146  1  0  0  0
 74 76  2  0  0  0
 74 83  1  0  0  0
 74147  1  0  0  0
 75 76  1  0  0  0
 75 77  2  0  0  0
 76 79  1  0  0  0
 77 83  1  0  0  0
 78 84  1  0  0  0
 79148  1  0  0  0
 79149  1  0  0  0
 79150  1  0  0  0
 80 81  1  0  0  0
 80 82  1  0  0  0
 80151  1  0  0  0
 80152  1  0  0  0
 81 83  1  0  0  0
 81153  1  0  0  0
 81154  1  0  0  0
 82155  1  0  0  0
 82156  1  0  0  0
 84157  1  0  0  0
M  ISO  4   1 100  68 101  82 101  84 100
M  END
> <chiral flag>
0

> <version>
0

> <s_m_source_file>
/data/baiqing/PycharmProjects/Reinvent-master-3.2/result/LINK_invent/BTK/process_docking_weight1_custom_product_contain_oxygen_bond_distance_aromatic_linkinvent_7_9_3/rearranged_h_0118.sdf

> <i_m_source_file_index>
69

> <r_mmod_Potential_Energy-OPLS-2005>
109.767150878906

> <r_mmod_Stretch_Energy-OPLS-2005>
80.2262725830078

> <r_mmod_Bend_Energy-OPLS-2005>
132.829574584961

> <r_mmod_Torsional_Energy-OPLS-2005>
269.064178466797

> <r_mmod_Improper_Torsional_Energy-OPLS-2005>
4.3667311668396

> <r_mmod_Van_der_Waal_Energy-OPLS-2005>
125.262077331543

> <r_mmod_Electrostatic_Energy-OPLS-2005>
-333.786895751953

> <r_mmod_Solvation_Energy-OPLS-2005>
-211.762496948242

> <b_mmod_Minimization_Converged-OPLS-2005>
0

> <r_mmod_RMS_Derivative-OPLS-2005>
3.31784296035767

$$$$
70
                    3D
 Structure written by MMmdl.
159167  0  0  1  0            999 V2000
  -30.6934  -14.5883   20.3832 C   0  0  0  0  0  0
  -30.4322  -12.3208   19.4597 C   0  0  0  0  0  0
  -29.5031  -12.3813   18.2271 C   0  0  0  0  0  0
  -28.0183  -12.2860   18.6446 C   0  0  0  0  0  0
  -27.6414  -13.1957   19.8470 C   0  0  2  0  0  0
  -28.7037  -13.1299   20.9677 C   0  0  0  0  0  0
  -25.2517  -13.8032   20.5820 C   0  0  0  0  0  0
  -24.1778  -13.0339   20.9279 C   0  0  0  0  0  0
  -24.6371  -11.6831   20.8848 C   0  0  0  0  0  0
  -23.9041  -10.4245   21.0471 C   0  0  0  0  0  0
  -24.3596   -9.4154   21.9223 C   0  0  0  0  0  0
  -23.6276   -8.2193   22.0765 C   0  0  0  0  0  0
  -22.4260   -8.0267   21.3548 C   0  0  0  0  0  0
  -21.9896   -9.0247   20.4651 C   0  0  0  0  0  0
  -22.7237  -10.2120   20.3081 C   0  0  0  0  0  0
  -21.6835   -6.0744   22.5292 C   0  0  0  0  0  0
  -21.4000   -6.5648   23.8235 C   0  0  0  0  0  0
  -21.3646   -5.6798   24.9192 C   0  0  0  0  0  0
  -21.6035   -4.3062   24.7225 C   0  0  0  0  0  0
  -21.8821   -3.8157   23.4349 C   0  0  0  0  0  0
  -21.9182   -4.6973   22.3409 C   0  0  0  0  0  0
  -22.7796  -13.5173   21.1887 C   0  0  0  0  0  0
  -22.1652   -4.2177   21.0981 F   0  0  0  0  0  0
  -21.5623   -3.4533   25.7726 F   0  0  0  0  0  0
  -30.0256  -13.3944   20.3772 N   0  0  0  0  0  0
  -26.2948  -12.9220   20.3381 N   0  0  0  0  0  0
  -25.9295  -11.6406   20.5875 N   0  0  0  0  0  0
  -22.0397  -12.8220   22.0439 N   0  0  0  0  0  0
  -25.4085  -15.1735   20.4364 N   0  0  0  0  0  0
  -31.9227  -14.6547   20.3306 O   0  0  0  0  0  0
  -21.6617   -6.8881   21.4249 O   0  0  0  0  0  0
  -22.3514  -14.5479   20.6717 O   0  0  0  0  0  0
  -24.6128  -31.8684   23.2097 C   0  0  0  0  0  0
  -25.9056  -32.4822   23.8357 C   0  0  1  0  0  0
  -27.2354  -27.4202   20.1109 C   0  0  0  0  0  0
  -25.5930  -33.8613   24.2305 N   0  0  0  0  0  0
  -23.3981  -30.4944   21.5477 C   0  0  2  0  0  0
  -24.8464  -28.9548   20.1146 C   0  0  0  0  0  0
  -22.7386  -29.4698   22.4986 C   0  0  0  0  0  0
  -18.0286  -28.1394   22.8526 C   0  0  0  0  0  0
  -24.1492  -36.7290   23.2633 C   0  0  0  0  0  0
  -25.9261  -30.8301   21.3612 C   0  0  0  0  0  0
  -26.0034  -29.4607   20.7170 C   0  0  0  0  0  0
  -27.1955  -28.6986   20.7177 C   0  0  0  0  0  0
  -26.0629  -26.9439   19.4775 C   0  0  0  0  0  0
  -24.8710  -27.6965   19.4932 C   0  0  0  0  0  0
  -23.6084  -29.8229   20.1620 C   0  0  0  0  0  0
  -25.4116  -36.3109   24.0345 C   0  0  1  0  0  0
  -20.5864  -28.3668   23.1358 C   0  0  2  0  0  0
  -20.6772  -26.9412   22.5425 C   0  0  0  0  0  0
  -19.5744  -26.6407   21.5223 C   0  0  0  0  0  0
  -18.1919  -26.7950   22.1630 C   0  0  0  0  0  0
  -19.1529  -28.8849   23.2937 C   0  0  0  0  0  0
  -18.9448  -30.1463   23.8935 C   0  0  0  0  0  0
  -17.6456  -30.6600   24.0588 C   0  0  0  0  0  0
  -25.9051  -34.9472   23.5119 C   0  0  0  0  0  0
  -16.5350  -29.9101   23.6328 C   0  0  0  0  0  0
  -16.7266  -28.6526   23.0355 C   0  0  0  0  0  0
  -26.4466  -31.6588   25.0669 C   0  0  0  0  0  0
  -25.3744  -31.3717   26.1433 C   0  0  0  0  0  0
  -27.0249  -30.3026   24.6001 C   0  0  0  0  0  0
  -27.6031  -32.4293   25.7450 C   0  0  0  0  0  0
  -27.5583  -37.1811   24.8485 C   0  0  0  0  0  0
  -21.4120  -29.3055   22.3751 N   0  0  0  0  0  0
  -26.4299  -37.3796   23.9427 N   0  0  0  0  0  0
  -24.6630  -31.0808   22.0976 N   0  0  0  0  0  0
  -23.4173  -28.8250   23.3020 O   0  0  0  0  0  0
  -28.4139  -26.6920   20.1761 O   0  0  0  0  0  0
  -26.5580  -34.8945   22.4659 O   0  0  0  0  0  0
  -23.5345  -32.1424   23.7543 O   0  0  0  0  0  0
  -31.0890  -17.7394   20.8985 C   0  0  0  0  0  0
  -31.1944  -19.1286   21.1727 C   0  0  0  0  0  0
  -28.9352  -19.4422   20.4068 C   0  0  0  0  0  0
  -29.9233  -17.1720   20.3165 C   0  0  0  0  0  0
  -28.8164  -18.0663   20.1221 C   0  0  0  0  0  0
  -30.1270  -20.0112   20.8899 C   0  0  0  0  0  0
  -29.3433  -22.1146   21.5144 C   0  0  0  0  0  0
  -29.9368  -15.7729   19.7215 C   0  0  0  0  0  0
  -29.1481  -23.6262   21.5556 C   0  0  0  0  0  0
  -27.2631  -18.1893   18.1090 C   0  0  0  0  0  0
  -27.4667  -17.6630   19.5399 C   0  0  0  0  0  0
  -29.5850  -24.4836   20.3504 C   0  0  0  0  0  0
  -28.4271  -25.3207   19.7348 C   0  0  0  0  0  0
  -29.4276  -15.6330   18.5696 N   0  0  0  0  0  0
  -30.2766  -21.4127   20.9793 N   0  0  0  0  0  0
  -28.5855  -24.1650   22.5141 O   0  0  0  0  0  0
  -31.4758  -12.4206   19.1552 H   0  0  0  0  0  0
  -30.3491  -11.3537   19.9588 H   0  0  0  0  0  0
  -29.7478  -11.5593   17.5521 H   0  0  0  0  0  0
  -29.6817  -13.2878   17.6523 H   0  0  0  0  0  0
  -27.8401  -11.2445   18.9116 H   0  0  0  0  0  0
  -27.3705  -12.4928   17.7925 H   0  0  0  0  0  0
  -27.6081  -14.2079   19.4654 H   0  0  0  0  0  0
  -28.6978  -12.1502   21.4496 H   0  0  0  0  0  0
  -28.4813  -13.8567   21.7511 H   0  0  0  0  0  0
  -25.2733   -9.5633   22.4816 H   0  0  0  0  0  0
  -23.9983   -7.4574   22.7473 H   0  0  0  0  0  0
  -21.0831   -8.8796   19.8948 H   0  0  0  0  0  0
  -22.3724  -10.9686   19.6207 H   0  0  0  0  0  0
  -21.2003   -7.6159   23.9745 H   0  0  0  0  0  0
  -21.1452   -6.0524   25.9099 H   0  0  0  0  0  0
  -22.0607   -2.7622   23.2838 H   0  0  0  0  0  0
  -22.3970  -11.9889   22.4886 H   0  0  0  0  0  0
  -21.1025  -13.1309   22.2601 H   0  0  0  0  0  0
  -24.6420  -15.8255   20.5632 H   0  0  0  0  0  0
  -26.2665  -15.6119   20.1375 H   0  0  0  0  0  0
  -26.7128  -32.5553   23.1118 H   0  0  0  0  0  0
  -25.0249  -33.9753   25.0567 H   0  0  0  0  0  0
  -22.6861  -31.3117   21.4098 H   0  0  0  0  0  0
  -23.3768  -35.9613   23.3325 H   0  0  0  0  0  0
  -24.3592  -36.8847   22.2045 H   0  0  0  0  0  0
  -23.7238  -37.6508   23.6605 H   0  0  0  0  0  0
  -26.0324  -31.5850   20.5821 H   0  0  0  0  0  0
  -26.8192  -30.8939   21.9714 H   0  0  0  0  0  0
  -28.0832  -29.0835   21.1991 H   0  0  0  0  0  0
  -26.0363  -25.9943   18.9653 H   0  0  0  0  0  0
  -23.9841  -27.3026   19.0164 H   0  0  0  0  0  0
  -23.7223  -30.5914   19.3964 H   0  0  0  0  0  0
  -22.7301  -29.2456   19.8675 H   0  0  0  0  0  0
  -25.1295  -36.1948   25.0839 H   0  0  0  0  0  0
  -20.9974  -28.3223   24.1472 H   0  0  0  0  0  0
  -20.5689  -26.2260   23.3593 H   0  0  0  0  0  0
  -21.6641  -26.7482   22.1199 H   0  0  0  0  0  0
  -19.6879  -25.6319   21.1231 H   0  0  0  0  0  0
  -19.6681  -27.3243   20.6776 H   0  0  0  0  0  0
  -17.4191  -26.6751   21.4023 H   0  0  0  0  0  0
  -18.0317  -26.0061   22.8995 H   0  0  0  0  0  0
  -19.7918  -30.7293   24.2290 H   0  0  0  0  0  0
  -17.5002  -31.6281   24.5185 H   0  0  0  0  0  0
  -15.5346  -30.3021   23.7636 H   0  0  0  0  0  0
  -15.8673  -28.0859   22.7040 H   0  0  0  0  0  0
  -24.5935  -30.7013   25.7819 H   0  0  0  0  0  0
  -24.8918  -32.2884   26.4834 H   0  0  0  0  0  0
  -25.8139  -30.8952   27.0200 H   0  0  0  0  0  0
  -26.2762  -29.6862   24.1006 H   0  0  0  0  0  0
  -27.3987  -29.7189   25.4423 H   0  0  0  0  0  0
  -27.8620  -30.4357   23.9142 H   0  0  0  0  0  0
  -27.2630  -33.3596   26.2016 H   0  0  0  0  0  0
  -28.3866  -32.6827   25.0296 H   0  0  0  0  0  0
  -28.0644  -31.8390   26.5380 H   0  0  0  0  0  0
  -28.2640  -38.0072   24.7511 H   0  0  0  0  0  0
  -28.1032  -36.2607   24.6335 H   0  0  0  0  0  0
  -27.2292  -37.1505   25.8884 H   0  0  0  0  0  0
  -20.9240  -29.8756   21.6980 H   0  0  0  0  0  0
  -26.0180  -38.2873   24.1411 H   0  0  0  0  0  0
  -31.9609  -17.1246   21.0669 H   0  0  0  0  0  0
  -32.1255  -19.5184   21.5597 H   0  0  0  0  0  0
  -28.0969  -20.0844   20.1720 H   0  0  0  0  0  0
  -28.5382  -21.5839   22.0335 H   0  0  0  0  0  0
  -26.3110  -17.8464   17.7026 H   0  0  0  0  0  0
  -28.0493  -17.8569   17.4323 H   0  0  0  0  0  0
  -27.2541  -19.2788   18.0836 H   0  0  0  0  0  0
  -26.6875  -18.0633   20.1901 H   0  0  0  0  0  0
  -27.3283  -16.5909   19.5649 H   0  0  0  0  0  0
  -29.9763  -23.8129   19.5873 H   0  0  0  0  0  0
  -30.4117  -25.1326   20.6401 H   0  0  0  0  0  0
  -27.4893  -24.8117   19.9581 H   0  0  0  0  0  0
  -28.5147  -25.3269   18.6484 H   0  0  0  0  0  0
  -29.0289  -16.5129   18.2640 H   0  0  0  0  0  0
  1 25  1  0  0  0
  1 30  2  0  0  0
  1 78  1  0  0  0
  2  3  1  0  0  0
  2 25  1  0  0  0
  2 87  1  0  0  0
  2 88  1  0  0  0
  3  4  1  0  0  0
  3 89  1  0  0  0
  3 90  1  0  0  0
  4  5  1  0  0  0
  4 91  1  0  0  0
  4 92  1  0  0  0
  5  6  1  0  0  0
  5 26  1  0  0  0
  5 93  1  0  0  0
  6 25  1  0  0  0
  6 94  1  0  0  0
  6 95  1  0  0  0
  7  8  2  0  0  0
  7 26  1  0  0  0
  7 29  1  0  0  0
  8  9  1  0  0  0
  8 22  1  0  0  0
  9 10  1  0  0  0
  9 27  2  0  0  0
 10 11  2  0  0  0
 10 15  1  0  0  0
 11 12  1  0  0  0
 11 96  1  0  0  0
 12 13  2  0  0  0
 12 97  1  0  0  0
 13 14  1  0  0  0
 13 31  1  0  0  0
 14 15  2  0  0  0
 14 98  1  0  0  0
 15 99  1  0  0  0
 16 17  2  0  0  0
 16 21  1  0  0  0
 16 31  1  0  0  0
 17 18  1  0  0  0
 17100  1  0  0  0
 18 19  2  0  0  0
 18101  1  0  0  0
 19 20  1  0  0  0
 19 24  1  0  0  0
 20 21  2  0  0  0
 20102  1  0  0  0
 21 23  1  0  0  0
 22 28  1  0  0  0
 22 32  2  0  0  0
 26 27  1  0  0  0
 28103  1  0  0  0
 28104  1  0  0  0
 29105  1  0  0  0
 29106  1  0  0  0
 33 34  1  0  0  0
 33 66  1  0  0  0
 33 70  2  0  0  0
 34 36  1  0  0  0
 34 59  1  0  0  0
 34107  1  0  0  0
 35 44  2  0  0  0
 35 45  1  0  0  0
 35 68  1  0  0  0
 36 56  1  0  0  0
 36108  1  0  0  0
 37 39  1  0  0  0
 37 47  1  0  0  0
 37 66  1  0  0  0
 37109  1  0  0  0
 38 43  2  0  0  0
 38 46  1  0  0  0
 38 47  1  0  0  0
 39 64  1  0  0  0
 39 67  2  0  0  0
 40 52  1  0  0  0
 40 53  2  0  0  0
 40 58  1  0  0  0
 41110  1  0  0  0
 41111  1  0  0  0
 41112  1  0  0  0
 41 48  1  0  0  0
 42 43  1  0  0  0
 42 66  1  0  0  0
 42113  1  0  0  0
 42114  1  0  0  0
 43 44  1  0  0  0
 44115  1  0  0  0
 45 46  2  0  0  0
 45116  1  0  0  0
 46117  1  0  0  0
 47118  1  0  0  0
 47119  1  0  0  0
 48 56  1  0  0  0
 48 65  1  0  0  0
 48120  1  0  0  0
 49 50  1  0  0  0
 49 53  1  0  0  0
 49 64  1  0  0  0
 49121  1  0  0  0
 50 51  1  0  0  0
 50122  1  0  0  0
 50123  1  0  0  0
 51 52  1  0  0  0
 51124  1  0  0  0
 51125  1  0  0  0
 52126  1  0  0  0
 52127  1  0  0  0
 53 54  1  0  0  0
 54 55  2  0  0  0
 54128  1  0  0  0
 55 57  1  0  0  0
 55129  1  0  0  0
 56 69  2  0  0  0
 57 58  2  0  0  0
 57130  1  0  0  0
 58131  1  0  0  0
 59 60  1  0  0  0
 59 61  1  0  0  0
 59 62  1  0  0  0
 60132  1  0  0  0
 60133  1  0  0  0
 60134  1  0  0  0
 61135  1  0  0  0
 61136  1  0  0  0
 61137  1  0  0  0
 62138  1  0  0  0
 62139  1  0  0  0
 62140  1  0  0  0
 63 65  1  0  0  0
 63141  1  0  0  0
 63142  1  0  0  0
 63143  1  0  0  0
 64144  1  0  0  0
 65145  1  0  0  0
 68 83  1  0  0  0
 71 72  2  0  0  0
 71 74  1  0  0  0
 71146  1  0  0  0
 72 76  1  0  0  0
 72147  1  0  0  0
 73 75  1  0  0  0
 73 76  2  0  0  0
 73148  1  0  0  0
 74 75  2  0  0  0
 74 78  1  0  0  0
 75 81  1  0  0  0
 76 85  1  0  0  0
 77 79  1  0  0  0
 77 85  2  0  0  0
 77149  1  0  0  0
 78 84  2  0  0  0
 79 82  1  0  0  0
 79 86  2  0  0  0
 80 81  1  0  0  0
 80150  1  0  0  0
 80151  1  0  0  0
 80152  1  0  0  0
 81153  1  0  0  0
 81154  1  0  0  0
 82 83  1  0  0  0
 82155  1  0  0  0
 82156  1  0  0  0
 83157  1  0  0  0
 83158  1  0  0  0
 84159  1  0  0  0
M  ISO  4   1 100  68 101  78 100  83 101
M  END
> <chiral flag>
0

> <version>
0

> <s_m_source_file>
/data/baiqing/PycharmProjects/Reinvent-master-3.2/result/LINK_invent/BTK/process_docking_weight1_custom_product_contain_oxygen_bond_distance_aromatic_linkinvent_7_9_3/rearranged_h_0118.sdf

> <i_m_source_file_index>
70

> <r_mmod_Potential_Energy-OPLS-2005>
269.122589111328

> <r_mmod_Stretch_Energy-OPLS-2005>
51.722240447998

> <r_mmod_Bend_Energy-OPLS-2005>
120.964401245117

> <r_mmod_Torsional_Energy-OPLS-2005>
274.697509765625

> <r_mmod_Improper_Torsional_Energy-OPLS-2005>
26.1362552642822

> <r_mmod_Van_der_Waal_Energy-OPLS-2005>
171.12239074707

> <r_mmod_Electrostatic_Energy-OPLS-2005>
-206.959045410156

> <r_mmod_Solvation_Energy-OPLS-2005>
-214.973876953125

> <b_mmod_Minimization_Converged-OPLS-2005>
0

> <r_mmod_RMS_Derivative-OPLS-2005>
3.40502858161926

$$$$
71
                    3D
 Structure written by MMmdl.
153161  0  0  1  0            999 V2000
  -30.7359  -14.4890   20.5993 C   0  0  0  0  0  0
  -30.4163  -12.3251   19.4449 C   0  0  0  0  0  0
  -29.5017  -12.5207   18.2189 C   0  0  0  0  0  0
  -28.0237  -12.3666   18.6259 C   0  0  0  0  0  0
  -27.6608  -13.2171   19.8731 C   0  0  2  0  0  0
  -28.6996  -13.0379   21.0056 C   0  0  0  0  0  0
  -25.2605  -13.8189   20.5705 C   0  0  0  0  0  0
  -24.1841  -13.0448   20.9161 C   0  0  0  0  0  0
  -24.6381  -11.6915   20.8679 C   0  0  0  0  0  0
  -23.9044  -10.4293   21.0361 C   0  0  0  0  0  0
  -24.3606   -9.4211   21.9127 C   0  0  0  0  0  0
  -23.6296   -8.2241   22.0719 C   0  0  0  0  0  0
  -22.4268   -8.0268   21.3530 C   0  0  0  0  0  0
  -21.9883   -9.0241   20.4647 C   0  0  0  0  0  0
  -22.7202  -10.2122   20.3035 C   0  0  0  0  0  0
  -21.6867   -6.0717   22.5272 C   0  0  0  0  0  0
  -21.4019   -6.5617   23.8203 C   0  0  0  0  0  0
  -21.3668   -5.6769   24.9166 C   0  0  0  0  0  0
  -21.6053   -4.3033   24.7220 C   0  0  0  0  0  0
  -21.8822   -3.8119   23.4345 C   0  0  0  0  0  0
  -21.9195   -4.6937   22.3405 C   0  0  0  0  0  0
  -22.7868  -13.5241   21.1849 C   0  0  0  0  0  0
  -22.1675   -4.2119   21.0990 F   0  0  0  0  0  0
  -21.5625   -3.4514   25.7735 F   0  0  0  0  0  0
  -30.0345  -13.3283   20.4554 N   0  0  0  0  0  0
  -26.3021  -12.9363   20.3342 N   0  0  0  0  0  0
  -25.9313  -11.6504   20.5717 N   0  0  0  0  0  0
  -22.0532  -12.8232   22.0418 N   0  0  0  0  0  0
  -25.4377  -15.1914   20.4218 N   0  0  0  0  0  0
  -31.8420  -14.6523   20.0797 O   0  0  0  0  0  0
  -21.6653   -6.8855   21.4228 O   0  0  0  0  0  0
  -22.3537  -14.5534   20.6685 O   0  0  0  0  0  0
  -24.6167  -31.8696   23.2135 C   0  0  0  0  0  0
  -25.9044  -32.4823   23.8437 C   0  0  1  0  0  0
  -27.2023  -27.3900   20.1115 C   0  0  0  0  0  0
  -25.5900  -33.8639   24.2331 N   0  0  0  0  0  0
  -23.4068  -30.5001   21.5536 C   0  0  2  0  0  0
  -24.8494  -28.9760   20.1046 C   0  0  0  0  0  0
  -22.7443  -29.4663   22.4952 C   0  0  0  0  0  0
  -18.0282  -28.1410   22.8460 C   0  0  0  0  0  0
  -24.1488  -36.7323   23.2610 C   0  0  0  0  0  0
  -25.9456  -30.8170   21.3848 C   0  0  0  0  0  0
  -26.0138  -29.4574   20.7162 C   0  0  0  0  0  0
  -27.1951  -28.6733   20.7151 C   0  0  0  0  0  0
  -26.0246  -26.9528   19.4594 C   0  0  0  0  0  0
  -24.8541  -27.7301   19.4635 C   0  0  0  0  0  0
  -23.6172  -29.8505   20.1614 C   0  0  0  0  0  0
  -25.4090  -36.3118   24.0333 C   0  0  1  0  0  0
  -20.5877  -28.3688   23.1329 C   0  0  2  0  0  0
  -20.6761  -26.9407   22.5475 C   0  0  0  0  0  0
  -19.5774  -26.6389   21.5244 C   0  0  0  0  0  0
  -18.1929  -26.7962   22.1589 C   0  0  0  0  0  0
  -19.1537  -28.8862   23.2887 C   0  0  0  0  0  0
  -18.9448  -30.1465   23.8892 C   0  0  0  0  0  0
  -17.6451  -30.6584   24.0575 C   0  0  0  0  0  0
  -25.9046  -34.9488   23.5126 C   0  0  0  0  0  0
  -16.5342  -29.9094   23.6326 C   0  0  0  0  0  0
  -16.7270  -28.6537   23.0297 C   0  0  0  0  0  0
  -26.4397  -31.6629   25.0809 C   0  0  0  0  0  0
  -25.3612  -31.3954   26.1575 C   0  0  0  0  0  0
  -27.0058  -30.2956   24.6317 C   0  0  0  0  0  0
  -27.6077  -32.4273   25.7472 C   0  0  0  0  0  0
  -27.5650  -37.1732   24.8371 C   0  0  0  0  0  0
  -21.4170  -29.3036   22.3714 N   0  0  0  0  0  0
  -26.4249  -37.3843   23.9484 N   0  0  0  0  0  0
  -24.6735  -31.0775   22.1061 N   0  0  0  0  0  0
  -23.4217  -28.8181   23.2977 O   0  0  0  0  0  0
  -28.3189  -26.5700   20.1930 O   0  0  0  0  0  0
  -26.5628  -34.8947   22.4706 O   0  0  0  0  0  0
  -23.5339  -32.1473   23.7496 O   0  0  0  0  0  0
  -29.7153  -17.9724   21.3076 C   0  0  0  0  0  0
  -31.9635  -17.1439   21.5984 C   0  0  0  0  0  0
  -31.6073  -19.4351   21.6213 C   0  0  0  0  0  0
  -30.5952  -16.8613   21.3764 C   0  0  0  0  0  0
  -30.2178  -19.3000   21.3922 C   0  0  0  0  0  0
  -29.1951  -24.2415   20.7791 C   0  0  0  0  0  0
  -28.7759  -22.7390   20.8312 C   0  0  0  0  0  0
  -28.0228  -25.1533   20.3143 C   0  0  0  0  0  0
  -29.9030  -21.7053   21.0951 C   0  0  0  0  0  0
  -32.4562  -18.3907   21.7312 N   0  0  0  0  0  0
  -30.1101  -15.5106   21.2326 N   0  0  0  0  0  0
  -29.3521  -20.3810   21.2451 O   0  0  0  0  0  0
  -31.4655  -12.3971   19.1543 H   0  0  0  0  0  0
  -30.2919  -11.3218   19.8545 H   0  0  0  0  0  0
  -29.7574  -11.8030   17.4391 H   0  0  0  0  0  0
  -29.6664  -13.5100   17.7889 H   0  0  0  0  0  0
  -27.8435  -11.3111   18.8322 H   0  0  0  0  0  0
  -27.3723  -12.6289   17.7904 H   0  0  0  0  0  0
  -27.6973  -14.2595   19.5581 H   0  0  0  0  0  0
  -28.6737  -12.0182   21.3902 H   0  0  0  0  0  0
  -28.4515  -13.6758   21.8544 H   0  0  0  0  0  0
  -25.2767   -9.5698   22.4664 H   0  0  0  0  0  0
  -24.0033   -7.4625   22.7412 H   0  0  0  0  0  0
  -21.0801   -8.8739   19.8976 H   0  0  0  0  0  0
  -22.3626  -10.9636   19.6142 H   0  0  0  0  0  0
  -21.2011   -7.6124   23.9696 H   0  0  0  0  0  0
  -21.1502   -6.0500   25.9072 H   0  0  0  0  0  0
  -22.0596   -2.7571   23.2847 H   0  0  0  0  0  0
  -22.4166  -11.9907   22.4823 H   0  0  0  0  0  0
  -21.1159  -13.1273   22.2683 H   0  0  0  0  0  0
  -24.6790  -15.8567   20.5314 H   0  0  0  0  0  0
  -26.3068  -15.6251   20.1341 H   0  0  0  0  0  0
  -26.7127  -32.5502   23.1212 H   0  0  0  0  0  0
  -24.9999  -33.9827   25.0433 H   0  0  0  0  0  0
  -22.6942  -31.3184   21.4237 H   0  0  0  0  0  0
  -23.3834  -35.9560   23.3045 H   0  0  0  0  0  0
  -24.3648  -36.9169   22.2077 H   0  0  0  0  0  0
  -23.7110  -37.6404   23.6765 H   0  0  0  0  0  0
  -26.0905  -31.5907   20.6298 H   0  0  0  0  0  0
  -26.8203  -30.8443   22.0233 H   0  0  0  0  0  0
  -28.0853  -29.0233   21.2181 H   0  0  0  0  0  0
  -25.9762  -26.0060   18.9432 H   0  0  0  0  0  0
  -23.9634  -27.3701   18.9654 H   0  0  0  0  0  0
  -23.7342  -30.6362   19.4133 H   0  0  0  0  0  0
  -22.7364  -29.2830   19.8568 H   0  0  0  0  0  0
  -25.1223  -36.1945   25.0814 H   0  0  0  0  0  0
  -20.9973  -28.3273   24.1449 H   0  0  0  0  0  0
  -20.5639  -26.2296   23.3674 H   0  0  0  0  0  0
  -21.6639  -26.7421   22.1321 H   0  0  0  0  0  0
  -19.6937  -25.6294   21.1288 H   0  0  0  0  0  0
  -19.6775  -27.3183   20.6763 H   0  0  0  0  0  0
  -17.4249  -26.6757   21.3940 H   0  0  0  0  0  0
  -18.0249  -26.0102   22.8972 H   0  0  0  0  0  0
  -19.7925  -30.7288   24.2251 H   0  0  0  0  0  0
  -17.5004  -31.6249   24.5208 H   0  0  0  0  0  0
  -15.5334  -30.2981   23.7671 H   0  0  0  0  0  0
  -15.8680  -28.0887   22.6933 H   0  0  0  0  0  0
  -24.5852  -30.7138   25.8070 H   0  0  0  0  0  0
  -24.8686  -32.3171   26.4706 H   0  0  0  0  0  0
  -25.7930  -30.9470   27.0532 H   0  0  0  0  0  0
  -26.2600  -29.6908   24.1145 H   0  0  0  0  0  0
  -27.3356  -29.7077   25.4894 H   0  0  0  0  0  0
  -27.8696  -30.4050   23.9755 H   0  0  0  0  0  0
  -27.2843  -33.3666   26.1972 H   0  0  0  0  0  0
  -28.3894  -32.6645   25.0239 H   0  0  0  0  0  0
  -28.0710  -31.8399   26.5410 H   0  0  0  0  0  0
  -28.2453  -38.0236   24.7737 H   0  0  0  0  0  0
  -28.1338  -36.2813   24.5693 H   0  0  0  0  0  0
  -27.2481  -37.0799   25.8774 H   0  0  0  0  0  0
  -20.9328  -29.8764   21.6946 H   0  0  0  0  0  0
  -26.0119  -38.2863   24.1714 H   0  0  0  0  0  0
  -28.6587  -17.8133   21.1524 H   0  0  0  0  0  0
  -32.6948  -16.3553   21.6960 H   0  0  0  0  0  0
  -32.0737  -20.4037   21.7252 H   0  0  0  0  0  0
  -30.0418  -24.3620   20.1018 H   0  0  0  0  0  0
  -29.5448  -24.5550   21.7647 H   0  0  0  0  0  0
  -28.2977  -22.4762   19.8873 H   0  0  0  0  0  0
  -28.0101  -22.6233   21.5985 H   0  0  0  0  0  0
  -27.1926  -25.0195   21.0171 H   0  0  0  0  0  0
  -27.6745  -24.7756   19.3520 H   0  0  0  0  0  0
  -30.4602  -21.9895   21.9880 H   0  0  0  0  0  0
  -30.5949  -21.7147   20.2508 H   0  0  0  0  0  0
  -29.1609  -15.3256   21.5243 H   0  0  0  0  0  0
  1 25  1  0  0  0
  1 30  2  0  0  0
  1 81  1  0  0  0
  2  3  1  0  0  0
  2 25  1  0  0  0
  2 83  1  0  0  0
  2 84  1  0  0  0
  3  4  1  0  0  0
  3 85  1  0  0  0
  3 86  1  0  0  0
  4  5  1  0  0  0
  4 87  1  0  0  0
  4 88  1  0  0  0
  5  6  1  0  0  0
  5 26  1  0  0  0
  5 89  1  0  0  0
  6 25  1  0  0  0
  6 90  1  0  0  0
  6 91  1  0  0  0
  7  8  2  0  0  0
  7 26  1  0  0  0
  7 29  1  0  0  0
  8  9  1  0  0  0
  8 22  1  0  0  0
  9 10  1  0  0  0
  9 27  2  0  0  0
 10 11  2  0  0  0
 10 15  1  0  0  0
 11 12  1  0  0  0
 11 92  1  0  0  0
 12 13  2  0  0  0
 12 93  1  0  0  0
 13 14  1  0  0  0
 13 31  1  0  0  0
 14 15  2  0  0  0
 14 94  1  0  0  0
 15 95  1  0  0  0
 16 17  2  0  0  0
 16 21  1  0  0  0
 16 31  1  0  0  0
 17 18  1  0  0  0
 17 96  1  0  0  0
 18 19  2  0  0  0
 18 97  1  0  0  0
 19 20  1  0  0  0
 19 24  1  0  0  0
 20 21  2  0  0  0
 20 98  1  0  0  0
 21 23  1  0  0  0
 22 28  1  0  0  0
 22 32  2  0  0  0
 26 27  1  0  0  0
 28 99  1  0  0  0
 28100  1  0  0  0
 29101  1  0  0  0
 29102  1  0  0  0
 33 34  1  0  0  0
 33 66  1  0  0  0
 33 70  2  0  0  0
 34 36  1  0  0  0
 34 59  1  0  0  0
 34103  1  0  0  0
 35 44  2  0  0  0
 35 45  1  0  0  0
 35 68  1  0  0  0
 36 56  1  0  0  0
 36104  1  0  0  0
 37 39  1  0  0  0
 37 47  1  0  0  0
 37 66  1  0  0  0
 37105  1  0  0  0
 38 43  2  0  0  0
 38 46  1  0  0  0
 38 47  1  0  0  0
 39 64  1  0  0  0
 39 67  2  0  0  0
 40 52  1  0  0  0
 40 53  2  0  0  0
 40 58  1  0  0  0
 41106  1  0  0  0
 41107  1  0  0  0
 41108  1  0  0  0
 41 48  1  0  0  0
 42 43  1  0  0  0
 42 66  1  0  0  0
 42109  1  0  0  0
 42110  1  0  0  0
 43 44  1  0  0  0
 44111  1  0  0  0
 45 46  2  0  0  0
 45112  1  0  0  0
 46113  1  0  0  0
 47114  1  0  0  0
 47115  1  0  0  0
 48 56  1  0  0  0
 48 65  1  0  0  0
 48116  1  0  0  0
 49 50  1  0  0  0
 49 53  1  0  0  0
 49 64  1  0  0  0
 49117  1  0  0  0
 50 51  1  0  0  0
 50118  1  0  0  0
 50119  1  0  0  0
 51 52  1  0  0  0
 51120  1  0  0  0
 51121  1  0  0  0
 52122  1  0  0  0
 52123  1  0  0  0
 53 54  1  0  0  0
 54 55  2  0  0  0
 54124  1  0  0  0
 55 57  1  0  0  0
 55125  1  0  0  0
 56 69  2  0  0  0
 57 58  2  0  0  0
 57126  1  0  0  0
 58127  1  0  0  0
 59 60  1  0  0  0
 59 61  1  0  0  0
 59 62  1  0  0  0
 60128  1  0  0  0
 60129  1  0  0  0
 60130  1  0  0  0
 61131  1  0  0  0
 61132  1  0  0  0
 61133  1  0  0  0
 62134  1  0  0  0
 62135  1  0  0  0
 62136  1  0  0  0
 63 65  1  0  0  0
 63137  1  0  0  0
 63138  1  0  0  0
 63139  1  0  0  0
 64140  1  0  0  0
 65141  1  0  0  0
 68 78  1  0  0  0
 71 74  2  0  0  0
 71 75  1  0  0  0
 71142  1  0  0  0
 72 74  1  0  0  0
 72 80  2  0  0  0
 72143  1  0  0  0
 73 75  2  0  0  0
 73 80  1  0  0  0
 73144  1  0  0  0
 74 81  1  0  0  0
 75 82  1  0  0  0
 76 77  1  0  0  0
 76 78  1  0  0  0
 76145  1  0  0  0
 76146  1  0  0  0
 77 79  1  0  0  0
 77147  1  0  0  0
 77148  1  0  0  0
 78149  1  0  0  0
 78150  1  0  0  0
 79 82  1  0  0  0
 79151  1  0  0  0
 79152  1  0  0  0
 81153  1  0  0  0
M  ISO  4   1 100  68 101  78 101  81 100
M  END
> <chiral flag>
0

> <version>
0

> <s_m_source_file>
/data/baiqing/PycharmProjects/Reinvent-master-3.2/result/LINK_invent/BTK/process_docking_weight1_custom_product_contain_oxygen_bond_distance_aromatic_linkinvent_7_9_3/rearranged_h_0118.sdf

> <i_m_source_file_index>
71

> <r_mmod_Potential_Energy-OPLS-2005>
-166.440643310547

> <r_mmod_Stretch_Energy-OPLS-2005>
45.2600708007812

> <r_mmod_Bend_Energy-OPLS-2005>
100.937591552734

> <r_mmod_Torsional_Energy-OPLS-2005>
215.536682128906

> <r_mmod_Improper_Torsional_Energy-OPLS-2005>
2.87994027137756

> <r_mmod_Van_der_Waal_Energy-OPLS-2005>
165.836410522461

> <r_mmod_Electrostatic_Energy-OPLS-2005>
-496.680725097656

> <r_mmod_Solvation_Energy-OPLS-2005>
-224.579254150391

> <b_mmod_Minimization_Converged-OPLS-2005>
0

> <r_mmod_RMS_Derivative-OPLS-2005>
3.65444016456604

$$$$
72
                    3D
 Structure written by MMmdl.
149157  0  0  1  0            999 V2000
  -30.4720  -15.0969   20.3897 C   0  0  0  0  0  0
  -30.4532  -12.6828   19.5126 C   0  0  0  0  0  0
  -29.5354  -12.5354   18.2718 C   0  0  0  0  0  0
  -28.0752  -12.2748   18.6891 C   0  0  0  0  0  0
  -27.6201  -13.2280   19.8186 C   0  0  2  0  0  0
  -28.6593  -13.3234   20.9564 C   0  0  0  0  0  0
  -25.2479  -13.8121   20.5700 C   0  0  0  0  0  0
  -24.1760  -13.0397   20.9198 C   0  0  0  0  0  0
  -24.6356  -11.6869   20.8725 C   0  0  0  0  0  0
  -23.9031  -10.4266   21.0398 C   0  0  0  0  0  0
  -24.3598   -9.4191   21.9174 C   0  0  0  0  0  0
  -23.6275   -8.2226   22.0745 C   0  0  0  0  0  0
  -22.4253   -8.0264   21.3546 C   0  0  0  0  0  0
  -21.9885   -9.0229   20.4643 C   0  0  0  0  0  0
  -22.7206  -10.2105   20.3050 C   0  0  0  0  0  0
  -21.6848   -6.0717   22.5279 C   0  0  0  0  0  0
  -21.4010   -6.5629   23.8212 C   0  0  0  0  0  0
  -21.3661   -5.6781   24.9171 C   0  0  0  0  0  0
  -21.6048   -4.3044   24.7222 C   0  0  0  0  0  0
  -21.8817   -3.8135   23.4344 C   0  0  0  0  0  0
  -21.9190   -4.6948   22.3399 C   0  0  0  0  0  0
  -22.7797  -13.5197   21.1876 C   0  0  0  0  0  0
  -22.1662   -4.2144   21.0973 F   0  0  0  0  0  0
  -21.5635   -3.4524   25.7733 F   0  0  0  0  0  0
  -29.9205  -13.7964   20.3630 N   0  0  0  0  0  0
  -26.2844  -12.9300   20.3153 N   0  0  0  0  0  0
  -25.9279  -11.6458   20.5685 N   0  0  0  0  0  0
  -22.0452  -12.8204   22.0445 N   0  0  0  0  0  0
  -25.4275  -15.1825   20.4238 N   0  0  0  0  0  0
  -31.6916  -15.1527   20.1761 O   0  0  0  0  0  0
  -21.6628   -6.8857   21.4242 O   0  0  0  0  0  0
  -22.3472  -14.5486   20.6701 O   0  0  0  0  0  0
  -24.6500  -31.8371   23.1797 C   0  0  0  0  0  0
  -25.9237  -32.4659   23.8227 C   0  0  1  0  0  0
  -27.2293  -27.0692   20.1751 C   0  0  0  0  0  0
  -25.5965  -33.8463   24.2149 N   0  0  0  0  0  0
  -23.4578  -30.4496   21.5287 C   0  0  2  0  0  0
  -24.9077  -28.8529   20.1227 C   0  0  0  0  0  0
  -22.7601  -29.4504   22.4858 C   0  0  0  0  0  0
  -18.0312  -28.1394   22.8480 C   0  0  0  0  0  0
  -24.1492  -36.7227   23.2646 C   0  0  0  0  0  0
  -26.0166  -30.6901   21.3857 C   0  0  0  0  0  0
  -26.0888  -29.2901   20.7363 C   0  0  0  0  0  0
  -27.2514  -28.4202   20.7327 C   0  0  0  0  0  0
  -26.0176  -26.7380   19.5342 C   0  0  0  0  0  0
  -24.8876  -27.5912   19.5051 C   0  0  0  0  0  0
  -23.6887  -29.7662   20.1539 C   0  0  0  0  0  0
  -25.4124  -36.3004   24.0314 C   0  0  1  0  0  0
  -20.5926  -28.3717   23.1232 C   0  0  2  0  0  0
  -20.6791  -26.9417   22.5401 C   0  0  0  0  0  0
  -19.5764  -26.6377   21.5211 C   0  0  0  0  0  0
  -18.1947  -26.7933   22.1627 C   0  0  0  0  0  0
  -19.1569  -28.8878   23.2847 C   0  0  0  0  0  0
  -18.9488  -30.1478   23.8859 C   0  0  0  0  0  0
  -17.6482  -30.6585   24.0558 C   0  0  0  0  0  0
  -25.9085  -34.9383   23.5044 C   0  0  0  0  0  0
  -16.5374  -29.9073   23.6337 C   0  0  0  0  0  0
  -16.7298  -28.6495   23.0358 C   0  0  0  0  0  0
  -26.4544  -31.6549   25.0690 C   0  0  0  0  0  0
  -25.3720  -31.3751   26.1382 C   0  0  0  0  0  0
  -27.0426  -30.2950   24.6299 C   0  0  0  0  0  0
  -27.6066  -32.4328   25.7473 C   0  0  0  0  0  0
  -27.5565  -37.1769   24.8472 C   0  0  0  0  0  0
  -21.4286  -29.3030   22.3596 N   0  0  0  0  0  0
  -26.4279  -37.3722   23.9414 N   0  0  0  0  0  0
  -24.7286  -31.0161   22.0863 N   0  0  0  0  0  0
  -23.4211  -28.8067   23.3043 O   0  0  0  0  0  0
  -28.3079  -26.0925   20.1262 O   0  0  0  0  0  0
  -26.5672  -34.8897   22.4628 O   0  0  0  0  0  0
  -23.5604  -32.1273   23.6982 O   0  0  0  0  0  0
  -30.4793  -20.2723   21.1552 C   0  0  0  0  0  0
  -30.8073  -18.8468   21.2485 C   0  0  0  0  0  0
  -29.3756  -20.5105   20.3680 C   0  0  0  0  0  0
  -29.8791  -18.0826   20.5606 C   0  0  0  0  0  0
  -28.6393  -21.7814   19.8169 C   0  0  0  0  0  0
  -28.2639  -23.1845   19.8321 C   0  0  0  0  0  0
  -29.4993  -16.5209   20.4219 C   0  0  0  0  0  0
  -31.9698  -18.2966   22.0361 C   0  0  0  0  0  0
  -28.3008  -24.6094   20.6935 C   0  0  0  0  0  0
  -28.2497  -16.3690   20.2995 N   0  0  0  0  0  0
  -28.9977  -19.1359   20.0360 O   0  0  0  0  0  0
  -31.4766  -12.8813   19.1892 H   0  0  0  0  0  0
  -30.4963  -11.7501   20.0778 H   0  0  0  0  0  0
  -29.8916  -11.7276   17.6306 H   0  0  0  0  0  0
  -29.5868  -13.4460   17.6728 H   0  0  0  0  0  0
  -28.0043  -11.2408   19.0304 H   0  0  0  0  0  0
  -27.4131  -12.3581   17.8265 H   0  0  0  0  0  0
  -27.5504  -14.1925   19.3241 H   0  0  0  0  0  0
  -28.7910  -12.3595   21.4500 H   0  0  0  0  0  0
  -28.3239  -14.0176   21.7268 H   0  0  0  0  0  0
  -25.2748   -9.5671   22.4736 H   0  0  0  0  0  0
  -23.9991   -7.4617   22.7452 H   0  0  0  0  0  0
  -21.0824   -8.8740   19.8945 H   0  0  0  0  0  0
  -22.3668  -10.9641   19.6155 H   0  0  0  0  0  0
  -21.2004   -7.6138   23.9722 H   0  0  0  0  0  0
  -21.1489   -6.0501   25.9074 H   0  0  0  0  0  0
  -22.0598   -2.7597   23.2836 H   0  0  0  0  0  0
  -22.4092  -11.9893   22.4869 H   0  0  0  0  0  0
  -21.1055  -13.1206   22.2627 H   0  0  0  0  0  0
  -24.7012  -15.8649   20.6057 H   0  0  0  0  0  0
  -26.3455  -15.5971   20.2601 H   0  0  0  0  0  0
  -26.7304  -32.5243   23.0949 H   0  0  0  0  0  0
  -25.0096  -33.9576   25.0293 H   0  0  0  0  0  0
  -22.7630  -31.2757   21.3633 H   0  0  0  0  0  0
  -23.3761  -35.9553   23.3302 H   0  0  0  0  0  0
  -24.3567  -36.8866   22.2058 H   0  0  0  0  0  0
  -23.7239  -37.6417   23.6691 H   0  0  0  0  0  0
  -26.1778  -31.4379   20.6082 H   0  0  0  0  0  0
  -26.8837  -30.7459   22.0310 H   0  0  0  0  0  0
  -28.1607  -28.7656   21.2047 H   0  0  0  0  0  0
  -25.9378  -25.7733   19.0520 H   0  0  0  0  0  0
  -23.9863  -27.2482   19.0142 H   0  0  0  0  0  0
  -23.8375  -30.5340   19.3933 H   0  0  0  0  0  0
  -22.8015  -29.2126   19.8412 H   0  0  0  0  0  0
  -25.1320  -36.1813   25.0805 H   0  0  0  0  0  0
  -21.0023  -28.3302   24.1356 H   0  0  0  0  0  0
  -20.5680  -26.2331   23.3627 H   0  0  0  0  0  0
  -21.6656  -26.7411   22.1201 H   0  0  0  0  0  0
  -19.6925  -25.6282   21.1253 H   0  0  0  0  0  0
  -19.6699  -27.3176   20.6733 H   0  0  0  0  0  0
  -17.4218  -26.6685   21.4030 H   0  0  0  0  0  0
  -18.0343  -26.0080   22.9028 H   0  0  0  0  0  0
  -19.7965  -30.7307   24.2204 H   0  0  0  0  0  0
  -17.5033  -31.6262   24.5165 H   0  0  0  0  0  0
  -15.5371  -30.2962   23.7676 H   0  0  0  0  0  0
  -15.8706  -28.0797   22.7092 H   0  0  0  0  0  0
  -24.5886  -30.7123   25.7690 H   0  0  0  0  0  0
  -24.8932  -32.2941   26.4769 H   0  0  0  0  0  0
  -25.7991  -30.8930   27.0184 H   0  0  0  0  0  0
  -26.3062  -29.6645   24.1303 H   0  0  0  0  0  0
  -27.4044  -29.7265   25.4875 H   0  0  0  0  0  0
  -27.8958  -30.4194   23.9627 H   0  0  0  0  0  0
  -27.2663  -33.3657   26.1975 H   0  0  0  0  0  0
  -28.3905  -32.6844   25.0318 H   0  0  0  0  0  0
  -28.0707  -31.8507   26.5443 H   0  0  0  0  0  0
  -28.2588  -38.0063   24.7504 H   0  0  0  0  0  0
  -28.1063  -36.2588   24.6324 H   0  0  0  0  0  0
  -27.2286  -37.1430   25.8879 H   0  0  0  0  0  0
  -20.9516  -29.8732   21.6753 H   0  0  0  0  0  0
  -26.0141  -38.2792   24.1419 H   0  0  0  0  0  0
  -31.0485  -21.0715   21.6092 H   0  0  0  0  0  0
  -28.1998  -21.4020   18.9037 H   0  0  0  0  0  0
  -27.6618  -23.4078   18.9616 H   0  0  0  0  0  0
  -32.6271  -17.7112   21.3930 H   0  0  0  0  0  0
  -31.6196  -17.6575   22.8470 H   0  0  0  0  0  0
  -32.5590  -19.1039   22.4736 H   0  0  0  0  0  0
  -29.1612  -24.5356   21.3585 H   0  0  0  0  0  0
  -27.4354  -24.5626   21.3554 H   0  0  0  0  0  0
  -27.8054  -17.2800   20.3280 H   0  0  0  0  0  0
  1 25  1  0  0  0
  1 30  2  0  0  0
  1 77  1  0  0  0
  2  3  1  0  0  0
  2 25  1  0  0  0
  2 82  1  0  0  0
  2 83  1  0  0  0
  3  4  1  0  0  0
  3 84  1  0  0  0
  3 85  1  0  0  0
  4  5  1  0  0  0
  4 86  1  0  0  0
  4 87  1  0  0  0
  5  6  1  0  0  0
  5 26  1  0  0  0
  5 88  1  0  0  0
  6 25  1  0  0  0
  6 89  1  0  0  0
  6 90  1  0  0  0
  7  8  2  0  0  0
  7 26  1  0  0  0
  7 29  1  0  0  0
  8  9  1  0  0  0
  8 22  1  0  0  0
  9 10  1  0  0  0
  9 27  2  0  0  0
 10 11  2  0  0  0
 10 15  1  0  0  0
 11 12  1  0  0  0
 11 91  1  0  0  0
 12 13  2  0  0  0
 12 92  1  0  0  0
 13 14  1  0  0  0
 13 31  1  0  0  0
 14 15  2  0  0  0
 14 93  1  0  0  0
 15 94  1  0  0  0
 16 17  2  0  0  0
 16 21  1  0  0  0
 16 31  1  0  0  0
 17 18  1  0  0  0
 17 95  1  0  0  0
 18 19  2  0  0  0
 18 96  1  0  0  0
 19 20  1  0  0  0
 19 24  1  0  0  0
 20 21  2  0  0  0
 20 97  1  0  0  0
 21 23  1  0  0  0
 22 28  1  0  0  0
 22 32  2  0  0  0
 26 27  1  0  0  0
 28 98  1  0  0  0
 28 99  1  0  0  0
 29100  1  0  0  0
 29101  1  0  0  0
 33 34  1  0  0  0
 33 66  1  0  0  0
 33 70  2  0  0  0
 34 36  1  0  0  0
 34 59  1  0  0  0
 34102  1  0  0  0
 35 44  2  0  0  0
 35 45  1  0  0  0
 35 68  1  0  0  0
 36 56  1  0  0  0
 36103  1  0  0  0
 37 39  1  0  0  0
 37 47  1  0  0  0
 37 66  1  0  0  0
 37104  1  0  0  0
 38 43  2  0  0  0
 38 46  1  0  0  0
 38 47  1  0  0  0
 39 64  1  0  0  0
 39 67  2  0  0  0
 40 52  1  0  0  0
 40 53  2  0  0  0
 40 58  1  0  0  0
 41105  1  0  0  0
 41106  1  0  0  0
 41107  1  0  0  0
 41 48  1  0  0  0
 42 43  1  0  0  0
 42 66  1  0  0  0
 42108  1  0  0  0
 42109  1  0  0  0
 43 44  1  0  0  0
 44110  1  0  0  0
 45 46  2  0  0  0
 45111  1  0  0  0
 46112  1  0  0  0
 47113  1  0  0  0
 47114  1  0  0  0
 48 56  1  0  0  0
 48 65  1  0  0  0
 48115  1  0  0  0
 49 50  1  0  0  0
 49 53  1  0  0  0
 49 64  1  0  0  0
 49116  1  0  0  0
 50 51  1  0  0  0
 50117  1  0  0  0
 50118  1  0  0  0
 51 52  1  0  0  0
 51119  1  0  0  0
 51120  1  0  0  0
 52121  1  0  0  0
 52122  1  0  0  0
 53 54  1  0  0  0
 54 55  2  0  0  0
 54123  1  0  0  0
 55 57  1  0  0  0
 55124  1  0  0  0
 56 69  2  0  0  0
 57 58  2  0  0  0
 57125  1  0  0  0
 58126  1  0  0  0
 59 60  1  0  0  0
 59 61  1  0  0  0
 59 62  1  0  0  0
 60127  1  0  0  0
 60128  1  0  0  0
 60129  1  0  0  0
 61130  1  0  0  0
 61131  1  0  0  0
 61132  1  0  0  0
 62133  1  0  0  0
 62134  1  0  0  0
 62135  1  0  0  0
 63 65  1  0  0  0
 63136  1  0  0  0
 63137  1  0  0  0
 63138  1  0  0  0
 64139  1  0  0  0
 65140  1  0  0  0
 68 79  1  0  0  0
 71 72  1  0  0  0
 71 73  2  0  0  0
 71141  1  0  0  0
 72 74  2  0  0  0
 72 78  1  0  0  0
 73 75  1  0  0  0
 73 81  1  0  0  0
 74 77  1  0  0  0
 74 81  1  0  0  0
 75 76  2  0  0  0
 75142  1  0  0  0
 76 79  1  0  0  0
 76143  1  0  0  0
 77 80  2  0  0  0
 78144  1  0  0  0
 78145  1  0  0  0
 78146  1  0  0  0
 79147  1  0  0  0
 79148  1  0  0  0
 80149  1  0  0  0
M  ISO  4   1 100  68 101  77 100  79 101
M  END
> <chiral flag>
0

> <version>
0

> <s_m_source_file>
/data/baiqing/PycharmProjects/Reinvent-master-3.2/result/LINK_invent/BTK/process_docking_weight1_custom_product_contain_oxygen_bond_distance_aromatic_linkinvent_7_9_3/rearranged_h_0118.sdf

> <i_m_source_file_index>
72

> <r_mmod_Potential_Energy-OPLS-2005>
955.25634765625

> <r_mmod_Stretch_Energy-OPLS-2005>
355.177490234375

> <r_mmod_Bend_Energy-OPLS-2005>
403.060333251953

> <r_mmod_Torsional_Energy-OPLS-2005>
219.61247253418

> <r_mmod_Improper_Torsional_Energy-OPLS-2005>
6.65490198135376

> <r_mmod_Van_der_Waal_Energy-OPLS-2005>
110.88410949707

> <r_mmod_Electrostatic_Energy-OPLS-2005>
-227.127685546875

> <r_mmod_Solvation_Energy-OPLS-2005>
-189.445892333984

> <b_mmod_Minimization_Converged-OPLS-2005>
0

> <r_mmod_RMS_Derivative-OPLS-2005>
1.74207592010498

$$$$
73
                    3D
 Structure written by MMmdl.
157165  0  0  1  0            999 V2000
  -30.6334  -14.7105   20.4414 C   0  0  0  0  0  0
  -30.4252  -12.4264   19.4825 C   0  0  0  0  0  0
  -29.5109  -12.5035   18.2406 C   0  0  0  0  0  0
  -28.0352  -12.3366   18.6496 C   0  0  0  0  0  0
  -27.6438  -13.2338   19.8546 C   0  0  2  0  0  0
  -28.6859  -13.1630   20.9928 C   0  0  0  0  0  0
  -25.2512  -13.8204   20.5703 C   0  0  0  0  0  0
  -24.1800  -13.0446   20.9205 C   0  0  0  0  0  0
  -24.6392  -11.6922   20.8750 C   0  0  0  0  0  0
  -23.9070  -10.4296   21.0410 C   0  0  0  0  0  0
  -24.3621   -9.4209   21.9187 C   0  0  0  0  0  0
  -23.6295   -8.2246   22.0759 C   0  0  0  0  0  0
  -22.4274   -8.0284   21.3551 C   0  0  0  0  0  0
  -21.9910   -9.0257   20.4653 C   0  0  0  0  0  0
  -22.7240  -10.2135   20.3059 C   0  0  0  0  0  0
  -21.6851   -6.0737   22.5280 C   0  0  0  0  0  0
  -21.4017   -6.5642   23.8214 C   0  0  0  0  0  0
  -21.3660   -5.6796   24.9175 C   0  0  0  0  0  0
  -21.6041   -4.3057   24.7225 C   0  0  0  0  0  0
  -21.8817   -3.8150   23.4345 C   0  0  0  0  0  0
  -21.9191   -4.6965   22.3402 C   0  0  0  0  0  0
  -22.7821  -13.5231   21.1856 C   0  0  0  0  0  0
  -22.1661   -4.2153   21.0979 F   0  0  0  0  0  0
  -21.5624   -3.4539   25.7737 F   0  0  0  0  0  0
  -29.9939  -13.4926   20.4157 N   0  0  0  0  0  0
  -26.2944  -12.9418   20.3300 N   0  0  0  0  0  0
  -25.9325  -11.6557   20.5758 N   0  0  0  0  0  0
  -22.0463  -12.8232   22.0416 N   0  0  0  0  0  0
  -25.4202  -15.1927   20.4129 N   0  0  0  0  0  0
  -31.8260  -14.7748   20.1311 O   0  0  0  0  0  0
  -21.6640   -6.8879   21.4243 O   0  0  0  0  0  0
  -22.3508  -14.5532   20.6694 O   0  0  0  0  0  0
  -24.6290  -31.8568   23.2008 C   0  0  0  0  0  0
  -25.9124  -32.4762   23.8345 C   0  0  1  0  0  0
  -27.2167  -27.2746   20.1263 C   0  0  0  0  0  0
  -25.5929  -33.8566   24.2268 N   0  0  0  0  0  0
  -23.4250  -30.4805   21.5430 C   0  0  2  0  0  0
  -24.8721  -28.9335   20.1067 C   0  0  0  0  0  0
  -22.7494  -29.4603   22.4908 C   0  0  0  0  0  0
  -18.0293  -28.1388   22.8482 C   0  0  0  0  0  0
  -24.1491  -36.7287   23.2638 C   0  0  0  0  0  0
  -25.9700  -30.7727   21.3810 C   0  0  0  0  0  0
  -26.0413  -29.3973   20.7221 C   0  0  0  0  0  0
  -27.2141  -28.5781   20.7256 C   0  0  0  0  0  0
  -26.0296  -26.8874   19.4622 C   0  0  0  0  0  0
  -24.8711  -27.6864   19.4659 C   0  0  0  0  0  0
  -23.6424  -29.8181   20.1572 C   0  0  0  0  0  0
  -25.4116  -36.3072   24.0325 C   0  0  1  0  0  0
  -20.5895  -28.3695   23.1268 C   0  0  2  0  0  0
  -20.6781  -26.9414   22.5405 C   0  0  0  0  0  0
  -19.5754  -26.6384   21.5211 C   0  0  0  0  0  0
  -18.1936  -26.7929   22.1625 C   0  0  0  0  0  0
  -19.1547  -28.8859   23.2870 C   0  0  0  0  0  0
  -18.9467  -30.1460   23.8888 C   0  0  0  0  0  0
  -17.6465  -30.6586   24.0562 C   0  0  0  0  0  0
  -25.9055  -34.9441   23.5098 C   0  0  0  0  0  0
  -16.5357  -29.9083   23.6329 C   0  0  0  0  0  0
  -16.7280  -28.6503   23.0348 C   0  0  0  0  0  0
  -26.4502  -31.6581   25.0725 C   0  0  0  0  0  0
  -25.3727  -31.3730   26.1446 C   0  0  0  0  0  0
  -27.0350  -30.2997   24.6210 C   0  0  0  0  0  0
  -27.6057  -32.4322   25.7496 C   0  0  0  0  0  0
  -27.5579  -37.1799   24.8464 C   0  0  0  0  0  0
  -21.4203  -29.3044   22.3659 N   0  0  0  0  0  0
  -26.4294  -37.3767   23.9405 N   0  0  0  0  0  0
  -24.6935  -31.0545   22.0979 N   0  0  0  0  0  0
  -23.4203  -28.8136   23.2996 O   0  0  0  0  0  0
  -28.3131  -26.3866   20.2132 O   0  0  0  0  0  0
  -26.5624  -34.8913   22.4666 O   0  0  0  0  0  0
  -23.5443  -32.1385   23.7310 O   0  0  0  0  0  0
  -29.6539  -18.4882   20.5830 C   0  0  0  0  0  0
  -30.7749  -17.2877   18.8029 C   0  0  0  0  0  0
  -29.9179  -19.7845   19.9649 C   0  0  0  0  0  0
  -31.0532  -18.5103   18.1672 C   0  0  0  0  0  0
  -30.6815  -19.7492   18.7547 C   0  0  0  0  0  0
  -30.1144  -17.2155   20.0454 C   0  0  0  0  0  0
  -29.4867  -21.1453   20.5787 C   0  0  0  0  0  0
  -29.2082  -22.3707   19.9856 C   0  0  0  0  0  0
  -31.7926  -18.4479   16.8370 C   0  0  0  0  0  0
  -31.1919  -21.0297   18.0914 C   0  0  0  0  0  0
  -29.0348  -23.8066   20.6363 C   0  0  0  0  0  0
  -28.1358  -24.9266   19.9103 C   0  0  0  0  0  0
  -29.8897  -15.8680   20.6326 N   0  0  0  0  0  0
  -31.4706  -12.5271   19.1861 H   0  0  0  0  0  0
  -30.3468  -11.4489   19.9615 H   0  0  0  0  0  0
  -29.7883  -11.7352   17.5179 H   0  0  0  0  0  0
  -29.6492  -13.4619   17.7376 H   0  0  0  0  0  0
  -27.8850  -11.2877   18.9081 H   0  0  0  0  0  0
  -27.3813  -12.5373   17.8001 H   0  0  0  0  0  0
  -27.6419  -14.2571   19.4787 H   0  0  0  0  0  0
  -28.7075  -12.1680   21.4401 H   0  0  0  0  0  0
  -28.4282  -13.8538   21.7972 H   0  0  0  0  0  0
  -25.2764   -9.5685   22.4765 H   0  0  0  0  0  0
  -24.0002   -7.4635   22.7480 H   0  0  0  0  0  0
  -21.0838   -8.8775   19.8961 H   0  0  0  0  0  0
  -22.3698  -10.9673   19.6171 H   0  0  0  0  0  0
  -21.2019   -7.6152   23.9719 H   0  0  0  0  0  0
  -21.1482   -6.0526   25.9077 H   0  0  0  0  0  0
  -22.0596   -2.7612   23.2842 H   0  0  0  0  0  0
  -22.4078  -11.9900   22.4821 H   0  0  0  0  0  0
  -21.1081  -13.1264   22.2611 H   0  0  0  0  0  0
  -24.6526  -15.8462   20.5236 H   0  0  0  0  0  0
  -26.2671  -15.6323   20.0757 H   0  0  0  0  0  0
  -26.7184  -32.5416   23.1081 H   0  0  0  0  0  0
  -25.0072  -33.9711   25.0409 H   0  0  0  0  0  0
  -22.7198  -31.3020   21.3996 H   0  0  0  0  0  0
  -23.3753  -35.9621   23.3300 H   0  0  0  0  0  0
  -24.3579  -36.8911   22.2052 H   0  0  0  0  0  0
  -23.7252  -37.6490   23.6665 H   0  0  0  0  0  0
  -26.1088  -31.5346   20.6129 H   0  0  0  0  0  0
  -26.8475  -30.8200   22.0140 H   0  0  0  0  0  0
  -28.1053  -28.9231   21.2310 H   0  0  0  0  0  0
  -25.9612  -25.9459   18.9391 H   0  0  0  0  0  0
  -23.9791  -27.3318   18.9680 H   0  0  0  0  0  0
  -23.7647  -30.5965   19.4031 H   0  0  0  0  0  0
  -22.7616  -29.2504   19.8518 H   0  0  0  0  0  0
  -25.1300  -36.1920   25.0818 H   0  0  0  0  0  0
  -20.9991  -28.3280   24.1387 H   0  0  0  0  0  0
  -20.5685  -26.2308   23.3611 H   0  0  0  0  0  0
  -21.6648  -26.7439   22.1197 H   0  0  0  0  0  0
  -19.6915  -25.6294   21.1243 H   0  0  0  0  0  0
  -19.6690  -27.3193   20.6741 H   0  0  0  0  0  0
  -17.4203  -26.6673   21.4030 H   0  0  0  0  0  0
  -18.0336  -26.0075   22.9027 H   0  0  0  0  0  0
  -19.7943  -30.7280   24.2252 H   0  0  0  0  0  0
  -17.5019  -31.6263   24.5168 H   0  0  0  0  0  0
  -15.5357  -30.2980   23.7657 H   0  0  0  0  0  0
  -15.8681  -28.0820   22.7060 H   0  0  0  0  0  0
  -24.5899  -30.7085   25.7771 H   0  0  0  0  0  0
  -24.8921  -32.2900   26.4863 H   0  0  0  0  0  0
  -25.8040  -30.8907   27.0225 H   0  0  0  0  0  0
  -26.2934  -29.6739   24.1232 H   0  0  0  0  0  0
  -27.4032  -29.7266   25.4729 H   0  0  0  0  0  0
  -27.8813  -30.4272   23.9455 H   0  0  0  0  0  0
  -27.2668  -33.3629   26.2058 H   0  0  0  0  0  0
  -28.3874  -32.6869   25.0328 H   0  0  0  0  0  0
  -28.0715  -31.8456   26.5424 H   0  0  0  0  0  0
  -28.2594  -38.0096   24.7503 H   0  0  0  0  0  0
  -28.1077  -36.2626   24.6301 H   0  0  0  0  0  0
  -27.2291  -37.1460   25.8865 H   0  0  0  0  0  0
  -20.9386  -29.8773   21.6871 H   0  0  0  0  0  0
  -26.0171  -38.2842   24.1402 H   0  0  0  0  0  0
  -29.1051  -18.4783   21.5140 H   0  0  0  0  0  0
  -31.0938  -16.3812   18.3087 H   0  0  0  0  0  0
  -29.4896  -21.1423   21.6597 H   0  0  0  0  0  0
  -29.1611  -22.4062   18.9090 H   0  0  0  0  0  0
  -31.7626  -17.4464   16.4070 H   0  0  0  0  0  0
  -32.8412  -18.7168   16.9683 H   0  0  0  0  0  0
  -31.3464  -19.1222   16.1054 H   0  0  0  0  0  0
  -31.4569  -21.7885   18.8264 H   0  0  0  0  0  0
  -30.4499  -21.4331   17.4029 H   0  0  0  0  0  0
  -32.1106  -20.8756   17.5282 H   0  0  0  0  0  0
  -30.0458  -24.2112   20.6958 H   0  0  0  0  0  0
  -28.7096  -23.6885   21.6703 H   0  0  0  0  0  0
  -27.1111  -24.6255   20.1243 H   0  0  0  0  0  0
  -28.2631  -24.8210   18.8323 H   0  0  0  0  0  0
  -28.9962  -15.7317   21.0814 H   0  0  0  0  0  0
  1 25  1  0  0  0
  1 30  2  0  0  0
  1 83  1  0  0  0
  2  3  1  0  0  0
  2 25  1  0  0  0
  2 84  1  0  0  0
  2 85  1  0  0  0
  3  4  1  0  0  0
  3 86  1  0  0  0
  3 87  1  0  0  0
  4  5  1  0  0  0
  4 88  1  0  0  0
  4 89  1  0  0  0
  5  6  1  0  0  0
  5 26  1  0  0  0
  5 90  1  0  0  0
  6 25  1  0  0  0
  6 91  1  0  0  0
  6 92  1  0  0  0
  7  8  2  0  0  0
  7 26  1  0  0  0
  7 29  1  0  0  0
  8  9  1  0  0  0
  8 22  1  0  0  0
  9 10  1  0  0  0
  9 27  2  0  0  0
 10 11  2  0  0  0
 10 15  1  0  0  0
 11 12  1  0  0  0
 11 93  1  0  0  0
 12 13  2  0  0  0
 12 94  1  0  0  0
 13 14  1  0  0  0
 13 31  1  0  0  0
 14 15  2  0  0  0
 14 95  1  0  0  0
 15 96  1  0  0  0
 16 17  2  0  0  0
 16 21  1  0  0  0
 16 31  1  0  0  0
 17 18  1  0  0  0
 17 97  1  0  0  0
 18 19  2  0  0  0
 18 98  1  0  0  0
 19 20  1  0  0  0
 19 24  1  0  0  0
 20 21  2  0  0  0
 20 99  1  0  0  0
 21 23  1  0  0  0
 22 28  1  0  0  0
 22 32  2  0  0  0
 26 27  1  0  0  0
 28100  1  0  0  0
 28101  1  0  0  0
 29102  1  0  0  0
 29103  1  0  0  0
 33 34  1  0  0  0
 33 66  1  0  0  0
 33 70  2  0  0  0
 34 36  1  0  0  0
 34 59  1  0  0  0
 34104  1  0  0  0
 35 44  2  0  0  0
 35 45  1  0  0  0
 35 68  1  0  0  0
 36 56  1  0  0  0
 36105  1  0  0  0
 37 39  1  0  0  0
 37 47  1  0  0  0
 37 66  1  0  0  0
 37106  1  0  0  0
 38 43  2  0  0  0
 38 46  1  0  0  0
 38 47  1  0  0  0
 39 64  1  0  0  0
 39 67  2  0  0  0
 40 52  1  0  0  0
 40 53  2  0  0  0
 40 58  1  0  0  0
 41107  1  0  0  0
 41108  1  0  0  0
 41109  1  0  0  0
 41 48  1  0  0  0
 42 43  1  0  0  0
 42 66  1  0  0  0
 42110  1  0  0  0
 42111  1  0  0  0
 43 44  1  0  0  0
 44112  1  0  0  0
 45 46  2  0  0  0
 45113  1  0  0  0
 46114  1  0  0  0
 47115  1  0  0  0
 47116  1  0  0  0
 48 56  1  0  0  0
 48 65  1  0  0  0
 48117  1  0  0  0
 49 50  1  0  0  0
 49 53  1  0  0  0
 49 64  1  0  0  0
 49118  1  0  0  0
 50 51  1  0  0  0
 50119  1  0  0  0
 50120  1  0  0  0
 51 52  1  0  0  0
 51121  1  0  0  0
 51122  1  0  0  0
 52123  1  0  0  0
 52124  1  0  0  0
 53 54  1  0  0  0
 54 55  2  0  0  0
 54125  1  0  0  0
 55 57  1  0  0  0
 55126  1  0  0  0
 56 69  2  0  0  0
 57 58  2  0  0  0
 57127  1  0  0  0
 58128  1  0  0  0
 59 60  1  0  0  0
 59 61  1  0  0  0
 59 62  1  0  0  0
 60129  1  0  0  0
 60130  1  0  0  0
 60131  1  0  0  0
 61132  1  0  0  0
 61133  1  0  0  0
 61134  1  0  0  0
 62135  1  0  0  0
 62136  1  0  0  0
 62137  1  0  0  0
 63 65  1  0  0  0
 63138  1  0  0  0
 63139  1  0  0  0
 63140  1  0  0  0
 64141  1  0  0  0
 65142  1  0  0  0
 68 82  1  0  0  0
 71 73  2  0  0  0
 71 76  1  0  0  0
 71143  1  0  0  0
 72 74  1  0  0  0
 72 76  2  0  0  0
 72144  1  0  0  0
 73 75  1  0  0  0
 73 77  1  0  0  0
 74 75  2  0  0  0
 74 79  1  0  0  0
 75 80  1  0  0  0
 76 83  1  0  0  0
 77 78  2  0  0  0
 77145  1  0  0  0
 78 81  1  0  0  0
 78146  1  0  0  0
 79147  1  0  0  0
 79148  1  0  0  0
 79149  1  0  0  0
 80150  1  0  0  0
 80151  1  0  0  0
 80152  1  0  0  0
 81 82  1  0  0  0
 81153  1  0  0  0
 81154  1  0  0  0
 82155  1  0  0  0
 82156  1  0  0  0
 83157  1  0  0  0
M  ISO  4   1 100  68 101  82 101  83 100
M  END
> <chiral flag>
0

> <version>
0

> <s_m_source_file>
/data/baiqing/PycharmProjects/Reinvent-master-3.2/result/LINK_invent/BTK/process_docking_weight1_custom_product_contain_oxygen_bond_distance_aromatic_linkinvent_7_9_3/rearranged_h_0118.sdf

> <i_m_source_file_index>
73

> <r_mmod_Potential_Energy-OPLS-2005>
183.220077514648

> <r_mmod_Stretch_Energy-OPLS-2005>
118.368682861328

> <r_mmod_Bend_Energy-OPLS-2005>
148.922454833984

> <r_mmod_Torsional_Energy-OPLS-2005>
244.151412963867

> <r_mmod_Improper_Torsional_Energy-OPLS-2005>
6.36543846130371

> <r_mmod_Van_der_Waal_Energy-OPLS-2005>
160.635498046875

> <r_mmod_Electrostatic_Energy-OPLS-2005>
-365.975402832031

> <r_mmod_Solvation_Energy-OPLS-2005>
-205.622451782227

> <b_mmod_Minimization_Converged-OPLS-2005>
0

> <r_mmod_RMS_Derivative-OPLS-2005>
0.653656601905823

$$$$
74
                    3D
 Structure written by MMmdl.
157165  0  0  1  0            999 V2000
  -30.6911  -14.6429   20.6123 C   0  0  0  0  0  0
  -30.4220  -12.4254   19.4695 C   0  0  0  0  0  0
  -29.5078  -12.5302   18.2297 C   0  0  0  0  0  0
  -28.0307  -12.3584   18.6306 C   0  0  0  0  0  0
  -27.6473  -13.2318   19.8531 C   0  0  2  0  0  0
  -28.6792  -13.1124   20.9917 C   0  0  0  0  0  0
  -25.2518  -13.8213   20.5602 C   0  0  0  0  0  0
  -24.1813  -13.0468   20.9146 C   0  0  0  0  0  0
  -24.6398  -11.6943   20.8727 C   0  0  0  0  0  0
  -23.9086  -10.4311   21.0410 C   0  0  0  0  0  0
  -24.3637   -9.4224   21.9189 C   0  0  0  0  0  0
  -23.6301   -8.2264   22.0769 C   0  0  0  0  0  0
  -22.4279   -8.0310   21.3560 C   0  0  0  0  0  0
  -21.9927   -9.0285   20.4655 C   0  0  0  0  0  0
  -22.7267  -10.2150   20.3055 C   0  0  0  0  0  0
  -21.6866   -6.0753   22.5283 C   0  0  0  0  0  0
  -21.4018   -6.5652   23.8218 C   0  0  0  0  0  0
  -21.3665   -5.6806   24.9176 C   0  0  0  0  0  0
  -21.6024   -4.3067   24.7219 C   0  0  0  0  0  0
  -21.8830   -3.8162   23.4344 C   0  0  0  0  0  0
  -21.9191   -4.6977   22.3399 C   0  0  0  0  0  0
  -22.7831  -13.5240   21.1835 C   0  0  0  0  0  0
  -22.1662   -4.2171   21.0974 F   0  0  0  0  0  0
  -21.5626   -3.4538   25.7732 F   0  0  0  0  0  0
  -30.0034  -13.4554   20.4494 N   0  0  0  0  0  0
  -26.2950  -12.9413   20.3237 N   0  0  0  0  0  0
  -25.9323  -11.6559   20.5713 N   0  0  0  0  0  0
  -22.0464  -12.8239   22.0396 N   0  0  0  0  0  0
  -25.4192  -15.1927   20.3867 N   0  0  0  0  0  0
  -31.7767  -14.8011   20.0445 O   0  0  0  0  0  0
  -21.6650   -6.8902   21.4254 O   0  0  0  0  0  0
  -22.3504  -14.5549   20.6700 O   0  0  0  0  0  0
  -24.6285  -31.8578   23.1984 C   0  0  0  0  0  0
  -25.9115  -32.4763   23.8329 C   0  0  1  0  0  0
  -27.2217  -27.2907   20.1445 C   0  0  0  0  0  0
  -25.5937  -33.8563   24.2262 N   0  0  0  0  0  0
  -23.4239  -30.4797   21.5403 C   0  0  2  0  0  0
  -24.8723  -28.9314   20.1082 C   0  0  0  0  0  0
  -22.7499  -29.4596   22.4898 C   0  0  0  0  0  0
  -18.0283  -28.1377   22.8442 C   0  0  0  0  0  0
  -24.1499  -36.7276   23.2644 C   0  0  0  0  0  0
  -25.9655  -30.7820   21.3716 C   0  0  0  0  0  0
  -26.0398  -29.4077   20.7178 C   0  0  0  0  0  0
  -27.2184  -28.6006   20.7211 C   0  0  0  0  0  0
  -26.0317  -26.8753   19.5023 C   0  0  0  0  0  0
  -24.8719  -27.6728   19.4875 C   0  0  0  0  0  0
  -23.6409  -29.8132   20.1557 C   0  0  0  0  0  0
  -25.4123  -36.3076   24.0335 C   0  0  1  0  0  0
  -20.5890  -28.3672   23.1243 C   0  0  2  0  0  0
  -20.6771  -26.9388   22.5374 C   0  0  0  0  0  0
  -19.5752  -26.6370   21.5169 C   0  0  0  0  0  0
  -18.1934  -26.7913   22.1593 C   0  0  0  0  0  0
  -19.1540  -28.8828   23.2844 C   0  0  0  0  0  0
  -18.9478  -30.1442   23.8855 C   0  0  0  0  0  0
  -17.6480  -30.6568   24.0546 C   0  0  0  0  0  0
  -25.9055  -34.9444   23.5097 C   0  0  0  0  0  0
  -16.5367  -29.9067   23.6329 C   0  0  0  0  0  0
  -16.7273  -28.6497   23.0320 C   0  0  0  0  0  0
  -26.4498  -31.6590   25.0704 C   0  0  0  0  0  0
  -25.3715  -31.3720   26.1422 C   0  0  0  0  0  0
  -27.0355  -30.3023   24.6147 C   0  0  0  0  0  0
  -27.6062  -32.4320   25.7467 C   0  0  0  0  0  0
  -27.5577  -37.1793   24.8473 C   0  0  0  0  0  0
  -21.4205  -29.3040   22.3656 N   0  0  0  0  0  0
  -26.4297  -37.3766   23.9417 N   0  0  0  0  0  0
  -24.6913  -31.0561   22.0945 N   0  0  0  0  0  0
  -23.4200  -28.8124   23.2983 O   0  0  0  0  0  0
  -28.3254  -26.4184   20.2250 O   0  0  0  0  0  0
  -26.5619  -34.8917   22.4663 O   0  0  0  0  0  0
  -23.5437  -32.1382   23.7297 O   0  0  0  0  0  0
  -30.8505  -19.2419   20.2206 C   0  0  0  0  0  0
  -30.9573  -17.8305   20.4040 C   0  0  0  0  0  0
  -28.7283  -19.2495   21.3123 C   0  0  0  0  0  0
  -28.8274  -17.8281   21.5153 C   0  0  0  0  0  0
  -29.7489  -20.0118   20.6755 C   0  0  0  0  0  0
  -29.9641  -17.0626   21.0718 C   0  0  0  0  0  0
  -30.5571  -14.3332   23.5275 C   0  0  0  0  0  0
  -30.2960  -15.4633   22.8395 C   0  0  0  0  0  0
  -28.9795  -22.3868   20.8553 C   0  0  0  0  0  0
  -27.6762  -17.1626   22.2583 C   0  0  0  0  0  0
  -29.2493  -23.9498   20.6795 C   0  0  0  0  0  0
  -28.0677  -24.9462   20.2652 C   0  0  0  0  0  0
  -29.7992  -21.4445   20.4707 N   0  0  0  0  0  0
  -30.1768  -15.6339   21.4376 N   0  0  0  0  0  0
  -31.4695  -12.5244   19.1772 H   0  0  0  0  0  0
  -30.3355  -11.4348   19.9173 H   0  0  0  0  0  0
  -29.7840  -11.7788   17.4880 H   0  0  0  0  0  0
  -29.6464  -13.5003   17.7490 H   0  0  0  0  0  0
  -27.8679  -11.3048   18.8605 H   0  0  0  0  0  0
  -27.3809  -12.5885   17.7852 H   0  0  0  0  0  0
  -27.6617  -14.2667   19.5100 H   0  0  0  0  0  0
  -28.6912  -12.1010   21.3998 H   0  0  0  0  0  0
  -28.3838  -13.7668   21.8104 H   0  0  0  0  0  0
  -25.2782   -9.5712   22.4752 H   0  0  0  0  0  0
  -24.0019   -7.4670   22.7498 H   0  0  0  0  0  0
  -21.0858   -8.8804   19.8957 H   0  0  0  0  0  0
  -22.3738  -10.9688   19.6155 H   0  0  0  0  0  0
  -21.2022   -7.6162   23.9734 H   0  0  0  0  0  0
  -21.1467   -6.0522   25.9084 H   0  0  0  0  0  0
  -22.0593   -2.7619   23.2830 H   0  0  0  0  0  0
  -22.4071  -11.9873   22.4758 H   0  0  0  0  0  0
  -21.1089  -13.1285   22.2609 H   0  0  0  0  0  0
  -24.6455  -15.8446   20.4541 H   0  0  0  0  0  0
  -26.2648  -15.6149   20.0285 H   0  0  0  0  0  0
  -26.7174  -32.5416   23.1070 H   0  0  0  0  0  0
  -25.0119  -33.9710   25.0424 H   0  0  0  0  0  0
  -22.7181  -31.3011   21.3956 H   0  0  0  0  0  0
  -23.3763  -35.9605   23.3315 H   0  0  0  0  0  0
  -24.3592  -36.8886   22.2060 H   0  0  0  0  0  0
  -23.7252  -37.6479   23.6656 H   0  0  0  0  0  0
  -26.0976  -31.5439   20.6006 H   0  0  0  0  0  0
  -26.8456  -30.8337   22.0017 H   0  0  0  0  0  0
  -28.1123  -28.9577   21.2122 H   0  0  0  0  0  0
  -25.9662  -25.9110   19.0186 H   0  0  0  0  0  0
  -23.9757  -27.3076   19.0033 H   0  0  0  0  0  0
  -23.7617  -30.5901   19.4005 H   0  0  0  0  0  0
  -22.7611  -29.2444   19.8488 H   0  0  0  0  0  0
  -25.1303  -36.1927   25.0824 H   0  0  0  0  0  0
  -20.9960  -28.3245   24.1370 H   0  0  0  0  0  0
  -20.5651  -26.2278   23.3579 H   0  0  0  0  0  0
  -21.6649  -26.7406   22.1189 H   0  0  0  0  0  0
  -19.6941  -25.6284   21.1199 H   0  0  0  0  0  0
  -19.6718  -27.3169   20.6697 H   0  0  0  0  0  0
  -17.4201  -26.6607   21.4008 H   0  0  0  0  0  0
  -18.0389  -26.0059   22.9009 H   0  0  0  0  0  0
  -19.7969  -30.7243   24.2212 H   0  0  0  0  0  0
  -17.5053  -31.6253   24.5164 H   0  0  0  0  0  0
  -15.5370  -30.2965   23.7691 H   0  0  0  0  0  0
  -15.8672  -28.0833   22.7019 H   0  0  0  0  0  0
  -24.5887  -30.7085   25.7729 H   0  0  0  0  0  0
  -24.8903  -32.2888   26.4839 H   0  0  0  0  0  0
  -25.8020  -30.8888   27.0202 H   0  0  0  0  0  0
  -26.2931  -29.6761   24.1179 H   0  0  0  0  0  0
  -27.4106  -29.7285   25.4631 H   0  0  0  0  0  0
  -27.8776  -30.4347   23.9342 H   0  0  0  0  0  0
  -27.2688  -33.3632   26.2025 H   0  0  0  0  0  0
  -28.3867  -32.6859   25.0279 H   0  0  0  0  0  0
  -28.0732  -31.8452   26.5389 H   0  0  0  0  0  0
  -28.2592  -38.0088   24.7504 H   0  0  0  0  0  0
  -28.1073  -36.2615   24.6317 H   0  0  0  0  0  0
  -27.2286  -37.1452   25.8872 H   0  0  0  0  0  0
  -20.9385  -29.8813   21.6902 H   0  0  0  0  0  0
  -26.0181  -38.2837   24.1425 H   0  0  0  0  0  0
  -31.6725  -19.7508   19.7369 H   0  0  0  0  0  0
  -31.8696  -17.3584   20.0728 H   0  0  0  0  0  0
  -27.8484  -19.7593   21.6816 H   0  0  0  0  0  0
  -30.6237  -14.3697   24.6055 H   0  0  0  0  0  0
  -30.7124  -13.3663   23.0704 H   0  0  0  0  0  0
  -30.1643  -16.3846   23.3909 H   0  0  0  0  0  0
  -28.0624  -22.1548   21.4018 H   0  0  0  0  0  0
  -26.7285  -17.4199   21.7862 H   0  0  0  0  0  0
  -27.6460  -17.5124   23.2912 H   0  0  0  0  0  0
  -27.7393  -16.0759   22.2768 H   0  0  0  0  0  0
  -30.0597  -24.0689   19.9618 H   0  0  0  0  0  0
  -29.6527  -24.3021   21.6309 H   0  0  0  0  0  0
  -27.2349  -24.7710   20.9491 H   0  0  0  0  0  0
  -27.7262  -24.6337   19.2778 H   0  0  0  0  0  0
  1 25  1  0  0  0
  1 30  2  0  0  0
  1 84  1  0  0  0
  2  3  1  0  0  0
  2 25  1  0  0  0
  2 85  1  0  0  0
  2 86  1  0  0  0
  3  4  1  0  0  0
  3 87  1  0  0  0
  3 88  1  0  0  0
  4  5  1  0  0  0
  4 89  1  0  0  0
  4 90  1  0  0  0
  5  6  1  0  0  0
  5 26  1  0  0  0
  5 91  1  0  0  0
  6 25  1  0  0  0
  6 92  1  0  0  0
  6 93  1  0  0  0
  7  8  2  0  0  0
  7 26  1  0  0  0
  7 29  1  0  0  0
  8  9  1  0  0  0
  8 22  1  0  0  0
  9 10  1  0  0  0
  9 27  2  0  0  0
 10 11  2  0  0  0
 10 15  1  0  0  0
 11 12  1  0  0  0
 11 94  1  0  0  0
 12 13  2  0  0  0
 12 95  1  0  0  0
 13 14  1  0  0  0
 13 31  1  0  0  0
 14 15  2  0  0  0
 14 96  1  0  0  0
 15 97  1  0  0  0
 16 17  2  0  0  0
 16 21  1  0  0  0
 16 31  1  0  0  0
 17 18  1  0  0  0
 17 98  1  0  0  0
 18 19  2  0  0  0
 18 99  1  0  0  0
 19 20  1  0  0  0
 19 24  1  0  0  0
 20 21  2  0  0  0
 20100  1  0  0  0
 21 23  1  0  0  0
 22 28  1  0  0  0
 22 32  2  0  0  0
 26 27  1  0  0  0
 28101  1  0  0  0
 28102  1  0  0  0
 29103  1  0  0  0
 29104  1  0  0  0
 33 34  1  0  0  0
 33 66  1  0  0  0
 33 70  2  0  0  0
 34 36  1  0  0  0
 34 59  1  0  0  0
 34105  1  0  0  0
 35 44  2  0  0  0
 35 45  1  0  0  0
 35 68  1  0  0  0
 36 56  1  0  0  0
 36106  1  0  0  0
 37 39  1  0  0  0
 37 47  1  0  0  0
 37 66  1  0  0  0
 37107  1  0  0  0
 38 43  2  0  0  0
 38 46  1  0  0  0
 38 47  1  0  0  0
 39 64  1  0  0  0
 39 67  2  0  0  0
 40 52  1  0  0  0
 40 53  2  0  0  0
 40 58  1  0  0  0
 41108  1  0  0  0
 41109  1  0  0  0
 41110  1  0  0  0
 41 48  1  0  0  0
 42 43  1  0  0  0
 42 66  1  0  0  0
 42111  1  0  0  0
 42112  1  0  0  0
 43 44  1  0  0  0
 44113  1  0  0  0
 45 46  2  0  0  0
 45114  1  0  0  0
 46115  1  0  0  0
 47116  1  0  0  0
 47117  1  0  0  0
 48 56  1  0  0  0
 48 65  1  0  0  0
 48118  1  0  0  0
 49 50  1  0  0  0
 49 53  1  0  0  0
 49 64  1  0  0  0
 49119  1  0  0  0
 50 51  1  0  0  0
 50120  1  0  0  0
 50121  1  0  0  0
 51 52  1  0  0  0
 51122  1  0  0  0
 51123  1  0  0  0
 52124  1  0  0  0
 52125  1  0  0  0
 53 54  1  0  0  0
 54 55  2  0  0  0
 54126  1  0  0  0
 55 57  1  0  0  0
 55127  1  0  0  0
 56 69  2  0  0  0
 57 58  2  0  0  0
 57128  1  0  0  0
 58129  1  0  0  0
 59 60  1  0  0  0
 59 61  1  0  0  0
 59 62  1  0  0  0
 60130  1  0  0  0
 60131  1  0  0  0
 60132  1  0  0  0
 61133  1  0  0  0
 61134  1  0  0  0
 61135  1  0  0  0
 62136  1  0  0  0
 62137  1  0  0  0
 62138  1  0  0  0
 63 65  1  0  0  0
 63139  1  0  0  0
 63140  1  0  0  0
 63141  1  0  0  0
 64142  1  0  0  0
 65143  1  0  0  0
 68 82  1  0  0  0
 71 72  2  0  0  0
 71 75  1  0  0  0
 71144  1  0  0  0
 72 76  1  0  0  0
 72145  1  0  0  0
 73 74  1  0  0  0
 73 75  2  0  0  0
 73146  1  0  0  0
 74 76  2  0  0  0
 74 80  1  0  0  0
 75 83  1  0  0  0
 76 84  1  0  0  0
 77 78  2  0  0  0
 77147  1  0  0  0
 77148  1  0  0  0
 78 84  1  0  0  0
 78149  1  0  0  0
 79 81  1  0  0  0
 79 83  2  0  0  0
 79150  1  0  0  0
 80151  1  0  0  0
 80152  1  0  0  0
 80153  1  0  0  0
 81 82  1  0  0  0
 81154  1  0  0  0
 81155  1  0  0  0
 82156  1  0  0  0
 82157  1  0  0  0
M  ISO  4   1 100  68 101  82 101  84 100
M  END
> <chiral flag>
0

> <version>
0

> <s_m_source_file>
/data/baiqing/PycharmProjects/Reinvent-master-3.2/result/LINK_invent/BTK/process_docking_weight1_custom_product_contain_oxygen_bond_distance_aromatic_linkinvent_7_9_3/rearranged_h_0118.sdf

> <i_m_source_file_index>
74

> <r_mmod_Potential_Energy-OPLS-2005>
264.539947509766

> <r_mmod_Stretch_Energy-OPLS-2005>
105.939743041992

> <r_mmod_Bend_Energy-OPLS-2005>
169.320159912109

> <r_mmod_Torsional_Energy-OPLS-2005>
296.904266357422

> <r_mmod_Improper_Torsional_Energy-OPLS-2005>
4.61074352264404

> <r_mmod_Van_der_Waal_Energy-OPLS-2005>
150.901672363281

> <r_mmod_Electrostatic_Energy-OPLS-2005>
-325.219879150391

> <r_mmod_Solvation_Energy-OPLS-2005>
-195.070617675781

> <b_mmod_Minimization_Converged-OPLS-2005>
0

> <r_mmod_RMS_Derivative-OPLS-2005>
3.25477814674377

$$$$
75
                    3D
 Structure written by MMmdl.
171179  0  0  1  0            999 V2000
  -30.6836  -14.6149   20.6474 C   0  0  0  0  0  0
  -30.4651  -12.3674   19.5881 C   0  0  0  0  0  0
  -29.5745  -12.3738   18.3349 C   0  0  0  0  0  0
  -28.0756  -12.3070   18.7045 C   0  0  0  0  0  0
  -27.6658  -13.2043   19.9076 C   0  0  2  0  0  0
  -28.6783  -13.1185   21.0611 C   0  0  0  0  0  0
  -25.2634  -13.8162   20.5711 C   0  0  0  0  0  0
  -24.1809  -13.0409   20.9149 C   0  0  0  0  0  0
  -24.6351  -11.6904   20.8720 C   0  0  0  0  0  0
  -23.9020  -10.4290   21.0375 C   0  0  0  0  0  0
  -24.3601   -9.4220   21.9138 C   0  0  0  0  0  0
  -23.6257   -8.2239   22.0731 C   0  0  0  0  0  0
  -22.4239   -8.0276   21.3525 C   0  0  0  0  0  0
  -21.9880   -9.0245   20.4658 C   0  0  0  0  0  0
  -22.7206  -10.2116   20.3042 C   0  0  0  0  0  0
  -21.6835   -6.0755   22.5293 C   0  0  0  0  0  0
  -21.4004   -6.5645   23.8230 C   0  0  0  0  0  0
  -21.3623   -5.6791   24.9190 C   0  0  0  0  0  0
  -21.6014   -4.3050   24.7232 C   0  0  0  0  0  0
  -21.8816   -3.8143   23.4357 C   0  0  0  0  0  0
  -21.9180   -4.6977   22.3422 C   0  0  0  0  0  0
  -22.7901  -13.5308   21.1839 C   0  0  0  0  0  0
  -22.1637   -4.2139   21.1001 F   0  0  0  0  0  0
  -21.5604   -3.4574   25.7778 F   0  0  0  0  0  0
  -29.9983  -13.4321   20.5047 N   0  0  0  0  0  0
  -26.3022  -12.9276   20.3473 N   0  0  0  0  0  0
  -25.9268  -11.6451   20.5744 N   0  0  0  0  0  0
  -22.0524  -12.8233   22.0410 N   0  0  0  0  0  0
  -25.4469  -15.1855   20.4206 N   0  0  0  0  0  0
  -31.8255  -14.7389   20.1903 O   0  0  0  0  0  0
  -21.6615   -6.8878   21.4242 O   0  0  0  0  0  0
  -22.3639  -14.5652   20.6793 O   0  0  0  0  0  0
  -24.6157  -31.8663   23.2066 C   0  0  0  0  0  0
  -25.9055  -32.4802   23.8375 C   0  0  1  0  0  0
  -27.2214  -27.4007   20.1402 C   0  0  0  0  0  0
  -25.5969  -33.8627   24.2322 N   0  0  0  0  0  0
  -23.4108  -30.4880   21.5464 C   0  0  2  0  0  0
  -24.8616  -28.9529   20.1122 C   0  0  0  0  0  0
  -22.7429  -29.4608   22.4929 C   0  0  0  0  0  0
  -18.0273  -28.1401   22.8490 C   0  0  0  0  0  0
  -24.1509  -36.7251   23.2645 C   0  0  0  0  0  0
  -25.9436  -30.8211   21.3792 C   0  0  0  0  0  0
  -26.0173  -29.4570   20.7171 C   0  0  0  0  0  0
  -27.2081  -28.6883   20.7294 C   0  0  0  0  0  0
  -26.0577  -26.9218   19.5183 C   0  0  0  0  0  0
  -24.8787  -27.6863   19.5036 C   0  0  0  0  0  0
  -23.6245  -29.8183   20.1596 C   0  0  0  0  0  0
  -25.4153  -36.3118   24.0320 C   0  0  1  0  0  0
  -20.5878  -28.3666   23.1325 C   0  0  2  0  0  0
  -20.6800  -26.9406   22.5427 C   0  0  0  0  0  0
  -19.5767  -26.6375   21.5251 C   0  0  0  0  0  0
  -18.1921  -26.7936   22.1608 C   0  0  0  0  0  0
  -19.1542  -28.8848   23.2896 C   0  0  0  0  0  0
  -18.9445  -30.1454   23.8882 C   0  0  0  0  0  0
  -17.6474  -30.6606   24.0566 C   0  0  0  0  0  0
  -25.9082  -34.9474   23.5116 C   0  0  0  0  0  0
  -16.5361  -29.9082   23.6386 C   0  0  0  0  0  0
  -16.7266  -28.6511   23.0375 C   0  0  0  0  0  0
  -26.4496  -31.6596   25.0712 C   0  0  0  0  0  0
  -25.3699  -31.3665   26.1398 C   0  0  0  0  0  0
  -27.0390  -30.3062   24.6128 C   0  0  0  0  0  0
  -27.6121  -32.4316   25.7408 C   0  0  0  0  0  0
  -27.5609  -37.1769   24.8466 C   0  0  0  0  0  0
  -21.4152  -29.3020   22.3700 N   0  0  0  0  0  0
  -26.4334  -37.3812   23.9390 N   0  0  0  0  0  0
  -24.6738  -31.0757   22.0997 N   0  0  0  0  0  0
  -23.4191  -28.8163   23.2989 O   0  0  0  0  0  0
  -28.3278  -26.5806   20.2181 O   0  0  0  0  0  0
  -26.5617  -34.8926   22.4659 O   0  0  0  0  0  0
  -23.5349  -32.1423   23.7454 O   0  0  0  0  0  0
  -27.8984  -17.7646   18.9182 C   0  0  0  0  0  0
  -29.0348  -18.0188   21.4279 C   0  0  0  0  0  0
  -28.8438  -16.8010   19.3473 C   0  0  0  0  0  0
  -27.4905  -18.8494   19.6983 C   0  0  0  0  0  0
  -29.3377  -16.8035   20.7036 C   0  0  0  0  0  0
  -28.1881  -19.0680   20.9107 C   0  0  0  0  0  0
  -28.3728  -15.3704   17.3644 C   0  0  0  0  0  0
  -29.2390  -15.8928   18.2568 C   0  0  0  0  0  0
  -26.3729  -19.7422   19.2555 C   0  0  0  0  0  0
  -25.9361  -20.1300   18.0319 C   0  0  0  0  0  0
  -24.7181  -21.0331   17.8927 C   0  0  0  0  0  0
  -26.5709  -19.7668   16.7010 C   0  0  0  0  0  0
  -30.7016  -15.8215   22.6917 C   0  0  0  0  0  0
  -28.1849  -24.0557   20.4441 C   0  0  0  0  0  0
  -27.8458  -22.8349   21.3685 C   0  0  0  0  0  0
  -28.1503  -25.4560   21.1252 C   0  0  0  0  0  0
  -28.4522  -21.4724   20.8912 C   0  0  0  0  0  0
  -30.1049  -15.6717   21.3245 N   0  0  0  0  0  0
  -28.0062  -20.2769   21.5901 O   0  0  0  0  0  0
  -31.5135  -12.4925   19.3091 H   0  0  0  0  0  0
  -30.4142  -11.4023   20.0968 H   0  0  0  0  0  0
  -29.8372  -11.5127   17.7214 H   0  0  0  0  0  0
  -29.8225  -13.2391   17.7310 H   0  0  0  0  0  0
  -27.8660  -11.2667   18.9538 H   0  0  0  0  0  0
  -27.4622  -12.5383   17.8362 H   0  0  0  0  0  0
  -27.6749  -14.2356   19.5763 H   0  0  0  0  0  0
  -28.6684  -12.1307   21.5236 H   0  0  0  0  0  0
  -28.4024  -13.8152   21.8557 H   0  0  0  0  0  0
  -25.2734   -9.5692   22.4749 H   0  0  0  0  0  0
  -23.9915   -7.4660   22.7480 H   0  0  0  0  0  0
  -21.0779   -8.8825   19.9016 H   0  0  0  0  0  0
  -22.3633  -10.9678   19.6187 H   0  0  0  0  0  0
  -21.2005   -7.6170   23.9714 H   0  0  0  0  0  0
  -21.1414   -6.0557   25.9071 H   0  0  0  0  0  0
  -22.0611   -2.7617   23.2900 H   0  0  0  0  0  0
  -22.4091  -11.9754   22.4577 H   0  0  0  0  0  0
  -21.1289  -13.1438   22.2937 H   0  0  0  0  0  0
  -24.7071  -15.8656   20.5500 H   0  0  0  0  0  0
  -26.3319  -15.6074   20.1699 H   0  0  0  0  0  0
  -26.7073  -32.5520   23.1072 H   0  0  0  0  0  0
  -25.0268  -33.9816   25.0582 H   0  0  0  0  0  0
  -22.7045  -31.3062   21.3981 H   0  0  0  0  0  0
  -23.3846  -35.9506   23.3347 H   0  0  0  0  0  0
  -24.3643  -36.8852   22.2064 H   0  0  0  0  0  0
  -23.7166  -37.6411   23.6658 H   0  0  0  0  0  0
  -26.1002  -31.5940   20.6262 H   0  0  0  0  0  0
  -26.8137  -30.8443   22.0193 H   0  0  0  0  0  0
  -28.0914  -29.0551   21.2331 H   0  0  0  0  0  0
  -26.0575  -25.9349   19.0790 H   0  0  0  0  0  0
  -23.9883  -27.2782   19.0511 H   0  0  0  0  0  0
  -23.7248  -30.5928   19.3978 H   0  0  0  0  0  0
  -22.7523  -29.2309   19.8645 H   0  0  0  0  0  0
  -25.1334  -36.2022   25.0812 H   0  0  0  0  0  0
  -20.9951  -28.3226   24.1456 H   0  0  0  0  0  0
  -20.5806  -26.2225   23.3607 H   0  0  0  0  0  0
  -21.6650  -26.7527   22.1149 H   0  0  0  0  0  0
  -19.6952  -25.6283   21.1271 H   0  0  0  0  0  0
  -19.6750  -27.3205   20.6835 H   0  0  0  0  0  0
  -17.4228  -26.6768   21.3958 H   0  0  0  0  0  0
  -18.0236  -26.0062   22.8970 H   0  0  0  0  0  0
  -19.7946  -30.7284   24.2207 H   0  0  0  0  0  0
  -17.5039  -31.6299   24.5138 H   0  0  0  0  0  0
  -15.5362  -30.2981   23.7748 H   0  0  0  0  0  0
  -15.8663  -28.0845   22.7114 H   0  0  0  0  0  0
  -24.5968  -30.6935   25.7640 H   0  0  0  0  0  0
  -24.8717  -32.2764   26.4735 H   0  0  0  0  0  0
  -25.7947  -30.8868   27.0202 H   0  0  0  0  0  0
  -26.2931  -29.6697   24.1317 H   0  0  0  0  0  0
  -27.4352  -29.7446   25.4592 H   0  0  0  0  0  0
  -27.8663  -30.4443   23.9166 H   0  0  0  0  0  0
  -27.2865  -33.3697   26.1880 H   0  0  0  0  0  0
  -28.3882  -32.6709   25.0136 H   0  0  0  0  0  0
  -28.0772  -31.8434   26.5309 H   0  0  0  0  0  0
  -28.2603  -38.0105   24.7681 H   0  0  0  0  0  0
  -28.1116  -36.2651   24.6132 H   0  0  0  0  0  0
  -27.2304  -37.1227   25.8855 H   0  0  0  0  0  0
  -20.9316  -29.8714   21.6905 H   0  0  0  0  0  0
  -26.0237  -38.2855   24.1501 H   0  0  0  0  0  0
  -27.4710  -17.6818   17.9340 H   0  0  0  0  0  0
  -29.4759  -18.1798   22.4004 H   0  0  0  0  0  0
  -28.7026  -14.7646   16.5366 H   0  0  0  0  0  0
  -27.3037  -15.5285   17.4517 H   0  0  0  0  0  0
  -30.2975  -15.7096   18.1318 H   0  0  0  0  0  0
  -25.7844  -20.1132   20.0827 H   0  0  0  0  0  0
  -24.1107  -21.0519   18.7986 H   0  0  0  0  0  0
  -24.0751  -20.7354   17.0619 H   0  0  0  0  0  0
  -25.0564  -22.0511   17.7068 H   0  0  0  0  0  0
  -27.6591  -19.7299   16.7693 H   0  0  0  0  0  0
  -26.3178  -20.5155   15.9466 H   0  0  0  0  0  0
  -26.1958  -18.8113   16.3308 H   0  0  0  0  0  0
  -31.5159  -16.5543   22.7181 H   0  0  0  0  0  0
  -31.1765  -14.8835   23.0105 H   0  0  0  0  0  0
  -29.9999  -16.0451   23.5065 H   0  0  0  0  0  0
  -27.5100  -24.0646   19.5857 H   0  0  0  0  0  0
  -29.1858  -23.9236   20.0354 H   0  0  0  0  0  0
  -26.7611  -22.7536   21.4531 H   0  0  0  0  0  0
  -28.1995  -23.0399   22.3803 H   0  0  0  0  0  0
  -28.9637  -25.5020   21.8480 H   0  0  0  0  0  0
  -27.2443  -25.5520   21.7264 H   0  0  0  0  0  0
  -29.5362  -21.5107   21.0288 H   0  0  0  0  0  0
  -28.3047  -21.3926   19.8135 H   0  0  0  0  0  0
  1 25  1  0  0  0
  1 30  2  0  0  0
  1 88  1  0  0  0
  2  3  1  0  0  0
  2 25  1  0  0  0
  2 90  1  0  0  0
  2 91  1  0  0  0
  3  4  1  0  0  0
  3 92  1  0  0  0
  3 93  1  0  0  0
  4  5  1  0  0  0
  4 94  1  0  0  0
  4 95  1  0  0  0
  5  6  1  0  0  0
  5 26  1  0  0  0
  5 96  1  0  0  0
  6 25  1  0  0  0
  6 97  1  0  0  0
  6 98  1  0  0  0
  7  8  2  0  0  0
  7 26  1  0  0  0
  7 29  1  0  0  0
  8  9  1  0  0  0
  8 22  1  0  0  0
  9 10  1  0  0  0
  9 27  2  0  0  0
 10 11  2  0  0  0
 10 15  1  0  0  0
 11 12  1  0  0  0
 11 99  1  0  0  0
 12 13  2  0  0  0
 12100  1  0  0  0
 13 14  1  0  0  0
 13 31  1  0  0  0
 14 15  2  0  0  0
 14101  1  0  0  0
 15102  1  0  0  0
 16 17  2  0  0  0
 16 21  1  0  0  0
 16 31  1  0  0  0
 17 18  1  0  0  0
 17103  1  0  0  0
 18 19  2  0  0  0
 18104  1  0  0  0
 19 20  1  0  0  0
 19 24  1  0  0  0
 20 21  2  0  0  0
 20105  1  0  0  0
 21 23  1  0  0  0
 22 28  1  0  0  0
 22 32  2  0  0  0
 26 27  1  0  0  0
 28106  1  0  0  0
 28107  1  0  0  0
 29108  1  0  0  0
 29109  1  0  0  0
 33 34  1  0  0  0
 33 66  1  0  0  0
 33 70  2  0  0  0
 34 36  1  0  0  0
 34 59  1  0  0  0
 34110  1  0  0  0
 35 44  2  0  0  0
 35 45  1  0  0  0
 35 68  1  0  0  0
 36 56  1  0  0  0
 36111  1  0  0  0
 37 39  1  0  0  0
 37 47  1  0  0  0
 37 66  1  0  0  0
 37112  1  0  0  0
 38 43  2  0  0  0
 38 46  1  0  0  0
 38 47  1  0  0  0
 39 64  1  0  0  0
 39 67  2  0  0  0
 40 52  1  0  0  0
 40 53  2  0  0  0
 40 58  1  0  0  0
 41113  1  0  0  0
 41114  1  0  0  0
 41115  1  0  0  0
 41 48  1  0  0  0
 42 43  1  0  0  0
 42 66  1  0  0  0
 42116  1  0  0  0
 42117  1  0  0  0
 43 44  1  0  0  0
 44118  1  0  0  0
 45 46  2  0  0  0
 45119  1  0  0  0
 46120  1  0  0  0
 47121  1  0  0  0
 47122  1  0  0  0
 48 56  1  0  0  0
 48 65  1  0  0  0
 48123  1  0  0  0
 49 50  1  0  0  0
 49 53  1  0  0  0
 49 64  1  0  0  0
 49124  1  0  0  0
 50 51  1  0  0  0
 50125  1  0  0  0
 50126  1  0  0  0
 51 52  1  0  0  0
 51127  1  0  0  0
 51128  1  0  0  0
 52129  1  0  0  0
 52130  1  0  0  0
 53 54  1  0  0  0
 54 55  2  0  0  0
 54131  1  0  0  0
 55 57  1  0  0  0
 55132  1  0  0  0
 56 69  2  0  0  0
 57 58  2  0  0  0
 57133  1  0  0  0
 58134  1  0  0  0
 59 60  1  0  0  0
 59 61  1  0  0  0
 59 62  1  0  0  0
 60135  1  0  0  0
 60136  1  0  0  0
 60137  1  0  0  0
 61138  1  0  0  0
 61139  1  0  0  0
 61140  1  0  0  0
 62141  1  0  0  0
 62142  1  0  0  0
 62143  1  0  0  0
 63 65  1  0  0  0
 63144  1  0  0  0
 63145  1  0  0  0
 63146  1  0  0  0
 64147  1  0  0  0
 65148  1  0  0  0
 68 86  1  0  0  0
 71 73  2  0  0  0
 71 74  1  0  0  0
 71149  1  0  0  0
 72 75  2  0  0  0
 72 76  1  0  0  0
 72150  1  0  0  0
 73 75  1  0  0  0
 73 78  1  0  0  0
 74 76  2  0  0  0
 74 79  1  0  0  0
 75 88  1  0  0  0
 76 89  1  0  0  0
 77 78  2  0  0  0
 77151  1  0  0  0
 77152  1  0  0  0
 78153  1  0  0  0
 79 80  2  0  0  0
 79154  1  0  0  0
 80 81  1  0  0  0
 80 82  1  0  0  0
 81155  1  0  0  0
 81156  1  0  0  0
 81157  1  0  0  0
 82158  1  0  0  0
 82159  1  0  0  0
 82160  1  0  0  0
 83 88  1  0  0  0
 83161  1  0  0  0
 83162  1  0  0  0
 83163  1  0  0  0
 84 85  1  0  0  0
 84 86  1  0  0  0
 84164  1  0  0  0
 84165  1  0  0  0
 85 87  1  0  0  0
 85166  1  0  0  0
 85167  1  0  0  0
 86168  1  0  0  0
 86169  1  0  0  0
 87 89  1  0  0  0
 87170  1  0  0  0
 87171  1  0  0  0
M  ISO  4   1 100  68 101  86 101  88 100
M  END
> <chiral flag>
0

> <version>
0

> <s_m_source_file>
/data/baiqing/PycharmProjects/Reinvent-master-3.2/result/LINK_invent/BTK/process_docking_weight1_custom_product_contain_oxygen_bond_distance_aromatic_linkinvent_7_9_3/rearranged_h_0118.sdf

> <i_m_source_file_index>
75

> <r_mmod_Potential_Energy-OPLS-2005>
310.119293212891

> <r_mmod_Stretch_Energy-OPLS-2005>
82.6888275146484

> <r_mmod_Bend_Energy-OPLS-2005>
145.720077514648

> <r_mmod_Torsional_Energy-OPLS-2005>
379.735626220703

> <r_mmod_Improper_Torsional_Energy-OPLS-2005>
3.43059754371643

> <r_mmod_Van_der_Waal_Energy-OPLS-2005>
159.278747558594

> <r_mmod_Electrostatic_Energy-OPLS-2005>
-333.355133056641

> <r_mmod_Solvation_Energy-OPLS-2005>
-174.668502807617

> <b_mmod_Minimization_Converged-OPLS-2005>
0

> <r_mmod_RMS_Derivative-OPLS-2005>
11.4351615905762

$$$$
76
                    3D
 Structure written by MMmdl.
159167  0  0  1  0            999 V2000
  -30.6491  -14.6772   20.4692 C   0  0  0  0  0  0
  -30.4406  -12.4129   19.4520 C   0  0  0  0  0  0
  -29.5078  -12.5085   18.2241 C   0  0  0  0  0  0
  -28.0314  -12.3443   18.6395 C   0  0  0  0  0  0
  -27.6486  -13.2228   19.8599 C   0  0  2  0  0  0
  -28.7051  -13.1198   20.9855 C   0  0  0  0  0  0
  -25.2408  -13.8043   20.5647 C   0  0  0  0  0  0
  -24.1749  -13.0316   20.9251 C   0  0  0  0  0  0
  -24.6393  -11.6828   20.8792 C   0  0  0  0  0  0
  -23.9072  -10.4222   21.0425 C   0  0  0  0  0  0
  -24.3610   -9.4148   21.9211 C   0  0  0  0  0  0
  -23.6280   -8.2190   22.0768 C   0  0  0  0  0  0
  -22.4265   -8.0247   21.3547 C   0  0  0  0  0  0
  -21.9903   -9.0224   20.4653 C   0  0  0  0  0  0
  -22.7241  -10.2094   20.3066 C   0  0  0  0  0  0
  -21.6842   -6.0708   22.5281 C   0  0  0  0  0  0
  -21.4001   -6.5619   23.8210 C   0  0  0  0  0  0
  -21.3665   -5.6781   24.9179 C   0  0  0  0  0  0
  -21.6048   -4.3045   24.7233 C   0  0  0  0  0  0
  -21.8824   -3.8128   23.4357 C   0  0  0  0  0  0
  -21.9195   -4.6939   22.3408 C   0  0  0  0  0  0
  -22.7769  -13.5134   21.1886 C   0  0  0  0  0  0
  -22.1671   -4.2121   21.0991 F   0  0  0  0  0  0
  -21.5632   -3.4537   25.7749 F   0  0  0  0  0  0
  -30.0196  -13.4562   20.4086 N   0  0  0  0  0  0
  -26.2952  -12.9337   20.3336 N   0  0  0  0  0  0
  -25.9341  -11.6483   20.5818 N   0  0  0  0  0  0
  -22.0386  -12.8164   22.0443 N   0  0  0  0  0  0
  -25.3748  -15.1715   20.3864 N   0  0  0  0  0  0
  -31.8297  -14.8055   20.1360 O   0  0  0  0  0  0
  -21.6625   -6.8849   21.4241 O   0  0  0  0  0  0
  -22.3475  -14.5448   20.6725 O   0  0  0  0  0  0
  -24.6275  -31.8596   23.2034 C   0  0  0  0  0  0
  -25.9118  -32.4779   23.8363 C   0  0  1  0  0  0
  -27.2302  -27.3150   20.1091 C   0  0  0  0  0  0
  -25.5925  -33.8579   24.2290 N   0  0  0  0  0  0
  -23.4217  -30.4837   21.5465 C   0  0  2  0  0  0
  -24.8687  -28.9404   20.1112 C   0  0  0  0  0  0
  -22.7482  -29.4623   22.4943 C   0  0  0  0  0  0
  -18.0279  -28.1386   22.8488 C   0  0  0  0  0  0
  -24.1484  -36.7291   23.2641 C   0  0  0  0  0  0
  -25.9643  -30.7884   21.3764 C   0  0  0  0  0  0
  -26.0386  -29.4156   20.7176 C   0  0  0  0  0  0
  -27.2199  -28.6138   20.7097 C   0  0  0  0  0  0
  -26.0346  -26.8981   19.4759 C   0  0  0  0  0  0
  -24.8693  -27.6871   19.4828 C   0  0  0  0  0  0
  -23.6366  -29.8203   20.1614 C   0  0  0  0  0  0
  -25.4109  -36.3085   24.0333 C   0  0  1  0  0  0
  -20.5883  -28.3694   23.1289 C   0  0  2  0  0  0
  -20.6771  -26.9418   22.5415 C   0  0  0  0  0  0
  -19.5743  -26.6387   21.5218 C   0  0  0  0  0  0
  -18.1920  -26.7933   22.1623 C   0  0  0  0  0  0
  -19.1530  -28.8857   23.2884 C   0  0  0  0  0  0
  -18.9453  -30.1458   23.8898 C   0  0  0  0  0  0
  -17.6454  -30.6599   24.0557 C   0  0  0  0  0  0
  -25.9046  -34.9453   23.5112 C   0  0  0  0  0  0
  -16.5346  -29.9093   23.6329 C   0  0  0  0  0  0
  -16.7264  -28.6507   23.0360 C   0  0  0  0  0  0
  -26.4498  -31.6587   25.0737 C   0  0  0  0  0  0
  -25.3733  -31.3717   26.1463 C   0  0  0  0  0  0
  -27.0336  -30.3006   24.6194 C   0  0  0  0  0  0
  -27.6073  -32.4312   25.7499 C   0  0  0  0  0  0
  -27.5575  -37.1798   24.8465 C   0  0  0  0  0  0
  -21.4195  -29.3046   22.3688 N   0  0  0  0  0  0
  -26.4286  -37.3779   23.9410 N   0  0  0  0  0  0
  -24.6901  -31.0602   22.0987 N   0  0  0  0  0  0
  -23.4203  -28.8158   23.3025 O   0  0  0  0  0  0
  -28.3488  -26.4611   20.1590 O   0  0  0  0  0  0
  -26.5619  -34.8923   22.4680 O   0  0  0  0  0  0
  -23.5437  -32.1397   23.7349 O   0  0  0  0  0  0
  -31.1475  -17.9525   20.9249 C   0  0  0  0  0  0
  -28.9441  -19.4316   20.0170 C   0  0  0  0  0  0
  -31.1780  -19.3858   20.8929 C   0  0  0  0  0  0
  -28.9044  -18.0052   20.0628 C   0  0  0  0  0  0
  -29.9979  -17.2149   20.5356 C   0  0  0  0  0  0
  -30.0689  -20.1701   20.4542 C   0  0  0  0  0  0
  -29.2427  -23.9948   20.3283 C   0  0  0  0  0  0
  -32.4291  -20.1005   21.3694 C   0  0  0  0  0  0
  -27.7488  -16.7293   18.1981 C   0  0  0  0  0  0
  -27.6306  -17.3327   19.6044 C   0  0  0  0  0  0
  -28.1241  -25.0177   19.8804 C   0  0  0  0  0  0
  -29.0080  -22.4403   20.1059 C   0  0  0  0  0  0
  -29.8386  -15.7591   20.7052 N   0  0  0  0  0  0
  -30.2864  -24.4018   20.8522 O   0  0  0  0  0  0
  -30.1402  -21.5829   20.4880 O   0  0  0  0  0  0
  -31.4812  -12.5319   19.1442 H   0  0  0  0  0  0
  -30.3762  -11.4247   19.9117 H   0  0  0  0  0  0
  -29.7761  -11.7502   17.4869 H   0  0  0  0  0  0
  -29.6451  -13.4730   17.7323 H   0  0  0  0  0  0
  -27.8733  -11.2932   18.8818 H   0  0  0  0  0  0
  -27.3759  -12.5637   17.7962 H   0  0  0  0  0  0
  -27.6477  -14.2494   19.5025 H   0  0  0  0  0  0
  -28.7266  -12.1110   21.4000 H   0  0  0  0  0  0
  -28.4543  -13.7814   21.8163 H   0  0  0  0  0  0
  -25.2744   -9.5627   22.4795 H   0  0  0  0  0  0
  -23.9984   -7.4579   22.7485 H   0  0  0  0  0  0
  -21.0835   -8.8758   19.8953 H   0  0  0  0  0  0
  -22.3719  -10.9643   19.6173 H   0  0  0  0  0  0
  -21.1978   -7.6120   23.9707 H   0  0  0  0  0  0
  -21.1493   -6.0506   25.9084 H   0  0  0  0  0  0
  -22.0596   -2.7587   23.2866 H   0  0  0  0  0  0
  -22.3972  -11.9840   22.4883 H   0  0  0  0  0  0
  -21.1004  -13.1221   22.2615 H   0  0  0  0  0  0
  -24.5683  -15.7835   20.4452 H   0  0  0  0  0  0
  -26.1581  -15.5913   19.9073 H   0  0  0  0  0  0
  -26.7190  -32.5446   23.1120 H   0  0  0  0  0  0
  -25.0071  -33.9718   25.0433 H   0  0  0  0  0  0
  -22.7156  -31.3045   21.4048 H   0  0  0  0  0  0
  -23.3745  -35.9625   23.3313 H   0  0  0  0  0  0
  -24.3575  -36.8898   22.2056 H   0  0  0  0  0  0
  -23.7244  -37.6500   23.6652 H   0  0  0  0  0  0
  -26.0961  -31.5509   20.6073 H   0  0  0  0  0  0
  -26.8450  -30.8378   22.0056 H   0  0  0  0  0  0
  -28.1152  -28.9728   21.1971 H   0  0  0  0  0  0
  -25.9653  -25.9454   18.9721 H   0  0  0  0  0  0
  -23.9737  -27.3191   19.0011 H   0  0  0  0  0  0
  -23.7558  -30.5981   19.4063 H   0  0  0  0  0  0
  -22.7562  -29.2504   19.8586 H   0  0  0  0  0  0
  -25.1287  -36.1945   25.0825 H   0  0  0  0  0  0
  -20.9964  -28.3268   24.1416 H   0  0  0  0  0  0
  -20.5690  -26.2298   23.3615 H   0  0  0  0  0  0
  -21.6638  -26.7464   22.1202 H   0  0  0  0  0  0
  -19.6912  -25.6297   21.1251 H   0  0  0  0  0  0
  -19.6691  -27.3198   20.6748 H   0  0  0  0  0  0
  -17.4201  -26.6697   21.4010 H   0  0  0  0  0  0
  -18.0307  -26.0075   22.9016 H   0  0  0  0  0  0
  -19.7926  -30.7268   24.2282 H   0  0  0  0  0  0
  -17.5009  -31.6281   24.5153 H   0  0  0  0  0  0
  -15.5343  -30.2995   23.7657 H   0  0  0  0  0  0
  -15.8662  -28.0823   22.7089 H   0  0  0  0  0  0
  -24.5907  -30.7071   25.7785 H   0  0  0  0  0  0
  -24.8921  -32.2874   26.4906 H   0  0  0  0  0  0
  -25.8055  -30.8878   27.0230 H   0  0  0  0  0  0
  -26.2902  -29.6760   24.1228 H   0  0  0  0  0  0
  -27.4034  -29.7267   25.4702 H   0  0  0  0  0  0
  -27.8778  -30.4284   23.9417 H   0  0  0  0  0  0
  -27.2704  -33.3614   26.2087 H   0  0  0  0  0  0
  -28.3873  -32.6863   25.0314 H   0  0  0  0  0  0
  -28.0756  -31.8428   26.5401 H   0  0  0  0  0  0
  -28.2601  -38.0088   24.7498 H   0  0  0  0  0  0
  -28.1053  -36.2614   24.6293 H   0  0  0  0  0  0
  -27.2290  -37.1468   25.8868 H   0  0  0  0  0  0
  -20.9378  -29.8760   21.6890 H   0  0  0  0  0  0
  -26.0169  -38.2854   24.1399 H   0  0  0  0  0  0
  -32.0088  -17.4139   21.2958 H   0  0  0  0  0  0
  -28.0747  -19.9592   19.6520 H   0  0  0  0  0  0
  -33.1319  -19.4153   21.8446 H   0  0  0  0  0  0
  -32.1709  -20.8713   22.0961 H   0  0  0  0  0  0
  -32.9354  -20.5796   20.5312 H   0  0  0  0  0  0
  -26.8293  -16.2151   17.9164 H   0  0  0  0  0  0
  -28.5653  -16.0093   18.1354 H   0  0  0  0  0  0
  -27.9363  -17.5039   17.4540 H   0  0  0  0  0  0
  -26.7968  -18.0362   19.6339 H   0  0  0  0  0  0
  -27.4050  -16.5757   20.3467 H   0  0  0  0  0  0
  -27.2036  -24.6971   20.3695 H   0  0  0  0  0  0
  -27.9764  -24.8906   18.8078 H   0  0  0  0  0  0
  -28.7760  -22.2745   19.0538 H   0  0  0  0  0  0
  -28.1290  -22.1439   20.6783 H   0  0  0  0  0  0
  -28.8869  -15.4714   20.8684 H   0  0  0  0  0  0
  1 25  1  0  0  0
  1 30  2  0  0  0
  1 83  1  0  0  0
  2  3  1  0  0  0
  2 25  1  0  0  0
  2 86  1  0  0  0
  2 87  1  0  0  0
  3  4  1  0  0  0
  3 88  1  0  0  0
  3 89  1  0  0  0
  4  5  1  0  0  0
  4 90  1  0  0  0
  4 91  1  0  0  0
  5  6  1  0  0  0
  5 26  1  0  0  0
  5 92  1  0  0  0
  6 25  1  0  0  0
  6 93  1  0  0  0
  6 94  1  0  0  0
  7  8  2  0  0  0
  7 26  1  0  0  0
  7 29  1  0  0  0
  8  9  1  0  0  0
  8 22  1  0  0  0
  9 10  1  0  0  0
  9 27  2  0  0  0
 10 11  2  0  0  0
 10 15  1  0  0  0
 11 12  1  0  0  0
 11 95  1  0  0  0
 12 13  2  0  0  0
 12 96  1  0  0  0
 13 14  1  0  0  0
 13 31  1  0  0  0
 14 15  2  0  0  0
 14 97  1  0  0  0
 15 98  1  0  0  0
 16 17  2  0  0  0
 16 21  1  0  0  0
 16 31  1  0  0  0
 17 18  1  0  0  0
 17 99  1  0  0  0
 18 19  2  0  0  0
 18100  1  0  0  0
 19 20  1  0  0  0
 19 24  1  0  0  0
 20 21  2  0  0  0
 20101  1  0  0  0
 21 23  1  0  0  0
 22 28  1  0  0  0
 22 32  2  0  0  0
 26 27  1  0  0  0
 28102  1  0  0  0
 28103  1  0  0  0
 29104  1  0  0  0
 29105  1  0  0  0
 33 34  1  0  0  0
 33 66  1  0  0  0
 33 70  2  0  0  0
 34 36  1  0  0  0
 34 59  1  0  0  0
 34106  1  0  0  0
 35 44  2  0  0  0
 35 45  1  0  0  0
 35 68  1  0  0  0
 36 56  1  0  0  0
 36107  1  0  0  0
 37 39  1  0  0  0
 37 47  1  0  0  0
 37 66  1  0  0  0
 37108  1  0  0  0
 38 43  2  0  0  0
 38 46  1  0  0  0
 38 47  1  0  0  0
 39 64  1  0  0  0
 39 67  2  0  0  0
 40 52  1  0  0  0
 40 53  2  0  0  0
 40 58  1  0  0  0
 41109  1  0  0  0
 41110  1  0  0  0
 41111  1  0  0  0
 41 48  1  0  0  0
 42 43  1  0  0  0
 42 66  1  0  0  0
 42112  1  0  0  0
 42113  1  0  0  0
 43 44  1  0  0  0
 44114  1  0  0  0
 45 46  2  0  0  0
 45115  1  0  0  0
 46116  1  0  0  0
 47117  1  0  0  0
 47118  1  0  0  0
 48 56  1  0  0  0
 48 65  1  0  0  0
 48119  1  0  0  0
 49 50  1  0  0  0
 49 53  1  0  0  0
 49 64  1  0  0  0
 49120  1  0  0  0
 50 51  1  0  0  0
 50121  1  0  0  0
 50122  1  0  0  0
 51 52  1  0  0  0
 51123  1  0  0  0
 51124  1  0  0  0
 52125  1  0  0  0
 52126  1  0  0  0
 53 54  1  0  0  0
 54 55  2  0  0  0
 54127  1  0  0  0
 55 57  1  0  0  0
 55128  1  0  0  0
 56 69  2  0  0  0
 57 58  2  0  0  0
 57129  1  0  0  0
 58130  1  0  0  0
 59 60  1  0  0  0
 59 61  1  0  0  0
 59 62  1  0  0  0
 60131  1  0  0  0
 60132  1  0  0  0
 60133  1  0  0  0
 61134  1  0  0  0
 61135  1  0  0  0
 61136  1  0  0  0
 62137  1  0  0  0
 62138  1  0  0  0
 62139  1  0  0  0
 63 65  1  0  0  0
 63140  1  0  0  0
 63141  1  0  0  0
 63142  1  0  0  0
 64143  1  0  0  0
 65144  1  0  0  0
 68 81  1  0  0  0
 71 73  2  0  0  0
 71 75  1  0  0  0
 71145  1  0  0  0
 72 74  1  0  0  0
 72 76  2  0  0  0
 72146  1  0  0  0
 73 76  1  0  0  0
 73 78  1  0  0  0
 74 75  2  0  0  0
 74 80  1  0  0  0
 75 83  1  0  0  0
 76 85  1  0  0  0
 77 81  1  0  0  0
 77 82  1  0  0  0
 77 84  2  0  0  0
 78147  1  0  0  0
 78148  1  0  0  0
 78149  1  0  0  0
 79 80  1  0  0  0
 79150  1  0  0  0
 79151  1  0  0  0
 79152  1  0  0  0
 80153  1  0  0  0
 80154  1  0  0  0
 81155  1  0  0  0
 81156  1  0  0  0
 82 85  1  0  0  0
 82157  1  0  0  0
 82158  1  0  0  0
 83159  1  0  0  0
M  ISO  4   1 100  68 101  81 101  83 100
M  END
> <chiral flag>
0

> <version>
0

> <s_m_source_file>
/data/baiqing/PycharmProjects/Reinvent-master-3.2/result/LINK_invent/BTK/process_docking_weight1_custom_product_contain_oxygen_bond_distance_aromatic_linkinvent_7_9_3/rearranged_h_0118.sdf

> <i_m_source_file_index>
76

> <r_mmod_Potential_Energy-OPLS-2005>
61.876594543457

> <r_mmod_Stretch_Energy-OPLS-2005>
86.3236465454102

> <r_mmod_Bend_Energy-OPLS-2005>
141.3017578125

> <r_mmod_Torsional_Energy-OPLS-2005>
218.719100952148

> <r_mmod_Improper_Torsional_Energy-OPLS-2005>
6.61603021621704

> <r_mmod_Van_der_Waal_Energy-OPLS-2005>
140.362655639648

> <r_mmod_Electrostatic_Energy-OPLS-2005>
-346.965667724609

> <r_mmod_Solvation_Energy-OPLS-2005>
-241.750762939453

> <b_mmod_Minimization_Converged-OPLS-2005>
0

> <r_mmod_RMS_Derivative-OPLS-2005>
1.42809891700745

$$$$
77
                    3D
 Structure written by MMmdl.
159168  0  0  1  0            999 V2000
  -30.6708  -14.5116   20.5651 C   0  0  0  0  0  0
  -30.4309  -12.3271   19.4303 C   0  0  0  0  0  0
  -29.4999  -12.5081   18.2118 C   0  0  0  0  0  0
  -28.0217  -12.3594   18.6229 C   0  0  0  0  0  0
  -27.6638  -13.2059   19.8734 C   0  0  2  0  0  0
  -28.7026  -12.9907   20.9974 C   0  0  0  0  0  0
  -25.2600  -13.8166   20.5661 C   0  0  0  0  0  0
  -24.1846  -13.0447   20.9155 C   0  0  0  0  0  0
  -24.6402  -11.6916   20.8723 C   0  0  0  0  0  0
  -23.9068  -10.4303   21.0405 C   0  0  0  0  0  0
  -24.3626   -9.4219   21.9182 C   0  0  0  0  0  0
  -23.6305   -8.2249   22.0751 C   0  0  0  0  0  0
  -22.4286   -8.0286   21.3542 C   0  0  0  0  0  0
  -21.9918   -9.0263   20.4648 C   0  0  0  0  0  0
  -22.7241  -10.2145   20.3059 C   0  0  0  0  0  0
  -21.6855   -6.0744   22.5278 C   0  0  0  0  0  0
  -21.4009   -6.5643   23.8213 C   0  0  0  0  0  0
  -21.3654   -5.6787   24.9170 C   0  0  0  0  0  0
  -21.6050   -4.3053   24.7218 C   0  0  0  0  0  0
  -21.8816   -3.8152   23.4335 C   0  0  0  0  0  0
  -21.9190   -4.6972   22.3396 C   0  0  0  0  0  0
  -22.7866  -13.5249   21.1813 C   0  0  0  0  0  0
  -22.1661   -4.2159   21.0973 F   0  0  0  0  0  0
  -21.5637   -3.4538   25.7728 F   0  0  0  0  0  0
  -30.0351  -13.3096   20.4550 N   0  0  0  0  0  0
  -26.3037  -12.9333   20.3348 N   0  0  0  0  0  0
  -25.9330  -11.6495   20.5759 N   0  0  0  0  0  0
  -22.0503  -12.8261   22.0382 N   0  0  0  0  0  0
  -25.4343  -15.1881   20.4077 N   0  0  0  0  0  0
  -31.7792  -14.7244   20.0621 O   0  0  0  0  0  0
  -21.6643   -6.8891   21.4242 O   0  0  0  0  0  0
  -22.3547  -14.5549   20.6644 O   0  0  0  0  0  0
  -24.6199  -31.8637   23.2068 C   0  0  0  0  0  0
  -25.9078  -32.4796   23.8372 C   0  0  1  0  0  0
  -27.2359  -27.4002   20.0856 C   0  0  0  0  0  0
  -25.5914  -33.8595   24.2303 N   0  0  0  0  0  0
  -23.4103  -30.4871   21.5469 C   0  0  2  0  0  0
  -24.8570  -28.9503   20.1083 C   0  0  0  0  0  0
  -22.7443  -29.4639   22.4959 C   0  0  0  0  0  0
  -18.0284  -28.1377   22.8490 C   0  0  0  0  0  0
  -24.1487  -36.7302   23.2639 C   0  0  0  0  0  0
  -25.9439  -30.8159   21.3678 C   0  0  0  0  0  0
  -26.0199  -29.4493   20.7092 C   0  0  0  0  0  0
  -27.2115  -28.6799   20.6988 C   0  0  0  0  0  0
  -26.0502  -26.9220   19.4854 C   0  0  0  0  0  0
  -24.8683  -27.6863   19.4932 C   0  0  0  0  0  0
  -23.6201  -29.8199   20.1614 C   0  0  0  0  0  0
  -25.4110  -36.3092   24.0334 C   0  0  1  0  0  0
  -20.5876  -28.3668   23.1303 C   0  0  2  0  0  0
  -20.6766  -26.9394   22.5416 C   0  0  0  0  0  0
  -19.5744  -26.6381   21.5210 C   0  0  0  0  0  0
  -18.1925  -26.7924   22.1622 C   0  0  0  0  0  0
  -19.1534  -28.8840   23.2896 C   0  0  0  0  0  0
  -18.9456  -30.1445   23.8905 C   0  0  0  0  0  0
  -17.6458  -30.6582   24.0558 C   0  0  0  0  0  0
  -25.9041  -34.9461   23.5118 C   0  0  0  0  0  0
  -16.5350  -29.9077   23.6323 C   0  0  0  0  0  0
  -16.7274  -28.6493   23.0348 C   0  0  0  0  0  0
  -26.4487  -31.6595   25.0720 C   0  0  0  0  0  0
  -25.3744  -31.3713   26.1466 C   0  0  0  0  0  0
  -27.0318  -30.3029   24.6131 C   0  0  0  0  0  0
  -27.6058  -32.4320   25.7477 C   0  0  0  0  0  0
  -27.5581  -37.1807   24.8465 C   0  0  0  0  0  0
  -21.4165  -29.3032   22.3704 N   0  0  0  0  0  0
  -26.4296  -37.3784   23.9405 N   0  0  0  0  0  0
  -24.6761  -31.0711   22.0980 N   0  0  0  0  0  0
  -23.4200  -28.8177   23.3015 O   0  0  0  0  0  0
  -28.3642  -26.5966   20.1353 O   0  0  0  0  0  0
  -26.5601  -34.8925   22.4680 O   0  0  0  0  0  0
  -23.5385  -32.1401   23.7450 O   0  0  0  0  0  0
  -30.2457  -19.1992   21.7755 C   0  0  0  0  0  0
  -30.2456  -17.8038   22.0100 C   0  0  0  0  0  0
  -29.7522  -17.4424   19.6819 C   0  0  0  0  0  0
  -30.0032  -19.7800   20.4970 C   0  0  0  0  0  0
  -29.7152  -18.8463   19.4419 C   0  0  0  0  0  0
  -30.0328  -16.8987   20.9538 C   0  0  0  0  0  0
  -28.9566  -24.4878   19.0187 C   0  0  0  0  0  0
  -28.6746  -25.8183   19.0398 C   0  0  0  0  0  0
  -30.2062  -21.3101   20.3894 C   0  0  0  0  0  0
  -29.3540  -23.7768   17.7656 C   0  0  0  0  0  0
  -28.9639  -23.4501   20.1393 C   0  0  0  0  0  0
  -29.9155  -22.4262   18.2172 C   0  0  0  0  0  0
  -29.3563  -19.2461   18.0264 C   0  0  0  0  0  0
  -29.4651  -22.1461   19.5961 N   0  0  0  0  0  0
  -29.9822  -15.4855   21.2021 N   0  0  0  0  0  0
  -31.0175  -21.8097   21.1777 O   0  0  0  0  0  0
  -31.4729  -12.4398   19.1256 H   0  0  0  0  0  0
  -30.3464  -11.3150   19.8301 H   0  0  0  0  0  0
  -29.7468  -11.7802   17.4379 H   0  0  0  0  0  0
  -29.6591  -13.4917   17.7664 H   0  0  0  0  0  0
  -27.8394  -11.3039   18.8287 H   0  0  0  0  0  0
  -27.3698  -12.6214   17.7884 H   0  0  0  0  0  0
  -27.7098  -14.2522   19.5705 H   0  0  0  0  0  0
  -28.6844  -11.9534   21.3351 H   0  0  0  0  0  0
  -28.4494  -13.5838   21.8763 H   0  0  0  0  0  0
  -25.2786   -9.5690   22.4738 H   0  0  0  0  0  0
  -24.0019   -7.4641   22.7467 H   0  0  0  0  0  0
  -21.0845   -8.8779   19.8961 H   0  0  0  0  0  0
  -22.3702  -10.9679   19.6160 H   0  0  0  0  0  0
  -21.1997   -7.6151   23.9715 H   0  0  0  0  0  0
  -21.1482   -6.0521   25.9072 H   0  0  0  0  0  0
  -22.0602   -2.7616   23.2825 H   0  0  0  0  0  0
  -22.4129  -11.9954   22.4821 H   0  0  0  0  0  0
  -21.1112  -13.1283   22.2553 H   0  0  0  0  0  0
  -24.6735  -15.8486   20.5255 H   0  0  0  0  0  0
  -26.2972  -15.6265   20.1103 H   0  0  0  0  0  0
  -26.7143  -32.5484   23.1123 H   0  0  0  0  0  0
  -25.0069  -33.9730   25.0451 H   0  0  0  0  0  0
  -22.7012  -31.3054   21.4067 H   0  0  0  0  0  0
  -23.3740  -35.9644   23.3318 H   0  0  0  0  0  0
  -24.3577  -36.8899   22.2050 H   0  0  0  0  0  0
  -23.7250  -37.6518   23.6641 H   0  0  0  0  0  0
  -26.0700  -31.5835   20.6032 H   0  0  0  0  0  0
  -26.8266  -30.8610   21.9937 H   0  0  0  0  0  0
  -28.1078  -29.0541   21.1736 H   0  0  0  0  0  0
  -26.0283  -25.9436   19.0262 H   0  0  0  0  0  0
  -23.9733  -27.2923   19.0312 H   0  0  0  0  0  0
  -23.7288  -30.5933   19.4004 H   0  0  0  0  0  0
  -22.7435  -29.2406   19.8667 H   0  0  0  0  0  0
  -25.1292  -36.1949   25.0825 H   0  0  0  0  0  0
  -20.9978  -28.3231   24.1420 H   0  0  0  0  0  0
  -20.5646  -26.2275   23.3609 H   0  0  0  0  0  0
  -21.6639  -26.7414   22.1222 H   0  0  0  0  0  0
  -19.6894  -25.6291   21.1234 H   0  0  0  0  0  0
  -19.6684  -27.3192   20.6740 H   0  0  0  0  0  0
  -17.4195  -26.6678   21.4020 H   0  0  0  0  0  0
  -18.0320  -26.0064   22.9014 H   0  0  0  0  0  0
  -19.7932  -30.7260   24.2275 H   0  0  0  0  0  0
  -17.5009  -31.6258   24.5163 H   0  0  0  0  0  0
  -15.5346  -30.2978   23.7644 H   0  0  0  0  0  0
  -15.8676  -28.0814   22.7057 H   0  0  0  0  0  0
  -24.5915  -30.7061   25.7805 H   0  0  0  0  0  0
  -24.8939  -32.2873   26.4915 H   0  0  0  0  0  0
  -25.8098  -30.8880   27.0222 H   0  0  0  0  0  0
  -26.2866  -29.6789   24.1186 H   0  0  0  0  0  0
  -27.4068  -29.7278   25.4607 H   0  0  0  0  0  0
  -27.8716  -30.4330   23.9300 H   0  0  0  0  0  0
  -27.2673  -33.3609   26.2081 H   0  0  0  0  0  0
  -28.3852  -32.6903   25.0292 H   0  0  0  0  0  0
  -28.0750  -31.8432   26.5370 H   0  0  0  0  0  0
  -28.2617  -38.0089   24.7503 H   0  0  0  0  0  0
  -28.1061  -36.2625   24.6303 H   0  0  0  0  0  0
  -27.2301  -37.1477   25.8870 H   0  0  0  0  0  0
  -20.9328  -29.8769   21.6936 H   0  0  0  0  0  0
  -26.0183  -38.2859   24.1401 H   0  0  0  0  0  0
  -30.4586  -19.8419   22.6189 H   0  0  0  0  0  0
  -30.4321  -17.4341   23.0085 H   0  0  0  0  0  0
  -29.5428  -16.7590   18.8693 H   0  0  0  0  0  0
  -28.7092  -26.4185   18.1398 H   0  0  0  0  0  0
  -30.0756  -24.3501   17.1815 H   0  0  0  0  0  0
  -28.4639  -23.6336   17.1504 H   0  0  0  0  0  0
  -27.9521  -23.3157   20.5227 H   0  0  0  0  0  0
  -29.5752  -23.8299   20.9598 H   0  0  0  0  0  0
  -31.0067  -22.4569   18.1913 H   0  0  0  0  0  0
  -29.6064  -21.6973   17.4812 H   0  0  0  0  0  0
  -29.0023  -18.3919   17.4471 H   0  0  0  0  0  0
  -30.2283  -19.6358   17.5024 H   0  0  0  0  0  0
  -28.5369  -19.9632   18.0288 H   0  0  0  0  0  0
  -29.1941  -15.1645   21.7456 H   0  0  0  0  0  0
  1 25  1  0  0  0
  1 30  2  0  0  0
  1 85  1  0  0  0
  2  3  1  0  0  0
  2 25  1  0  0  0
  2 87  1  0  0  0
  2 88  1  0  0  0
  3  4  1  0  0  0
  3 89  1  0  0  0
  3 90  1  0  0  0
  4  5  1  0  0  0
  4 91  1  0  0  0
  4 92  1  0  0  0
  5  6  1  0  0  0
  5 26  1  0  0  0
  5 93  1  0  0  0
  6 25  1  0  0  0
  6 94  1  0  0  0
  6 95  1  0  0  0
  7  8  2  0  0  0
  7 26  1  0  0  0
  7 29  1  0  0  0
  8  9  1  0  0  0
  8 22  1  0  0  0
  9 10  1  0  0  0
  9 27  2  0  0  0
 10 11  2  0  0  0
 10 15  1  0  0  0
 11 12  1  0  0  0
 11 96  1  0  0  0
 12 13  2  0  0  0
 12 97  1  0  0  0
 13 14  1  0  0  0
 13 31  1  0  0  0
 14 15  2  0  0  0
 14 98  1  0  0  0
 15 99  1  0  0  0
 16 17  2  0  0  0
 16 21  1  0  0  0
 16 31  1  0  0  0
 17 18  1  0  0  0
 17100  1  0  0  0
 18 19  2  0  0  0
 18101  1  0  0  0
 19 20  1  0  0  0
 19 24  1  0  0  0
 20 21  2  0  0  0
 20102  1  0  0  0
 21 23  1  0  0  0
 22 28  1  0  0  0
 22 32  2  0  0  0
 26 27  1  0  0  0
 28103  1  0  0  0
 28104  1  0  0  0
 29105  1  0  0  0
 29106  1  0  0  0
 33 34  1  0  0  0
 33 66  1  0  0  0
 33 70  2  0  0  0
 34 36  1  0  0  0
 34 59  1  0  0  0
 34107  1  0  0  0
 35 44  2  0  0  0
 35 45  1  0  0  0
 35 68  1  0  0  0
 36 56  1  0  0  0
 36108  1  0  0  0
 37 39  1  0  0  0
 37 47  1  0  0  0
 37 66  1  0  0  0
 37109  1  0  0  0
 38 43  2  0  0  0
 38 46  1  0  0  0
 38 47  1  0  0  0
 39 64  1  0  0  0
 39 67  2  0  0  0
 40 52  1  0  0  0
 40 53  2  0  0  0
 40 58  1  0  0  0
 41110  1  0  0  0
 41111  1  0  0  0
 41112  1  0  0  0
 41 48  1  0  0  0
 42 43  1  0  0  0
 42 66  1  0  0  0
 42113  1  0  0  0
 42114  1  0  0  0
 43 44  1  0  0  0
 44115  1  0  0  0
 45 46  2  0  0  0
 45116  1  0  0  0
 46117  1  0  0  0
 47118  1  0  0  0
 47119  1  0  0  0
 48 56  1  0  0  0
 48 65  1  0  0  0
 48120  1  0  0  0
 49 50  1  0  0  0
 49 53  1  0  0  0
 49 64  1  0  0  0
 49121  1  0  0  0
 50 51  1  0  0  0
 50122  1  0  0  0
 50123  1  0  0  0
 51 52  1  0  0  0
 51124  1  0  0  0
 51125  1  0  0  0
 52126  1  0  0  0
 52127  1  0  0  0
 53 54  1  0  0  0
 54 55  2  0  0  0
 54128  1  0  0  0
 55 57  1  0  0  0
 55129  1  0  0  0
 56 69  2  0  0  0
 57 58  2  0  0  0
 57130  1  0  0  0
 58131  1  0  0  0
 59 60  1  0  0  0
 59 61  1  0  0  0
 59 62  1  0  0  0
 60132  1  0  0  0
 60133  1  0  0  0
 60134  1  0  0  0
 61135  1  0  0  0
 61136  1  0  0  0
 61137  1  0  0  0
 62138  1  0  0  0
 62139  1  0  0  0
 62140  1  0  0  0
 63 65  1  0  0  0
 63141  1  0  0  0
 63142  1  0  0  0
 63143  1  0  0  0
 64144  1  0  0  0
 65145  1  0  0  0
 68 78  1  0  0  0
 71 72  2  0  0  0
 71 74  1  0  0  0
 71146  1  0  0  0
 72 76  1  0  0  0
 72147  1  0  0  0
 73 75  1  0  0  0
 73 76  2  0  0  0
 73148  1  0  0  0
 74 75  2  0  0  0
 74 79  1  0  0  0
 75 83  1  0  0  0
 76 85  1  0  0  0
 77 78  2  0  0  0
 77 80  1  0  0  0
 77 81  1  0  0  0
 78149  1  0  0  0
 79 84  1  0  0  0
 79 86  2  0  0  0
 80 82  1  0  0  0
 80150  1  0  0  0
 80151  1  0  0  0
 81 84  1  0  0  0
 81152  1  0  0  0
 81153  1  0  0  0
 82 84  1  0  0  0
 82154  1  0  0  0
 82155  1  0  0  0
 83156  1  0  0  0
 83157  1  0  0  0
 83158  1  0  0  0
 85159  1  0  0  0
M  ISO  4   1 100  68 101  78 101  85 100
M  END
> <chiral flag>
0

> <version>
0

> <s_m_source_file>
/data/baiqing/PycharmProjects/Reinvent-master-3.2/result/LINK_invent/BTK/process_docking_weight1_custom_product_contain_oxygen_bond_distance_aromatic_linkinvent_7_9_3/rearranged_h_0118.sdf

> <i_m_source_file_index>
77

> <r_mmod_Potential_Energy-OPLS-2005>
200.332412719727

> <r_mmod_Stretch_Energy-OPLS-2005>
55.3968811035156

> <r_mmod_Bend_Energy-OPLS-2005>
154.905334472656

> <r_mmod_Torsional_Energy-OPLS-2005>
346.737548828125

> <r_mmod_Improper_Torsional_Energy-OPLS-2005>
9.57115840911865

> <r_mmod_Van_der_Waal_Energy-OPLS-2005>
155.474456787109

> <r_mmod_Electrostatic_Energy-OPLS-2005>
-315.331024169922

> <r_mmod_Solvation_Energy-OPLS-2005>
-225.968811035156

> <b_mmod_Minimization_Converged-OPLS-2005>
0

> <r_mmod_RMS_Derivative-OPLS-2005>
1.46210718154907

$$$$
78
                    3D
 Structure written by MMmdl.
154162  0  0  1  0            999 V2000
  -30.7203  -14.4707   20.5866 C   0  0  0  0  0  0
  -30.4153  -12.3150   19.4205 C   0  0  0  0  0  0
  -29.4918  -12.5132   18.2030 C   0  0  0  0  0  0
  -28.0143  -12.3714   18.6166 C   0  0  0  0  0  0
  -27.6591  -13.2123   19.8727 C   0  0  2  0  0  0
  -28.7008  -13.0049   20.9948 C   0  0  0  0  0  0
  -25.2573  -13.8168   20.5675 C   0  0  0  0  0  0
  -24.1830  -13.0441   20.9180 C   0  0  0  0  0  0
  -24.6388  -11.6910   20.8727 C   0  0  0  0  0  0
  -23.9054  -10.4291   21.0393 C   0  0  0  0  0  0
  -24.3603   -9.4210   21.9175 C   0  0  0  0  0  0
  -23.6283   -8.2246   22.0748 C   0  0  0  0  0  0
  -22.4266   -8.0280   21.3546 C   0  0  0  0  0  0
  -21.9898   -9.0250   20.4645 C   0  0  0  0  0  0
  -22.7226  -10.2130   20.3046 C   0  0  0  0  0  0
  -21.6856   -6.0728   22.5278 C   0  0  0  0  0  0
  -21.4018   -6.5629   23.8211 C   0  0  0  0  0  0
  -21.3659   -5.6784   24.9173 C   0  0  0  0  0  0
  -21.6042   -4.3046   24.7227 C   0  0  0  0  0  0
  -21.8820   -3.8139   23.4349 C   0  0  0  0  0  0
  -21.9197   -4.6954   22.3403 C   0  0  0  0  0  0
  -22.7851  -13.5241   21.1843 C   0  0  0  0  0  0
  -22.1664   -4.2140   21.0983 F   0  0  0  0  0  0
  -21.5626   -3.4533   25.7739 F   0  0  0  0  0  0
  -30.0289  -13.3069   20.4377 N   0  0  0  0  0  0
  -26.3012  -12.9347   20.3355 N   0  0  0  0  0  0
  -25.9318  -11.6501   20.5748 N   0  0  0  0  0  0
  -22.0485  -12.8239   22.0391 N   0  0  0  0  0  0
  -25.4290  -15.1878   20.4056 N   0  0  0  0  0  0
  -31.8396  -14.6390   20.0960 O   0  0  0  0  0  0
  -21.6640   -6.8870   21.4239 O   0  0  0  0  0  0
  -22.3545  -14.5555   20.6696 O   0  0  0  0  0  0
  -24.6157  -31.8678   23.2095 C   0  0  0  0  0  0
  -25.9048  -32.4818   23.8396 C   0  0  1  0  0  0
  -27.2263  -27.4245   20.1028 C   0  0  0  0  0  0
  -25.5902  -33.8615   24.2333 N   0  0  0  0  0  0
  -23.4039  -30.4914   21.5503 C   0  0  2  0  0  0
  -24.8507  -28.9585   20.1117 C   0  0  0  0  0  0
  -22.7424  -29.4653   22.4985 C   0  0  0  0  0  0
  -18.0277  -28.1374   22.8490 C   0  0  0  0  0  0
  -24.1487  -36.7308   23.2637 C   0  0  0  0  0  0
  -25.9338  -30.8327   21.3625 C   0  0  0  0  0  0
  -26.0127  -29.4673   20.7070 C   0  0  0  0  0  0
  -27.2083  -28.7096   20.6945 C   0  0  0  0  0  0
  -26.0518  -26.9361   19.4936 C   0  0  0  0  0  0
  -24.8661  -27.6938   19.4986 C   0  0  0  0  0  0
  -23.6123  -29.8250   20.1642 C   0  0  0  0  0  0
  -25.4103  -36.3105   24.0344 C   0  0  1  0  0  0
  -20.5868  -28.3660   23.1316 C   0  0  2  0  0  0
  -20.6766  -26.9395   22.5416 C   0  0  0  0  0  0
  -19.5745  -26.6381   21.5209 C   0  0  0  0  0  0
  -18.1922  -26.7924   22.1615 C   0  0  0  0  0  0
  -19.1526  -28.8835   23.2899 C   0  0  0  0  0  0
  -18.9453  -30.1444   23.8903 C   0  0  0  0  0  0
  -17.6454  -30.6582   24.0559 C   0  0  0  0  0  0
  -25.9030  -34.9472   23.5133 C   0  0  0  0  0  0
  -16.5344  -29.9079   23.6324 C   0  0  0  0  0  0
  -16.7266  -28.6494   23.0347 C   0  0  0  0  0  0
  -26.4469  -31.6592   25.0724 C   0  0  0  0  0  0
  -25.3733  -31.3704   26.1474 C   0  0  0  0  0  0
  -27.0295  -30.3036   24.6093 C   0  0  0  0  0  0
  -27.6062  -32.4295   25.7477 C   0  0  0  0  0  0
  -27.5581  -37.1806   24.8459 C   0  0  0  0  0  0
  -21.4150  -29.3028   22.3729 N   0  0  0  0  0  0
  -26.4289  -37.3788   23.9411 N   0  0  0  0  0  0
  -24.6695  -31.0782   22.0992 N   0  0  0  0  0  0
  -23.4198  -28.8190   23.3023 O   0  0  0  0  0  0
  -28.3599  -26.6401   20.1229 O   0  0  0  0  0  0
  -26.5590  -34.8923   22.4693 O   0  0  0  0  0  0
  -23.5346  -32.1428   23.7488 O   0  0  0  0  0  0
  -28.3178  -19.7456   21.3645 C   0  0  0  0  0  0
  -28.6689  -18.4073   21.7539 C   0  0  0  0  0  0
  -29.9004  -18.0178   21.2740 C   0  0  0  0  0  0
  -29.2660  -20.3738   20.5942 C   0  0  0  0  0  0
  -28.7950  -24.1733   20.0971 C   0  0  0  0  0  0
  -27.8006  -17.5534   22.6308 C   0  0  0  0  0  0
  -30.7007  -16.7677   21.5798 C   0  0  0  0  0  0
  -28.5308  -22.7697   20.7036 C   0  0  0  0  0  0
  -28.1816  -25.3891   20.8292 C   0  0  0  0  0  0
  -29.2884  -21.6764   20.0705 N   0  0  0  0  0  0
  -30.0868  -15.4737   21.2272 N   0  0  0  0  0  0
  -29.4822  -24.3036   19.0766 O   0  0  0  0  0  0
  -30.6012  -19.2890   20.2879 S   0  0  0  0  0  0
  -31.4608  -12.4035   19.1201 H   0  0  0  0  0  0
  -30.3084  -11.3056   19.8214 H   0  0  0  0  0  0
  -29.7339  -11.7912   17.4221 H   0  0  0  0  0  0
  -29.6612  -13.5002   17.7695 H   0  0  0  0  0  0
  -27.8261  -11.3155   18.8140 H   0  0  0  0  0  0
  -27.3633  -12.6451   17.7852 H   0  0  0  0  0  0
  -27.7010  -14.2596   19.5724 H   0  0  0  0  0  0
  -28.6787  -11.9721   21.3463 H   0  0  0  0  0  0
  -28.4610  -13.6150   21.8661 H   0  0  0  0  0  0
  -25.2745   -9.5695   22.4754 H   0  0  0  0  0  0
  -23.9999   -7.4637   22.7464 H   0  0  0  0  0  0
  -21.0834   -8.8761   19.8951 H   0  0  0  0  0  0
  -22.3677  -10.9661   19.6152 H   0  0  0  0  0  0
  -21.2010   -7.6137   23.9713 H   0  0  0  0  0  0
  -21.1477   -6.0512   25.9077 H   0  0  0  0  0  0
  -22.0597   -2.7602   23.2855 H   0  0  0  0  0  0
  -22.4076  -11.9894   22.4785 H   0  0  0  0  0  0
  -21.1096  -13.1274   22.2569 H   0  0  0  0  0  0
  -24.6609  -15.8424   20.5021 H   0  0  0  0  0  0
  -26.2770  -15.6213   20.0625 H   0  0  0  0  0  0
  -26.7124  -32.5531   23.1166 H   0  0  0  0  0  0
  -25.0068  -33.9777   25.0489 H   0  0  0  0  0  0
  -22.6921  -31.3084   21.4127 H   0  0  0  0  0  0
  -23.3754  -35.9635   23.3297 H   0  0  0  0  0  0
  -24.3588  -36.8921   22.2052 H   0  0  0  0  0  0
  -23.7234  -37.6512   23.6650 H   0  0  0  0  0  0
  -26.0485  -31.6009   20.5964 H   0  0  0  0  0  0
  -26.8204  -30.8848   21.9827 H   0  0  0  0  0  0
  -28.1049  -29.0955   21.1591 H   0  0  0  0  0  0
  -26.0505  -25.9633   19.0216 H   0  0  0  0  0  0
  -23.9736  -27.2984   19.0334 H   0  0  0  0  0  0
  -23.7201  -30.6009   19.4054 H   0  0  0  0  0  0
  -22.7361  -29.2448   19.8689 H   0  0  0  0  0  0
  -25.1277  -36.1968   25.0836 H   0  0  0  0  0  0
  -20.9962  -28.3224   24.1436 H   0  0  0  0  0  0
  -20.5669  -26.2265   23.3600 H   0  0  0  0  0  0
  -21.6640  -26.7440   22.1210 H   0  0  0  0  0  0
  -19.6905  -25.6294   21.1232 H   0  0  0  0  0  0
  -19.6684  -27.3199   20.6746 H   0  0  0  0  0  0
  -17.4196  -26.6690   21.4008 H   0  0  0  0  0  0
  -18.0311  -26.0057   22.8998 H   0  0  0  0  0  0
  -19.7929  -30.7261   24.2272 H   0  0  0  0  0  0
  -17.5007  -31.6266   24.5154 H   0  0  0  0  0  0
  -15.5343  -30.2977   23.7641 H   0  0  0  0  0  0
  -15.8670  -28.0809   22.7055 H   0  0  0  0  0  0
  -24.5892  -30.7068   25.7808 H   0  0  0  0  0  0
  -24.8934  -32.2858   26.4943 H   0  0  0  0  0  0
  -25.8077  -30.8852   27.0221 H   0  0  0  0  0  0
  -26.2835  -29.6807   24.1142 H   0  0  0  0  0  0
  -27.4068  -29.7264   25.4544 H   0  0  0  0  0  0
  -27.8671  -30.4363   23.9239 H   0  0  0  0  0  0
  -27.2713  -33.3603   26.2064 H   0  0  0  0  0  0
  -28.3862  -32.6828   25.0285 H   0  0  0  0  0  0
  -28.0736  -31.8401   26.5374 H   0  0  0  0  0  0
  -28.2593  -38.0109   24.7521 H   0  0  0  0  0  0
  -28.1081  -36.2642   24.6257 H   0  0  0  0  0  0
  -27.2309  -37.1436   25.8865 H   0  0  0  0  0  0
  -20.9310  -29.8751   21.6953 H   0  0  0  0  0  0
  -26.0180  -38.2868   24.1406 H   0  0  0  0  0  0
  -27.3892  -20.1993   21.6812 H   0  0  0  0  0  0
  -27.0173  -18.1392   23.1134 H   0  0  0  0  0  0
  -28.3768  -17.0756   23.4237 H   0  0  0  0  0  0
  -27.3099  -16.7665   22.0582 H   0  0  0  0  0  0
  -30.8982  -16.7402   22.6519 H   0  0  0  0  0  0
  -31.6865  -16.8685   21.1222 H   0  0  0  0  0  0
  -27.4625  -22.5622   20.6286 H   0  0  0  0  0  0
  -28.7731  -22.8064   21.7666 H   0  0  0  0  0  0
  -28.6611  -25.4761   21.8043 H   0  0  0  0  0  0
  -27.1306  -25.1738   21.0255 H   0  0  0  0  0  0
  -30.0678  -21.9956   19.4969 H   0  0  0  0  0  0
  -29.1583  -15.2859   21.5712 H   0  0  0  0  0  0
  1 25  1  0  0  0
  1 30  2  0  0  0
  1 81  1  0  0  0
  2  3  1  0  0  0
  2 25  1  0  0  0
  2 84  1  0  0  0
  2 85  1  0  0  0
  3  4  1  0  0  0
  3 86  1  0  0  0
  3 87  1  0  0  0
  4  5  1  0  0  0
  4 88  1  0  0  0
  4 89  1  0  0  0
  5  6  1  0  0  0
  5 26  1  0  0  0
  5 90  1  0  0  0
  6 25  1  0  0  0
  6 91  1  0  0  0
  6 92  1  0  0  0
  7  8  2  0  0  0
  7 26  1  0  0  0
  7 29  1  0  0  0
  8  9  1  0  0  0
  8 22  1  0  0  0
  9 10  1  0  0  0
  9 27  2  0  0  0
 10 11  2  0  0  0
 10 15  1  0  0  0
 11 12  1  0  0  0
 11 93  1  0  0  0
 12 13  2  0  0  0
 12 94  1  0  0  0
 13 14  1  0  0  0
 13 31  1  0  0  0
 14 15  2  0  0  0
 14 95  1  0  0  0
 15 96  1  0  0  0
 16 17  2  0  0  0
 16 21  1  0  0  0
 16 31  1  0  0  0
 17 18  1  0  0  0
 17 97  1  0  0  0
 18 19  2  0  0  0
 18 98  1  0  0  0
 19 20  1  0  0  0
 19 24  1  0  0  0
 20 21  2  0  0  0
 20 99  1  0  0  0
 21 23  1  0  0  0
 22 28  1  0  0  0
 22 32  2  0  0  0
 26 27  1  0  0  0
 28100  1  0  0  0
 28101  1  0  0  0
 29102  1  0  0  0
 29103  1  0  0  0
 33 34  1  0  0  0
 33 66  1  0  0  0
 33 70  2  0  0  0
 34 36  1  0  0  0
 34 59  1  0  0  0
 34104  1  0  0  0
 35 44  2  0  0  0
 35 45  1  0  0  0
 35 68  1  0  0  0
 36 56  1  0  0  0
 36105  1  0  0  0
 37 39  1  0  0  0
 37 47  1  0  0  0
 37 66  1  0  0  0
 37106  1  0  0  0
 38 43  2  0  0  0
 38 46  1  0  0  0
 38 47  1  0  0  0
 39 64  1  0  0  0
 39 67  2  0  0  0
 40 52  1  0  0  0
 40 53  2  0  0  0
 40 58  1  0  0  0
 41107  1  0  0  0
 41108  1  0  0  0
 41109  1  0  0  0
 41 48  1  0  0  0
 42 43  1  0  0  0
 42 66  1  0  0  0
 42110  1  0  0  0
 42111  1  0  0  0
 43 44  1  0  0  0
 44112  1  0  0  0
 45 46  2  0  0  0
 45113  1  0  0  0
 46114  1  0  0  0
 47115  1  0  0  0
 47116  1  0  0  0
 48 56  1  0  0  0
 48 65  1  0  0  0
 48117  1  0  0  0
 49 50  1  0  0  0
 49 53  1  0  0  0
 49 64  1  0  0  0
 49118  1  0  0  0
 50 51  1  0  0  0
 50119  1  0  0  0
 50120  1  0  0  0
 51 52  1  0  0  0
 51121  1  0  0  0
 51122  1  0  0  0
 52123  1  0  0  0
 52124  1  0  0  0
 53 54  1  0  0  0
 54 55  2  0  0  0
 54125  1  0  0  0
 55 57  1  0  0  0
 55126  1  0  0  0
 56 69  2  0  0  0
 57 58  2  0  0  0
 57127  1  0  0  0
 58128  1  0  0  0
 59 60  1  0  0  0
 59 61  1  0  0  0
 59 62  1  0  0  0
 60129  1  0  0  0
 60130  1  0  0  0
 60131  1  0  0  0
 61132  1  0  0  0
 61133  1  0  0  0
 61134  1  0  0  0
 62135  1  0  0  0
 62136  1  0  0  0
 62137  1  0  0  0
 63 65  1  0  0  0
 63138  1  0  0  0
 63139  1  0  0  0
 63140  1  0  0  0
 64141  1  0  0  0
 65142  1  0  0  0
 68 79  1  0  0  0
 71 72  1  0  0  0
 71 74  2  0  0  0
 71143  1  0  0  0
 72 73  2  0  0  0
 72 76  1  0  0  0
 73 77  1  0  0  0
 73 83  1  0  0  0
 74 80  1  0  0  0
 74 83  1  0  0  0
 75 78  1  0  0  0
 75 79  1  0  0  0
 75 82  2  0  0  0
 76144  1  0  0  0
 76145  1  0  0  0
 76146  1  0  0  0
 77 81  1  0  0  0
 77147  1  0  0  0
 77148  1  0  0  0
 78 80  1  0  0  0
 78149  1  0  0  0
 78150  1  0  0  0
 79151  1  0  0  0
 79152  1  0  0  0
 80153  1  0  0  0
 81154  1  0  0  0
M  ISO  4   1 100  68 101  79 101  81 100
M  END
> <chiral flag>
0

> <version>
0

> <s_m_source_file>
/data/baiqing/PycharmProjects/Reinvent-master-3.2/result/LINK_invent/BTK/process_docking_weight1_custom_product_contain_oxygen_bond_distance_aromatic_linkinvent_7_9_3/rearranged_h_0118.sdf

> <i_m_source_file_index>
78

> <r_mmod_Potential_Energy-OPLS-2005>
-85.1548080444336

> <r_mmod_Stretch_Energy-OPLS-2005>
38.2424011230469

> <r_mmod_Bend_Energy-OPLS-2005>
99.5353240966797

> <r_mmod_Torsional_Energy-OPLS-2005>
216.497711181641

> <r_mmod_Improper_Torsional_Energy-OPLS-2005>
4.11951303482056

> <r_mmod_Van_der_Waal_Energy-OPLS-2005>
123.447547912598

> <r_mmod_Electrostatic_Energy-OPLS-2005>
-338.436126708984

> <r_mmod_Solvation_Energy-OPLS-2005>
-242.911560058594

> <b_mmod_Minimization_Converged-OPLS-2005>
0

> <r_mmod_RMS_Derivative-OPLS-2005>
0.951469242572784

$$$$
79
                    3D
 Structure written by MMmdl.
155163  0  0  1  0            999 V2000
  -29.7373  -14.4727   19.7562 C   0  0  0  0  0  0
  -30.4510  -12.2399   19.3392 C   0  0  0  0  0  0
  -29.4016  -11.8885   18.2579 C   0  0  0  0  0  0
  -28.0303  -11.4413   18.9796 C   0  0  0  0  0  0
  -27.6514  -12.3171   20.2577 C   0  0  2  0  0  0
  -28.8645  -12.6675   21.1265 C   0  0  0  0  0  0
  -25.0119  -14.6684   20.3853 C   0  0  0  0  0  0
  -24.3644  -14.2887   20.6868 C   0  0  0  0  0  0
  -25.4087  -12.2845   20.9492 C   0  0  0  0  0  0
  -24.5943  -10.6131   21.0767 C   0  0  0  0  0  0
  -24.6184   -9.6521   22.1578 C   0  0  0  0  0  0
  -23.7806   -8.4617   22.3048 C   0  0  0  0  0  0
  -22.6892   -8.1415   21.4460 C   0  0  0  0  0  0
  -22.5821   -9.0052   20.3646 C   0  0  0  0  0  0
  -23.5878   -9.9940   20.1502 C   0  0  0  0  0  0
  -21.7687   -6.1521   22.5437 C   0  0  0  0  0  0
  -21.4477   -6.6002   23.8409 C   0  0  0  0  0  0
  -21.3764   -5.6893   24.9146 C   0  0  0  0  0  0
  -21.6031   -4.3180   24.6965 C   0  0  0  0  0  0
  -21.8781   -3.8532   23.3985 C   0  0  0  0  0  0
  -21.9474   -4.7628   22.3240 C   0  0  0  0  0  0
  -22.7288  -14.7276   20.8556 C   0  0  0  0  0  0
  -22.1841   -4.2856   21.0768 F   0  0  0  0  0  0
  -21.5551   -3.4481   25.7340 F   0  0  0  0  0  0
  -29.8363  -13.2257   20.2312 N   0  0  0  0  0  0
  -26.1423  -12.9445   20.7767 N   0  0  0  0  0  0
  -26.2800  -12.1275   21.7373 N   0  0  0  0  0  0
  -21.7824  -13.9667   21.5281 N   0  0  0  0  0  0
  -25.0219  -15.9611   19.8104 N   0  0  0  0  0  0
  -30.8383  -15.0869   19.7624 O   0  0  0  0  0  0
  -21.8250   -7.0412   21.4894 O   0  0  0  0  0  0
  -22.2388  -15.5958   20.2083 O   0  0  0  0  0  0
  -24.6811  -31.8009   23.1620 C   0  0  0  0  0  0
  -25.9381  -32.4490   23.8205 C   0  0  1  0  0  0
  -26.8143  -26.4611   20.5934 C   0  0  0  0  0  0
  -25.5958  -33.8362   24.2007 N   0  0  0  0  0  0
  -23.5108  -30.4098   21.4973 C   0  0  2  0  0  0
  -24.9439  -28.7456   20.1243 C   0  0  0  0  0  0
  -22.7764  -29.4263   22.4542 C   0  0  0  0  0  0
  -18.0305  -28.1434   22.8419 C   0  0  0  0  0  0
  -24.1443  -36.7097   23.2646 C   0  0  0  0  0  0
  -26.0854  -30.4699   21.4885 C   0  0  0  0  0  0
  -26.0878  -29.0145   20.8800 C   0  0  0  0  0  0
  -27.0326  -27.8836   21.0930 C   0  0  0  0  0  0
  -25.7929  -26.4722   19.6294 C   0  0  0  0  0  0
  -24.8698  -27.5276   19.4329 C   0  0  0  0  0  0
  -23.7864  -29.7389   20.1167 C   0  0  0  0  0  0
  -25.4113  -36.2948   24.0296 C   0  0  1  0  0  0
  -20.5954  -28.3792   23.1068 C   0  0  2  0  0  0
  -20.6791  -26.9433   22.5377 C   0  0  0  0  0  0
  -19.5781  -26.6365   21.5195 C   0  0  0  0  0  0
  -18.1942  -26.7947   22.1588 C   0  0  0  0  0  0
  -19.1578  -28.8934   23.2740 C   0  0  0  0  0  0
  -18.9500  -30.1506   23.8814 C   0  0  0  0  0  0
  -17.6498  -30.6618   24.0532 C   0  0  0  0  0  0
  -25.9110  -34.9322   23.4982 C   0  0  0  0  0  0
  -16.5372  -29.9106   23.6362 C   0  0  0  0  0  0
  -16.7288  -28.6528   23.0373 C   0  0  0  0  0  0
  -26.4586  -31.6646   25.0914 C   0  0  0  0  0  0
  -25.3606  -31.4020   26.1488 C   0  0  0  0  0  0
  -27.0679  -30.2965   24.7145 C   0  0  0  0  0  0
  -27.6006  -32.4618   25.7648 C   0  0  0  0  0  0
  -27.5579  -37.1691   24.8449 C   0  0  0  0  0  0
  -21.4404  -29.3031   22.3346 N   0  0  0  0  0  0
  -26.4231  -37.3731   23.9471 N   0  0  0  0  0  0
  -24.7800  -30.9363   22.0974 N   0  0  0  0  0  0
  -23.4169  -28.7794   23.2870 O   0  0  0  0  0  0
  -27.3569  -25.0381   20.9678 O   0  0  0  0  0  0
  -26.5769  -34.8880   22.4612 O   0  0  0  0  0  0
  -23.5796  -32.1231   23.6399 O   0  0  0  0  0  0
  -23.5030  -12.4986   19.9384 C   0  0  0  0  0  0
  -23.9712  -13.0977   22.4096 C   0  0  0  0  0  0
  -25.2149  -13.2040   18.6709 C   0  0  0  0  0  0
  -27.0515  -14.9903   21.2821 C   0  0  0  0  0  0
  -25.6545  -14.5887   22.6163 C   0  0  0  0  0  0
  -26.9697  -14.4802   19.3292 C   0  0  0  0  0  0
  -26.0107  -16.6595   24.2256 C   0  0  0  0  0  0
  -25.8715  -18.0778   22.0573 C   0  0  0  0  0  0
  -26.1627  -19.6334   21.7598 C   0  0  0  0  0  0
  -25.7818  -16.4720   22.9153 C   0  0  0  0  0  0
  -26.7548  -21.4747   21.9863 C   0  0  0  0  0  0
  -26.5761  -23.3784   21.2256 C   0  0  0  0  0  0
  -28.4885  -14.7636   19.0099 N   0  0  0  0  0  0
  -31.3613  -12.6297   18.8787 H   0  0  0  0  0  0
  -30.7446  -11.3457   19.8916 H   0  0  0  0  0  0
  -29.7612  -11.0662   17.6373 H   0  0  0  0  0  0
  -29.2341  -12.7170   17.5691 H   0  0  0  0  0  0
  -28.2244  -10.4455   19.3856 H   0  0  0  0  0  0
  -27.2232  -11.2043   18.2505 H   0  0  0  0  0  0
  -27.7331  -12.5975   19.2762 H   0  0  0  0  0  0
  -29.2412  -11.7539   21.5872 H   0  0  0  0  0  0
  -28.6786  -13.3203   21.9747 H   0  0  0  0  0  0
  -25.3327   -9.8473   22.9461 H   0  0  0  0  0  0
  -23.9694   -7.8260   23.1537 H   0  0  0  0  0  0
  -21.8701   -8.7863   19.5822 H   0  0  0  0  0  0
  -23.5586  -10.3426   19.1282 H   0  0  0  0  0  0
  -21.2670   -7.6499   24.0125 H   0  0  0  0  0  0
  -21.1522   -6.0472   25.9097 H   0  0  0  0  0  0
  -22.0347   -2.8004   23.2168 H   0  0  0  0  0  0
  -22.0432  -13.1770   22.1019 H   0  0  0  0  0  0
  -20.8181  -14.2648   21.5012 H   0  0  0  0  0  0
  -24.1576  -16.4303   19.5783 H   0  0  0  0  0  0
  -25.8197  -16.3391   19.3172 H   0  0  0  0  0  0
  -26.7517  -32.4998   23.0973 H   0  0  0  0  0  0
  -25.0037  -33.9527   25.0105 H   0  0  0  0  0  0
  -22.8439  -31.2498   21.3072 H   0  0  0  0  0  0
  -23.3854  -35.9275   23.3191 H   0  0  0  0  0  0
  -24.3494  -36.8877   22.2085 H   0  0  0  0  0  0
  -23.7018  -37.6141   23.6811 H   0  0  0  0  0  0
  -26.3569  -31.1839   20.7092 H   0  0  0  0  0  0
  -26.9075  -30.5142   22.1862 H   0  0  0  0  0  0
  -27.8237  -28.0489   21.8130 H   0  0  0  0  0  0
  -25.5833  -25.5333   19.1333 H   0  0  0  0  0  0
  -24.0349  -27.3368   18.7762 H   0  0  0  0  0  0
  -24.0407  -30.5028   19.3830 H   0  0  0  0  0  0
  -22.8975  -29.2313   19.7392 H   0  0  0  0  0  0
  -25.1309  -36.1707   25.0788 H   0  0  0  0  0  0
  -21.0088  -28.3469   24.1172 H   0  0  0  0  0  0
  -20.5656  -26.2423   23.3656 H   0  0  0  0  0  0
  -21.6640  -26.7367   22.1174 H   0  0  0  0  0  0
  -19.6952  -25.6253   21.1303 H   0  0  0  0  0  0
  -19.6748  -27.3102   20.6670 H   0  0  0  0  0  0
  -17.4209  -26.6627   21.3996 H   0  0  0  0  0  0
  -18.0339  -26.0124   22.9034 H   0  0  0  0  0  0
  -19.7978  -30.7326   24.2163 H   0  0  0  0  0  0
  -17.5049  -31.6292   24.5140 H   0  0  0  0  0  0
  -15.5368  -30.2996   23.7774 H   0  0  0  0  0  0
  -15.8660  -28.0851   22.7176 H   0  0  0  0  0  0
  -24.5730  -30.7474   25.7740 H   0  0  0  0  0  0
  -24.8899  -32.3301   26.4759 H   0  0  0  0  0  0
  -25.7708  -30.9236   27.0391 H   0  0  0  0  0  0
  -26.3516  -29.6256   24.2410 H   0  0  0  0  0  0
  -27.4239  -29.7802   25.6077 H   0  0  0  0  0  0
  -27.9432  -30.4022   24.0728 H   0  0  0  0  0  0
  -27.2508  -33.3996   26.1969 H   0  0  0  0  0  0
  -28.3873  -32.7068   25.0501 H   0  0  0  0  0  0
  -28.0660  -31.9013   26.5768 H   0  0  0  0  0  0
  -28.2462  -38.0125   24.7758 H   0  0  0  0  0  0
  -28.1219  -36.2687   24.5960 H   0  0  0  0  0  0
  -27.2350  -37.0937   25.8847 H   0  0  0  0  0  0
  -20.9700  -29.8738   21.6460 H   0  0  0  0  0  0
  -26.0054  -38.2748   24.1615 H   0  0  0  0  0  0
  -22.5784  -12.0814   19.5535 H   0  0  0  0  0  0
  -23.2629  -12.9435   23.2133 H   0  0  0  0  0  0
  -25.2129  -12.9332   17.6238 H   0  0  0  0  0  0
  -27.8527  -15.6546   21.5763 H   0  0  0  0  0  0
  -26.0589  -15.8509   24.9469 H   0  0  0  0  0  0
  -26.2026  -17.6564   24.5865 H   0  0  0  0  0  0
  -25.3773  -17.8458   21.1379 H   0  0  0  0  0  0
  -25.9174  -19.7160   20.7092 H   0  0  0  0  0  0
  -27.8322  -21.2980   21.9089 H   0  0  0  0  0  0
  -26.5855  -21.6650   23.0508 H   0  0  0  0  0  0
  -25.7170  -23.7327   21.8080 H   0  0  0  0  0  0
  -26.0994  -23.2130   20.2638 H   0  0  0  0  0  0
  -28.6062  -15.5585   18.3999 H   0  0  0  0  0  0
  1 25  1  0  0  0
  1 30  2  0  0  0
  1 83  1  0  0  0
  2  3  1  0  0  0
  2 25  1  0  0  0
  2 84  1  0  0  0
  2 85  1  0  0  0
  3  4  1  0  0  0
  3 86  1  0  0  0
  3 87  1  0  0  0
  4  5  1  0  0  0
  4 88  1  0  0  0
  4 89  1  0  0  0
  5  6  1  0  0  0
  5 26  1  0  0  0
  5 90  1  0  0  0
  6 25  1  0  0  0
  6 91  1  0  0  0
  6 92  1  0  0  0
  7  8  2  0  0  0
  7 26  1  0  0  0
  7 29  1  0  0  0
  8  9  1  0  0  0
  8 22  1  0  0  0
  9 10  1  0  0  0
  9 27  2  0  0  0
 10 11  2  0  0  0
 10 15  1  0  0  0
 11 12  1  0  0  0
 11 93  1  0  0  0
 12 13  2  0  0  0
 12 94  1  0  0  0
 13 14  1  0  0  0
 13 31  1  0  0  0
 14 15  2  0  0  0
 14 95  1  0  0  0
 15 96  1  0  0  0
 16 17  2  0  0  0
 16 21  1  0  0  0
 16 31  1  0  0  0
 17 18  1  0  0  0
 17 97  1  0  0  0
 18 19  2  0  0  0
 18 98  1  0  0  0
 19 20  1  0  0  0
 19 24  1  0  0  0
 20 21  2  0  0  0
 20 99  1  0  0  0
 21 23  1  0  0  0
 22 28  1  0  0  0
 22 32  2  0  0  0
 26 27  1  0  0  0
 28100  1  0  0  0
 28101  1  0  0  0
 29102  1  0  0  0
 29103  1  0  0  0
 33 34  1  0  0  0
 33 66  1  0  0  0
 33 70  2  0  0  0
 34 36  1  0  0  0
 34 59  1  0  0  0
 34104  1  0  0  0
 35 44  2  0  0  0
 35 45  1  0  0  0
 35 68  1  0  0  0
 36 56  1  0  0  0
 36105  1  0  0  0
 37 39  1  0  0  0
 37 47  1  0  0  0
 37 66  1  0  0  0
 37106  1  0  0  0
 38 43  2  0  0  0
 38 46  1  0  0  0
 38 47  1  0  0  0
 39 64  1  0  0  0
 39 67  2  0  0  0
 40 52  1  0  0  0
 40 53  2  0  0  0
 40 58  1  0  0  0
 41107  1  0  0  0
 41108  1  0  0  0
 41109  1  0  0  0
 41 48  1  0  0  0
 42 43  1  0  0  0
 42 66  1  0  0  0
 42110  1  0  0  0
 42111  1  0  0  0
 43 44  1  0  0  0
 44112  1  0  0  0
 45 46  2  0  0  0
 45113  1  0  0  0
 46114  1  0  0  0
 47115  1  0  0  0
 47116  1  0  0  0
 48 56  1  0  0  0
 48 65  1  0  0  0
 48117  1  0  0  0
 49 50  1  0  0  0
 49 53  1  0  0  0
 49 64  1  0  0  0
 49118  1  0  0  0
 50 51  1  0  0  0
 50119  1  0  0  0
 50120  1  0  0  0
 51 52  1  0  0  0
 51121  1  0  0  0
 51122  1  0  0  0
 52123  1  0  0  0
 52124  1  0  0  0
 53 54  1  0  0  0
 54 55  2  0  0  0
 54125  1  0  0  0
 55 57  1  0  0  0
 55126  1  0  0  0
 56 69  2  0  0  0
 57 58  2  0  0  0
 57127  1  0  0  0
 58128  1  0  0  0
 59 60  1  0  0  0
 59 61  1  0  0  0
 59 62  1  0  0  0
 60129  1  0  0  0
 60130  1  0  0  0
 60131  1  0  0  0
 61132  1  0  0  0
 61133  1  0  0  0
 61134  1  0  0  0
 62135  1  0  0  0
 62136  1  0  0  0
 62137  1  0  0  0
 63 65  1  0  0  0
 63138  1  0  0  0
 63139  1  0  0  0
 63140  1  0  0  0
 64141  1  0  0  0
 65142  1  0  0  0
 68 82  1  0  0  0
 71 72  2  0  0  0
 71 73  1  0  0  0
 71143  1  0  0  0
 72 75  1  0  0  0
 72144  1  0  0  0
 73 76  2  0  0  0
 73145  1  0  0  0
 74 75  2  0  0  0
 74 76  1  0  0  0
 74146  1  0  0  0
 75 80  1  0  0  0
 76 83  1  0  0  0
 77 80  2  0  0  0
 77147  1  0  0  0
 77148  1  0  0  0
 78 79  2  0  0  0
 78 80  1  0  0  0
 78149  1  0  0  0
 79 81  1  0  0  0
 79150  1  0  0  0
 81 82  1  0  0  0
 81151  1  0  0  0
 81152  1  0  0  0
 82153  1  0  0  0
 82154  1  0  0  0
 83155  1  0  0  0
M  ISO  4   1 100  68 101  82 101  83 100
M  END
> <chiral flag>
0

> <version>
0

> <s_m_source_file>
/data/baiqing/PycharmProjects/Reinvent-master-3.2/result/LINK_invent/BTK/process_docking_weight1_custom_product_contain_oxygen_bond_distance_aromatic_linkinvent_7_9_3/rearranged_h_0118.sdf

> <i_m_source_file_index>
79

> <r_mmod_Potential_Energy-OPLS-2005>
23608.6328125

> <r_mmod_Stretch_Energy-OPLS-2005>
13808.849609375

> <r_mmod_Bend_Energy-OPLS-2005>
2018.25476074219

> <r_mmod_Torsional_Energy-OPLS-2005>
707.537780761719

> <r_mmod_Improper_Torsional_Energy-OPLS-2005>
66.5815887451172

> <r_mmod_Van_der_Waal_Energy-OPLS-2005>
4854.92626953125

> <r_mmod_Electrostatic_Energy-OPLS-2005>
-374.861206054688

> <r_mmod_Solvation_Energy-OPLS-2005>
-198.809951782227

> <b_mmod_Minimization_Converged-OPLS-2005>
0

> <r_mmod_RMS_Derivative-OPLS-2005>
14.239767074585

$$$$
80
                    3D
 Structure written by MMmdl.
155163  0  0  1  0            999 V2000
  -30.6899  -14.5258   20.6115 C   0  0  0  0  0  0
  -30.4339  -12.3510   19.4307 C   0  0  0  0  0  0
  -29.5003  -12.5144   18.2133 C   0  0  0  0  0  0
  -28.0208  -12.3679   18.6202 C   0  0  0  0  0  0
  -27.6616  -13.2060   19.8753 C   0  0  2  0  0  0
  -28.7025  -12.9905   20.9944 C   0  0  0  0  0  0
  -25.2592  -13.8146   20.5680 C   0  0  0  0  0  0
  -24.1834  -13.0427   20.9160 C   0  0  0  0  0  0
  -24.6385  -11.6893   20.8714 C   0  0  0  0  0  0
  -23.9047  -10.4286   21.0393 C   0  0  0  0  0  0
  -24.3604   -9.4208   21.9175 C   0  0  0  0  0  0
  -23.6286   -8.2240   22.0748 C   0  0  0  0  0  0
  -22.4269   -8.0275   21.3538 C   0  0  0  0  0  0
  -21.9896   -9.0247   20.4641 C   0  0  0  0  0  0
  -22.7216  -10.2129   20.3048 C   0  0  0  0  0  0
  -21.6853   -6.0732   22.5280 C   0  0  0  0  0  0
  -21.4013   -6.5637   23.8213 C   0  0  0  0  0  0
  -21.3662   -5.6789   24.9177 C   0  0  0  0  0  0
  -21.6046   -4.3051   24.7227 C   0  0  0  0  0  0
  -21.8819   -3.8143   23.4346 C   0  0  0  0  0  0
  -21.9192   -4.6959   22.3402 C   0  0  0  0  0  0
  -22.7859  -13.5238   21.1839 C   0  0  0  0  0  0
  -22.1660   -4.2143   21.0978 F   0  0  0  0  0  0
  -21.5633   -3.4536   25.7741 F   0  0  0  0  0  0
  -30.0328  -13.3339   20.4541 N   0  0  0  0  0  0
  -26.3024  -12.9310   20.3359 N   0  0  0  0  0  0
  -25.9313  -11.6471   20.5746 N   0  0  0  0  0  0
  -22.0500  -12.8237   22.0401 N   0  0  0  0  0  0
  -25.4328  -15.1866   20.4127 N   0  0  0  0  0  0
  -31.7614  -14.7529   20.0426 O   0  0  0  0  0  0
  -21.6635   -6.8872   21.4241 O   0  0  0  0  0  0
  -22.3546  -14.5552   20.6701 O   0  0  0  0  0  0
  -24.6199  -31.8649   23.2077 C   0  0  0  0  0  0
  -25.9074  -32.4804   23.8385 C   0  0  1  0  0  0
  -27.2294  -27.3800   20.0995 C   0  0  0  0  0  0
  -25.5909  -33.8605   24.2308 N   0  0  0  0  0  0
  -23.4103  -30.4901   21.5493 C   0  0  2  0  0  0
  -24.8559  -28.9546   20.1111 C   0  0  0  0  0  0
  -22.7441  -29.4649   22.4963 C   0  0  0  0  0  0
  -18.0280  -28.1384   22.8491 C   0  0  0  0  0  0
  -24.1487  -36.7308   23.2639 C   0  0  0  0  0  0
  -25.9465  -30.8122   21.3723 C   0  0  0  0  0  0
  -26.0207  -29.4453   20.7135 C   0  0  0  0  0  0
  -27.2085  -28.6669   20.7034 C   0  0  0  0  0  0
  -26.0420  -26.9297   19.4731 C   0  0  0  0  0  0
  -24.8648  -27.6986   19.4862 C   0  0  0  0  0  0
  -23.6209  -29.8270   20.1631 C   0  0  0  0  0  0
  -25.4109  -36.3099   24.0334 C   0  0  1  0  0  0
  -20.5874  -28.3678   23.1301 C   0  0  2  0  0  0
  -20.6769  -26.9409   22.5415 C   0  0  0  0  0  0
  -19.5745  -26.6385   21.5215 C   0  0  0  0  0  0
  -18.1925  -26.7928   22.1628 C   0  0  0  0  0  0
  -19.1530  -28.8847   23.2893 C   0  0  0  0  0  0
  -18.9456  -30.1452   23.8905 C   0  0  0  0  0  0
  -17.6457  -30.6587   24.0566 C   0  0  0  0  0  0
  -25.9041  -34.9467   23.5120 C   0  0  0  0  0  0
  -16.5348  -29.9088   23.6328 C   0  0  0  0  0  0
  -16.7268  -28.6505   23.0349 C   0  0  0  0  0  0
  -26.4475  -31.6601   25.0738 C   0  0  0  0  0  0
  -25.3720  -31.3737   26.1474 C   0  0  0  0  0  0
  -27.0311  -30.3027   24.6170 C   0  0  0  0  0  0
  -27.6045  -32.4330   25.7499 C   0  0  0  0  0  0
  -27.5582  -37.1808   24.8462 C   0  0  0  0  0  0
  -21.4162  -29.3039   22.3700 N   0  0  0  0  0  0
  -26.4292  -37.3788   23.9408 N   0  0  0  0  0  0
  -24.6772  -31.0708   22.1005 N   0  0  0  0  0  0
  -23.4192  -28.8188   23.3020 O   0  0  0  0  0  0
  -28.3772  -26.5897   20.1471 O   0  0  0  0  0  0
  -26.5609  -34.8924   22.4685 O   0  0  0  0  0  0
  -23.5377  -32.1428   23.7437 O   0  0  0  0  0  0
  -29.7936  -19.2783   20.9008 C   0  0  0  0  0  0
  -29.8725  -20.1602   18.6792 C   0  0  0  0  0  0
  -29.8045  -17.9442   20.3830 C   0  0  0  0  0  0
  -29.7884  -20.4291   20.0623 C   0  0  0  0  0  0
  -29.8167  -17.8366   18.9650 C   0  0  0  0  0  0
  -30.0654  -16.3433   16.9706 C   0  0  0  0  0  0
  -29.7556  -16.8235   21.3994 C   0  0  0  0  0  0
  -29.7030  -16.5565   18.2492 C   0  0  0  0  0  0
  -30.0510  -15.4889   21.5219 C   0  0  0  0  0  0
  -29.2953  -22.7620   19.9540 C   0  0  0  0  0  0
  -29.3786  -24.2409   20.4086 C   0  0  0  0  0  0
  -28.2436  -25.1655   19.8585 C   0  0  0  0  0  0
  -29.8935  -18.9208   18.1581 N   0  0  0  0  0  0
  -29.7672  -21.7496   20.6040 N   0  0  0  0  0  0
  -31.4758  -12.4680   19.1275 H   0  0  0  0  0  0
  -30.3579  -11.3403   19.8351 H   0  0  0  0  0  0
  -29.7504  -11.7814   17.4454 H   0  0  0  0  0  0
  -29.6594  -13.4921   17.7626 H   0  0  0  0  0  0
  -27.8346  -11.3111   18.8158 H   0  0  0  0  0  0
  -27.3721  -12.6415   17.7871 H   0  0  0  0  0  0
  -27.7008  -14.2543   19.5826 H   0  0  0  0  0  0
  -28.6975  -11.9483   21.3175 H   0  0  0  0  0  0
  -28.4216  -13.5592   21.8791 H   0  0  0  0  0  0
  -25.2752   -9.5695   22.4739 H   0  0  0  0  0  0
  -24.0003   -7.4638   22.7467 H   0  0  0  0  0  0
  -21.0825   -8.8760   19.8951 H   0  0  0  0  0  0
  -22.3670  -10.9664   19.6154 H   0  0  0  0  0  0
  -21.2003   -7.6145   23.9716 H   0  0  0  0  0  0
  -21.1488   -6.0519   25.9081 H   0  0  0  0  0  0
  -22.0595   -2.7604   23.2846 H   0  0  0  0  0  0
  -22.4114  -11.9899   22.4790 H   0  0  0  0  0  0
  -21.1122  -13.1265   22.2619 H   0  0  0  0  0  0
  -24.6717  -15.8455   20.5354 H   0  0  0  0  0  0
  -26.3018  -15.6303   20.1437 H   0  0  0  0  0  0
  -26.7144  -32.5491   23.1143 H   0  0  0  0  0  0
  -25.0048  -33.9761   25.0445 H   0  0  0  0  0  0
  -22.7013  -31.3089   21.4104 H   0  0  0  0  0  0
  -23.3746  -35.9644   23.3305 H   0  0  0  0  0  0
  -24.3580  -36.8921   22.2053 H   0  0  0  0  0  0
  -23.7243  -37.6514   23.6654 H   0  0  0  0  0  0
  -26.0733  -31.5798   20.6075 H   0  0  0  0  0  0
  -26.8287  -30.8575   21.9993 H   0  0  0  0  0  0
  -28.1032  -29.0393   21.1826 H   0  0  0  0  0  0
  -25.9948  -25.9766   18.9677 H   0  0  0  0  0  0
  -23.9716  -27.3183   19.0096 H   0  0  0  0  0  0
  -23.7337  -30.6044   19.4065 H   0  0  0  0  0  0
  -22.7427  -29.2519   19.8638 H   0  0  0  0  0  0
  -25.1287  -36.1961   25.0827 H   0  0  0  0  0  0
  -20.9969  -28.3251   24.1421 H   0  0  0  0  0  0
  -20.5675  -26.2290   23.3610 H   0  0  0  0  0  0
  -21.6640  -26.7447   22.1208 H   0  0  0  0  0  0
  -19.6908  -25.6297   21.1244 H   0  0  0  0  0  0
  -19.6683  -27.3198   20.6748 H   0  0  0  0  0  0
  -17.4196  -26.6678   21.4029 H   0  0  0  0  0  0
  -18.0325  -26.0069   22.9023 H   0  0  0  0  0  0
  -19.7932  -30.7265   24.2279 H   0  0  0  0  0  0
  -17.5013  -31.6268   24.5166 H   0  0  0  0  0  0
  -15.5350  -30.2993   23.7645 H   0  0  0  0  0  0
  -15.8670  -28.0827   22.7057 H   0  0  0  0  0  0
  -24.5886  -30.7094   25.7810 H   0  0  0  0  0  0
  -24.8919  -32.2905   26.4907 H   0  0  0  0  0  0
  -25.8049  -30.8912   27.0246 H   0  0  0  0  0  0
  -26.2880  -29.6795   24.1180 H   0  0  0  0  0  0
  -27.3999  -29.7266   25.4666 H   0  0  0  0  0  0
  -27.8753  -30.4317   23.9393 H   0  0  0  0  0  0
  -27.2659  -33.3624   26.2092 H   0  0  0  0  0  0
  -28.3843  -32.6903   25.0319 H   0  0  0  0  0  0
  -28.0728  -31.8450   26.5403 H   0  0  0  0  0  0
  -28.2600  -38.0105   24.7508 H   0  0  0  0  0  0
  -28.1075  -36.2636   24.6284 H   0  0  0  0  0  0
  -27.2303  -37.1457   25.8866 H   0  0  0  0  0  0
  -20.9331  -29.8762   21.6917 H   0  0  0  0  0  0
  -26.0179  -38.2867   24.1402 H   0  0  0  0  0  0
  -29.7672  -19.4257   21.9709 H   0  0  0  0  0  0
  -29.9263  -20.9575   17.9527 H   0  0  0  0  0  0
  -29.9288  -15.3813   16.5013 H   0  0  0  0  0  0
  -30.5043  -17.1284   16.3711 H   0  0  0  0  0  0
  -29.3190  -17.1874   22.3198 H   0  0  0  0  0  0
  -29.2519  -15.7431   18.7880 H   0  0  0  0  0  0
  -29.8084  -15.0769   22.4910 H   0  0  0  0  0  0
  -28.7976  -22.6420   18.9876 H   0  0  0  0  0  0
  -30.3437  -24.6322   20.0883 H   0  0  0  0  0  0
  -29.3783  -24.2759   21.4979 H   0  0  0  0  0  0
  -27.3116  -24.7853   20.2799 H   0  0  0  0  0  0
  -28.1765  -25.0508   18.7755 H   0  0  0  0  0  0
  1 25  1  0  0  0
  1 30  2  0  0  0
  1 79  1  0  0  0
  2  3  1  0  0  0
  2 25  1  0  0  0
  2 85  1  0  0  0
  2 86  1  0  0  0
  3  4  1  0  0  0
  3 87  1  0  0  0
  3 88  1  0  0  0
  4  5  1  0  0  0
  4 89  1  0  0  0
  4 90  1  0  0  0
  5  6  1  0  0  0
  5 26  1  0  0  0
  5 91  1  0  0  0
  6 25  1  0  0  0
  6 92  1  0  0  0
  6 93  1  0  0  0
  7  8  2  0  0  0
  7 26  1  0  0  0
  7 29  1  0  0  0
  8  9  1  0  0  0
  8 22  1  0  0  0
  9 10  1  0  0  0
  9 27  2  0  0  0
 10 11  2  0  0  0
 10 15  1  0  0  0
 11 12  1  0  0  0
 11 94  1  0  0  0
 12 13  2  0  0  0
 12 95  1  0  0  0
 13 14  1  0  0  0
 13 31  1  0  0  0
 14 15  2  0  0  0
 14 96  1  0  0  0
 15 97  1  0  0  0
 16 17  2  0  0  0
 16 21  1  0  0  0
 16 31  1  0  0  0
 17 18  1  0  0  0
 17 98  1  0  0  0
 18 19  2  0  0  0
 18 99  1  0  0  0
 19 20  1  0  0  0
 19 24  1  0  0  0
 20 21  2  0  0  0
 20100  1  0  0  0
 21 23  1  0  0  0
 22 28  1  0  0  0
 22 32  2  0  0  0
 26 27  1  0  0  0
 28101  1  0  0  0
 28102  1  0  0  0
 29103  1  0  0  0
 29104  1  0  0  0
 33 34  1  0  0  0
 33 66  1  0  0  0
 33 70  2  0  0  0
 34 36  1  0  0  0
 34 59  1  0  0  0
 34105  1  0  0  0
 35 44  2  0  0  0
 35 45  1  0  0  0
 35 68  1  0  0  0
 36 56  1  0  0  0
 36106  1  0  0  0
 37 39  1  0  0  0
 37 47  1  0  0  0
 37 66  1  0  0  0
 37107  1  0  0  0
 38 43  2  0  0  0
 38 46  1  0  0  0
 38 47  1  0  0  0
 39 64  1  0  0  0
 39 67  2  0  0  0
 40 52  1  0  0  0
 40 53  2  0  0  0
 40 58  1  0  0  0
 41108  1  0  0  0
 41109  1  0  0  0
 41110  1  0  0  0
 41 48  1  0  0  0
 42 43  1  0  0  0
 42 66  1  0  0  0
 42111  1  0  0  0
 42112  1  0  0  0
 43 44  1  0  0  0
 44113  1  0  0  0
 45 46  2  0  0  0
 45114  1  0  0  0
 46115  1  0  0  0
 47116  1  0  0  0
 47117  1  0  0  0
 48 56  1  0  0  0
 48 65  1  0  0  0
 48118  1  0  0  0
 49 50  1  0  0  0
 49 53  1  0  0  0
 49 64  1  0  0  0
 49119  1  0  0  0
 50 51  1  0  0  0
 50120  1  0  0  0
 50121  1  0  0  0
 51 52  1  0  0  0
 51122  1  0  0  0
 51123  1  0  0  0
 52124  1  0  0  0
 52125  1  0  0  0
 53 54  1  0  0  0
 54 55  2  0  0  0
 54126  1  0  0  0
 55 57  1  0  0  0
 55127  1  0  0  0
 56 69  2  0  0  0
 57 58  2  0  0  0
 57128  1  0  0  0
 58129  1  0  0  0
 59 60  1  0  0  0
 59 61  1  0  0  0
 59 62  1  0  0  0
 60130  1  0  0  0
 60131  1  0  0  0
 60132  1  0  0  0
 61133  1  0  0  0
 61134  1  0  0  0
 61135  1  0  0  0
 62136  1  0  0  0
 62137  1  0  0  0
 62138  1  0  0  0
 63 65  1  0  0  0
 63139  1  0  0  0
 63140  1  0  0  0
 63141  1  0  0  0
 64142  1  0  0  0
 65143  1  0  0  0
 68 82  1  0  0  0
 71 73  2  0  0  0
 71 74  1  0  0  0
 71144  1  0  0  0
 72 74  2  0  0  0
 72 83  1  0  0  0
 72145  1  0  0  0
 73 75  1  0  0  0
 73 77  1  0  0  0
 74 84  1  0  0  0
 75 78  1  0  0  0
 75 83  2  0  0  0
 76 78  2  0  0  0
 76146  1  0  0  0
 76147  1  0  0  0
 77 79  2  0  0  0
 77148  1  0  0  0
 78149  1  0  0  0
 79150  1  0  0  0
 80 81  1  0  0  0
 80 84  2  0  0  0
 80151  1  0  0  0
 81 82  1  0  0  0
 81152  1  0  0  0
 81153  1  0  0  0
 82154  1  0  0  0
 82155  1  0  0  0
M  ISO  4   1 100  68 101  79 100  82 101
M  END
> <chiral flag>
0

> <version>
0

> <s_m_source_file>
/data/baiqing/PycharmProjects/Reinvent-master-3.2/result/LINK_invent/BTK/process_docking_weight1_custom_product_contain_oxygen_bond_distance_aromatic_linkinvent_7_9_3/rearranged_h_0118.sdf

> <i_m_source_file_index>
80

> <r_mmod_Potential_Energy-OPLS-2005>
-17.79075050354

> <r_mmod_Stretch_Energy-OPLS-2005>
58.1296615600586

> <r_mmod_Bend_Energy-OPLS-2005>
163.027297973633

> <r_mmod_Torsional_Energy-OPLS-2005>
194.793472290039

> <r_mmod_Improper_Torsional_Energy-OPLS-2005>
2.60496115684509

> <r_mmod_Van_der_Waal_Energy-OPLS-2005>
162.653182983398

> <r_mmod_Electrostatic_Energy-OPLS-2005>
-404.719940185547

> <r_mmod_Solvation_Energy-OPLS-2005>
-216.170623779297

> <b_mmod_Minimization_Converged-OPLS-2005>
0

> <r_mmod_RMS_Derivative-OPLS-2005>
0.596910059452057

$$$$
81
                    3D
 Structure written by MMmdl.
159167  0  0  1  0            999 V2000
  -30.6726  -14.4797   20.5555 C   0  0  0  0  0  0
  -30.4324  -12.3057   19.4210 C   0  0  0  0  0  0
  -29.4990  -12.5043   18.2074 C   0  0  0  0  0  0
  -28.0177  -12.3681   18.6172 C   0  0  0  0  0  0
  -27.6636  -13.1968   19.8806 C   0  0  2  0  0  0
  -28.7071  -12.9635   20.9969 C   0  0  0  0  0  0
  -25.2605  -13.8127   20.5682 C   0  0  0  0  0  0
  -24.1839  -13.0423   20.9167 C   0  0  0  0  0  0
  -24.6375  -11.6885   20.8726 C   0  0  0  0  0  0
  -23.9036  -10.4281   21.0399 C   0  0  0  0  0  0
  -24.3591   -9.4203   21.9182 C   0  0  0  0  0  0
  -23.6274   -8.2238   22.0752 C   0  0  0  0  0  0
  -22.4258   -8.0273   21.3542 C   0  0  0  0  0  0
  -21.9886   -9.0244   20.4645 C   0  0  0  0  0  0
  -22.7208  -10.2124   20.3051 C   0  0  0  0  0  0
  -21.6851   -6.0726   22.5275 C   0  0  0  0  0  0
  -21.4015   -6.5631   23.8209 C   0  0  0  0  0  0
  -21.3660   -5.6784   24.9171 C   0  0  0  0  0  0
  -21.6043   -4.3048   24.7222 C   0  0  0  0  0  0
  -21.8821   -3.8140   23.4345 C   0  0  0  0  0  0
  -21.9195   -4.6956   22.3401 C   0  0  0  0  0  0
  -22.7866  -13.5244   21.1831 C   0  0  0  0  0  0
  -22.1664   -4.2143   21.0979 F   0  0  0  0  0  0
  -21.5629   -3.4534   25.7737 F   0  0  0  0  0  0
  -30.0397  -13.2800   20.4492 N   0  0  0  0  0  0
  -26.3031  -12.9272   20.3389 N   0  0  0  0  0  0
  -25.9302  -11.6444   20.5766 N   0  0  0  0  0  0
  -22.0495  -12.8246   22.0385 N   0  0  0  0  0  0
  -25.4345  -15.1844   20.4100 N   0  0  0  0  0  0
  -31.8010  -14.6920   20.1025 O   0  0  0  0  0  0
  -21.6632   -6.8865   21.4235 O   0  0  0  0  0  0
  -22.3564  -14.5558   20.6685 O   0  0  0  0  0  0
  -24.6146  -31.8673   23.2095 C   0  0  0  0  0  0
  -25.9042  -32.4817   23.8390 C   0  0  1  0  0  0
  -27.2424  -27.4351   20.0791 C   0  0  0  0  0  0
  -25.5901  -33.8615   24.2323 N   0  0  0  0  0  0
  -23.4021  -30.4898   21.5506 C   0  0  2  0  0  0
  -24.8472  -28.9520   20.1160 C   0  0  0  0  0  0
  -22.7409  -29.4649   22.4997 C   0  0  0  0  0  0
  -18.0272  -28.1379   22.8487 C   0  0  0  0  0  0
  -24.1483  -36.7315   23.2638 C   0  0  0  0  0  0
  -25.9309  -30.8282   21.3649 C   0  0  0  0  0  0
  -26.0059  -29.4612   20.7140 C   0  0  0  0  0  0
  -27.2000  -28.7053   20.7010 C   0  0  0  0  0  0
  -26.0570  -26.9326   19.4926 C   0  0  0  0  0  0
  -24.8662  -27.6847   19.5086 C   0  0  0  0  0  0
  -23.6099  -29.8198   20.1656 C   0  0  0  0  0  0
  -25.4104  -36.3108   24.0336 C   0  0  1  0  0  0
  -20.5862  -28.3658   23.1320 C   0  0  2  0  0  0
  -20.6758  -26.9395   22.5416 C   0  0  0  0  0  0
  -19.5739  -26.6382   21.5210 C   0  0  0  0  0  0
  -18.1917  -26.7924   22.1622 C   0  0  0  0  0  0
  -19.1523  -28.8836   23.2898 C   0  0  0  0  0  0
  -18.9448  -30.1446   23.8904 C   0  0  0  0  0  0
  -17.6451  -30.6582   24.0566 C   0  0  0  0  0  0
  -25.9032  -34.9473   23.5126 C   0  0  0  0  0  0
  -16.5342  -29.9083   23.6330 C   0  0  0  0  0  0
  -16.7262  -28.6504   23.0338 C   0  0  0  0  0  0
  -26.4469  -31.6602   25.0724 C   0  0  0  0  0  0
  -25.3738  -31.3712   26.1477 C   0  0  0  0  0  0
  -27.0305  -30.3045   24.6109 C   0  0  0  0  0  0
  -27.6040  -32.4328   25.7488 C   0  0  0  0  0  0
  -27.5580  -37.1810   24.8463 C   0  0  0  0  0  0
  -21.4137  -29.3025   22.3733 N   0  0  0  0  0  0
  -26.4293  -37.3790   23.9406 N   0  0  0  0  0  0
  -24.6672  -31.0769   22.0999 N   0  0  0  0  0  0
  -23.4181  -28.8190   23.3035 O   0  0  0  0  0  0
  -28.4378  -26.7385   20.0830 O   0  0  0  0  0  0
  -26.5591  -34.8926   22.4686 O   0  0  0  0  0  0
  -23.5339  -32.1425   23.7493 O   0  0  0  0  0  0
  -29.7277  -18.9244   19.5756 C   0  0  0  0  0  0
  -30.3006  -19.0724   21.9263 C   0  0  0  0  0  0
  -29.7379  -17.5098   19.6448 C   0  0  0  0  0  0
  -29.9903  -19.7220   20.7127 C   0  0  0  0  0  0
  -30.0316  -16.8668   20.8822 C   0  0  0  0  0  0
  -30.3086  -17.6633   22.0142 C   0  0  0  0  0  0
  -29.1340  -23.2027   19.5397 C   0  0  0  0  0  0
  -28.3449  -24.2850   19.7125 C   0  0  0  0  0  0
  -30.5592  -16.6489   17.3943 C   0  0  0  0  0  0
  -29.3851  -16.7415   18.3766 C   0  0  0  0  0  0
  -28.8240  -21.7915   20.0233 C   0  0  0  0  0  0
  -28.6485  -25.6709   19.1483 C   0  0  0  0  0  0
  -29.9120  -15.4585   21.0753 N   0  0  0  0  0  0
  -29.9642  -21.1319   20.6644 N   0  0  0  0  0  0
  -30.5616  -17.0709   23.2074 F   0  0  0  0  0  0
  -31.4760  -12.4155   19.1201 H   0  0  0  0  0  0
  -30.3410  -11.2920   19.8141 H   0  0  0  0  0  0
  -29.7365  -11.7790   17.4283 H   0  0  0  0  0  0
  -29.6703  -13.4879   17.7677 H   0  0  0  0  0  0
  -27.8213  -11.3115   18.8035 H   0  0  0  0  0  0
  -27.3707  -12.6539   17.7874 H   0  0  0  0  0  0
  -27.7037  -14.2455   19.5947 H   0  0  0  0  0  0
  -28.6852  -11.9219   21.3209 H   0  0  0  0  0  0
  -28.4662  -13.5449   21.8876 H   0  0  0  0  0  0
  -25.2733   -9.5692   22.4758 H   0  0  0  0  0  0
  -23.9991   -7.4629   22.7469 H   0  0  0  0  0  0
  -21.0821   -8.8753   19.8950 H   0  0  0  0  0  0
  -22.3660  -10.9661   19.6163 H   0  0  0  0  0  0
  -21.2006   -7.6138   23.9708 H   0  0  0  0  0  0
  -21.1483   -6.0515   25.9072 H   0  0  0  0  0  0
  -22.0600   -2.7603   23.2846 H   0  0  0  0  0  0
  -22.4090  -11.9905   22.4785 H   0  0  0  0  0  0
  -21.1119  -13.1294   22.2582 H   0  0  0  0  0  0
  -24.6690  -15.8410   20.5168 H   0  0  0  0  0  0
  -26.2911  -15.6237   20.0982 H   0  0  0  0  0  0
  -26.7110  -32.5525   23.1150 H   0  0  0  0  0  0
  -25.0060  -33.9772   25.0476 H   0  0  0  0  0  0
  -22.6908  -31.3064   21.4116 H   0  0  0  0  0  0
  -23.3739  -35.9655   23.3312 H   0  0  0  0  0  0
  -24.3574  -36.8918   22.2050 H   0  0  0  0  0  0
  -23.7245  -37.6528   23.6643 H   0  0  0  0  0  0
  -26.0457  -31.5926   20.5954 H   0  0  0  0  0  0
  -26.8182  -30.8806   21.9841 H   0  0  0  0  0  0
  -28.0963  -29.0982   21.1604 H   0  0  0  0  0  0
  -26.0293  -25.9580   19.0277 H   0  0  0  0  0  0
  -23.9717  -27.2812   19.0536 H   0  0  0  0  0  0
  -23.7169  -30.5927   19.4036 H   0  0  0  0  0  0
  -22.7337  -29.2384   19.8726 H   0  0  0  0  0  0
  -25.1279  -36.1973   25.0829 H   0  0  0  0  0  0
  -20.9951  -28.3222   24.1442 H   0  0  0  0  0  0
  -20.5661  -26.2263   23.3598 H   0  0  0  0  0  0
  -21.6631  -26.7436   22.1212 H   0  0  0  0  0  0
  -19.6893  -25.6296   21.1231 H   0  0  0  0  0  0
  -19.6680  -27.3200   20.6746 H   0  0  0  0  0  0
  -17.4186  -26.6674   21.4025 H   0  0  0  0  0  0
  -18.0317  -26.0068   22.9020 H   0  0  0  0  0  0
  -19.7925  -30.7260   24.2272 H   0  0  0  0  0  0
  -17.5006  -31.6264   24.5165 H   0  0  0  0  0  0
  -15.5341  -30.2980   23.7653 H   0  0  0  0  0  0
  -15.8665  -28.0830   22.7033 H   0  0  0  0  0  0
  -24.5899  -30.7072   25.7818 H   0  0  0  0  0  0
  -24.8945  -32.2870   26.4944 H   0  0  0  0  0  0
  -25.8095  -30.8866   27.0223 H   0  0  0  0  0  0
  -26.2851  -29.6808   24.1160 H   0  0  0  0  0  0
  -27.4070  -29.7281   25.4570 H   0  0  0  0  0  0
  -27.8687  -30.4364   23.9263 H   0  0  0  0  0  0
  -27.2649  -33.3611   26.2097 H   0  0  0  0  0  0
  -28.3833  -32.6919   25.0309 H   0  0  0  0  0  0
  -28.0729  -31.8440   26.5381 H   0  0  0  0  0  0
  -28.2601  -38.0104   24.7507 H   0  0  0  0  0  0
  -28.1071  -36.2636   24.6286 H   0  0  0  0  0  0
  -27.2298  -37.1466   25.8866 H   0  0  0  0  0  0
  -20.9296  -29.8758   21.6966 H   0  0  0  0  0  0
  -26.0184  -38.2870   24.1399 H   0  0  0  0  0  0
  -29.5102  -19.3922   18.6258 H   0  0  0  0  0  0
  -30.5110  -19.6463   22.8164 H   0  0  0  0  0  0
  -30.0537  -23.3153   18.9818 H   0  0  0  0  0  0
  -27.4163  -24.1863   20.2557 H   0  0  0  0  0  0
  -30.2686  -16.1053   16.4945 H   0  0  0  0  0  0
  -31.4066  -16.1258   17.8364 H   0  0  0  0  0  0
  -30.9013  -17.6373   17.0872 H   0  0  0  0  0  0
  -28.5481  -17.2431   17.8895 H   0  0  0  0  0  0
  -29.0221  -15.7443   18.6084 H   0  0  0  0  0  0
  -28.4759  -21.2242   19.1603 H   0  0  0  0  0  0
  -27.9892  -21.8273   20.7256 H   0  0  0  0  0  0
  -28.0955  -25.8248   18.2208 H   0  0  0  0  0  0
  -29.6989  -25.7016   18.8569 H   0  0  0  0  0  0
  -29.0775  -15.1527   21.5512 H   0  0  0  0  0  0
  -30.2741  -21.5929   21.5172 H   0  0  0  0  0  0
  1 25  1  0  0  0
  1 30  2  0  0  0
  1 83  1  0  0  0
  2  3  1  0  0  0
  2 25  1  0  0  0
  2 86  1  0  0  0
  2 87  1  0  0  0
  3  4  1  0  0  0
  3 88  1  0  0  0
  3 89  1  0  0  0
  4  5  1  0  0  0
  4 90  1  0  0  0
  4 91  1  0  0  0
  5  6  1  0  0  0
  5 26  1  0  0  0
  5 92  1  0  0  0
  6 25  1  0  0  0
  6 93  1  0  0  0
  6 94  1  0  0  0
  7  8  2  0  0  0
  7 26  1  0  0  0
  7 29  1  0  0  0
  8  9  1  0  0  0
  8 22  1  0  0  0
  9 10  1  0  0  0
  9 27  2  0  0  0
 10 11  2  0  0  0
 10 15  1  0  0  0
 11 12  1  0  0  0
 11 95  1  0  0  0
 12 13  2  0  0  0
 12 96  1  0  0  0
 13 14  1  0  0  0
 13 31  1  0  0  0
 14 15  2  0  0  0
 14 97  1  0  0  0
 15 98  1  0  0  0
 16 17  2  0  0  0
 16 21  1  0  0  0
 16 31  1  0  0  0
 17 18  1  0  0  0
 17 99  1  0  0  0
 18 19  2  0  0  0
 18100  1  0  0  0
 19 20  1  0  0  0
 19 24  1  0  0  0
 20 21  2  0  0  0
 20101  1  0  0  0
 21 23  1  0  0  0
 22 28  1  0  0  0
 22 32  2  0  0  0
 26 27  1  0  0  0
 28102  1  0  0  0
 28103  1  0  0  0
 29104  1  0  0  0
 29105  1  0  0  0
 33 34  1  0  0  0
 33 66  1  0  0  0
 33 70  2  0  0  0
 34 36  1  0  0  0
 34 59  1  0  0  0
 34106  1  0  0  0
 35 44  2  0  0  0
 35 45  1  0  0  0
 35 68  1  0  0  0
 36 56  1  0  0  0
 36107  1  0  0  0
 37 39  1  0  0  0
 37 47  1  0  0  0
 37 66  1  0  0  0
 37108  1  0  0  0
 38 43  2  0  0  0
 38 46  1  0  0  0
 38 47  1  0  0  0
 39 64  1  0  0  0
 39 67  2  0  0  0
 40 52  1  0  0  0
 40 53  2  0  0  0
 40 58  1  0  0  0
 41109  1  0  0  0
 41110  1  0  0  0
 41111  1  0  0  0
 41 48  1  0  0  0
 42 43  1  0  0  0
 42 66  1  0  0  0
 42112  1  0  0  0
 42113  1  0  0  0
 43 44  1  0  0  0
 44114  1  0  0  0
 45 46  2  0  0  0
 45115  1  0  0  0
 46116  1  0  0  0
 47117  1  0  0  0
 47118  1  0  0  0
 48 56  1  0  0  0
 48 65  1  0  0  0
 48119  1  0  0  0
 49 50  1  0  0  0
 49 53  1  0  0  0
 49 64  1  0  0  0
 49120  1  0  0  0
 50 51  1  0  0  0
 50121  1  0  0  0
 50122  1  0  0  0
 51 52  1  0  0  0
 51123  1  0  0  0
 51124  1  0  0  0
 52125  1  0  0  0
 52126  1  0  0  0
 53 54  1  0  0  0
 54 55  2  0  0  0
 54127  1  0  0  0
 55 57  1  0  0  0
 55128  1  0  0  0
 56 69  2  0  0  0
 57 58  2  0  0  0
 57129  1  0  0  0
 58130  1  0  0  0
 59 60  1  0  0  0
 59 61  1  0  0  0
 59 62  1  0  0  0
 60131  1  0  0  0
 60132  1  0  0  0
 60133  1  0  0  0
 61134  1  0  0  0
 61135  1  0  0  0
 61136  1  0  0  0
 62137  1  0  0  0
 62138  1  0  0  0
 62139  1  0  0  0
 63 65  1  0  0  0
 63140  1  0  0  0
 63141  1  0  0  0
 63142  1  0  0  0
 64143  1  0  0  0
 65144  1  0  0  0
 68 82  1  0  0  0
 71 73  2  0  0  0
 71 74  1  0  0  0
 71145  1  0  0  0
 72 74  2  0  0  0
 72 76  1  0  0  0
 72146  1  0  0  0
 73 75  1  0  0  0
 73 80  1  0  0  0
 74 84  1  0  0  0
 75 76  2  0  0  0
 75 83  1  0  0  0
 76 85  1  0  0  0
 77 78  2  0  0  0
 77 81  1  0  0  0
 77147  1  0  0  0
 78 82  1  0  0  0
 78148  1  0  0  0
 79 80  1  0  0  0
 79149  1  0  0  0
 79150  1  0  0  0
 79151  1  0  0  0
 80152  1  0  0  0
 80153  1  0  0  0
 81 84  1  0  0  0
 81154  1  0  0  0
 81155  1  0  0  0
 82156  1  0  0  0
 82157  1  0  0  0
 83158  1  0  0  0
 84159  1  0  0  0
M  ISO  4   1 100  68 101  82 101  83 100
M  END
> <chiral flag>
0

> <version>
0

> <s_m_source_file>
/data/baiqing/PycharmProjects/Reinvent-master-3.2/result/LINK_invent/BTK/process_docking_weight1_custom_product_contain_oxygen_bond_distance_aromatic_linkinvent_7_9_3/rearranged_h_0118.sdf

> <i_m_source_file_index>
81

> <r_mmod_Potential_Energy-OPLS-2005>
-97.4047088623047

> <r_mmod_Stretch_Energy-OPLS-2005>
37.1002082824707

> <r_mmod_Bend_Energy-OPLS-2005>
101.303131103516

> <r_mmod_Torsional_Energy-OPLS-2005>
228.443725585938

> <r_mmod_Improper_Torsional_Energy-OPLS-2005>
7.96229314804077

> <r_mmod_Van_der_Waal_Energy-OPLS-2005>
145.816513061523

> <r_mmod_Electrostatic_Energy-OPLS-2005>
-417.205047607422

> <r_mmod_Solvation_Energy-OPLS-2005>
-213.820495605469

> <b_mmod_Minimization_Converged-OPLS-2005>
0

> <r_mmod_RMS_Derivative-OPLS-2005>
0.729972541332245

$$$$
82
                    3D
 Structure written by MMmdl.
155163  0  0  1  0            999 V2000
  -30.6346  -14.6957   20.4472 C   0  0  0  0  0  0
  -30.4389  -12.4203   19.4565 C   0  0  0  0  0  0
  -29.5065  -12.4988   18.2271 C   0  0  0  0  0  0
  -28.0358  -12.3197   18.6520 C   0  0  0  0  0  0
  -27.6434  -13.2233   19.8505 C   0  0  2  0  0  0
  -28.6971  -13.1426   20.9811 C   0  0  0  0  0  0
  -25.2367  -13.8055   20.5593 C   0  0  0  0  0  0
  -24.1728  -13.0315   20.9215 C   0  0  0  0  0  0
  -24.6377  -11.6835   20.8768 C   0  0  0  0  0  0
  -23.9065  -10.4231   21.0412 C   0  0  0  0  0  0
  -24.3623   -9.4161   21.9196 C   0  0  0  0  0  0
  -23.6283   -8.2213   22.0772 C   0  0  0  0  0  0
  -22.4259   -8.0268   21.3553 C   0  0  0  0  0  0
  -21.9887   -9.0237   20.4650 C   0  0  0  0  0  0
  -22.7238  -10.2104   20.3059 C   0  0  0  0  0  0
  -21.6842   -6.0701   22.5270 C   0  0  0  0  0  0
  -21.4020   -6.5618   23.8203 C   0  0  0  0  0  0
  -21.3656   -5.6781   24.9163 C   0  0  0  0  0  0
  -21.6044   -4.3043   24.7226 C   0  0  0  0  0  0
  -21.8815   -3.8122   23.4354 C   0  0  0  0  0  0
  -21.9193   -4.6931   22.3400 C   0  0  0  0  0  0
  -22.7748  -13.5109   21.1859 C   0  0  0  0  0  0
  -22.1662   -4.2117   21.0977 F   0  0  0  0  0  0
  -21.5621   -3.4530   25.7745 F   0  0  0  0  0  0
  -30.0103  -13.4722   20.4004 N   0  0  0  0  0  0
  -26.2907  -12.9345   20.3264 N   0  0  0  0  0  0
  -25.9327  -11.6495   20.5802 N   0  0  0  0  0  0
  -22.0403  -12.8150   22.0447 N   0  0  0  0  0  0
  -25.3655  -15.1729   20.3854 N   0  0  0  0  0  0
  -31.8206  -14.8183   20.1337 O   0  0  0  0  0  0
  -21.6634   -6.8854   21.4232 O   0  0  0  0  0  0
  -22.3445  -14.5430   20.6720 O   0  0  0  0  0  0
  -24.6271  -31.8589   23.2022 C   0  0  0  0  0  0
  -25.9114  -32.4768   23.8348 C   0  0  1  0  0  0
  -27.2368  -27.3255   20.1079 C   0  0  0  0  0  0
  -25.5922  -33.8563   24.2283 N   0  0  0  0  0  0
  -23.4203  -30.4826   21.5436 C   0  0  2  0  0  0
  -24.8690  -28.9363   20.1117 C   0  0  0  0  0  0
  -22.7481  -29.4619   22.4935 C   0  0  0  0  0  0
  -18.0297  -28.1371   22.8479 C   0  0  0  0  0  0
  -24.1497  -36.7304   23.2645 C   0  0  0  0  0  0
  -25.9614  -30.7905   21.3734 C   0  0  0  0  0  0
  -26.0374  -29.4184   20.7149 C   0  0  0  0  0  0
  -27.2230  -28.6245   20.7053 C   0  0  0  0  0  0
  -26.0392  -26.8922   19.4905 C   0  0  0  0  0  0
  -24.8704  -27.6774   19.4930 C   0  0  0  0  0  0
  -23.6357  -29.8143   20.1596 C   0  0  0  0  0  0
  -25.4116  -36.3072   24.0336 C   0  0  1  0  0  0
  -20.5896  -28.3675   23.1275 C   0  0  2  0  0  0
  -20.6778  -26.9395   22.5404 C   0  0  0  0  0  0
  -19.5747  -26.6368   21.5213 C   0  0  0  0  0  0
  -18.1933  -26.7910   22.1627 C   0  0  0  0  0  0
  -19.1547  -28.8844   23.2876 C   0  0  0  0  0  0
  -18.9469  -30.1443   23.8904 C   0  0  0  0  0  0
  -17.6466  -30.6557   24.0570 C   0  0  0  0  0  0
  -25.9045  -34.9446   23.5113 C   0  0  0  0  0  0
  -16.5362  -29.9062   23.6319 C   0  0  0  0  0  0
  -16.7281  -28.6476   23.0346 C   0  0  0  0  0  0
  -26.4501  -31.6572   25.0718 C   0  0  0  0  0  0
  -25.3733  -31.3759   26.1461 C   0  0  0  0  0  0
  -27.0337  -30.2981   24.6186 C   0  0  0  0  0  0
  -27.6063  -32.4316   25.7474 C   0  0  0  0  0  0
  -27.5570  -37.1823   24.8478 C   0  0  0  0  0  0
  -21.4195  -29.3035   22.3673 N   0  0  0  0  0  0
  -26.4312  -37.3741   23.9378 N   0  0  0  0  0  0
  -24.6881  -31.0608   22.0971 N   0  0  0  0  0  0
  -23.4210  -28.8166   23.3016 O   0  0  0  0  0  0
  -28.3698  -26.4943   20.1367 O   0  0  0  0  0  0
  -26.5599  -34.8903   22.4673 O   0  0  0  0  0  0
  -23.5438  -32.1393   23.7349 O   0  0  0  0  0  0
  -28.8996  -19.4788   20.0631 C   0  0  0  0  0  0
  -31.1627  -17.9633   20.7306 C   0  0  0  0  0  0
  -28.8447  -18.0517   20.0991 C   0  0  0  0  0  0
  -30.0797  -20.2037   20.3636 C   0  0  0  0  0  0
  -29.9680  -17.2414   20.4698 C   0  0  0  0  0  0
  -31.2149  -19.3932   20.6747 C   0  0  0  0  0  0
  -29.2714  -22.5442   20.1814 C   0  0  0  0  0  0
  -29.4222  -24.1113   20.1797 C   0  0  0  0  0  0
  -27.4836  -17.0473   18.2076 C   0  0  0  0  0  0
  -27.5319  -17.4134   19.7018 C   0  0  0  0  0  0
  -28.1713  -25.0381   19.9251 C   0  0  0  0  0  0
  -30.2041  -21.6454   20.3561 N   0  0  0  0  0  0
  -29.8109  -15.7811   20.6334 N   0  0  0  0  0  0
  -30.5280  -24.6417   20.3545 O   0  0  0  0  0  0
  -32.3983  -19.9989   20.9431 F   0  0  0  0  0  0
  -31.4793  -12.5415   19.1483 H   0  0  0  0  0  0
  -30.3753  -11.4401   19.9307 H   0  0  0  0  0  0
  -29.7788  -11.7338   17.4984 H   0  0  0  0  0  0
  -29.6333  -13.4595   17.7241 H   0  0  0  0  0  0
  -27.9013  -11.2713   18.9247 H   0  0  0  0  0  0
  -27.3730  -12.5001   17.8053 H   0  0  0  0  0  0
  -27.6366  -14.2439   19.4696 H   0  0  0  0  0  0
  -28.7186  -12.1460   21.4218 H   0  0  0  0  0  0
  -28.4399  -13.8245   21.7938 H   0  0  0  0  0  0
  -25.2781   -9.5622   22.4754 H   0  0  0  0  0  0
  -23.9967   -7.4604   22.7511 H   0  0  0  0  0  0
  -21.0797   -8.8763   19.8980 H   0  0  0  0  0  0
  -22.3703  -10.9639   19.6164 H   0  0  0  0  0  0
  -21.2028   -7.6132   23.9681 H   0  0  0  0  0  0
  -21.1475   -6.0526   25.9063 H   0  0  0  0  0  0
  -22.0603   -2.7575   23.2876 H   0  0  0  0  0  0
  -22.4040  -11.9842   22.4876 H   0  0  0  0  0  0
  -21.1019  -13.1185   22.2634 H   0  0  0  0  0  0
  -24.5604  -15.7867   20.4655 H   0  0  0  0  0  0
  -26.1490  -15.6091   19.9223 H   0  0  0  0  0  0
  -26.7190  -32.5447   23.1103 H   0  0  0  0  0  0
  -25.0075  -33.9692   25.0433 H   0  0  0  0  0  0
  -22.7133  -31.3033   21.3989 H   0  0  0  0  0  0
  -23.3680  -35.9727   23.3435 H   0  0  0  0  0  0
  -24.3561  -36.8784   22.2033 H   0  0  0  0  0  0
  -23.7367  -37.6602   23.6565 H   0  0  0  0  0  0
  -26.0954  -31.5535   20.6056 H   0  0  0  0  0  0
  -26.8413  -30.8385   22.0027 H   0  0  0  0  0  0
  -28.1193  -28.9902   21.1865 H   0  0  0  0  0  0
  -25.9728  -25.9322   19.0006 H   0  0  0  0  0  0
  -23.9733  -27.3019   19.0187 H   0  0  0  0  0  0
  -23.7524  -30.5892   19.4014 H   0  0  0  0  0  0
  -22.7559  -29.2420   19.8591 H   0  0  0  0  0  0
  -25.1305  -36.1950   25.0831 H   0  0  0  0  0  0
  -20.9998  -28.3261   24.1396 H   0  0  0  0  0  0
  -20.5671  -26.2297   23.3613 H   0  0  0  0  0  0
  -21.6653  -26.7414   22.1211 H   0  0  0  0  0  0
  -19.6914  -25.6286   21.1228 H   0  0  0  0  0  0
  -19.6674  -27.3194   20.6757 H   0  0  0  0  0  0
  -17.4205  -26.6658   21.4033 H   0  0  0  0  0  0
  -18.0334  -26.0048   22.9014 H   0  0  0  0  0  0
  -19.7950  -30.7258   24.2280 H   0  0  0  0  0  0
  -17.5018  -31.6245   24.5162 H   0  0  0  0  0  0
  -15.5361  -30.2975   23.7616 H   0  0  0  0  0  0
  -15.8684  -28.0795   22.7065 H   0  0  0  0  0  0
  -24.5884  -30.7123   25.7821 H   0  0  0  0  0  0
  -24.8961  -32.2960   26.4847 H   0  0  0  0  0  0
  -25.8054  -30.8968   27.0250 H   0  0  0  0  0  0
  -26.2917  -29.6724   24.1212 H   0  0  0  0  0  0
  -27.4033  -29.7250   25.4695 H   0  0  0  0  0  0
  -27.8788  -30.4256   23.9420 H   0  0  0  0  0  0
  -27.2650  -33.3586   26.2087 H   0  0  0  0  0  0
  -28.3830  -32.6925   25.0276 H   0  0  0  0  0  0
  -28.0769  -31.8434   26.5355 H   0  0  0  0  0  0
  -28.2674  -38.0021   24.7360 H   0  0  0  0  0  0
  -28.0968  -36.2555   24.6499 H   0  0  0  0  0  0
  -27.2265  -37.1729   25.8875 H   0  0  0  0  0  0
  -20.9382  -29.8781   21.6897 H   0  0  0  0  0  0
  -26.0209  -38.2846   24.1249 H   0  0  0  0  0  0
  -27.9996  -20.0102   19.7904 H   0  0  0  0  0  0
  -32.0629  -17.4322   21.0014 H   0  0  0  0  0  0
  -28.2442  -22.2103   20.0193 H   0  0  0  0  0  0
  -26.5551  -16.5390   17.9475 H   0  0  0  0  0  0
  -28.3077  -16.3924   17.9223 H   0  0  0  0  0  0
  -27.5409  -17.9399   17.5827 H   0  0  0  0  0  0
  -26.6982  -18.0777   19.9404 H   0  0  0  0  0  0
  -27.4015  -16.5450   20.3346 H   0  0  0  0  0  0
  -27.3606  -24.6891   20.5642 H   0  0  0  0  0  0
  -27.8595  -24.8730   18.8935 H   0  0  0  0  0  0
  -28.8619  -15.4926   20.8043 H   0  0  0  0  0  0
  1 25  1  0  0  0
  1 30  2  0  0  0
  1 83  1  0  0  0
  2  3  1  0  0  0
  2 25  1  0  0  0
  2 86  1  0  0  0
  2 87  1  0  0  0
  3  4  1  0  0  0
  3 88  1  0  0  0
  3 89  1  0  0  0
  4  5  1  0  0  0
  4 90  1  0  0  0
  4 91  1  0  0  0
  5  6  1  0  0  0
  5 26  1  0  0  0
  5 92  1  0  0  0
  6 25  1  0  0  0
  6 93  1  0  0  0
  6 94  1  0  0  0
  7  8  2  0  0  0
  7 26  1  0  0  0
  7 29  1  0  0  0
  8  9  1  0  0  0
  8 22  1  0  0  0
  9 10  1  0  0  0
  9 27  2  0  0  0
 10 11  2  0  0  0
 10 15  1  0  0  0
 11 12  1  0  0  0
 11 95  1  0  0  0
 12 13  2  0  0  0
 12 96  1  0  0  0
 13 14  1  0  0  0
 13 31  1  0  0  0
 14 15  2  0  0  0
 14 97  1  0  0  0
 15 98  1  0  0  0
 16 17  2  0  0  0
 16 21  1  0  0  0
 16 31  1  0  0  0
 17 18  1  0  0  0
 17 99  1  0  0  0
 18 19  2  0  0  0
 18100  1  0  0  0
 19 20  1  0  0  0
 19 24  1  0  0  0
 20 21  2  0  0  0
 20101  1  0  0  0
 21 23  1  0  0  0
 22 28  1  0  0  0
 22 32  2  0  0  0
 26 27  1  0  0  0
 28102  1  0  0  0
 28103  1  0  0  0
 29104  1  0  0  0
 29105  1  0  0  0
 33 34  1  0  0  0
 33 66  1  0  0  0
 33 70  2  0  0  0
 34 36  1  0  0  0
 34 59  1  0  0  0
 34106  1  0  0  0
 35 44  2  0  0  0
 35 45  1  0  0  0
 35 68  1  0  0  0
 36 56  1  0  0  0
 36107  1  0  0  0
 37 39  1  0  0  0
 37 47  1  0  0  0
 37 66  1  0  0  0
 37108  1  0  0  0
 38 43  2  0  0  0
 38 46  1  0  0  0
 38 47  1  0  0  0
 39 64  1  0  0  0
 39 67  2  0  0  0
 40 52  1  0  0  0
 40 53  2  0  0  0
 40 58  1  0  0  0
 41109  1  0  0  0
 41110  1  0  0  0
 41111  1  0  0  0
 41 48  1  0  0  0
 42 43  1  0  0  0
 42 66  1  0  0  0
 42112  1  0  0  0
 42113  1  0  0  0
 43 44  1  0  0  0
 44114  1  0  0  0
 45 46  2  0  0  0
 45115  1  0  0  0
 46116  1  0  0  0
 47117  1  0  0  0
 47118  1  0  0  0
 48 56  1  0  0  0
 48 65  1  0  0  0
 48119  1  0  0  0
 49 50  1  0  0  0
 49 53  1  0  0  0
 49 64  1  0  0  0
 49120  1  0  0  0
 50 51  1  0  0  0
 50121  1  0  0  0
 50122  1  0  0  0
 51 52  1  0  0  0
 51123  1  0  0  0
 51124  1  0  0  0
 52125  1  0  0  0
 52126  1  0  0  0
 53 54  1  0  0  0
 54 55  2  0  0  0
 54127  1  0  0  0
 55 57  1  0  0  0
 55128  1  0  0  0
 56 69  2  0  0  0
 57 58  2  0  0  0
 57129  1  0  0  0
 58130  1  0  0  0
 59 60  1  0  0  0
 59 61  1  0  0  0
 59 62  1  0  0  0
 60131  1  0  0  0
 60132  1  0  0  0
 60133  1  0  0  0
 61134  1  0  0  0
 61135  1  0  0  0
 61136  1  0  0  0
 62137  1  0  0  0
 62138  1  0  0  0
 62139  1  0  0  0
 63 65  1  0  0  0
 63140  1  0  0  0
 63141  1  0  0  0
 63142  1  0  0  0
 64143  1  0  0  0
 65144  1  0  0  0
 68 81  1  0  0  0
 71 73  2  0  0  0
 71 74  1  0  0  0
 71145  1  0  0  0
 72 75  2  0  0  0
 72 76  1  0  0  0
 72146  1  0  0  0
 73 75  1  0  0  0
 73 80  1  0  0  0
 74 76  2  0  0  0
 74 82  1  0  0  0
 75 83  1  0  0  0
 76 85  1  0  0  0
 77 78  1  0  0  0
 77 82  2  0  0  0
 77147  1  0  0  0
 78 81  1  0  0  0
 78 84  2  0  0  0
 79 80  1  0  0  0
 79148  1  0  0  0
 79149  1  0  0  0
 79150  1  0  0  0
 80151  1  0  0  0
 80152  1  0  0  0
 81153  1  0  0  0
 81154  1  0  0  0
 83155  1  0  0  0
M  ISO  4   1 100  68 101  81 101  83 100
M  END
> <chiral flag>
0

> <version>
0

> <s_m_source_file>
/data/baiqing/PycharmProjects/Reinvent-master-3.2/result/LINK_invent/BTK/process_docking_weight1_custom_product_contain_oxygen_bond_distance_aromatic_linkinvent_7_9_3/rearranged_h_0118.sdf

> <i_m_source_file_index>
82

> <r_mmod_Potential_Energy-OPLS-2005>
124.501220703125

> <r_mmod_Stretch_Energy-OPLS-2005>
89.3266296386719

> <r_mmod_Bend_Energy-OPLS-2005>
146.280471801758

> <r_mmod_Torsional_Energy-OPLS-2005>
216.14582824707

> <r_mmod_Improper_Torsional_Energy-OPLS-2005>
6.35727119445801

> <r_mmod_Van_der_Waal_Energy-OPLS-2005>
142.726440429688

> <r_mmod_Electrostatic_Energy-OPLS-2005>
-284.669616699219

> <r_mmod_Solvation_Energy-OPLS-2005>
-251.049163818359

> <b_mmod_Minimization_Converged-OPLS-2005>
0

> <r_mmod_RMS_Derivative-OPLS-2005>
3.1108455657959

$$$$
83
                    3D
 Structure written by MMmdl.
150158  0  0  1  0            999 V2000
  -30.6291  -14.7846   20.4291 C   0  0  0  0  0  0
  -30.4208  -12.4713   19.4949 C   0  0  0  0  0  0
  -29.5118  -12.5088   18.2466 C   0  0  0  0  0  0
  -28.0383  -12.3284   18.6549 C   0  0  0  0  0  0
  -27.6351  -13.2427   19.8426 C   0  0  2  0  0  0
  -28.6764  -13.2192   20.9808 C   0  0  0  0  0  0
  -25.2485  -13.8220   20.5717 C   0  0  0  0  0  0
  -24.1786  -13.0448   20.9217 C   0  0  0  0  0  0
  -24.6392  -11.6929   20.8743 C   0  0  0  0  0  0
  -23.9076  -10.4298   21.0398 C   0  0  0  0  0  0
  -24.3628   -9.4213   21.9177 C   0  0  0  0  0  0
  -23.6303   -8.2245   22.0749 C   0  0  0  0  0  0
  -22.4283   -8.0279   21.3541 C   0  0  0  0  0  0
  -21.9916   -9.0250   20.4639 C   0  0  0  0  0  0
  -22.7245  -10.2133   20.3048 C   0  0  0  0  0  0
  -21.6858   -6.0733   22.5278 C   0  0  0  0  0  0
  -21.4017   -6.5638   23.8212 C   0  0  0  0  0  0
  -21.3663   -5.6791   24.9173 C   0  0  0  0  0  0
  -21.6047   -4.3055   24.7225 C   0  0  0  0  0  0
  -21.8817   -3.8146   23.4348 C   0  0  0  0  0  0
  -21.9195   -4.6961   22.3402 C   0  0  0  0  0  0
  -22.7804  -13.5216   21.1879 C   0  0  0  0  0  0
  -22.1661   -4.2147   21.0978 F   0  0  0  0  0  0
  -21.5633   -3.4538   25.7740 F   0  0  0  0  0  0
  -29.9797  -13.5627   20.4018 N   0  0  0  0  0  0
  -26.2910  -12.9449   20.3260 N   0  0  0  0  0  0
  -25.9327  -11.6581   20.5738 N   0  0  0  0  0  0
  -22.0464  -12.8190   22.0435 N   0  0  0  0  0  0
  -25.4178  -15.1947   20.4173 N   0  0  0  0  0  0
  -31.8257  -14.7918   20.1257 O   0  0  0  0  0  0
  -21.6649   -6.8875   21.4239 O   0  0  0  0  0  0
  -22.3481  -14.5520   20.6726 O   0  0  0  0  0  0
  -24.6355  -31.8540   23.1978 C   0  0  0  0  0  0
  -25.9169  -32.4740   23.8332 C   0  0  1  0  0  0
  -27.2070  -27.2269   20.1277 C   0  0  0  0  0  0
  -25.5953  -33.8544   24.2254 N   0  0  0  0  0  0
  -23.4327  -30.4798   21.5419 C   0  0  2  0  0  0
  -24.8784  -28.9292   20.1068 C   0  0  0  0  0  0
  -22.7520  -29.4608   22.4888 C   0  0  0  0  0  0
  -18.0296  -28.1402   22.8482 C   0  0  0  0  0  0
  -24.1495  -36.7275   23.2638 C   0  0  0  0  0  0
  -25.9836  -30.7565   21.3842 C   0  0  0  0  0  0
  -26.0537  -29.3777   20.7229 C   0  0  0  0  0  0
  -27.2211  -28.5398   20.7232 C   0  0  0  0  0  0
  -26.0068  -26.8672   19.4699 C   0  0  0  0  0  0
  -24.8626  -27.6839   19.4675 C   0  0  0  0  0  0
  -23.6527  -29.8210   20.1560 C   0  0  0  0  0  0
  -25.4121  -36.3057   24.0324 C   0  0  1  0  0  0
  -20.5902  -28.3722   23.1256 C   0  0  2  0  0  0
  -20.6787  -26.9437   22.5402 C   0  0  0  0  0  0
  -19.5759  -26.6395   21.5213 C   0  0  0  0  0  0
  -18.1940  -26.7942   22.1628 C   0  0  0  0  0  0
  -19.1549  -28.8878   23.2867 C   0  0  0  0  0  0
  -18.9468  -30.1473   23.8892 C   0  0  0  0  0  0
  -17.6467  -30.6598   24.0569 C   0  0  0  0  0  0
  -25.9069  -34.9429   23.5092 C   0  0  0  0  0  0
  -16.5356  -29.9098   23.6333 C   0  0  0  0  0  0
  -16.7279  -28.6515   23.0352 C   0  0  0  0  0  0
  -26.4525  -31.6562   25.0725 C   0  0  0  0  0  0
  -25.3735  -31.3715   26.1434 C   0  0  0  0  0  0
  -27.0365  -30.2965   24.6236 C   0  0  0  0  0  0
  -27.6087  -32.4294   25.7491 C   0  0  0  0  0  0
  -27.5583  -37.1791   24.8464 C   0  0  0  0  0  0
  -21.4220  -29.3065   22.3635 N   0  0  0  0  0  0
  -26.4288  -37.3763   23.9413 N   0  0  0  0  0  0
  -24.7035  -31.0484   22.0971 N   0  0  0  0  0  0
  -23.4203  -28.8143   23.2998 O   0  0  0  0  0  0
  -28.2680  -26.2785   20.2017 O   0  0  0  0  0  0
  -26.5641  -34.8907   22.4661 O   0  0  0  0  0  0
  -23.5496  -32.1381   23.7249 O   0  0  0  0  0  0
  -30.8827  -21.0410   20.9727 C   0  0  0  0  0  0
  -31.3540  -19.6924   21.0556 C   0  0  0  0  0  0
  -29.5898  -21.0514   20.5398 C   0  0  0  0  0  0
  -30.3441  -18.8410   20.6634 C   0  0  0  0  0  0
  -28.7125  -22.2379   20.2619 C   0  0  0  0  0  0
  -30.5007  -17.3381   20.5663 C   0  0  0  0  0  0
  -29.8681  -16.0949   20.6292 C   0  0  0  0  0  0
  -28.9364  -23.6173   20.3270 C   0  0  0  0  0  0
  -32.7456  -19.2988   21.4849 C   0  0  0  0  0  0
  -27.9335  -24.8129   19.9825 C   0  0  0  0  0  0
  -29.2223  -19.6730   20.3704 O   0  0  0  0  0  0
  -31.4660  -12.5647   19.1968 H   0  0  0  0  0  0
  -30.3453  -11.5052   19.9966 H   0  0  0  0  0  0
  -29.8025  -11.7291   17.5418 H   0  0  0  0  0  0
  -29.6371  -13.4594   17.7253 H   0  0  0  0  0  0
  -27.9029  -11.2819   18.9320 H   0  0  0  0  0  0
  -27.3813  -12.5029   17.8019 H   0  0  0  0  0  0
  -27.6177  -14.2569   19.4434 H   0  0  0  0  0  0
  -28.7145  -12.2366   21.4532 H   0  0  0  0  0  0
  -28.4050  -13.9257   21.7660 H   0  0  0  0  0  0
  -25.2772   -9.5695   22.4755 H   0  0  0  0  0  0
  -24.0016   -7.4638   22.7469 H   0  0  0  0  0  0
  -21.0848   -8.8760   19.8946 H   0  0  0  0  0  0
  -22.3692  -10.9668   19.6158 H   0  0  0  0  0  0
  -21.2004   -7.6145   23.9715 H   0  0  0  0  0  0
  -21.1490   -6.0521   25.9077 H   0  0  0  0  0  0
  -22.0593   -2.7608   23.2850 H   0  0  0  0  0  0
  -22.4100  -11.9856   22.4819 H   0  0  0  0  0  0
  -21.1073  -13.1186   22.2644 H   0  0  0  0  0  0
  -24.6548  -15.8512   20.5412 H   0  0  0  0  0  0
  -26.2735  -15.6371   20.1062 H   0  0  0  0  0  0
  -26.7231  -32.5381   23.1070 H   0  0  0  0  0  0
  -25.0091  -33.9680   25.0389 H   0  0  0  0  0  0
  -22.7312  -31.3039   21.3968 H   0  0  0  0  0  0
  -23.3762  -35.9600   23.3273 H   0  0  0  0  0  0
  -24.3596  -36.8927   22.2059 H   0  0  0  0  0  0
  -23.7238  -37.6462   23.6685 H   0  0  0  0  0  0
  -26.1277  -31.5169   20.6153 H   0  0  0  0  0  0
  -26.8594  -30.8039   22.0196 H   0  0  0  0  0  0
  -28.1159  -28.8742   21.2291 H   0  0  0  0  0  0
  -25.9064  -25.9217   18.9601 H   0  0  0  0  0  0
  -23.9655  -27.3391   18.9716 H   0  0  0  0  0  0
  -23.7834  -30.6014   19.4054 H   0  0  0  0  0  0
  -22.7692  -29.2608   19.8447 H   0  0  0  0  0  0
  -25.1300  -36.1900   25.0815 H   0  0  0  0  0  0
  -20.9999  -28.3310   24.1376 H   0  0  0  0  0  0
  -20.5706  -26.2335   23.3612 H   0  0  0  0  0  0
  -21.6656  -26.7474   22.1188 H   0  0  0  0  0  0
  -19.6930  -25.6304   21.1252 H   0  0  0  0  0  0
  -19.6693  -27.3201   20.6738 H   0  0  0  0  0  0
  -17.4210  -26.6683   21.4034 H   0  0  0  0  0  0
  -18.0349  -26.0087   22.9029 H   0  0  0  0  0  0
  -19.7944  -30.7294   24.2265 H   0  0  0  0  0  0
  -17.5019  -31.6278   24.5176 H   0  0  0  0  0  0
  -15.5362  -30.3005   23.7654 H   0  0  0  0  0  0
  -15.8676  -28.0835   22.7074 H   0  0  0  0  0  0
  -24.5926  -30.7051   25.7752 H   0  0  0  0  0  0
  -24.8913  -32.2878   26.4843 H   0  0  0  0  0  0
  -25.8043  -30.8898   27.0218 H   0  0  0  0  0  0
  -26.2951  -29.6696   24.1268 H   0  0  0  0  0  0
  -27.4029  -29.7248   25.4773 H   0  0  0  0  0  0
  -27.8843  -30.4210   23.9494 H   0  0  0  0  0  0
  -27.2725  -33.3624   26.2024 H   0  0  0  0  0  0
  -28.3922  -32.6791   25.0323 H   0  0  0  0  0  0
  -28.0722  -31.8430   26.5435 H   0  0  0  0  0  0
  -28.2578  -38.0107   24.7529 H   0  0  0  0  0  0
  -28.1096  -36.2638   24.6263 H   0  0  0  0  0  0
  -27.2304  -37.1407   25.8866 H   0  0  0  0  0  0
  -20.9409  -29.8785   21.6830 H   0  0  0  0  0  0
  -26.0158  -38.2830   24.1421 H   0  0  0  0  0  0
  -31.4516  -21.9324   21.1988 H   0  0  0  0  0  0
  -27.7178  -21.9532   19.9472 H   0  0  0  0  0  0
  -31.5476  -17.1806   20.3516 H   0  0  0  0  0  0
  -28.8073  -16.0626   20.8235 H   0  0  0  0  0  0
  -29.9183  -23.9465   20.6344 H   0  0  0  0  0  0
  -33.2891  -20.1594   21.8761 H   0  0  0  0  0  0
  -33.3085  -18.8987   20.6411 H   0  0  0  0  0  0
  -32.7080  -18.5390   22.2659 H   0  0  0  0  0  0
  -27.0122  -24.5846   20.5209 H   0  0  0  0  0  0
  -27.7082  -24.6904   18.9229 H   0  0  0  0  0  0
  1 25  1  0  0  0
  1 30  2  0  0  0
  1 77  1  0  0  0
  2  3  1  0  0  0
  2 25  1  0  0  0
  2 82  1  0  0  0
  2 83  1  0  0  0
  3  4  1  0  0  0
  3 84  1  0  0  0
  3 85  1  0  0  0
  4  5  1  0  0  0
  4 86  1  0  0  0
  4 87  1  0  0  0
  5  6  1  0  0  0
  5 26  1  0  0  0
  5 88  1  0  0  0
  6 25  1  0  0  0
  6 89  1  0  0  0
  6 90  1  0  0  0
  7  8  2  0  0  0
  7 26  1  0  0  0
  7 29  1  0  0  0
  8  9  1  0  0  0
  8 22  1  0  0  0
  9 10  1  0  0  0
  9 27  2  0  0  0
 10 11  2  0  0  0
 10 15  1  0  0  0
 11 12  1  0  0  0
 11 91  1  0  0  0
 12 13  2  0  0  0
 12 92  1  0  0  0
 13 14  1  0  0  0
 13 31  1  0  0  0
 14 15  2  0  0  0
 14 93  1  0  0  0
 15 94  1  0  0  0
 16 17  2  0  0  0
 16 21  1  0  0  0
 16 31  1  0  0  0
 17 18  1  0  0  0
 17 95  1  0  0  0
 18 19  2  0  0  0
 18 96  1  0  0  0
 19 20  1  0  0  0
 19 24  1  0  0  0
 20 21  2  0  0  0
 20 97  1  0  0  0
 21 23  1  0  0  0
 22 28  1  0  0  0
 22 32  2  0  0  0
 26 27  1  0  0  0
 28 98  1  0  0  0
 28 99  1  0  0  0
 29100  1  0  0  0
 29101  1  0  0  0
 33 34  1  0  0  0
 33 66  1  0  0  0
 33 70  2  0  0  0
 34 36  1  0  0  0
 34 59  1  0  0  0
 34102  1  0  0  0
 35 44  2  0  0  0
 35 45  1  0  0  0
 35 68  1  0  0  0
 36 56  1  0  0  0
 36103  1  0  0  0
 37 39  1  0  0  0
 37 47  1  0  0  0
 37 66  1  0  0  0
 37104  1  0  0  0
 38 43  2  0  0  0
 38 46  1  0  0  0
 38 47  1  0  0  0
 39 64  1  0  0  0
 39 67  2  0  0  0
 40 52  1  0  0  0
 40 53  2  0  0  0
 40 58  1  0  0  0
 41105  1  0  0  0
 41106  1  0  0  0
 41107  1  0  0  0
 41 48  1  0  0  0
 42 43  1  0  0  0
 42 66  1  0  0  0
 42108  1  0  0  0
 42109  1  0  0  0
 43 44  1  0  0  0
 44110  1  0  0  0
 45 46  2  0  0  0
 45111  1  0  0  0
 46112  1  0  0  0
 47113  1  0  0  0
 47114  1  0  0  0
 48 56  1  0  0  0
 48 65  1  0  0  0
 48115  1  0  0  0
 49 50  1  0  0  0
 49 53  1  0  0  0
 49 64  1  0  0  0
 49116  1  0  0  0
 50 51  1  0  0  0
 50117  1  0  0  0
 50118  1  0  0  0
 51 52  1  0  0  0
 51119  1  0  0  0
 51120  1  0  0  0
 52121  1  0  0  0
 52122  1  0  0  0
 53 54  1  0  0  0
 54 55  2  0  0  0
 54123  1  0  0  0
 55 57  1  0  0  0
 55124  1  0  0  0
 56 69  2  0  0  0
 57 58  2  0  0  0
 57125  1  0  0  0
 58126  1  0  0  0
 59 60  1  0  0  0
 59 61  1  0  0  0
 59 62  1  0  0  0
 60127  1  0  0  0
 60128  1  0  0  0
 60129  1  0  0  0
 61130  1  0  0  0
 61131  1  0  0  0
 61132  1  0  0  0
 62133  1  0  0  0
 62134  1  0  0  0
 62135  1  0  0  0
 63 65  1  0  0  0
 63136  1  0  0  0
 63137  1  0  0  0
 63138  1  0  0  0
 64139  1  0  0  0
 65140  1  0  0  0
 68 80  1  0  0  0
 71 72  1  0  0  0
 71 73  2  0  0  0
 71141  1  0  0  0
 72 74  2  0  0  0
 72 79  1  0  0  0
 73 75  1  0  0  0
 73 81  1  0  0  0
 74 76  1  0  0  0
 74 81  1  0  0  0
 75 78  2  0  0  0
 75142  1  0  0  0
 76 77  2  0  0  0
 76143  1  0  0  0
 77144  1  0  0  0
 78 80  1  0  0  0
 78145  1  0  0  0
 79146  1  0  0  0
 79147  1  0  0  0
 79148  1  0  0  0
 80149  1  0  0  0
 80150  1  0  0  0
M  ISO  4   1 100  68 101  77 100  80 101
M  END
> <chiral flag>
0

> <version>
0

> <s_m_source_file>
/data/baiqing/PycharmProjects/Reinvent-master-3.2/result/LINK_invent/BTK/process_docking_weight1_custom_product_contain_oxygen_bond_distance_aromatic_linkinvent_7_9_3/rearranged_h_0118.sdf

> <i_m_source_file_index>
83

> <r_mmod_Potential_Energy-OPLS-2005>
235.554595947266

> <r_mmod_Stretch_Energy-OPLS-2005>
140.023406982422

> <r_mmod_Bend_Energy-OPLS-2005>
212.098251342773

> <r_mmod_Torsional_Energy-OPLS-2005>
191.328140258789

> <r_mmod_Improper_Torsional_Energy-OPLS-2005>
3.83661341667175

> <r_mmod_Van_der_Waal_Energy-OPLS-2005>
128.959335327148

> <r_mmod_Electrostatic_Energy-OPLS-2005>
-353.026977539062

> <r_mmod_Solvation_Energy-OPLS-2005>
-196.735305786133

> <b_mmod_Minimization_Converged-OPLS-2005>
0

> <r_mmod_RMS_Derivative-OPLS-2005>
0.898528695106506

$$$$
84
                    3D
 Structure written by MMmdl.
146154  0  0  1  0            999 V2000
  -30.4050  -15.4049   20.3233 C   0  0  0  0  0  0
  -30.4166  -12.8865   19.5630 C   0  0  0  0  0  0
  -29.5404  -12.6206   18.3104 C   0  0  0  0  0  0
  -28.0928  -12.3146   18.7256 C   0  0  0  0  0  0
  -27.6007  -13.2989   19.8145 C   0  0  2  0  0  0
  -28.6176  -13.5459   20.9512 C   0  0  0  0  0  0
  -25.2343  -13.8317   20.5740 C   0  0  0  0  0  0
  -24.1720  -13.0473   20.9243 C   0  0  0  0  0  0
  -24.6420  -11.6977   20.8749 C   0  0  0  0  0  0
  -23.9135  -10.4311   21.0402 C   0  0  0  0  0  0
  -24.3672   -9.4206   21.9175 C   0  0  0  0  0  0
  -23.6322   -8.2253   22.0764 C   0  0  0  0  0  0
  -22.4289   -8.0309   21.3571 C   0  0  0  0  0  0
  -21.9944   -9.0288   20.4664 C   0  0  0  0  0  0
  -22.7305  -10.2152   20.3048 C   0  0  0  0  0  0
  -21.6868   -6.0745   22.5296 C   0  0  0  0  0  0
  -21.4028   -6.5643   23.8230 C   0  0  0  0  0  0
  -21.3653   -5.6784   24.9190 C   0  0  0  0  0  0
  -21.6043   -4.3051   24.7234 C   0  0  0  0  0  0
  -21.8813   -3.8151   23.4352 C   0  0  0  0  0  0
  -21.9193   -4.6967   22.3413 C   0  0  0  0  0  0
  -22.7723  -13.5197   21.1885 C   0  0  0  0  0  0
  -22.1646   -4.2149   21.0982 F   0  0  0  0  0  0
  -21.5631   -3.4533   25.7746 F   0  0  0  0  0  0
  -29.8501  -14.0710   20.3379 N   0  0  0  0  0  0
  -26.2780  -12.9629   20.3184 N   0  0  0  0  0  0
  -25.9356  -11.6718   20.5684 N   0  0  0  0  0  0
  -22.0398  -12.8181   22.0453 N   0  0  0  0  0  0
  -25.3974  -15.2061   20.4216 N   0  0  0  0  0  0
  -31.6103  -15.3226   20.0313 O   0  0  0  0  0  0
  -21.6660   -6.8900   21.4265 O   0  0  0  0  0  0
  -22.3371  -14.5474   20.6699 O   0  0  0  0  0  0
  -24.6727  -31.8114   23.1618 C   0  0  0  0  0  0
  -25.9354  -32.4528   23.8124 C   0  0  1  0  0  0
  -27.2159  -26.8245   20.1799 C   0  0  0  0  0  0
  -25.5977  -33.8349   24.2011 N   0  0  0  0  0  0
  -23.4925  -30.4183   21.5136 C   0  0  2  0  0  0
  -24.9456  -28.7867   20.1074 C   0  0  0  0  0  0
  -22.7715  -29.4364   22.4762 C   0  0  0  0  0  0
  -18.0328  -28.1385   22.8470 C   0  0  0  0  0  0
  -24.1508  -36.7184   23.2651 C   0  0  0  0  0  0
  -26.0673  -30.5792   21.4106 C   0  0  0  0  0  0
  -26.1299  -29.1605   20.7531 C   0  0  0  0  0  0
  -27.2526  -28.2000   20.7659 C   0  0  0  0  0  0
  -26.0049  -26.6337   19.4738 C   0  0  0  0  0  0
  -24.9147  -27.5475   19.4469 C   0  0  0  0  0  0
  -23.7371  -29.7266   20.1428 C   0  0  0  0  0  0
  -25.4151  -36.2935   24.0293 C   0  0  1  0  0  0
  -20.5961  -28.3739   23.1191 C   0  0  2  0  0  0
  -20.6808  -26.9418   22.5406 C   0  0  0  0  0  0
  -19.5780  -26.6355   21.5224 C   0  0  0  0  0  0
  -18.1957  -26.7922   22.1621 C   0  0  0  0  0  0
  -19.1589  -28.8886   23.2818 C   0  0  0  0  0  0
  -18.9495  -30.1466   23.8867 C   0  0  0  0  0  0
  -17.6482  -30.6590   24.0527 C   0  0  0  0  0  0
  -25.9112  -34.9319   23.4983 C   0  0  0  0  0  0
  -16.5376  -29.9067   23.6327 C   0  0  0  0  0  0
  -16.7307  -28.6470   23.0389 C   0  0  0  0  0  0
  -26.4567  -31.6522   25.0697 C   0  0  0  0  0  0
  -25.3656  -31.3783   26.1327 C   0  0  0  0  0  0
  -27.0469  -30.2880   24.6496 C   0  0  0  0  0  0
  -27.6069  -32.4338   25.7486 C   0  0  0  0  0  0
  -27.5585  -37.1743   24.8450 C   0  0  0  0  0  0
  -21.4379  -29.3014   22.3531 N   0  0  0  0  0  0
  -26.4285  -37.3688   23.9406 N   0  0  0  0  0  0
  -24.7669  -30.9664   22.0810 N   0  0  0  0  0  0
  -23.4220  -28.7950   23.3047 O   0  0  0  0  0  0
  -28.1981  -25.6694   20.2852 O   0  0  0  0  0  0
  -26.5755  -34.8877   22.4595 O   0  0  0  0  0  0
  -23.5779  -32.1140   23.6633 O   0  0  0  0  0  0
  -29.8899  -17.7358   21.8197 C   0  0  0  0  0  0
  -29.6080  -19.1855   21.7246 C   0  0  0  0  0  0
  -29.8019  -17.0263   20.6326 C   0  0  0  0  0  0
  -29.2220  -19.6365   20.4705 C   0  0  0  0  0  0
  -30.0838  -19.7430   24.1169 C   0  0  0  0  0  0
  -29.7257  -20.0979   22.8717 C   0  0  0  0  0  0
  -28.7302  -22.8444   20.3780 C   0  0  0  0  0  0
  -28.0812  -24.1368   19.9557 C   0  0  0  0  0  0
  -28.6949  -21.1735   19.8740 C   0  0  0  0  0  0
  -28.1540  -21.0402   18.7714 O   0  0  0  0  0  0
  -29.3997  -18.2540   19.7869 O   0  0  0  0  0  0
  -31.4469  -13.0500   19.2462 H   0  0  0  0  0  0
  -30.4593  -11.9933   20.1892 H   0  0  0  0  0  0
  -29.9501  -11.8024   17.7160 H   0  0  0  0  0  0
  -29.5543  -13.5041   17.6706 H   0  0  0  0  0  0
  -28.0636  -11.2942   19.1088 H   0  0  0  0  0  0
  -27.4323  -12.3376   17.8567 H   0  0  0  0  0  0
  -27.4914  -14.2474   19.2881 H   0  0  0  0  0  0
  -28.7975  -12.6389   21.5313 H   0  0  0  0  0  0
  -28.2251  -14.2878   21.6481 H   0  0  0  0  0  0
  -25.2822   -9.5670   22.4740 H   0  0  0  0  0  0
  -24.0036   -7.4634   22.7469 H   0  0  0  0  0  0
  -21.0879   -8.8826   19.8953 H   0  0  0  0  0  0
  -22.3788  -10.9692   19.6137 H   0  0  0  0  0  0
  -21.2021   -7.6148   23.9744 H   0  0  0  0  0  0
  -21.1478   -6.0511   25.9093 H   0  0  0  0  0  0
  -22.0590   -2.7610   23.2869 H   0  0  0  0  0  0
  -22.4043  -11.9869   22.4868 H   0  0  0  0  0  0
  -21.1005  -13.1184   22.2643 H   0  0  0  0  0  0
  -24.6335  -15.8611   20.5490 H   0  0  0  0  0  0
  -26.2552  -15.6565   20.1273 H   0  0  0  0  0  0
  -26.7417  -32.5023   23.0833 H   0  0  0  0  0  0
  -25.0040  -33.9405   25.0106 H   0  0  0  0  0  0
  -22.8118  -31.2546   21.3362 H   0  0  0  0  0  0
  -23.3807  -35.9477   23.3237 H   0  0  0  0  0  0
  -24.3598  -36.8904   22.2080 H   0  0  0  0  0  0
  -23.7229  -37.6329   23.6766 H   0  0  0  0  0  0
  -26.2674  -31.3149   20.6306 H   0  0  0  0  0  0
  -26.9219  -30.6328   22.0722 H   0  0  0  0  0  0
  -28.1465  -28.4809   21.3046 H   0  0  0  0  0  0
  -25.8587  -25.6938   18.9630 H   0  0  0  0  0  0
  -24.0188  -27.2610   18.9114 H   0  0  0  0  0  0
  -23.9005  -30.4934   19.3848 H   0  0  0  0  0  0
  -22.8440  -29.1870   19.8219 H   0  0  0  0  0  0
  -25.1361  -36.1715   25.0787 H   0  0  0  0  0  0
  -21.0044  -28.3330   24.1316 H   0  0  0  0  0  0
  -20.5693  -26.2346   23.3640 H   0  0  0  0  0  0
  -21.6667  -26.7384   22.1202 H   0  0  0  0  0  0
  -19.6939  -25.6254   21.1276 H   0  0  0  0  0  0
  -19.6719  -27.3151   20.6743 H   0  0  0  0  0  0
  -17.4229  -26.6680   21.4009 H   0  0  0  0  0  0
  -18.0330  -26.0068   22.9012 H   0  0  0  0  0  0
  -19.7968  -30.7272   24.2262 H   0  0  0  0  0  0
  -17.5031  -31.6279   24.5110 H   0  0  0  0  0  0
  -15.5370  -30.2949   23.7678 H   0  0  0  0  0  0
  -15.8707  -28.0744   22.7191 H   0  0  0  0  0  0
  -24.5837  -30.7163   25.7587 H   0  0  0  0  0  0
  -24.8850  -32.2981   26.4674 H   0  0  0  0  0  0
  -25.7840  -30.8949   27.0165 H   0  0  0  0  0  0
  -26.3138  -29.6537   24.1498 H   0  0  0  0  0  0
  -27.3963  -29.7281   25.5182 H   0  0  0  0  0  0
  -27.9109  -30.4054   23.9955 H   0  0  0  0  0  0
  -27.2676  -33.3705   26.1939 H   0  0  0  0  0  0
  -28.3951  -32.6792   25.0345 H   0  0  0  0  0  0
  -28.0677  -31.8529   26.5490 H   0  0  0  0  0  0
  -28.2542  -38.0100   24.7575 H   0  0  0  0  0  0
  -28.1143  -36.2627   24.6194 H   0  0  0  0  0  0
  -27.2297  -37.1279   25.8847 H   0  0  0  0  0  0
  -20.9672  -29.8666   21.6611 H   0  0  0  0  0  0
  -26.0118  -38.2732   24.1442 H   0  0  0  0  0  0
  -30.2182  -17.2347   22.7183 H   0  0  0  0  0  0
  -30.1524  -20.4849   24.8993 H   0  0  0  0  0  0
  -30.3140  -18.7221   24.3832 H   0  0  0  0  0  0
  -29.5133  -21.1407   22.6846 H   0  0  0  0  0  0
  -29.4385  -22.9821   21.1787 H   0  0  0  0  0  0
  -27.3533  -24.0314   19.1643 H   0  0  0  0  0  0
  1 25  1  0  0  0
  1 30  2  0  0  0
  1 73  1  0  0  0
  2  3  1  0  0  0
  2 25  1  0  0  0
  2 82  1  0  0  0
  2 83  1  0  0  0
  3  4  1  0  0  0
  3 84  1  0  0  0
  3 85  1  0  0  0
  4  5  1  0  0  0
  4 86  1  0  0  0
  4 87  1  0  0  0
  5  6  1  0  0  0
  5 26  1  0  0  0
  5 88  1  0  0  0
  6 25  1  0  0  0
  6 89  1  0  0  0
  6 90  1  0  0  0
  7  8  2  0  0  0
  7 26  1  0  0  0
  7 29  1  0  0  0
  8  9  1  0  0  0
  8 22  1  0  0  0
  9 10  1  0  0  0
  9 27  2  0  0  0
 10 11  2  0  0  0
 10 15  1  0  0  0
 11 12  1  0  0  0
 11 91  1  0  0  0
 12 13  2  0  0  0
 12 92  1  0  0  0
 13 14  1  0  0  0
 13 31  1  0  0  0
 14 15  2  0  0  0
 14 93  1  0  0  0
 15 94  1  0  0  0
 16 17  2  0  0  0
 16 21  1  0  0  0
 16 31  1  0  0  0
 17 18  1  0  0  0
 17 95  1  0  0  0
 18 19  2  0  0  0
 18 96  1  0  0  0
 19 20  1  0  0  0
 19 24  1  0  0  0
 20 21  2  0  0  0
 20 97  1  0  0  0
 21 23  1  0  0  0
 22 28  1  0  0  0
 22 32  2  0  0  0
 26 27  1  0  0  0
 28 98  1  0  0  0
 28 99  1  0  0  0
 29100  1  0  0  0
 29101  1  0  0  0
 33 34  1  0  0  0
 33 66  1  0  0  0
 33 70  2  0  0  0
 34 36  1  0  0  0
 34 59  1  0  0  0
 34102  1  0  0  0
 35 44  2  0  0  0
 35 45  1  0  0  0
 35 68  1  0  0  0
 36 56  1  0  0  0
 36103  1  0  0  0
 37 39  1  0  0  0
 37 47  1  0  0  0
 37 66  1  0  0  0
 37104  1  0  0  0
 38 43  2  0  0  0
 38 46  1  0  0  0
 38 47  1  0  0  0
 39 64  1  0  0  0
 39 67  2  0  0  0
 40 52  1  0  0  0
 40 53  2  0  0  0
 40 58  1  0  0  0
 41105  1  0  0  0
 41106  1  0  0  0
 41107  1  0  0  0
 41 48  1  0  0  0
 42 43  1  0  0  0
 42 66  1  0  0  0
 42108  1  0  0  0
 42109  1  0  0  0
 43 44  1  0  0  0
 44110  1  0  0  0
 45 46  2  0  0  0
 45111  1  0  0  0
 46112  1  0  0  0
 47113  1  0  0  0
 47114  1  0  0  0
 48 56  1  0  0  0
 48 65  1  0  0  0
 48115  1  0  0  0
 49 50  1  0  0  0
 49 53  1  0  0  0
 49 64  1  0  0  0
 49116  1  0  0  0
 50 51  1  0  0  0
 50117  1  0  0  0
 50118  1  0  0  0
 51 52  1  0  0  0
 51119  1  0  0  0
 51120  1  0  0  0
 52121  1  0  0  0
 52122  1  0  0  0
 53 54  1  0  0  0
 54 55  2  0  0  0
 54123  1  0  0  0
 55 57  1  0  0  0
 55124  1  0  0  0
 56 69  2  0  0  0
 57 58  2  0  0  0
 57125  1  0  0  0
 58126  1  0  0  0
 59 60  1  0  0  0
 59 61  1  0  0  0
 59 62  1  0  0  0
 60127  1  0  0  0
 60128  1  0  0  0
 60129  1  0  0  0
 61130  1  0  0  0
 61131  1  0  0  0
 61132  1  0  0  0
 62133  1  0  0  0
 62134  1  0  0  0
 62135  1  0  0  0
 63 65  1  0  0  0
 63136  1  0  0  0
 63137  1  0  0  0
 63138  1  0  0  0
 64139  1  0  0  0
 65140  1  0  0  0
 68 78  1  0  0  0
 71 72  1  0  0  0
 71 73  2  0  0  0
 71141  1  0  0  0
 72 74  2  0  0  0
 72 76  1  0  0  0
 73 81  1  0  0  0
 74 79  1  0  0  0
 74 81  1  0  0  0
 75 76  2  0  0  0
 75142  1  0  0  0
 75143  1  0  0  0
 76144  1  0  0  0
 77 78  2  0  0  0
 77 79  1  0  0  0
 77145  1  0  0  0
 78146  1  0  0  0
 79 80  2  0  0  0
M  ISO  4   1 100  68 101  73 100  78 101
M  END
> <chiral flag>
0

> <version>
0

> <s_m_source_file>
/data/baiqing/PycharmProjects/Reinvent-master-3.2/result/LINK_invent/BTK/process_docking_weight1_custom_product_contain_oxygen_bond_distance_aromatic_linkinvent_7_9_3/rearranged_h_0118.sdf

> <i_m_source_file_index>
84

> <r_mmod_Potential_Energy-OPLS-2005>
1729.07800292969

> <r_mmod_Stretch_Energy-OPLS-2005>
737.889465332031

> <r_mmod_Bend_Energy-OPLS-2005>
493.020935058594

> <r_mmod_Torsional_Energy-OPLS-2005>
216.548797607422

> <r_mmod_Improper_Torsional_Energy-OPLS-2005>
4.63957834243774

> <r_mmod_Van_der_Waal_Energy-OPLS-2005>
110.65259552002

> <r_mmod_Electrostatic_Energy-OPLS-2005>
-236.328720092773

> <r_mmod_Solvation_Energy-OPLS-2005>
-210.187805175781

> <b_mmod_Minimization_Converged-OPLS-2005>
0

> <r_mmod_RMS_Derivative-OPLS-2005>
2.56138062477112

$$$$
85
                    3D
 Structure written by MMmdl.
158166  0  0  1  0            999 V2000
  -30.6978  -14.6184   20.5063 C   0  0  0  0  0  0
  -30.4424  -12.3854   19.4814 C   0  0  0  0  0  0
  -29.5250  -12.4998   18.2467 C   0  0  0  0  0  0
  -28.0514  -12.3325   18.6590 C   0  0  0  0  0  0
  -27.6616  -13.2263   19.8654 C   0  0  2  0  0  0
  -28.7017  -13.1324   21.0078 C   0  0  0  0  0  0
  -25.2585  -13.8179   20.5683 C   0  0  0  0  0  0
  -24.1846  -13.0453   20.9164 C   0  0  0  0  0  0
  -24.6412  -11.6916   20.8692 C   0  0  0  0  0  0
  -23.9055  -10.4299   21.0361 C   0  0  0  0  0  0
  -24.3605   -9.4218   21.9169 C   0  0  0  0  0  0
  -23.6287   -8.2255   22.0730 C   0  0  0  0  0  0
  -22.4278   -8.0261   21.3530 C   0  0  0  0  0  0
  -21.9903   -9.0244   20.4649 C   0  0  0  0  0  0
  -22.7224  -10.2128   20.3049 C   0  0  0  0  0  0
  -21.6859   -6.0725   22.5277 C   0  0  0  0  0  0
  -21.4008   -6.5631   23.8205 C   0  0  0  0  0  0
  -21.3669   -5.6778   24.9170 C   0  0  0  0  0  0
  -21.6050   -4.3052   24.7226 C   0  0  0  0  0  0
  -21.8821   -3.8133   23.4346 C   0  0  0  0  0  0
  -21.9195   -4.6949   22.3397 C   0  0  0  0  0  0
  -22.7869  -13.5235   21.1854 C   0  0  0  0  0  0
  -22.1657   -4.2130   21.0982 F   0  0  0  0  0  0
  -21.5654   -3.4543   25.7751 F   0  0  0  0  0  0
  -30.0329  -13.4234   20.4496 N   0  0  0  0  0  0
  -26.3041  -12.9385   20.3301 N   0  0  0  0  0  0
  -25.9346  -11.6529   20.5715 N   0  0  0  0  0  0
  -22.0479  -12.8235   22.0403 N   0  0  0  0  0  0
  -25.4359  -15.1911   20.4191 N   0  0  0  0  0  0
  -31.8498  -14.7336   20.0779 O   0  0  0  0  0  0
  -21.6635   -6.8866   21.4240 O   0  0  0  0  0  0
  -22.3560  -14.5566   20.6744 O   0  0  0  0  0  0
  -24.6106  -31.8667   23.2087 C   0  0  0  0  0  0
  -25.8987  -32.4839   23.8405 C   0  0  1  0  0  0
  -27.2434  -27.4209   20.1165 C   0  0  0  0  0  0
  -25.5847  -33.8626   24.2341 N   0  0  0  0  0  0
  -23.4028  -30.4838   21.5472 C   0  0  2  0  0  0
  -24.8555  -28.9504   20.1003 C   0  0  0  0  0  0
  -22.7415  -29.4606   22.4987 C   0  0  0  0  0  0
  -18.0271  -28.1373   22.8501 C   0  0  0  0  0  0
  -24.1475  -36.7335   23.2634 C   0  0  0  0  0  0
  -25.9271  -30.8302   21.3593 C   0  0  0  0  0  0
  -26.0067  -29.4609   20.7121 C   0  0  0  0  0  0
  -27.1936  -28.6962   20.7277 C   0  0  0  0  0  0
  -26.0810  -26.9299   19.4801 C   0  0  0  0  0  0
  -24.8894  -27.6886   19.4773 C   0  0  0  0  0  0
  -23.6107  -29.8100   20.1605 C   0  0  0  0  0  0
  -25.4083  -36.3131   24.0354 C   0  0  1  0  0  0
  -20.5861  -28.3637   23.1340 C   0  0  2  0  0  0
  -20.6744  -26.9372   22.5430 C   0  0  0  0  0  0
  -19.5724  -26.6376   21.5215 C   0  0  0  0  0  0
  -18.1906  -26.7924   22.1632 C   0  0  0  0  0  0
  -19.1520  -28.8823   23.2919 C   0  0  0  0  0  0
  -18.9442  -30.1434   23.8922 C   0  0  0  0  0  0
  -17.6438  -30.6580   24.0555 C   0  0  0  0  0  0
  -25.9005  -34.9486   23.5153 C   0  0  0  0  0  0
  -16.5328  -29.9077   23.6318 C   0  0  0  0  0  0
  -16.7254  -28.6487   23.0351 C   0  0  0  0  0  0
  -26.4425  -31.6628   25.0734 C   0  0  0  0  0  0
  -25.3738  -31.3785   26.1551 C   0  0  0  0  0  0
  -27.0164  -30.3046   24.6082 C   0  0  0  0  0  0
  -27.6069  -32.4307   25.7436 C   0  0  0  0  0  0
  -27.5594  -37.1789   24.8447 C   0  0  0  0  0  0
  -21.4134  -29.3010   22.3754 N   0  0  0  0  0  0
  -26.4290  -37.3804   23.9435 N   0  0  0  0  0  0
  -24.6658  -31.0751   22.0972 N   0  0  0  0  0  0
  -23.4194  -28.8157   23.3021 O   0  0  0  0  0  0
  -28.4015  -26.6785   20.2514 O   0  0  0  0  0  0
  -26.5575  -34.8929   22.4721 O   0  0  0  0  0  0
  -23.5302  -32.1409   23.7460 O   0  0  0  0  0  0
  -29.2991  -19.1806   18.4468 C   0  0  0  0  0  0
  -29.9553  -18.2753   20.6095 C   0  0  0  0  0  0
  -29.4517  -16.7638   18.7604 C   0  0  0  0  0  0
  -29.6937  -19.4286   19.7872 C   0  0  0  0  0  0
  -29.2061  -17.8700   17.9297 C   0  0  0  0  0  0
  -29.8394  -16.9303   20.1069 C   0  0  0  0  0  0
  -29.8475  -20.8622   20.2626 C   0  0  0  0  0  0
  -29.2272  -21.9656   19.7411 C   0  0  0  0  0  0
  -28.6696  -24.3146   19.3473 C   0  0  0  0  0  0
  -29.4527  -23.4135   20.0045 C   0  0  0  0  0  0
  -28.8668  -17.6254   16.4685 C   0  0  0  0  0  0
  -30.5654  -23.9393   20.9111 C   0  0  0  0  0  0
  -28.8737  -25.8377   19.1957 C   0  0  0  0  0  0
  -30.0055  -15.7256   20.9038 N   0  0  0  0  0  0
  -31.4883  -12.4837   19.1827 H   0  0  0  0  0  0
  -30.3600  -11.4003   19.9405 H   0  0  0  0  0  0
  -29.7985  -11.7484   17.5048 H   0  0  0  0  0  0
  -29.6677  -13.4689   17.7660 H   0  0  0  0  0  0
  -27.9060  -11.2824   18.9192 H   0  0  0  0  0  0
  -27.3957  -12.5304   17.8117 H   0  0  0  0  0  0
  -27.6721  -14.2514   19.4927 H   0  0  0  0  0  0
  -28.6961  -12.1422   21.4620 H   0  0  0  0  0  0
  -28.4437  -13.8319   21.8040 H   0  0  0  0  0  0
  -25.2727   -9.5748   22.4736 H   0  0  0  0  0  0
  -24.0028   -7.4654   22.7445 H   0  0  0  0  0  0
  -21.0826   -8.8758   19.8981 H   0  0  0  0  0  0
  -22.3631  -10.9660   19.6177 H   0  0  0  0  0  0
  -21.1975   -7.6134   23.9705 H   0  0  0  0  0  0
  -21.1502   -6.0505   25.9072 H   0  0  0  0  0  0
  -22.0590   -2.7595   23.2839 H   0  0  0  0  0  0
  -22.4059  -11.9899   22.4833 H   0  0  0  0  0  0
  -21.1111  -13.1310   22.2597 H   0  0  0  0  0  0
  -24.6856  -15.8552   20.5664 H   0  0  0  0  0  0
  -26.3080  -15.6309   20.1535 H   0  0  0  0  0  0
  -26.7063  -32.5561   23.1177 H   0  0  0  0  0  0
  -25.0001  -33.9802   25.0498 H   0  0  0  0  0  0
  -22.6902  -31.2989   21.4080 H   0  0  0  0  0  0
  -23.3755  -35.9647   23.3243 H   0  0  0  0  0  0
  -24.3592  -36.8997   22.2059 H   0  0  0  0  0  0
  -23.7190  -37.6515   23.6670 H   0  0  0  0  0  0
  -26.0276  -31.5908   20.5835 H   0  0  0  0  0  0
  -26.8184  -30.8972   21.9706 H   0  0  0  0  0  0
  -28.0754  -29.0719   21.2266 H   0  0  0  0  0  0
  -26.0776  -25.9486   19.0264 H   0  0  0  0  0  0
  -24.0014  -27.2959   18.9986 H   0  0  0  0  0  0
  -23.7005  -30.5812   19.3950 H   0  0  0  0  0  0
  -22.7379  -29.2174   19.8792 H   0  0  0  0  0  0
  -25.1241  -36.2005   25.0847 H   0  0  0  0  0  0
  -20.9949  -28.3185   24.1457 H   0  0  0  0  0  0
  -20.5619  -26.2232   23.3603 H   0  0  0  0  0  0
  -21.6616  -26.7393   22.1233 H   0  0  0  0  0  0
  -19.6865  -25.6287   21.1237 H   0  0  0  0  0  0
  -19.6669  -27.3193   20.6750 H   0  0  0  0  0  0
  -17.4166  -26.6672   21.4040 H   0  0  0  0  0  0
  -18.0305  -26.0073   22.9037 H   0  0  0  0  0  0
  -19.7904  -30.7243   24.2319 H   0  0  0  0  0  0
  -17.4982  -31.6258   24.5148 H   0  0  0  0  0  0
  -15.5328  -30.2968   23.7626 H   0  0  0  0  0  0
  -15.8661  -28.0798   22.7056 H   0  0  0  0  0  0
  -24.5744  -30.7322   25.7909 H   0  0  0  0  0  0
  -24.9138  -32.2981   26.5181 H   0  0  0  0  0  0
  -25.8096  -30.8776   27.0209 H   0  0  0  0  0  0
  -26.2632  -29.6880   24.1153 H   0  0  0  0  0  0
  -27.3916  -29.7222   25.4510 H   0  0  0  0  0  0
  -27.8513  -30.4316   23.9181 H   0  0  0  0  0  0
  -27.2760  -33.3624   26.2026 H   0  0  0  0  0  0
  -28.3839  -32.6829   25.0212 H   0  0  0  0  0  0
  -28.0777  -31.8422   26.5320 H   0  0  0  0  0  0
  -28.2585  -38.0116   24.7548 H   0  0  0  0  0  0
  -28.1119  -36.2651   24.6180 H   0  0  0  0  0  0
  -27.2344  -37.1341   25.8859 H   0  0  0  0  0  0
  -20.9290  -29.8740   21.6991 H   0  0  0  0  0  0
  -26.0188  -38.2891   24.1465 H   0  0  0  0  0  0
  -29.1192  -20.0027   17.7685 H   0  0  0  0  0  0
  -30.2687  -18.4380   21.6300 H   0  0  0  0  0  0
  -29.3348  -15.7731   18.3439 H   0  0  0  0  0  0
  -30.5716  -21.0119   21.0515 H   0  0  0  0  0  0
  -28.4856  -21.7627   18.9821 H   0  0  0  0  0  0
  -27.8307  -23.9455   18.7748 H   0  0  0  0  0  0
  -29.1551  -18.4693   15.8416 H   0  0  0  0  0  0
  -27.8005  -17.4512   16.3298 H   0  0  0  0  0  0
  -29.3945  -16.7485   16.0882 H   0  0  0  0  0  0
  -30.9976  -23.1841   21.5664 H   0  0  0  0  0  0
  -30.1841  -24.7371   21.5559 H   0  0  0  0  0  0
  -31.3706  -24.3733   20.3146 H   0  0  0  0  0  0
  -28.4910  -26.1668   18.2292 H   0  0  0  0  0  0
  -29.9475  -26.0208   19.1415 H   0  0  0  0  0  0
  -29.2195  -15.5213   21.5029 H   0  0  0  0  0  0
  1 25  1  0  0  0
  1 30  2  0  0  0
  1 84  1  0  0  0
  2  3  1  0  0  0
  2 25  1  0  0  0
  2 85  1  0  0  0
  2 86  1  0  0  0
  3  4  1  0  0  0
  3 87  1  0  0  0
  3 88  1  0  0  0
  4  5  1  0  0  0
  4 89  1  0  0  0
  4 90  1  0  0  0
  5  6  1  0  0  0
  5 26  1  0  0  0
  5 91  1  0  0  0
  6 25  1  0  0  0
  6 92  1  0  0  0
  6 93  1  0  0  0
  7  8  2  0  0  0
  7 26  1  0  0  0
  7 29  1  0  0  0
  8  9  1  0  0  0
  8 22  1  0  0  0
  9 10  1  0  0  0
  9 27  2  0  0  0
 10 11  2  0  0  0
 10 15  1  0  0  0
 11 12  1  0  0  0
 11 94  1  0  0  0
 12 13  2  0  0  0
 12 95  1  0  0  0
 13 14  1  0  0  0
 13 31  1  0  0  0
 14 15  2  0  0  0
 14 96  1  0  0  0
 15 97  1  0  0  0
 16 17  2  0  0  0
 16 21  1  0  0  0
 16 31  1  0  0  0
 17 18  1  0  0  0
 17 98  1  0  0  0
 18 19  2  0  0  0
 18 99  1  0  0  0
 19 20  1  0  0  0
 19 24  1  0  0  0
 20 21  2  0  0  0
 20100  1  0  0  0
 21 23  1  0  0  0
 22 28  1  0  0  0
 22 32  2  0  0  0
 26 27  1  0  0  0
 28101  1  0  0  0
 28102  1  0  0  0
 29103  1  0  0  0
 29104  1  0  0  0
 33 34  1  0  0  0
 33 66  1  0  0  0
 33 70  2  0  0  0
 34 36  1  0  0  0
 34 59  1  0  0  0
 34105  1  0  0  0
 35 44  2  0  0  0
 35 45  1  0  0  0
 35 68  1  0  0  0
 36 56  1  0  0  0
 36106  1  0  0  0
 37 39  1  0  0  0
 37 47  1  0  0  0
 37 66  1  0  0  0
 37107  1  0  0  0
 38 43  2  0  0  0
 38 46  1  0  0  0
 38 47  1  0  0  0
 39 64  1  0  0  0
 39 67  2  0  0  0
 40 52  1  0  0  0
 40 53  2  0  0  0
 40 58  1  0  0  0
 41108  1  0  0  0
 41109  1  0  0  0
 41110  1  0  0  0
 41 48  1  0  0  0
 42 43  1  0  0  0
 42 66  1  0  0  0
 42111  1  0  0  0
 42112  1  0  0  0
 43 44  1  0  0  0
 44113  1  0  0  0
 45 46  2  0  0  0
 45114  1  0  0  0
 46115  1  0  0  0
 47116  1  0  0  0
 47117  1  0  0  0
 48 56  1  0  0  0
 48 65  1  0  0  0
 48118  1  0  0  0
 49 50  1  0  0  0
 49 53  1  0  0  0
 49 64  1  0  0  0
 49119  1  0  0  0
 50 51  1  0  0  0
 50120  1  0  0  0
 50121  1  0  0  0
 51 52  1  0  0  0
 51122  1  0  0  0
 51123  1  0  0  0
 52124  1  0  0  0
 52125  1  0  0  0
 53 54  1  0  0  0
 54 55  2  0  0  0
 54126  1  0  0  0
 55 57  1  0  0  0
 55127  1  0  0  0
 56 69  2  0  0  0
 57 58  2  0  0  0
 57128  1  0  0  0
 58129  1  0  0  0
 59 60  1  0  0  0
 59 61  1  0  0  0
 59 62  1  0  0  0
 60130  1  0  0  0
 60131  1  0  0  0
 60132  1  0  0  0
 61133  1  0  0  0
 61134  1  0  0  0
 61135  1  0  0  0
 62136  1  0  0  0
 62137  1  0  0  0
 62138  1  0  0  0
 63 65  1  0  0  0
 63139  1  0  0  0
 63140  1  0  0  0
 63141  1  0  0  0
 64142  1  0  0  0
 65143  1  0  0  0
 68 83  1  0  0  0
 71 74  2  0  0  0
 71 75  1  0  0  0
 71144  1  0  0  0
 72 74  1  0  0  0
 72 76  2  0  0  0
 72145  1  0  0  0
 73 75  2  0  0  0
 73 76  1  0  0  0
 73146  1  0  0  0
 74 77  1  0  0  0
 75 81  1  0  0  0
 76 84  1  0  0  0
 77 78  2  0  0  0
 77147  1  0  0  0
 78 80  1  0  0  0
 78148  1  0  0  0
 79 80  2  0  0  0
 79 83  1  0  0  0
 79149  1  0  0  0
 80 82  1  0  0  0
 81150  1  0  0  0
 81151  1  0  0  0
 81152  1  0  0  0
 82153  1  0  0  0
 82154  1  0  0  0
 82155  1  0  0  0
 83156  1  0  0  0
 83157  1  0  0  0
 84158  1  0  0  0
M  ISO  4   1 100  68 101  83 101  84 100
M  END
> <chiral flag>
0

> <version>
0

> <s_m_source_file>
/data/baiqing/PycharmProjects/Reinvent-master-3.2/result/LINK_invent/BTK/process_docking_weight1_custom_product_contain_oxygen_bond_distance_aromatic_linkinvent_7_9_3/rearranged_h_0118.sdf

> <i_m_source_file_index>
85

> <r_mmod_Potential_Energy-OPLS-2005>
82.3458404541016

> <r_mmod_Stretch_Energy-OPLS-2005>
58.9447593688965

> <r_mmod_Bend_Energy-OPLS-2005>
127.533851623535

> <r_mmod_Torsional_Energy-OPLS-2005>
268.899810791016

> <r_mmod_Improper_Torsional_Energy-OPLS-2005>
8.40401458740234

> <r_mmod_Van_der_Waal_Energy-OPLS-2005>
139.482086181641

> <r_mmod_Electrostatic_Energy-OPLS-2005>
-353.635803222656

> <r_mmod_Solvation_Energy-OPLS-2005>
-203.949340820312

> <b_mmod_Minimization_Converged-OPLS-2005>
0

> <r_mmod_RMS_Derivative-OPLS-2005>
5.36596202850342

$$$$
86
                    3D
 Structure written by MMmdl.
169178  0  0  1  0            999 V2000
  -30.7656  -14.5010   20.6757 C   0  0  0  0  0  0
  -30.4138  -12.3722   19.4355 C   0  0  0  0  0  0
  -29.4858  -12.5418   18.2179 C   0  0  0  0  0  0
  -28.0097  -12.3950   18.6274 C   0  0  0  0  0  0
  -27.6661  -13.2266   19.8929 C   0  0  2  0  0  0
  -28.7057  -13.0346   21.0192 C   0  0  0  0  0  0
  -25.2611  -13.8213   20.5763 C   0  0  0  0  0  0
  -24.1892  -13.0456   20.9178 C   0  0  0  0  0  0
  -24.6440  -11.6938   20.8734 C   0  0  0  0  0  0
  -23.9077  -10.4310   21.0407 C   0  0  0  0  0  0
  -24.3605   -9.4225   21.9165 C   0  0  0  0  0  0
  -23.6286   -8.2253   22.0759 C   0  0  0  0  0  0
  -22.4264   -8.0301   21.3562 C   0  0  0  0  0  0
  -21.9906   -9.0248   20.4636 C   0  0  0  0  0  0
  -22.7244  -10.2144   20.3029 C   0  0  0  0  0  0
  -21.6863   -6.0771   22.5262 C   0  0  0  0  0  0
  -21.4018   -6.5635   23.8221 C   0  0  0  0  0  0
  -21.3649   -5.6793   24.9152 C   0  0  0  0  0  0
  -21.6039   -4.3049   24.7227 C   0  0  0  0  0  0
  -21.8809   -3.8167   23.4312 C   0  0  0  0  0  0
  -21.9179   -4.6985   22.3391 C   0  0  0  0  0  0
  -22.7896  -13.5254   21.1865 C   0  0  0  0  0  0
  -22.1675   -4.2188   21.0967 F   0  0  0  0  0  0
  -21.5605   -3.4503   25.7717 F   0  0  0  0  0  0
  -30.0312  -13.3578   20.4799 N   0  0  0  0  0  0
  -26.3090  -12.9442   20.3456 N   0  0  0  0  0  0
  -25.9398  -11.6576   20.5818 N   0  0  0  0  0  0
  -22.0533  -12.8206   22.0375 N   0  0  0  0  0  0
  -25.4302  -15.1961   20.4253 N   0  0  0  0  0  0
  -31.7613  -14.7381   19.9789 O   0  0  0  0  0  0
  -21.6633   -6.8894   21.4267 O   0  0  0  0  0  0
  -22.3553  -14.5521   20.6692 O   0  0  0  0  0  0
  -24.6161  -31.8658   23.2010 C   0  0  0  0  0  0
  -25.9038  -32.4816   23.8378 C   0  0  1  0  0  0
  -27.2006  -27.3450   20.1242 C   0  0  0  0  0  0
  -25.5856  -33.8612   24.2295 N   0  0  0  0  0  0
  -23.4137  -30.4902   21.5441 C   0  0  2  0  0  0
  -24.8646  -28.9705   20.0997 C   0  0  0  0  0  0
  -22.7455  -29.4556   22.4826 C   0  0  0  0  0  0
  -18.0316  -28.1231   22.8433 C   0  0  0  0  0  0
  -24.1509  -36.7320   23.2648 C   0  0  0  0  0  0
  -25.9527  -30.8108   21.3745 C   0  0  0  0  0  0
  -26.0295  -29.4452   20.7081 C   0  0  0  0  0  0
  -27.2125  -28.6448   20.7083 C   0  0  0  0  0  0
  -26.0354  -26.9558   19.4336 C   0  0  0  0  0  0
  -24.8675  -27.7326   19.4479 C   0  0  0  0  0  0
  -23.6315  -29.8394   20.1559 C   0  0  0  0  0  0
  -25.4134  -36.3103   24.0324 C   0  0  1  0  0  0
  -20.5922  -28.3571   23.1213 C   0  0  2  0  0  0
  -20.6746  -26.9270   22.5373 C   0  0  0  0  0  0
  -19.5734  -26.6220   21.5137 C   0  0  0  0  0  0
  -18.1922  -26.7783   22.1558 C   0  0  0  0  0  0
  -19.1568  -28.8698   23.2843 C   0  0  0  0  0  0
  -18.9520  -30.1296   23.8884 C   0  0  0  0  0  0
  -17.6541  -30.6469   24.0490 C   0  0  0  0  0  0
  -25.9037  -34.9477   23.5108 C   0  0  0  0  0  0
  -16.5436  -29.8947   23.6283 C   0  0  0  0  0  0
  -16.7304  -28.6352   23.0308 C   0  0  0  0  0  0
  -26.4448  -31.6577   25.0729 C   0  0  0  0  0  0
  -25.3652  -31.3758   26.1422 C   0  0  0  0  0  0
  -27.0354  -30.3047   24.6097 C   0  0  0  0  0  0
  -27.5982  -32.4346   25.7535 C   0  0  0  0  0  0
  -27.5605  -37.1805   24.8448 C   0  0  0  0  0  0
  -21.4157  -29.3011   22.3642 N   0  0  0  0  0  0
  -26.4321  -37.3752   23.9392 N   0  0  0  0  0  0
  -24.6803  -31.0680   22.0997 N   0  0  0  0  0  0
  -23.4239  -28.8032   23.2813 O   0  0  0  0  0  0
  -28.2549  -26.4330   20.2285 O   0  0  0  0  0  0
  -26.5636  -34.8907   22.4682 O   0  0  0  0  0  0
  -23.5302  -32.1465   23.7282 O   0  0  0  0  0  0
  -29.5011  -17.6330   21.0615 C   0  0  0  0  0  0
  -27.6160  -18.7088   22.1474 C   0  0  0  0  0  0
  -28.4489  -16.5500   22.9868 C   0  0  0  0  0  0
  -29.4537  -16.5074   21.9571 C   0  0  0  0  0  0
  -27.4948  -17.6057   23.0212 C   0  0  0  0  0  0
  -28.6320  -18.7648   21.1785 C   0  0  0  0  0  0
  -27.5968  -14.4957   24.1210 C   0  0  0  0  0  0
  -28.4106  -15.5531   24.0934 C   0  0  0  0  0  0
  -30.5421  -15.4274   21.9093 C   0  0  0  0  0  0
  -27.7338  -13.6549   25.3633 C   0  0  0  0  0  0
  -29.1497  -15.6718   25.4192 C   0  0  0  0  0  0
  -28.8298  -14.3651   26.1859 C   0  0  0  0  0  0
  -26.2933  -17.5727   23.9647 C   0  0  0  0  0  0
  -28.8719  -23.8618   20.5448 C   0  0  0  0  0  0
  -28.2692  -22.4110   20.2403 C   0  0  0  0  0  0
  -27.8423  -25.0581   20.6154 C   0  0  0  0  0  0
  -29.0562  -21.1728   20.8433 C   0  0  0  0  0  0
  -31.4176  -15.3728   22.8309 N   0  0  0  0  0  0
  -28.7009  -19.8616   20.3096 O   0  0  0  0  0  0
  -31.4589  -12.4666   19.1246 H   0  0  0  0  0  0
  -30.3316  -11.3586   19.8335 H   0  0  0  0  0  0
  -29.7253  -11.8056   17.4486 H   0  0  0  0  0  0
  -29.6566  -13.5228   17.7726 H   0  0  0  0  0  0
  -27.8138  -11.3386   18.8105 H   0  0  0  0  0  0
  -27.3583  -12.6794   17.8018 H   0  0  0  0  0  0
  -27.6993  -14.2775   19.6061 H   0  0  0  0  0  0
  -28.6931  -12.0102   21.4004 H   0  0  0  0  0  0
  -28.4564  -13.6663   21.8636 H   0  0  0  0  0  0
  -25.2772   -9.5695   22.4701 H   0  0  0  0  0  0
  -24.0005   -7.4660   22.7459 H   0  0  0  0  0  0
  -21.0845   -8.8734   19.8930 H   0  0  0  0  0  0
  -22.3696  -10.9648   19.6085 H   0  0  0  0  0  0
  -21.2031   -7.6146   23.9734 H   0  0  0  0  0  0
  -21.1477   -6.0507   25.9068 H   0  0  0  0  0  0
  -22.0589   -2.7620   23.2807 H   0  0  0  0  0  0
  -22.4152  -11.9857   22.4753 H   0  0  0  0  0  0
  -21.1111  -13.1188   22.2511 H   0  0  0  0  0  0
  -24.6618  -15.8470   20.5583 H   0  0  0  0  0  0
  -26.2926  -15.6501   20.1478 H   0  0  0  0  0  0
  -26.7111  -32.5555   23.1164 H   0  0  0  0  0  0
  -24.9991  -33.9857   25.0408 H   0  0  0  0  0  0
  -22.7009  -31.3041   21.3956 H   0  0  0  0  0  0
  -23.3777  -35.9654   23.3307 H   0  0  0  0  0  0
  -24.3575  -36.8964   22.2046 H   0  0  0  0  0  0
  -23.7279  -37.6539   23.6696 H   0  0  0  0  0  0
  -26.0765  -31.5861   20.6147 H   0  0  0  0  0  0
  -26.8295  -30.8595   22.0087 H   0  0  0  0  0  0
  -28.1022  -28.9990   21.2045 H   0  0  0  0  0  0
  -25.9978  -26.0360   18.8758 H   0  0  0  0  0  0
  -23.9808  -27.3686   18.9465 H   0  0  0  0  0  0
  -23.7503  -30.6308   19.4143 H   0  0  0  0  0  0
  -22.7557  -29.2660   19.8455 H   0  0  0  0  0  0
  -25.1274  -36.1996   25.0830 H   0  0  0  0  0  0
  -21.0034  -28.3135   24.1329 H   0  0  0  0  0  0
  -20.5477  -26.2181   23.3591 H   0  0  0  0  0  0
  -21.6599  -26.7129   22.1267 H   0  0  0  0  0  0
  -19.6898  -25.6104   21.1185 H   0  0  0  0  0  0
  -19.6676  -27.3020   20.6662 H   0  0  0  0  0  0
  -17.4140  -26.6536   21.4003 H   0  0  0  0  0  0
  -18.0373  -25.9885   22.8934 H   0  0  0  0  0  0
  -19.8013  -30.7041   24.2280 H   0  0  0  0  0  0
  -17.5103  -31.6192   24.5008 H   0  0  0  0  0  0
  -15.5435  -30.2840   23.7531 H   0  0  0  0  0  0
  -15.8693  -28.0641   22.7027 H   0  0  0  0  0  0
  -24.5786  -30.7127   25.7792 H   0  0  0  0  0  0
  -24.8828  -32.2935   26.4831 H   0  0  0  0  0  0
  -25.7881  -30.8966   27.0250 H   0  0  0  0  0  0
  -26.2988  -29.6779   24.1035 H   0  0  0  0  0  0
  -27.4125  -29.7268   25.4556 H   0  0  0  0  0  0
  -27.8787  -30.4477   23.9322 H   0  0  0  0  0  0
  -27.2597  -33.3710   26.2040 H   0  0  0  0  0  0
  -28.3887  -32.6800   25.0413 H   0  0  0  0  0  0
  -28.0544  -31.8473   26.5540 H   0  0  0  0  0  0
  -28.2521  -38.0173   24.7519 H   0  0  0  0  0  0
  -28.1194  -36.2669   24.6270 H   0  0  0  0  0  0
  -27.2299  -37.1489   25.8844 H   0  0  0  0  0  0
  -20.9193  -29.9078   21.7253 H   0  0  0  0  0  0
  -26.0214  -38.2874   24.1353 H   0  0  0  0  0  0
  -30.2647  -17.6608   20.2921 H   0  0  0  0  0  0
  -26.9012  -19.5144   22.2067 H   0  0  0  0  0  0
  -26.8899  -14.2411   23.3409 H   0  0  0  0  0  0
  -28.0290  -12.6388   25.0865 H   0  0  0  0  0  0
  -26.7870  -13.6230   25.9079 H   0  0  0  0  0  0
  -28.7528  -16.5242   25.9785 H   0  0  0  0  0  0
  -30.2245  -15.8180   25.2906 H   0  0  0  0  0  0
  -29.7206  -13.7369   26.2734 H   0  0  0  0  0  0
  -28.4929  -14.5704   27.2063 H   0  0  0  0  0  0
  -25.5756  -18.3570   23.7194 H   0  0  0  0  0  0
  -26.5818  -17.7074   25.0075 H   0  0  0  0  0  0
  -25.7561  -16.6232   23.8770 H   0  0  0  0  0  0
  -29.6228  -24.0809   19.7811 H   0  0  0  0  0  0
  -29.4205  -23.8225   21.4913 H   0  0  0  0  0  0
  -28.1865  -22.2987   19.1515 H   0  0  0  0  0  0
  -27.2365  -22.3477   20.5990 H   0  0  0  0  0  0
  -27.4494  -25.1238   21.6366 H   0  0  0  0  0  0
  -26.9894  -24.7074   20.0375 H   0  0  0  0  0  0
  -28.9586  -21.1847   21.9332 H   0  0  0  0  0  0
  -30.1261  -21.3020   20.6227 H   0  0  0  0  0  0
  -31.2992  -16.0848   23.5416 H   0  0  0  0  0  0
  1 25  1  0  0  0
  1 30  2  0  0  0
  1 79  1  0  0  0
  2  3  1  0  0  0
  2 25  1  0  0  0
  2 90  1  0  0  0
  2 91  1  0  0  0
  3  4  1  0  0  0
  3 92  1  0  0  0
  3 93  1  0  0  0
  4  5  1  0  0  0
  4 94  1  0  0  0
  4 95  1  0  0  0
  5  6  1  0  0  0
  5 26  1  0  0  0
  5 96  1  0  0  0
  6 25  1  0  0  0
  6 97  1  0  0  0
  6 98  1  0  0  0
  7  8  2  0  0  0
  7 26  1  0  0  0
  7 29  1  0  0  0
  8  9  1  0  0  0
  8 22  1  0  0  0
  9 10  1  0  0  0
  9 27  2  0  0  0
 10 11  2  0  0  0
 10 15  1  0  0  0
 11 12  1  0  0  0
 11 99  1  0  0  0
 12 13  2  0  0  0
 12100  1  0  0  0
 13 14  1  0  0  0
 13 31  1  0  0  0
 14 15  2  0  0  0
 14101  1  0  0  0
 15102  1  0  0  0
 16 17  2  0  0  0
 16 21  1  0  0  0
 16 31  1  0  0  0
 17 18  1  0  0  0
 17103  1  0  0  0
 18 19  2  0  0  0
 18104  1  0  0  0
 19 20  1  0  0  0
 19 24  1  0  0  0
 20 21  2  0  0  0
 20105  1  0  0  0
 21 23  1  0  0  0
 22 28  1  0  0  0
 22 32  2  0  0  0
 26 27  1  0  0  0
 28106  1  0  0  0
 28107  1  0  0  0
 29108  1  0  0  0
 29109  1  0  0  0
 33 34  1  0  0  0
 33 66  1  0  0  0
 33 70  2  0  0  0
 34 36  1  0  0  0
 34 59  1  0  0  0
 34110  1  0  0  0
 35 44  2  0  0  0
 35 45  1  0  0  0
 35 68  1  0  0  0
 36 56  1  0  0  0
 36111  1  0  0  0
 37 39  1  0  0  0
 37 47  1  0  0  0
 37 66  1  0  0  0
 37112  1  0  0  0
 38 43  2  0  0  0
 38 46  1  0  0  0
 38 47  1  0  0  0
 39 64  1  0  0  0
 39 67  2  0  0  0
 40 52  1  0  0  0
 40 53  2  0  0  0
 40 58  1  0  0  0
 41113  1  0  0  0
 41114  1  0  0  0
 41115  1  0  0  0
 41 48  1  0  0  0
 42 43  1  0  0  0
 42 66  1  0  0  0
 42116  1  0  0  0
 42117  1  0  0  0
 43 44  1  0  0  0
 44118  1  0  0  0
 45 46  2  0  0  0
 45119  1  0  0  0
 46120  1  0  0  0
 47121  1  0  0  0
 47122  1  0  0  0
 48 56  1  0  0  0
 48 65  1  0  0  0
 48123  1  0  0  0
 49 50  1  0  0  0
 49 53  1  0  0  0
 49 64  1  0  0  0
 49124  1  0  0  0
 50 51  1  0  0  0
 50125  1  0  0  0
 50126  1  0  0  0
 51 52  1  0  0  0
 51127  1  0  0  0
 51128  1  0  0  0
 52129  1  0  0  0
 52130  1  0  0  0
 53 54  1  0  0  0
 54 55  2  0  0  0
 54131  1  0  0  0
 55 57  1  0  0  0
 55132  1  0  0  0
 56 69  2  0  0  0
 57 58  2  0  0  0
 57133  1  0  0  0
 58134  1  0  0  0
 59 60  1  0  0  0
 59 61  1  0  0  0
 59 62  1  0  0  0
 60135  1  0  0  0
 60136  1  0  0  0
 60137  1  0  0  0
 61138  1  0  0  0
 61139  1  0  0  0
 61140  1  0  0  0
 62141  1  0  0  0
 62142  1  0  0  0
 62143  1  0  0  0
 63 65  1  0  0  0
 63144  1  0  0  0
 63145  1  0  0  0
 63146  1  0  0  0
 64147  1  0  0  0
 65148  1  0  0  0
 68 86  1  0  0  0
 71 74  2  0  0  0
 71 76  1  0  0  0
 71149  1  0  0  0
 72 75  1  0  0  0
 72 76  2  0  0  0
 72150  1  0  0  0
 73 74  1  0  0  0
 73 75  2  0  0  0
 73 78  1  0  0  0
 74 79  1  0  0  0
 75 83  1  0  0  0
 76 89  1  0  0  0
 77 78  2  0  0  0
 77 80  1  0  0  0
 77151  1  0  0  0
 78 81  1  0  0  0
 79 88  2  0  0  0
 80 82  1  0  0  0
 80152  1  0  0  0
 80153  1  0  0  0
 81 82  1  0  0  0
 81154  1  0  0  0
 81155  1  0  0  0
 82156  1  0  0  0
 82157  1  0  0  0
 83158  1  0  0  0
 83159  1  0  0  0
 83160  1  0  0  0
 84 85  1  0  0  0
 84 86  1  0  0  0
 84161  1  0  0  0
 84162  1  0  0  0
 85 87  1  0  0  0
 85163  1  0  0  0
 85164  1  0  0  0
 86165  1  0  0  0
 86166  1  0  0  0
 87 89  1  0  0  0
 87167  1  0  0  0
 87168  1  0  0  0
 88169  1  0  0  0
M  ISO  4   1 100  68 101  79 100  86 101
M  END
> <chiral flag>
0

> <version>
0

> <s_m_source_file>
/data/baiqing/PycharmProjects/Reinvent-master-3.2/result/LINK_invent/BTK/process_docking_weight1_custom_product_contain_oxygen_bond_distance_aromatic_linkinvent_7_9_3/rearranged_h_0118.sdf

> <i_m_source_file_index>
86

> <r_mmod_Potential_Energy-OPLS-2005>
351.826141357422

> <r_mmod_Stretch_Energy-OPLS-2005>
87.7839279174805

> <r_mmod_Bend_Energy-OPLS-2005>
185.762557983398

> <r_mmod_Torsional_Energy-OPLS-2005>
333.617553710938

> <r_mmod_Improper_Torsional_Energy-OPLS-2005>
7.44374561309814

> <r_mmod_Van_der_Waal_Energy-OPLS-2005>
129.959899902344

> <r_mmod_Electrostatic_Energy-OPLS-2005>
-236.216979980469

> <r_mmod_Solvation_Energy-OPLS-2005>
-193.926635742188

> <b_mmod_Minimization_Converged-OPLS-2005>
0

> <r_mmod_RMS_Derivative-OPLS-2005>
9.95513725280762

$$$$
87
                    3D
 Structure written by MMmdl.
160168  0  0  1  0            999 V2000
  -30.7303  -14.4540   20.6163 C   0  0  0  0  0  0
  -30.4193  -12.3174   19.4106 C   0  0  0  0  0  0
  -29.4865  -12.5110   18.1994 C   0  0  0  0  0  0
  -28.0110  -12.3651   18.6180 C   0  0  0  0  0  0
  -27.6602  -13.2074   19.8734 C   0  0  2  0  0  0
  -28.7028  -12.9907   20.9920 C   0  0  0  0  0  0
  -25.2588  -13.8168   20.5683 C   0  0  0  0  0  0
  -24.1834  -13.0445   20.9171 C   0  0  0  0  0  0
  -24.6388  -11.6913   20.8737 C   0  0  0  0  0  0
  -23.9056  -10.4300   21.0409 C   0  0  0  0  0  0
  -24.3611   -9.4215   21.9186 C   0  0  0  0  0  0
  -23.6291   -8.2246   22.0755 C   0  0  0  0  0  0
  -22.4272   -8.0284   21.3543 C   0  0  0  0  0  0
  -21.9907   -9.0256   20.4645 C   0  0  0  0  0  0
  -22.7232  -10.2138   20.3056 C   0  0  0  0  0  0
  -21.6851   -6.0740   22.5282 C   0  0  0  0  0  0
  -21.4012   -6.5642   23.8216 C   0  0  0  0  0  0
  -21.3657   -5.6794   24.9177 C   0  0  0  0  0  0
  -21.6042   -4.3058   24.7225 C   0  0  0  0  0  0
  -21.8819   -3.8151   23.4346 C   0  0  0  0  0  0
  -21.9191   -4.6970   22.3403 C   0  0  0  0  0  0
  -22.7859  -13.5243   21.1844 C   0  0  0  0  0  0
  -22.1661   -4.2155   21.0980 F   0  0  0  0  0  0
  -21.5628   -3.4541   25.7738 F   0  0  0  0  0  0
  -30.0331  -13.2984   20.4372 N   0  0  0  0  0  0
  -26.3019  -12.9335   20.3371 N   0  0  0  0  0  0
  -25.9312  -11.6494   20.5767 N   0  0  0  0  0  0
  -22.0502  -12.8231   22.0401 N   0  0  0  0  0  0
  -25.4330  -15.1884   20.4108 N   0  0  0  0  0  0
  -31.8298  -14.6586   20.0951 O   0  0  0  0  0  0
  -21.6638   -6.8881   21.4243 O   0  0  0  0  0  0
  -22.3548  -14.5555   20.6706 O   0  0  0  0  0  0
  -24.6180  -31.8674   23.2100 C   0  0  0  0  0  0
  -25.9066  -32.4817   23.8397 C   0  0  1  0  0  0
  -27.2255  -27.4104   20.0865 C   0  0  0  0  0  0
  -25.5910  -33.8615   24.2323 N   0  0  0  0  0  0
  -23.4051  -30.4944   21.5525 C   0  0  2  0  0  0
  -24.8479  -28.9643   20.1135 C   0  0  0  0  0  0
  -22.7420  -29.4669   22.4988 C   0  0  0  0  0  0
  -18.0274  -28.1376   22.8487 C   0  0  0  0  0  0
  -24.1484  -36.7306   23.2636 C   0  0  0  0  0  0
  -25.9394  -30.8250   21.3679 C   0  0  0  0  0  0
  -26.0140  -29.4606   20.7092 C   0  0  0  0  0  0
  -27.2054  -28.6929   20.6914 C   0  0  0  0  0  0
  -26.0335  -26.9438   19.4781 C   0  0  0  0  0  0
  -24.8543  -27.7059   19.4955 C   0  0  0  0  0  0
  -23.6118  -29.8325   20.1664 C   0  0  0  0  0  0
  -25.4108  -36.3106   24.0333 C   0  0  1  0  0  0
  -20.5867  -28.3667   23.1309 C   0  0  2  0  0  0
  -20.6769  -26.9401   22.5411 C   0  0  0  0  0  0
  -19.5750  -26.6382   21.5206 C   0  0  0  0  0  0
  -18.1924  -26.7922   22.1614 C   0  0  0  0  0  0
  -19.1524  -28.8838   23.2893 C   0  0  0  0  0  0
  -18.9456  -30.1443   23.8904 C   0  0  0  0  0  0
  -17.6461  -30.6583   24.0567 C   0  0  0  0  0  0
  -25.9039  -34.9472   23.5124 C   0  0  0  0  0  0
  -16.5351  -29.9083   23.6332 C   0  0  0  0  0  0
  -16.7265  -28.6500   23.0351 C   0  0  0  0  0  0
  -26.4479  -31.6602   25.0735 C   0  0  0  0  0  0
  -25.3736  -31.3719   26.1479 C   0  0  0  0  0  0
  -27.0311  -30.3040   24.6124 C   0  0  0  0  0  0
  -27.6060  -32.4324   25.7493 C   0  0  0  0  0  0
  -27.5582  -37.1805   24.8463 C   0  0  0  0  0  0
  -21.4145  -29.3042   22.3723 N   0  0  0  0  0  0
  -26.4291  -37.3793   23.9409 N   0  0  0  0  0  0
  -24.6727  -31.0763   22.1014 N   0  0  0  0  0  0
  -23.4188  -28.8199   23.3025 O   0  0  0  0  0  0
  -28.3783  -26.6373   20.1104 O   0  0  0  0  0  0
  -26.5597  -34.8923   22.4685 O   0  0  0  0  0  0
  -23.5368  -32.1437   23.7481 O   0  0  0  0  0  0
  -29.1693  -20.0172   21.1735 C   0  0  0  0  0  0
  -31.5044  -18.5860   20.6140 C   0  0  0  0  0  0
  -29.2747  -18.6627   21.6005 C   0  0  0  0  0  0
  -30.4815  -17.9495   21.3495 C   0  0  0  0  0  0
  -31.3854  -19.9287   20.1944 C   0  0  0  0  0  0
  -30.2296  -20.6791   20.5027 C   0  0  0  0  0  0
  -27.0268  -18.6061   22.7589 C   0  0  0  0  0  0
  -28.1642  -18.0223   22.3417 C   0  0  0  0  0  0
  -29.3871  -24.3402   20.2520 C   0  0  0  0  0  0
  -32.5290  -20.5787   19.4367 C   0  0  0  0  0  0
  -30.7909  -16.5684   21.9610 C   0  0  0  0  0  0
  -28.1789  -25.2211   19.8819 C   0  0  0  0  0  0
  -29.0943  -22.8389   20.4882 C   0  0  0  0  0  0
  -30.1357  -15.3873   21.3789 N   0  0  0  0  0  0
  -30.5278  -24.8087   20.3561 O   0  0  0  0  0  0
  -30.2216  -22.0205   20.1419 O   0  0  0  0  0  0
  -31.4618  -12.4196   19.1042 H   0  0  0  0  0  0
  -30.3259  -11.3057   19.8083 H   0  0  0  0  0  0
  -29.7264  -11.7870   17.4195 H   0  0  0  0  0  0
  -29.6484  -13.4975   17.7623 H   0  0  0  0  0  0
  -27.8266  -11.3088   18.8187 H   0  0  0  0  0  0
  -27.3555  -12.6342   17.7890 H   0  0  0  0  0  0
  -27.7045  -14.2553   19.5760 H   0  0  0  0  0  0
  -28.6823  -11.9547   21.3334 H   0  0  0  0  0  0
  -28.4542  -13.5864   21.8709 H   0  0  0  0  0  0
  -25.2757   -9.5692   22.4759 H   0  0  0  0  0  0
  -24.0006   -7.4638   22.7473 H   0  0  0  0  0  0
  -21.0840   -8.8771   19.8947 H   0  0  0  0  0  0
  -22.3695  -10.9675   19.6163 H   0  0  0  0  0  0
  -21.2004   -7.6151   23.9720 H   0  0  0  0  0  0
  -21.1478   -6.0525   25.9080 H   0  0  0  0  0  0
  -22.0598   -2.7614   23.2846 H   0  0  0  0  0  0
  -22.4110  -11.9875   22.4762 H   0  0  0  0  0  0
  -21.1126  -13.1266   22.2626 H   0  0  0  0  0  0
  -24.6726  -15.8490   20.5289 H   0  0  0  0  0  0
  -26.2955  -15.6283   20.1148 H   0  0  0  0  0  0
  -26.7137  -32.5514   23.1157 H   0  0  0  0  0  0
  -25.0086  -33.9780   25.0485 H   0  0  0  0  0  0
  -22.6947  -31.3122   21.4158 H   0  0  0  0  0  0
  -23.3746  -35.9639   23.3308 H   0  0  0  0  0  0
  -24.3577  -36.8911   22.2049 H   0  0  0  0  0  0
  -23.7239  -37.6512   23.6649 H   0  0  0  0  0  0
  -26.0576  -31.5933   20.6028 H   0  0  0  0  0  0
  -26.8253  -30.8729   21.9893 H   0  0  0  0  0  0
  -28.1038  -29.0723   21.1581 H   0  0  0  0  0  0
  -25.9795  -25.9879   18.9788 H   0  0  0  0  0  0
  -23.9583  -27.3198   19.0293 H   0  0  0  0  0  0
  -23.7176  -30.6085   19.4079 H   0  0  0  0  0  0
  -22.7343  -29.2536   19.8713 H   0  0  0  0  0  0
  -25.1282  -36.1969   25.0825 H   0  0  0  0  0  0
  -20.9959  -28.3232   24.1429 H   0  0  0  0  0  0
  -20.5679  -26.2266   23.3592 H   0  0  0  0  0  0
  -21.6642  -26.7445   22.1200 H   0  0  0  0  0  0
  -19.6914  -25.6294   21.1228 H   0  0  0  0  0  0
  -19.6696  -27.3200   20.6742 H   0  0  0  0  0  0
  -17.4196  -26.6670   21.4015 H   0  0  0  0  0  0
  -18.0325  -26.0052   22.8999 H   0  0  0  0  0  0
  -19.7936  -30.7254   24.2271 H   0  0  0  0  0  0
  -17.5018  -31.6267   24.5161 H   0  0  0  0  0  0
  -15.5354  -30.2993   23.7654 H   0  0  0  0  0  0
  -15.8658  -28.0828   22.7067 H   0  0  0  0  0  0
  -24.5903  -30.7074   25.7812 H   0  0  0  0  0  0
  -24.8937  -32.2880   26.4936 H   0  0  0  0  0  0
  -25.8077  -30.8875   27.0236 H   0  0  0  0  0  0
  -26.2863  -29.6799   24.1171 H   0  0  0  0  0  0
  -27.4072  -29.7277   25.4588 H   0  0  0  0  0  0
  -27.8697  -30.4354   23.9282 H   0  0  0  0  0  0
  -27.2695  -33.3629   26.2077 H   0  0  0  0  0  0
  -28.3865  -32.6876   25.0312 H   0  0  0  0  0  0
  -28.0727  -31.8438   26.5400 H   0  0  0  0  0  0
  -28.2600  -38.0103   24.7524 H   0  0  0  0  0  0
  -28.1082  -36.2639   24.6278 H   0  0  0  0  0  0
  -27.2301  -37.1445   25.8865 H   0  0  0  0  0  0
  -20.9303  -29.8759   21.6941 H   0  0  0  0  0  0
  -26.0179  -38.2867   24.1422 H   0  0  0  0  0  0
  -28.2644  -20.5636   21.3842 H   0  0  0  0  0  0
  -32.4197  -18.0478   20.4086 H   0  0  0  0  0  0
  -26.2827  -18.0265   23.2872 H   0  0  0  0  0  0
  -26.8003  -19.6484   22.5962 H   0  0  0  0  0  0
  -28.2677  -16.9719   22.5654 H   0  0  0  0  0  0
  -33.3134  -19.8604   19.1963 H   0  0  0  0  0  0
  -32.9709  -21.3785   20.0311 H   0  0  0  0  0  0
  -32.1700  -21.0080   18.5006 H   0  0  0  0  0  0
  -30.5251  -16.6024   23.0181 H   0  0  0  0  0  0
  -31.8728  -16.4206   21.9694 H   0  0  0  0  0  0
  -27.3260  -24.8654   20.4617 H   0  0  0  0  0  0
  -27.9576  -25.0502   18.8282 H   0  0  0  0  0  0
  -28.2277  -22.5395   19.8979 H   0  0  0  0  0  0
  -28.8436  -22.7096   21.5413 H   0  0  0  0  0  0
  -29.2197  -15.1536   21.7293 H   0  0  0  0  0  0
  1 25  1  0  0  0
  1 30  2  0  0  0
  1 84  1  0  0  0
  2  3  1  0  0  0
  2 25  1  0  0  0
  2 87  1  0  0  0
  2 88  1  0  0  0
  3  4  1  0  0  0
  3 89  1  0  0  0
  3 90  1  0  0  0
  4  5  1  0  0  0
  4 91  1  0  0  0
  4 92  1  0  0  0
  5  6  1  0  0  0
  5 26  1  0  0  0
  5 93  1  0  0  0
  6 25  1  0  0  0
  6 94  1  0  0  0
  6 95  1  0  0  0
  7  8  2  0  0  0
  7 26  1  0  0  0
  7 29  1  0  0  0
  8  9  1  0  0  0
  8 22  1  0  0  0
  9 10  1  0  0  0
  9 27  2  0  0  0
 10 11  2  0  0  0
 10 15  1  0  0  0
 11 12  1  0  0  0
 11 96  1  0  0  0
 12 13  2  0  0  0
 12 97  1  0  0  0
 13 14  1  0  0  0
 13 31  1  0  0  0
 14 15  2  0  0  0
 14 98  1  0  0  0
 15 99  1  0  0  0
 16 17  2  0  0  0
 16 21  1  0  0  0
 16 31  1  0  0  0
 17 18  1  0  0  0
 17100  1  0  0  0
 18 19  2  0  0  0
 18101  1  0  0  0
 19 20  1  0  0  0
 19 24  1  0  0  0
 20 21  2  0  0  0
 20102  1  0  0  0
 21 23  1  0  0  0
 22 28  1  0  0  0
 22 32  2  0  0  0
 26 27  1  0  0  0
 28103  1  0  0  0
 28104  1  0  0  0
 29105  1  0  0  0
 29106  1  0  0  0
 33 34  1  0  0  0
 33 66  1  0  0  0
 33 70  2  0  0  0
 34 36  1  0  0  0
 34 59  1  0  0  0
 34107  1  0  0  0
 35 44  2  0  0  0
 35 45  1  0  0  0
 35 68  1  0  0  0
 36 56  1  0  0  0
 36108  1  0  0  0
 37 39  1  0  0  0
 37 47  1  0  0  0
 37 66  1  0  0  0
 37109  1  0  0  0
 38 43  2  0  0  0
 38 46  1  0  0  0
 38 47  1  0  0  0
 39 64  1  0  0  0
 39 67  2  0  0  0
 40 52  1  0  0  0
 40 53  2  0  0  0
 40 58  1  0  0  0
 41110  1  0  0  0
 41111  1  0  0  0
 41112  1  0  0  0
 41 48  1  0  0  0
 42 43  1  0  0  0
 42 66  1  0  0  0
 42113  1  0  0  0
 42114  1  0  0  0
 43 44  1  0  0  0
 44115  1  0  0  0
 45 46  2  0  0  0
 45116  1  0  0  0
 46117  1  0  0  0
 47118  1  0  0  0
 47119  1  0  0  0
 48 56  1  0  0  0
 48 65  1  0  0  0
 48120  1  0  0  0
 49 50  1  0  0  0
 49 53  1  0  0  0
 49 64  1  0  0  0
 49121  1  0  0  0
 50 51  1  0  0  0
 50122  1  0  0  0
 50123  1  0  0  0
 51 52  1  0  0  0
 51124  1  0  0  0
 51125  1  0  0  0
 52126  1  0  0  0
 52127  1  0  0  0
 53 54  1  0  0  0
 54 55  2  0  0  0
 54128  1  0  0  0
 55 57  1  0  0  0
 55129  1  0  0  0
 56 69  2  0  0  0
 57 58  2  0  0  0
 57130  1  0  0  0
 58131  1  0  0  0
 59 60  1  0  0  0
 59 61  1  0  0  0
 59 62  1  0  0  0
 60132  1  0  0  0
 60133  1  0  0  0
 60134  1  0  0  0
 61135  1  0  0  0
 61136  1  0  0  0
 61137  1  0  0  0
 62138  1  0  0  0
 62139  1  0  0  0
 62140  1  0  0  0
 63 65  1  0  0  0
 63141  1  0  0  0
 63142  1  0  0  0
 63143  1  0  0  0
 64144  1  0  0  0
 65145  1  0  0  0
 68 82  1  0  0  0
 71 73  2  0  0  0
 71 76  1  0  0  0
 71146  1  0  0  0
 72 74  2  0  0  0
 72 75  1  0  0  0
 72147  1  0  0  0
 73 74  1  0  0  0
 73 78  1  0  0  0
 74 81  1  0  0  0
 75 76  2  0  0  0
 75 80  1  0  0  0
 76 86  1  0  0  0
 77 78  2  0  0  0
 77148  1  0  0  0
 77149  1  0  0  0
 78150  1  0  0  0
 79 82  1  0  0  0
 79 83  1  0  0  0
 79 85  2  0  0  0
 80151  1  0  0  0
 80152  1  0  0  0
 80153  1  0  0  0
 81 84  1  0  0  0
 81154  1  0  0  0
 81155  1  0  0  0
 82156  1  0  0  0
 82157  1  0  0  0
 83 86  1  0  0  0
 83158  1  0  0  0
 83159  1  0  0  0
 84160  1  0  0  0
M  ISO  4   1 100  68 101  82 101  84 100
M  END
> <chiral flag>
0

> <version>
0

> <s_m_source_file>
/data/baiqing/PycharmProjects/Reinvent-master-3.2/result/LINK_invent/BTK/process_docking_weight1_custom_product_contain_oxygen_bond_distance_aromatic_linkinvent_7_9_3/rearranged_h_0118.sdf

> <i_m_source_file_index>
87

> <r_mmod_Potential_Energy-OPLS-2005>
-85.5797882080078

> <r_mmod_Stretch_Energy-OPLS-2005>
43.1600608825684

> <r_mmod_Bend_Energy-OPLS-2005>
106.466857910156

> <r_mmod_Torsional_Energy-OPLS-2005>
201.224639892578

> <r_mmod_Improper_Torsional_Energy-OPLS-2005>
2.60129237174988

> <r_mmod_Van_der_Waal_Energy-OPLS-2005>
162.52912902832

> <r_mmod_Electrostatic_Energy-OPLS-2005>
-372.211517333984

> <r_mmod_Solvation_Energy-OPLS-2005>
-243.289840698242

> <b_mmod_Minimization_Converged-OPLS-2005>
0

> <r_mmod_RMS_Derivative-OPLS-2005>
0.787819623947144

$$$$
88
                    3D
 Structure written by MMmdl.
154162  0  0  1  0            999 V2000
  -30.7013  -14.4813   20.4985 C   0  0  0  0  0  0
  -30.4168  -12.2893   19.4412 C   0  0  0  0  0  0
  -29.4991  -12.4835   18.2149 C   0  0  0  0  0  0
  -28.0175  -12.3596   18.6201 C   0  0  0  0  0  0
  -27.6586  -13.2131   19.8667 C   0  0  2  0  0  0
  -28.6996  -13.0278   20.9943 C   0  0  0  0  0  0
  -25.2581  -13.8187   20.5687 C   0  0  0  0  0  0
  -24.1838  -13.0463   20.9195 C   0  0  0  0  0  0
  -24.6399  -11.6933   20.8760 C   0  0  0  0  0  0
  -23.9066  -10.4319   21.0422 C   0  0  0  0  0  0
  -24.3623   -9.4227   21.9186 C   0  0  0  0  0  0
  -23.6300   -8.2260   22.0752 C   0  0  0  0  0  0
  -22.4279   -8.0297   21.3549 C   0  0  0  0  0  0
  -21.9918   -9.0276   20.4655 C   0  0  0  0  0  0
  -22.7247  -10.2156   20.3065 C   0  0  0  0  0  0
  -21.6862   -6.0738   22.5280 C   0  0  0  0  0  0
  -21.4017   -6.5642   23.8212 C   0  0  0  0  0  0
  -21.3660   -5.6791   24.9171 C   0  0  0  0  0  0
  -21.6050   -4.3053   24.7219 C   0  0  0  0  0  0
  -21.8820   -3.8148   23.4336 C   0  0  0  0  0  0
  -21.9195   -4.6965   22.3397 C   0  0  0  0  0  0
  -22.7855  -13.5252   21.1837 C   0  0  0  0  0  0
  -22.1663   -4.2154   21.0969 F   0  0  0  0  0  0
  -21.5628   -3.4534   25.7731 F   0  0  0  0  0  0
  -30.0316  -13.3013   20.4364 N   0  0  0  0  0  0
  -26.3018  -12.9370   20.3344 N   0  0  0  0  0  0
  -25.9328  -11.6530   20.5787 N   0  0  0  0  0  0
  -22.0477  -12.8261   22.0397 N   0  0  0  0  0  0
  -25.4300  -15.1903   20.4078 N   0  0  0  0  0  0
  -31.8848  -14.5849   20.1658 O   0  0  0  0  0  0
  -21.6649   -6.8886   21.4245 O   0  0  0  0  0  0
  -22.3541  -14.5543   20.6657 O   0  0  0  0  0  0
  -24.6131  -31.8690   23.2110 C   0  0  0  0  0  0
  -25.9025  -32.4833   23.8400 C   0  0  1  0  0  0
  -27.2294  -27.4437   20.1042 C   0  0  0  0  0  0
  -25.5870  -33.8630   24.2324 N   0  0  0  0  0  0
  -23.4009  -30.4918   21.5514 C   0  0  2  0  0  0
  -24.8487  -28.9594   20.1130 C   0  0  0  0  0  0
  -22.7404  -29.4660   22.5001 C   0  0  0  0  0  0
  -18.0268  -28.1376   22.8495 C   0  0  0  0  0  0
  -24.1478  -36.7327   23.2641 C   0  0  0  0  0  0
  -25.9288  -30.8388   21.3626 C   0  0  0  0  0  0
  -26.0082  -29.4748   20.7080 C   0  0  0  0  0  0
  -27.2065  -28.7258   20.6965 C   0  0  0  0  0  0
  -26.0586  -26.9379   19.5047 C   0  0  0  0  0  0
  -24.8690  -27.6909   19.5050 C   0  0  0  0  0  0
  -23.6096  -29.8245   20.1650 C   0  0  0  0  0  0
  -25.4100  -36.3118   24.0338 C   0  0  1  0  0  0
  -20.5861  -28.3660   23.1324 C   0  0  2  0  0  0
  -20.6766  -26.9400   22.5423 C   0  0  0  0  0  0
  -19.5744  -26.6385   21.5219 C   0  0  0  0  0  0
  -18.1919  -26.7928   22.1625 C   0  0  0  0  0  0
  -19.1520  -28.8833   23.2912 C   0  0  0  0  0  0
  -18.9452  -30.1443   23.8917 C   0  0  0  0  0  0
  -17.6455  -30.6590   24.0562 C   0  0  0  0  0  0
  -25.9025  -34.9484   23.5137 C   0  0  0  0  0  0
  -16.5344  -29.9091   23.6323 C   0  0  0  0  0  0
  -16.7260  -28.6506   23.0346 C   0  0  0  0  0  0
  -26.4456  -31.6618   25.0730 C   0  0  0  0  0  0
  -25.3721  -31.3733   26.1480 C   0  0  0  0  0  0
  -27.0303  -30.3064   24.6110 C   0  0  0  0  0  0
  -27.6023  -32.4354   25.7489 C   0  0  0  0  0  0
  -27.5583  -37.1817   24.8466 C   0  0  0  0  0  0
  -21.4135  -29.3032   22.3740 N   0  0  0  0  0  0
  -26.4292  -37.3796   23.9408 N   0  0  0  0  0  0
  -24.6655  -31.0796   22.1007 N   0  0  0  0  0  0
  -23.4185  -28.8209   23.3040 O   0  0  0  0  0  0
  -28.3730  -26.6819   20.1122 O   0  0  0  0  0  0
  -26.5598  -34.8935   22.4705 O   0  0  0  0  0  0
  -23.5329  -32.1441   23.7506 O   0  0  0  0  0  0
  -31.0253  -18.3384   18.4022 C   0  0  0  0  0  0
  -30.4402  -19.4574   19.0141 C   0  0  0  0  0  0
  -30.8649  -17.0630   18.9648 C   0  0  0  0  0  0
  -29.5171  -18.0215   20.7533 C   0  0  0  0  0  0
  -29.6697  -19.3189   20.1893 C   0  0  0  0  0  0
  -30.1265  -16.8808   20.1622 C   0  0  0  0  0  0
  -29.0835  -20.5191   20.8367 C   0  0  0  0  0  0
  -29.4852  -21.7937   20.6297 C   0  0  0  0  0  0
  -28.8856  -23.0401   21.2692 C   0  0  0  0  0  0
  -28.7895  -24.2453   20.2990 C   0  0  0  0  0  0
  -28.3083  -25.5427   20.9843 C   0  0  0  0  0  0
  -29.9463  -15.5754   20.7418 N   0  0  0  0  0  0
  -31.4653  -12.3655   19.1465 H   0  0  0  0  0  0
  -30.2971  -11.2889   19.8592 H   0  0  0  0  0  0
  -29.7352  -11.7457   17.4471 H   0  0  0  0  0  0
  -29.6798  -13.4603   17.7644 H   0  0  0  0  0  0
  -27.8222  -11.3068   18.8254 H   0  0  0  0  0  0
  -27.3741  -12.6275   17.7804 H   0  0  0  0  0  0
  -27.6924  -14.2555   19.5491 H   0  0  0  0  0  0
  -28.6687  -12.0090   21.3817 H   0  0  0  0  0  0
  -28.4756  -13.6768   21.8424 H   0  0  0  0  0  0
  -25.2775   -9.5695   22.4745 H   0  0  0  0  0  0
  -24.0021   -7.4648   22.7456 H   0  0  0  0  0  0
  -21.0849   -8.8799   19.8958 H   0  0  0  0  0  0
  -22.3718  -10.9689   19.6162 H   0  0  0  0  0  0
  -21.2010   -7.6152   23.9721 H   0  0  0  0  0  0
  -21.1481   -6.0515   25.9075 H   0  0  0  0  0  0
  -22.0596   -2.7614   23.2833 H   0  0  0  0  0  0
  -22.4095  -11.9955   22.4842 H   0  0  0  0  0  0
  -21.1082  -13.1289   22.2553 H   0  0  0  0  0  0
  -24.6634  -15.8462   20.5146 H   0  0  0  0  0  0
  -26.2794  -15.6283   20.0738 H   0  0  0  0  0  0
  -26.7100  -32.5548   23.1173 H   0  0  0  0  0  0
  -24.9994  -33.9797   25.0445 H   0  0  0  0  0  0
  -22.6891  -31.3084   21.4135 H   0  0  0  0  0  0
  -23.3731  -35.9672   23.3318 H   0  0  0  0  0  0
  -24.3565  -36.8918   22.2053 H   0  0  0  0  0  0
  -23.7247  -37.6543   23.6643 H   0  0  0  0  0  0
  -26.0412  -31.6059   20.5951 H   0  0  0  0  0  0
  -26.8170  -30.8902   21.9815 H   0  0  0  0  0  0
  -28.1029  -29.1190   21.1562 H   0  0  0  0  0  0
  -26.0679  -25.9602   19.0444 H   0  0  0  0  0  0
  -23.9788  -27.2892   19.0415 H   0  0  0  0  0  0
  -23.7173  -30.6008   19.4058 H   0  0  0  0  0  0
  -22.7343  -29.2436   19.8705 H   0  0  0  0  0  0
  -25.1281  -36.1985   25.0831 H   0  0  0  0  0  0
  -20.9950  -28.3219   24.1445 H   0  0  0  0  0  0
  -20.5665  -26.2266   23.3604 H   0  0  0  0  0  0
  -21.6637  -26.7451   22.1214 H   0  0  0  0  0  0
  -19.6898  -25.6298   21.1241 H   0  0  0  0  0  0
  -19.6683  -27.3203   20.6753 H   0  0  0  0  0  0
  -17.4196  -26.6673   21.4025 H   0  0  0  0  0  0
  -18.0320  -26.0069   22.9020 H   0  0  0  0  0  0
  -19.7931  -30.7252   24.2293 H   0  0  0  0  0  0
  -17.5014  -31.6270   24.5168 H   0  0  0  0  0  0
  -15.5348  -30.3000   23.7637 H   0  0  0  0  0  0
  -15.8659  -28.0835   22.7043 H   0  0  0  0  0  0
  -24.5867  -30.7112   25.7817 H   0  0  0  0  0  0
  -24.8950  -32.2903   26.4954 H   0  0  0  0  0  0
  -25.8063  -30.8875   27.0224 H   0  0  0  0  0  0
  -26.2862  -29.6819   24.1153 H   0  0  0  0  0  0
  -27.4068  -29.7305   25.4574 H   0  0  0  0  0  0
  -27.8688  -30.4396   23.9267 H   0  0  0  0  0  0
  -27.2623  -33.3629   26.2110 H   0  0  0  0  0  0
  -28.3795  -32.6967   25.0298 H   0  0  0  0  0  0
  -28.0733  -31.8466   26.5369 H   0  0  0  0  0  0
  -28.2614  -38.0105   24.7497 H   0  0  0  0  0  0
  -28.1062  -36.2633   24.6299 H   0  0  0  0  0  0
  -27.2300  -37.1481   25.8870 H   0  0  0  0  0  0
  -20.9289  -29.8755   21.6970 H   0  0  0  0  0  0
  -26.0185  -38.2875   24.1397 H   0  0  0  0  0  0
  -31.5998  -18.4595   17.4939 H   0  0  0  0  0  0
  -30.5765  -20.4217   18.5460 H   0  0  0  0  0  0
  -31.3228  -16.2319   18.4473 H   0  0  0  0  0  0
  -28.9362  -17.9064   21.6581 H   0  0  0  0  0  0
  -28.2592  -20.3405   21.5141 H   0  0  0  0  0  0
  -30.3203  -21.9904   19.9741 H   0  0  0  0  0  0
  -29.5285  -23.3113   22.1080 H   0  0  0  0  0  0
  -27.9069  -22.8085   21.6908 H   0  0  0  0  0  0
  -28.1195  -24.0017   19.4735 H   0  0  0  0  0  0
  -29.7693  -24.4282   19.8561 H   0  0  0  0  0  0
  -28.9462  -25.7575   21.8418 H   0  0  0  0  0  0
  -27.3060  -25.3822   21.3886 H   0  0  0  0  0  0
  -29.0597  -15.4039   21.1915 H   0  0  0  0  0  0
  1 25  1  0  0  0
  1 30  2  0  0  0
  1 82  1  0  0  0
  2  3  1  0  0  0
  2 25  1  0  0  0
  2 83  1  0  0  0
  2 84  1  0  0  0
  3  4  1  0  0  0
  3 85  1  0  0  0
  3 86  1  0  0  0
  4  5  1  0  0  0
  4 87  1  0  0  0
  4 88  1  0  0  0
  5  6  1  0  0  0
  5 26  1  0  0  0
  5 89  1  0  0  0
  6 25  1  0  0  0
  6 90  1  0  0  0
  6 91  1  0  0  0
  7  8  2  0  0  0
  7 26  1  0  0  0
  7 29  1  0  0  0
  8  9  1  0  0  0
  8 22  1  0  0  0
  9 10  1  0  0  0
  9 27  2  0  0  0
 10 11  2  0  0  0
 10 15  1  0  0  0
 11 12  1  0  0  0
 11 92  1  0  0  0
 12 13  2  0  0  0
 12 93  1  0  0  0
 13 14  1  0  0  0
 13 31  1  0  0  0
 14 15  2  0  0  0
 14 94  1  0  0  0
 15 95  1  0  0  0
 16 17  2  0  0  0
 16 21  1  0  0  0
 16 31  1  0  0  0
 17 18  1  0  0  0
 17 96  1  0  0  0
 18 19  2  0  0  0
 18 97  1  0  0  0
 19 20  1  0  0  0
 19 24  1  0  0  0
 20 21  2  0  0  0
 20 98  1  0  0  0
 21 23  1  0  0  0
 22 28  1  0  0  0
 22 32  2  0  0  0
 26 27  1  0  0  0
 28 99  1  0  0  0
 28100  1  0  0  0
 29101  1  0  0  0
 29102  1  0  0  0
 33 34  1  0  0  0
 33 66  1  0  0  0
 33 70  2  0  0  0
 34 36  1  0  0  0
 34 59  1  0  0  0
 34103  1  0  0  0
 35 44  2  0  0  0
 35 45  1  0  0  0
 35 68  1  0  0  0
 36 56  1  0  0  0
 36104  1  0  0  0
 37 39  1  0  0  0
 37 47  1  0  0  0
 37 66  1  0  0  0
 37105  1  0  0  0
 38 43  2  0  0  0
 38 46  1  0  0  0
 38 47  1  0  0  0
 39 64  1  0  0  0
 39 67  2  0  0  0
 40 52  1  0  0  0
 40 53  2  0  0  0
 40 58  1  0  0  0
 41106  1  0  0  0
 41107  1  0  0  0
 41108  1  0  0  0
 41 48  1  0  0  0
 42 43  1  0  0  0
 42 66  1  0  0  0
 42109  1  0  0  0
 42110  1  0  0  0
 43 44  1  0  0  0
 44111  1  0  0  0
 45 46  2  0  0  0
 45112  1  0  0  0
 46113  1  0  0  0
 47114  1  0  0  0
 47115  1  0  0  0
 48 56  1  0  0  0
 48 65  1  0  0  0
 48116  1  0  0  0
 49 50  1  0  0  0
 49 53  1  0  0  0
 49 64  1  0  0  0
 49117  1  0  0  0
 50 51  1  0  0  0
 50118  1  0  0  0
 50119  1  0  0  0
 51 52  1  0  0  0
 51120  1  0  0  0
 51121  1  0  0  0
 52122  1  0  0  0
 52123  1  0  0  0
 53 54  1  0  0  0
 54 55  2  0  0  0
 54124  1  0  0  0
 55 57  1  0  0  0
 55125  1  0  0  0
 56 69  2  0  0  0
 57 58  2  0  0  0
 57126  1  0  0  0
 58127  1  0  0  0
 59 60  1  0  0  0
 59 61  1  0  0  0
 59 62  1  0  0  0
 60128  1  0  0  0
 60129  1  0  0  0
 60130  1  0  0  0
 61131  1  0  0  0
 61132  1  0  0  0
 61133  1  0  0  0
 62134  1  0  0  0
 62135  1  0  0  0
 62136  1  0  0  0
 63 65  1  0  0  0
 63137  1  0  0  0
 63138  1  0  0  0
 63139  1  0  0  0
 64140  1  0  0  0
 65141  1  0  0  0
 68 81  1  0  0  0
 71 72  2  0  0  0
 71 73  1  0  0  0
 71142  1  0  0  0
 72 75  1  0  0  0
 72143  1  0  0  0
 73 76  2  0  0  0
 73144  1  0  0  0
 74 75  2  0  0  0
 74 76  1  0  0  0
 74145  1  0  0  0
 75 77  1  0  0  0
 76 82  1  0  0  0
 77 78  2  0  0  0
 77146  1  0  0  0
 78 79  1  0  0  0
 78147  1  0  0  0
 79 80  1  0  0  0
 79148  1  0  0  0
 79149  1  0  0  0
 80 81  1  0  0  0
 80150  1  0  0  0
 80151  1  0  0  0
 81152  1  0  0  0
 81153  1  0  0  0
 82154  1  0  0  0
M  ISO  4   1 100  68 101  81 101  82 100
M  END
> <chiral flag>
0

> <version>
0

> <s_m_source_file>
/data/baiqing/PycharmProjects/Reinvent-master-3.2/result/LINK_invent/BTK/process_docking_weight1_custom_product_contain_oxygen_bond_distance_aromatic_linkinvent_7_9_3/rearranged_h_0118.sdf

> <i_m_source_file_index>
88

> <r_mmod_Potential_Energy-OPLS-2005>
1.20440018177032

> <r_mmod_Stretch_Energy-OPLS-2005>
37.0945930480957

> <r_mmod_Bend_Energy-OPLS-2005>
86.0794296264648

> <r_mmod_Torsional_Energy-OPLS-2005>
251.899276733398

> <r_mmod_Improper_Torsional_Energy-OPLS-2005>
5.58195686340332

> <r_mmod_Van_der_Waal_Energy-OPLS-2005>
155.396347045898

> <r_mmod_Electrostatic_Energy-OPLS-2005>
-351.722045898438

> <r_mmod_Solvation_Energy-OPLS-2005>
-201.168502807617

> <b_mmod_Minimization_Converged-OPLS-2005>
0

> <r_mmod_RMS_Derivative-OPLS-2005>
1.77470088005066

$$$$
89
                    3D
 Structure written by MMmdl.
147155  0  0  1  0            999 V2000
  -30.5626  -14.7670   20.5475 C   0  0  0  0  0  0
  -30.4571  -12.4909   19.4605 C   0  0  0  0  0  0
  -29.5202  -12.5582   18.2303 C   0  0  0  0  0  0
  -28.0426  -12.3668   18.6317 C   0  0  0  0  0  0
  -27.6538  -13.2216   19.8657 C   0  0  2  0  0  0
  -28.6983  -13.0577   20.9875 C   0  0  0  0  0  0
  -25.2559  -13.8166   20.5684 C   0  0  0  0  0  0
  -24.1827  -13.0431   20.9176 C   0  0  0  0  0  0
  -24.6401  -11.6904   20.8709 C   0  0  0  0  0  0
  -23.9070  -10.4292   21.0385 C   0  0  0  0  0  0
  -24.3622   -9.4211   21.9169 C   0  0  0  0  0  0
  -23.6294   -8.2249   22.0747 C   0  0  0  0  0  0
  -22.4274   -8.0287   21.3546 C   0  0  0  0  0  0
  -21.9909   -9.0257   20.4651 C   0  0  0  0  0  0
  -22.7235  -10.2135   20.3043 C   0  0  0  0  0  0
  -21.6854   -6.0740   22.5282 C   0  0  0  0  0  0
  -21.4010   -6.5638   23.8218 C   0  0  0  0  0  0
  -21.3663   -5.6789   24.9181 C   0  0  0  0  0  0
  -21.6049   -4.3052   24.7229 C   0  0  0  0  0  0
  -21.8817   -3.8143   23.4345 C   0  0  0  0  0  0
  -21.9189   -4.6963   22.3402 C   0  0  0  0  0  0
  -22.7854  -13.5241   21.1855 C   0  0  0  0  0  0
  -22.1661   -4.2149   21.0979 F   0  0  0  0  0  0
  -21.5636   -3.4538   25.7740 F   0  0  0  0  0  0
  -29.9995  -13.5018   20.4469 N   0  0  0  0  0  0
  -26.2993  -12.9350   20.3302 N   0  0  0  0  0  0
  -25.9330  -11.6499   20.5703 N   0  0  0  0  0  0
  -22.0488  -12.8244   22.0414 N   0  0  0  0  0  0
  -25.4278  -15.1891   20.4161 N   0  0  0  0  0  0
  -31.6768  -14.9657   20.0502 O   0  0  0  0  0  0
  -21.6636   -6.8885   21.4249 O   0  0  0  0  0  0
  -22.3542  -14.5554   20.6707 O   0  0  0  0  0  0
  -24.6339  -31.8541   23.1970 C   0  0  0  0  0  0
  -25.9151  -32.4746   23.8330 C   0  0  1  0  0  0
  -27.2244  -27.2431   20.1345 C   0  0  0  0  0  0
  -25.5937  -33.8552   24.2249 N   0  0  0  0  0  0
  -23.4325  -30.4768   21.5395 C   0  0  2  0  0  0
  -24.8833  -28.9219   20.1110 C   0  0  0  0  0  0
  -22.7521  -29.4604   22.4886 C   0  0  0  0  0  0
  -18.0297  -28.1394   22.8485 C   0  0  0  0  0  0
  -24.1494  -36.7282   23.2641 C   0  0  0  0  0  0
  -25.9816  -30.7603   21.3840 C   0  0  0  0  0  0
  -26.0565  -29.3817   20.7244 C   0  0  0  0  0  0
  -27.2315  -28.5566   20.7227 C   0  0  0  0  0  0
  -26.0319  -26.8646   19.4792 C   0  0  0  0  0  0
  -24.8781  -27.6721   19.4752 C   0  0  0  0  0  0
  -23.6536  -29.8102   20.1566 C   0  0  0  0  0  0
  -25.4122  -36.3065   24.0323 C   0  0  1  0  0  0
  -20.5904  -28.3716   23.1257 C   0  0  2  0  0  0
  -20.6789  -26.9427   22.5411 C   0  0  0  0  0  0
  -19.5759  -26.6380   21.5224 C   0  0  0  0  0  0
  -18.1939  -26.7932   22.1630 C   0  0  0  0  0  0
  -19.1550  -28.8869   23.2867 C   0  0  0  0  0  0
  -18.9469  -30.1467   23.8890 C   0  0  0  0  0  0
  -17.6466  -30.6593   24.0562 C   0  0  0  0  0  0
  -25.9062  -34.9434   23.5090 C   0  0  0  0  0  0
  -16.5357  -29.9088   23.6333 C   0  0  0  0  0  0
  -16.7284  -28.6504   23.0359 C   0  0  0  0  0  0
  -26.4502  -31.6583   25.0735 C   0  0  0  0  0  0
  -25.3707  -31.3760   26.1446 C   0  0  0  0  0  0
  -27.0351  -30.2980   24.6282 C   0  0  0  0  0  0
  -27.6055  -32.4327   25.7510 C   0  0  0  0  0  0
  -27.5582  -37.1795   24.8460 C   0  0  0  0  0  0
  -21.4223  -29.3052   22.3628 N   0  0  0  0  0  0
  -26.4293  -37.3764   23.9397 N   0  0  0  0  0  0
  -24.7014  -31.0491   22.0957 N   0  0  0  0  0  0
  -23.4213  -28.8155   23.2997 O   0  0  0  0  0  0
  -28.3005  -26.3152   20.1654 O   0  0  0  0  0  0
  -26.5638  -34.8918   22.4661 O   0  0  0  0  0  0
  -23.5476  -32.1368   23.7245 O   0  0  0  0  0  0
  -28.8927  -19.7198   21.2494 C   0  0  0  0  0  0
  -30.1669  -20.3987   19.5966 C   0  0  0  0  0  0
  -29.2516  -20.9033   20.4938 C   0  0  0  0  0  0
  -29.5700  -18.5844   20.7985 C   0  0  0  0  0  0
  -28.6676  -22.3322   20.7179 C   0  0  0  0  0  0
  -29.4865  -17.1758   21.3174 C   0  0  0  0  0  0
  -29.7728  -15.8029   21.3136 C   0  0  0  0  0  0
  -28.8390  -23.6111   20.1907 C   0  0  0  0  0  0
  -27.9951  -24.9042   20.6248 C   0  0  0  0  0  0
  -30.3589  -19.0129   19.7567 O   0  0  0  0  0  0
  -31.4913  -12.6574   19.1552 H   0  0  0  0  0  0
  -30.4419  -11.4922   19.9000 H   0  0  0  0  0  0
  -29.8109  -11.8107   17.4913 H   0  0  0  0  0  0
  -29.6375  -13.5278   17.7434 H   0  0  0  0  0  0
  -27.8900  -11.3099   18.8499 H   0  0  0  0  0  0
  -27.3900  -12.6025   17.7895 H   0  0  0  0  0  0
  -27.6741  -14.2630   19.5439 H   0  0  0  0  0  0
  -28.7560  -12.0117   21.2919 H   0  0  0  0  0  0
  -28.3819  -13.5778   21.8874 H   0  0  0  0  0  0
  -25.2765   -9.5691   22.4748 H   0  0  0  0  0  0
  -24.0005   -7.4638   22.7458 H   0  0  0  0  0  0
  -21.0841   -8.8779   19.8960 H   0  0  0  0  0  0
  -22.3688  -10.9675   19.6156 H   0  0  0  0  0  0
  -21.1994   -7.6144   23.9724 H   0  0  0  0  0  0
  -21.1494   -6.0518   25.9090 H   0  0  0  0  0  0
  -22.0589   -2.7604   23.2841 H   0  0  0  0  0  0
  -22.4089  -11.9906   22.4822 H   0  0  0  0  0  0
  -21.1107  -13.1289   22.2609 H   0  0  0  0  0  0
  -24.6660  -15.8475   20.5372 H   0  0  0  0  0  0
  -26.2941  -15.6315   20.1341 H   0  0  0  0  0  0
  -26.7225  -32.5398   23.1075 H   0  0  0  0  0  0
  -25.0053  -33.9683   25.0375 H   0  0  0  0  0  0
  -22.7304  -31.2999   21.3915 H   0  0  0  0  0  0
  -23.3760  -35.9611   23.3296 H   0  0  0  0  0  0
  -24.3581  -36.8916   22.2056 H   0  0  0  0  0  0
  -23.7248  -37.6481   23.6673 H   0  0  0  0  0  0
  -26.1293  -31.5238   20.6192 H   0  0  0  0  0  0
  -26.8548  -30.8045   22.0234 H   0  0  0  0  0  0
  -28.1287  -28.9034   21.2167 H   0  0  0  0  0  0
  -25.9735  -25.9158   18.9657 H   0  0  0  0  0  0
  -23.9846  -27.3197   18.9785 H   0  0  0  0  0  0
  -23.7778  -30.5859   19.3996 H   0  0  0  0  0  0
  -22.7722  -29.2423   19.8524 H   0  0  0  0  0  0
  -25.1308  -36.1908   25.0816 H   0  0  0  0  0  0
  -21.0007  -28.3309   24.1373 H   0  0  0  0  0  0
  -20.5701  -26.2332   23.3627 H   0  0  0  0  0  0
  -21.6657  -26.7448   22.1201 H   0  0  0  0  0  0
  -19.6922  -25.6287   21.1266 H   0  0  0  0  0  0
  -19.6697  -27.3183   20.6750 H   0  0  0  0  0  0
  -17.4215  -26.6688   21.4027 H   0  0  0  0  0  0
  -18.0330  -26.0075   22.9029 H   0  0  0  0  0  0
  -19.7945  -30.7282   24.2265 H   0  0  0  0  0  0
  -17.5021  -31.6279   24.5157 H   0  0  0  0  0  0
  -15.5355  -30.2986   23.7656 H   0  0  0  0  0  0
  -15.8689  -28.0816   22.7077 H   0  0  0  0  0  0
  -24.5856  -30.7150   25.7757 H   0  0  0  0  0  0
  -24.8938  -32.2950   26.4867 H   0  0  0  0  0  0
  -25.7992  -30.8913   27.0229 H   0  0  0  0  0  0
  -26.2958  -29.6721   24.1274 H   0  0  0  0  0  0
  -27.3949  -29.7259   25.4847 H   0  0  0  0  0  0
  -27.8878  -30.4210   23.9600 H   0  0  0  0  0  0
  -27.2660  -33.3628   26.2081 H   0  0  0  0  0  0
  -28.3870  -32.6886   25.0341 H   0  0  0  0  0  0
  -28.0728  -31.8464   26.5432 H   0  0  0  0  0  0
  -28.2595  -38.0098   24.7506 H   0  0  0  0  0  0
  -28.1080  -36.2625   24.6281 H   0  0  0  0  0  0
  -27.2300  -37.1446   25.8865 H   0  0  0  0  0  0
  -20.9416  -29.8750   21.6808 H   0  0  0  0  0  0
  -26.0173  -38.2839   24.1395 H   0  0  0  0  0  0
  -28.1845  -19.6999   22.0656 H   0  0  0  0  0  0
  -30.7442  -20.8474   18.7999 H   0  0  0  0  0  0
  -27.9077  -22.3096   21.4872 H   0  0  0  0  0  0
  -28.8436  -17.2970   22.1786 H   0  0  0  0  0  0
  -29.2942  -15.3568   22.1681 H   0  0  0  0  0  0
  -29.5737  -23.7680   19.4134 H   0  0  0  0  0  0
  -28.0180  -24.9312   21.7149 H   0  0  0  0  0  0
  -26.9643  -24.6445   20.3928 H   0  0  0  0  0  0
  1 25  1  0  0  0
  1 30  2  0  0  0
  1 77  1  0  0  0
  2  3  1  0  0  0
  2 25  1  0  0  0
  2 81  1  0  0  0
  2 82  1  0  0  0
  3  4  1  0  0  0
  3 83  1  0  0  0
  3 84  1  0  0  0
  4  5  1  0  0  0
  4 85  1  0  0  0
  4 86  1  0  0  0
  5  6  1  0  0  0
  5 26  1  0  0  0
  5 87  1  0  0  0
  6 25  1  0  0  0
  6 88  1  0  0  0
  6 89  1  0  0  0
  7  8  2  0  0  0
  7 26  1  0  0  0
  7 29  1  0  0  0
  8  9  1  0  0  0
  8 22  1  0  0  0
  9 10  1  0  0  0
  9 27  2  0  0  0
 10 11  2  0  0  0
 10 15  1  0  0  0
 11 12  1  0  0  0
 11 90  1  0  0  0
 12 13  2  0  0  0
 12 91  1  0  0  0
 13 14  1  0  0  0
 13 31  1  0  0  0
 14 15  2  0  0  0
 14 92  1  0  0  0
 15 93  1  0  0  0
 16 17  2  0  0  0
 16 21  1  0  0  0
 16 31  1  0  0  0
 17 18  1  0  0  0
 17 94  1  0  0  0
 18 19  2  0  0  0
 18 95  1  0  0  0
 19 20  1  0  0  0
 19 24  1  0  0  0
 20 21  2  0  0  0
 20 96  1  0  0  0
 21 23  1  0  0  0
 22 28  1  0  0  0
 22 32  2  0  0  0
 26 27  1  0  0  0
 28 97  1  0  0  0
 28 98  1  0  0  0
 29 99  1  0  0  0
 29100  1  0  0  0
 33 34  1  0  0  0
 33 66  1  0  0  0
 33 70  2  0  0  0
 34 36  1  0  0  0
 34 59  1  0  0  0
 34101  1  0  0  0
 35 44  2  0  0  0
 35 45  1  0  0  0
 35 68  1  0  0  0
 36 56  1  0  0  0
 36102  1  0  0  0
 37 39  1  0  0  0
 37 47  1  0  0  0
 37 66  1  0  0  0
 37103  1  0  0  0
 38 43  2  0  0  0
 38 46  1  0  0  0
 38 47  1  0  0  0
 39 64  1  0  0  0
 39 67  2  0  0  0
 40 52  1  0  0  0
 40 53  2  0  0  0
 40 58  1  0  0  0
 41104  1  0  0  0
 41105  1  0  0  0
 41106  1  0  0  0
 41 48  1  0  0  0
 42 43  1  0  0  0
 42 66  1  0  0  0
 42107  1  0  0  0
 42108  1  0  0  0
 43 44  1  0  0  0
 44109  1  0  0  0
 45 46  2  0  0  0
 45110  1  0  0  0
 46111  1  0  0  0
 47112  1  0  0  0
 47113  1  0  0  0
 48 56  1  0  0  0
 48 65  1  0  0  0
 48114  1  0  0  0
 49 50  1  0  0  0
 49 53  1  0  0  0
 49 64  1  0  0  0
 49115  1  0  0  0
 50 51  1  0  0  0
 50116  1  0  0  0
 50117  1  0  0  0
 51 52  1  0  0  0
 51118  1  0  0  0
 51119  1  0  0  0
 52120  1  0  0  0
 52121  1  0  0  0
 53 54  1  0  0  0
 54 55  2  0  0  0
 54122  1  0  0  0
 55 57  1  0  0  0
 55123  1  0  0  0
 56 69  2  0  0  0
 57 58  2  0  0  0
 57124  1  0  0  0
 58125  1  0  0  0
 59 60  1  0  0  0
 59 61  1  0  0  0
 59 62  1  0  0  0
 60126  1  0  0  0
 60127  1  0  0  0
 60128  1  0  0  0
 61129  1  0  0  0
 61130  1  0  0  0
 61131  1  0  0  0
 62132  1  0  0  0
 62133  1  0  0  0
 62134  1  0  0  0
 63 65  1  0  0  0
 63135  1  0  0  0
 63136  1  0  0  0
 63137  1  0  0  0
 64138  1  0  0  0
 65139  1  0  0  0
 68 79  1  0  0  0
 71 73  1  0  0  0
 71 74  2  0  0  0
 71140  1  0  0  0
 72 73  2  0  0  0
 72 80  1  0  0  0
 72141  1  0  0  0
 73 75  1  0  0  0
 74 76  1  0  0  0
 74 80  1  0  0  0
 75 78  2  0  0  0
 75142  1  0  0  0
 76 77  2  0  0  0
 76143  1  0  0  0
 77144  1  0  0  0
 78 79  1  0  0  0
 78145  1  0  0  0
 79146  1  0  0  0
 79147  1  0  0  0
M  ISO  4   1 100  68 101  77 100  79 101
M  END
> <chiral flag>
0

> <version>
0

> <s_m_source_file>
/data/baiqing/PycharmProjects/Reinvent-master-3.2/result/LINK_invent/BTK/process_docking_weight1_custom_product_contain_oxygen_bond_distance_aromatic_linkinvent_7_9_3/rearranged_h_0118.sdf

> <i_m_source_file_index>
89

> <r_mmod_Potential_Energy-OPLS-2005>
309.717010498047

> <r_mmod_Stretch_Energy-OPLS-2005>
129.03742980957

> <r_mmod_Bend_Energy-OPLS-2005>
296.834686279297

> <r_mmod_Torsional_Energy-OPLS-2005>
197.271423339844

> <r_mmod_Improper_Torsional_Energy-OPLS-2005>
2.24491095542908

> <r_mmod_Van_der_Waal_Energy-OPLS-2005>
125.740646362305

> <r_mmod_Electrostatic_Energy-OPLS-2005>
-330.975158691406

> <r_mmod_Solvation_Energy-OPLS-2005>
-205.302276611328

> <b_mmod_Minimization_Converged-OPLS-2005>
0

> <r_mmod_RMS_Derivative-OPLS-2005>
1.29950249195099

$$$$
90
                    3D
 Structure written by MMmdl.
147155  0  0  1  0            999 V2000
  -30.5706  -14.7892   20.4475 C   0  0  0  0  0  0
  -30.4445  -12.4781   19.4844 C   0  0  0  0  0  0
  -29.5178  -12.5131   18.2455 C   0  0  0  0  0  0
  -28.0423  -12.3272   18.6533 C   0  0  0  0  0  0
  -27.6434  -13.2272   19.8520 C   0  0  2  0  0  0
  -28.6866  -13.1472   20.9871 C   0  0  0  0  0  0
  -25.2532  -13.8185   20.5697 C   0  0  0  0  0  0
  -24.1813  -13.0439   20.9205 C   0  0  0  0  0  0
  -24.6391  -11.6910   20.8747 C   0  0  0  0  0  0
  -23.9065  -10.4292   21.0410 C   0  0  0  0  0  0
  -24.3618   -9.4209   21.9185 C   0  0  0  0  0  0
  -23.6292   -8.2246   22.0754 C   0  0  0  0  0  0
  -22.4276   -8.0283   21.3543 C   0  0  0  0  0  0
  -21.9913   -9.0256   20.4646 C   0  0  0  0  0  0
  -22.7239  -10.2135   20.3056 C   0  0  0  0  0  0
  -21.6850   -6.0740   22.5275 C   0  0  0  0  0  0
  -21.4012   -6.5644   23.8209 C   0  0  0  0  0  0
  -21.3657   -5.6796   24.9169 C   0  0  0  0  0  0
  -21.6046   -4.3059   24.7219 C   0  0  0  0  0  0
  -21.8818   -3.8151   23.4341 C   0  0  0  0  0  0
  -21.9193   -4.6969   22.3398 C   0  0  0  0  0  0
  -22.7836  -13.5230   21.1863 C   0  0  0  0  0  0
  -22.1661   -4.2159   21.0975 F   0  0  0  0  0  0
  -21.5630   -3.4539   25.7730 F   0  0  0  0  0  0
  -29.9872  -13.5339   20.4214 N   0  0  0  0  0  0
  -26.2946  -12.9380   20.3276 N   0  0  0  0  0  0
  -25.9318  -11.6528   20.5744 N   0  0  0  0  0  0
  -22.0482  -12.8218   22.0419 N   0  0  0  0  0  0
  -25.4251  -15.1905   20.4126 N   0  0  0  0  0  0
  -31.7576  -14.8901   20.1194 O   0  0  0  0  0  0
  -21.6636   -6.8882   21.4238 O   0  0  0  0  0  0
  -22.3520  -14.5535   20.6708 O   0  0  0  0  0  0
  -24.6348  -31.8516   23.1960 C   0  0  0  0  0  0
  -25.9159  -32.4733   23.8317 C   0  0  1  0  0  0
  -27.2148  -27.2334   20.1350 C   0  0  0  0  0  0
  -25.5945  -33.8540   24.2229 N   0  0  0  0  0  0
  -23.4338  -30.4754   21.5394 C   0  0  2  0  0  0
  -24.8818  -28.9200   20.1091 C   0  0  0  0  0  0
  -22.7523  -29.4587   22.4884 C   0  0  0  0  0  0
  -18.0298  -28.1389   22.8479 C   0  0  0  0  0  0
  -24.1493  -36.7271   23.2641 C   0  0  0  0  0  0
  -25.9827  -30.7562   21.3818 C   0  0  0  0  0  0
  -26.0558  -29.3770   20.7228 C   0  0  0  0  0  0
  -27.2276  -28.5469   20.7245 C   0  0  0  0  0  0
  -26.0241  -26.8612   19.4745 C   0  0  0  0  0  0
  -24.8729  -27.6706   19.4725 C   0  0  0  0  0  0
  -23.6538  -29.8097   20.1558 C   0  0  0  0  0  0
  -25.4121  -36.3052   24.0318 C   0  0  1  0  0  0
  -20.5904  -28.3700   23.1254 C   0  0  2  0  0  0
  -20.6778  -26.9413   22.5404 C   0  0  0  0  0  0
  -19.5753  -26.6380   21.5212 C   0  0  0  0  0  0
  -18.1936  -26.7929   22.1623 C   0  0  0  0  0  0
  -19.1552  -28.8860   23.2860 C   0  0  0  0  0  0
  -18.9474  -30.1457   23.8883 C   0  0  0  0  0  0
  -17.6470  -30.6587   24.0559 C   0  0  0  0  0  0
  -25.9069  -34.9428   23.5071 C   0  0  0  0  0  0
  -16.5362  -29.9083   23.6339 C   0  0  0  0  0  0
  -16.7282  -28.6499   23.0358 C   0  0  0  0  0  0
  -26.4515  -31.6576   25.0726 C   0  0  0  0  0  0
  -25.3722  -31.3750   26.1439 C   0  0  0  0  0  0
  -27.0359  -30.2982   24.6248 C   0  0  0  0  0  0
  -27.6065  -32.4320   25.7497 C   0  0  0  0  0  0
  -27.5569  -37.1791   24.8465 C   0  0  0  0  0  0
  -21.4225  -29.3045   22.3634 N   0  0  0  0  0  0
  -26.4285  -37.3758   23.9404 N   0  0  0  0  0  0
  -24.7028  -31.0462   22.0950 N   0  0  0  0  0  0
  -23.4205  -28.8125   23.2993 O   0  0  0  0  0  0
  -28.2702  -26.2841   20.1746 O   0  0  0  0  0  0
  -26.5646  -34.8901   22.4646 O   0  0  0  0  0  0
  -23.5488  -32.1353   23.7236 O   0  0  0  0  0  0
  -27.7945  -18.5844   21.0856 C   0  0  0  0  0  0
  -27.3443  -19.9369   21.1240 C   0  0  0  0  0  0
  -29.0928  -18.5625   20.6635 C   0  0  0  0  0  0
  -28.3515  -20.7852   20.7401 C   0  0  0  0  0  0
  -29.9651  -17.3529   20.4722 C   0  0  0  0  0  0
  -28.1857  -22.2899   20.7174 C   0  0  0  0  0  0
  -29.6838  -16.0008   20.6927 C   0  0  0  0  0  0
  -28.6914  -23.5412   20.3716 C   0  0  0  0  0  0
  -27.9258  -24.9131   20.7208 C   0  0  0  0  0  0
  -29.4606  -19.9379   20.4276 O   0  0  0  0  0  0
  -31.4824  -12.6198   19.1796 H   0  0  0  0  0  0
  -30.4098  -11.5005   19.9668 H   0  0  0  0  0  0
  -29.8096  -11.7397   17.5340 H   0  0  0  0  0  0
  -29.6359  -13.4656   17.7272 H   0  0  0  0  0  0
  -27.9044  -11.2785   18.9200 H   0  0  0  0  0  0
  -27.3858  -12.5124   17.8024 H   0  0  0  0  0  0
  -27.6393  -14.2492   19.4737 H   0  0  0  0  0  0
  -28.7335  -12.1354   21.3928 H   0  0  0  0  0  0
  -28.4096  -13.7841   21.8278 H   0  0  0  0  0  0
  -25.2763   -9.5689   22.4759 H   0  0  0  0  0  0
  -24.0002   -7.4641   22.7473 H   0  0  0  0  0  0
  -21.0847   -8.8777   19.8950 H   0  0  0  0  0  0
  -22.3699  -10.9678   19.6169 H   0  0  0  0  0  0
  -21.2000   -7.6149   23.9715 H   0  0  0  0  0  0
  -21.1483   -6.0522   25.9073 H   0  0  0  0  0  0
  -22.0599   -2.7614   23.2831 H   0  0  0  0  0  0
  -22.4098  -11.9871   22.4798 H   0  0  0  0  0  0
  -21.1105  -13.1243   22.2632 H   0  0  0  0  0  0
  -24.6575  -15.8452   20.5182 H   0  0  0  0  0  0
  -26.2691  -15.6245   20.0627 H   0  0  0  0  0  0
  -26.7216  -32.5367   23.1045 H   0  0  0  0  0  0
  -25.0090  -33.9675   25.0371 H   0  0  0  0  0  0
  -22.7325  -31.2987   21.3901 H   0  0  0  0  0  0
  -23.3753  -35.9605   23.3306 H   0  0  0  0  0  0
  -24.3583  -36.8906   22.2055 H   0  0  0  0  0  0
  -23.7249  -37.6473   23.6674 H   0  0  0  0  0  0
  -26.1281  -31.5161   20.6130 H   0  0  0  0  0  0
  -26.8577  -30.8028   22.0185 H   0  0  0  0  0  0
  -28.1229  -28.8894   21.2241 H   0  0  0  0  0  0
  -25.9685  -25.9088   18.9669 H   0  0  0  0  0  0
  -23.9780  -27.3182   18.9789 H   0  0  0  0  0  0
  -23.7800  -30.5862   19.4002 H   0  0  0  0  0  0
  -22.7722  -29.2448   19.8498 H   0  0  0  0  0  0
  -25.1300  -36.1892   25.0808 H   0  0  0  0  0  0
  -20.9993  -28.3276   24.1376 H   0  0  0  0  0  0
  -20.5679  -26.2303   23.3607 H   0  0  0  0  0  0
  -21.6640  -26.7430   22.1192 H   0  0  0  0  0  0
  -19.6924  -25.6293   21.1238 H   0  0  0  0  0  0
  -19.6699  -27.3188   20.6742 H   0  0  0  0  0  0
  -17.4203  -26.6675   21.4028 H   0  0  0  0  0  0
  -18.0335  -26.0077   22.9021 H   0  0  0  0  0  0
  -19.7953  -30.7275   24.2243 H   0  0  0  0  0  0
  -17.5031  -31.6271   24.5155 H   0  0  0  0  0  0
  -15.5361  -30.2974   23.7679 H   0  0  0  0  0  0
  -15.8683  -28.0811   22.7083 H   0  0  0  0  0  0
  -24.5899  -30.7092   25.7773 H   0  0  0  0  0  0
  -24.8910  -32.2927   26.4833 H   0  0  0  0  0  0
  -25.8027  -30.8950   27.0235 H   0  0  0  0  0  0
  -26.2951  -29.6725   24.1259 H   0  0  0  0  0  0
  -27.4010  -29.7263   25.4788 H   0  0  0  0  0  0
  -27.8841  -30.4239   23.9515 H   0  0  0  0  0  0
  -27.2694  -33.3662   26.2001 H   0  0  0  0  0  0
  -28.3922  -32.6814   25.0351 H   0  0  0  0  0  0
  -28.0674  -31.8483   26.5480 H   0  0  0  0  0  0
  -28.2583  -38.0089   24.7503 H   0  0  0  0  0  0
  -28.1068  -36.2619   24.6301 H   0  0  0  0  0  0
  -27.2284  -37.1445   25.8868 H   0  0  0  0  0  0
  -20.9407  -29.8775   21.6848 H   0  0  0  0  0  0
  -26.0159  -38.2825   24.1425 H   0  0  0  0  0  0
  -27.2139  -17.7107   21.3454 H   0  0  0  0  0  0
  -26.3575  -20.2598   21.4247 H   0  0  0  0  0  0
  -30.9516  -17.5793   20.0927 H   0  0  0  0  0  0
  -27.2410  -22.4738   21.2098 H   0  0  0  0  0  0
  -28.6949  -15.8061   21.0743 H   0  0  0  0  0  0
  -29.6452  -23.6234   19.8698 H   0  0  0  0  0  0
  -28.0206  -25.0205   21.8013 H   0  0  0  0  0  0
  -26.8682  -24.6979   20.5744 H   0  0  0  0  0  0
  1 25  1  0  0  0
  1 30  2  0  0  0
  1 77  1  0  0  0
  2  3  1  0  0  0
  2 25  1  0  0  0
  2 81  1  0  0  0
  2 82  1  0  0  0
  3  4  1  0  0  0
  3 83  1  0  0  0
  3 84  1  0  0  0
  4  5  1  0  0  0
  4 85  1  0  0  0
  4 86  1  0  0  0
  5  6  1  0  0  0
  5 26  1  0  0  0
  5 87  1  0  0  0
  6 25  1  0  0  0
  6 88  1  0  0  0
  6 89  1  0  0  0
  7  8  2  0  0  0
  7 26  1  0  0  0
  7 29  1  0  0  0
  8  9  1  0  0  0
  8 22  1  0  0  0
  9 10  1  0  0  0
  9 27  2  0  0  0
 10 11  2  0  0  0
 10 15  1  0  0  0
 11 12  1  0  0  0
 11 90  1  0  0  0
 12 13  2  0  0  0
 12 91  1  0  0  0
 13 14  1  0  0  0
 13 31  1  0  0  0
 14 15  2  0  0  0
 14 92  1  0  0  0
 15 93  1  0  0  0
 16 17  2  0  0  0
 16 21  1  0  0  0
 16 31  1  0  0  0
 17 18  1  0  0  0
 17 94  1  0  0  0
 18 19  2  0  0  0
 18 95  1  0  0  0
 19 20  1  0  0  0
 19 24  1  0  0  0
 20 21  2  0  0  0
 20 96  1  0  0  0
 21 23  1  0  0  0
 22 28  1  0  0  0
 22 32  2  0  0  0
 26 27  1  0  0  0
 28 97  1  0  0  0
 28 98  1  0  0  0
 29 99  1  0  0  0
 29100  1  0  0  0
 33 34  1  0  0  0
 33 66  1  0  0  0
 33 70  2  0  0  0
 34 36  1  0  0  0
 34 59  1  0  0  0
 34101  1  0  0  0
 35 44  2  0  0  0
 35 45  1  0  0  0
 35 68  1  0  0  0
 36 56  1  0  0  0
 36102  1  0  0  0
 37 39  1  0  0  0
 37 47  1  0  0  0
 37 66  1  0  0  0
 37103  1  0  0  0
 38 43  2  0  0  0
 38 46  1  0  0  0
 38 47  1  0  0  0
 39 64  1  0  0  0
 39 67  2  0  0  0
 40 52  1  0  0  0
 40 53  2  0  0  0
 40 58  1  0  0  0
 41104  1  0  0  0
 41105  1  0  0  0
 41106  1  0  0  0
 41 48  1  0  0  0
 42 43  1  0  0  0
 42 66  1  0  0  0
 42107  1  0  0  0
 42108  1  0  0  0
 43 44  1  0  0  0
 44109  1  0  0  0
 45 46  2  0  0  0
 45110  1  0  0  0
 46111  1  0  0  0
 47112  1  0  0  0
 47113  1  0  0  0
 48 56  1  0  0  0
 48 65  1  0  0  0
 48114  1  0  0  0
 49 50  1  0  0  0
 49 53  1  0  0  0
 49 64  1  0  0  0
 49115  1  0  0  0
 50 51  1  0  0  0
 50116  1  0  0  0
 50117  1  0  0  0
 51 52  1  0  0  0
 51118  1  0  0  0
 51119  1  0  0  0
 52120  1  0  0  0
 52121  1  0  0  0
 53 54  1  0  0  0
 54 55  2  0  0  0
 54122  1  0  0  0
 55 57  1  0  0  0
 55123  1  0  0  0
 56 69  2  0  0  0
 57 58  2  0  0  0
 57124  1  0  0  0
 58125  1  0  0  0
 59 60  1  0  0  0
 59 61  1  0  0  0
 59 62  1  0  0  0
 60126  1  0  0  0
 60127  1  0  0  0
 60128  1  0  0  0
 61129  1  0  0  0
 61130  1  0  0  0
 61131  1  0  0  0
 62132  1  0  0  0
 62133  1  0  0  0
 62134  1  0  0  0
 63 65  1  0  0  0
 63135  1  0  0  0
 63136  1  0  0  0
 63137  1  0  0  0
 64138  1  0  0  0
 65139  1  0  0  0
 68 79  1  0  0  0
 71 72  1  0  0  0
 71 73  2  0  0  0
 71140  1  0  0  0
 72 74  2  0  0  0
 72141  1  0  0  0
 73 75  1  0  0  0
 73 80  1  0  0  0
 74 76  1  0  0  0
 74 80  1  0  0  0
 75 77  2  0  0  0
 75142  1  0  0  0
 76 78  2  0  0  0
 76143  1  0  0  0
 77144  1  0  0  0
 78 79  1  0  0  0
 78145  1  0  0  0
 79146  1  0  0  0
 79147  1  0  0  0
M  ISO  4   1 100  68 101  77 100  79 101
M  END
> <chiral flag>
0

> <version>
0

> <s_m_source_file>
/data/baiqing/PycharmProjects/Reinvent-master-3.2/result/LINK_invent/BTK/process_docking_weight1_custom_product_contain_oxygen_bond_distance_aromatic_linkinvent_7_9_3/rearranged_h_0118.sdf

> <i_m_source_file_index>
90

> <r_mmod_Potential_Energy-OPLS-2005>
257.145599365234

> <r_mmod_Stretch_Energy-OPLS-2005>
139.428649902344

> <r_mmod_Bend_Energy-OPLS-2005>
230.124130249023

> <r_mmod_Torsional_Energy-OPLS-2005>
201.699996948242

> <r_mmod_Improper_Torsional_Energy-OPLS-2005>
4.14584875106812

> <r_mmod_Van_der_Waal_Energy-OPLS-2005>
122.240043640137

> <r_mmod_Electrostatic_Energy-OPLS-2005>
-344.71923828125

> <r_mmod_Solvation_Energy-OPLS-2005>
-201.452346801758

> <b_mmod_Minimization_Converged-OPLS-2005>
0

> <r_mmod_RMS_Derivative-OPLS-2005>
1.25385916233063

$$$$
91
                    3D
 Structure written by MMmdl.
159167  0  0  1  0            999 V2000
  -30.6172  -14.6974   20.4806 C   0  0  0  0  0  0
  -30.4404  -12.4252   19.4621 C   0  0  0  0  0  0
  -29.5106  -12.5053   18.2303 C   0  0  0  0  0  0
  -28.0353  -12.3332   18.6434 C   0  0  0  0  0  0
  -27.6467  -13.2173   19.8575 C   0  0  2  0  0  0
  -28.6954  -13.1157   20.9890 C   0  0  0  0  0  0
  -25.2440  -13.7918   20.5589 C   0  0  0  0  0  0
  -24.1766  -13.0248   20.9230 C   0  0  0  0  0  0
  -24.6405  -11.6767   20.8796 C   0  0  0  0  0  0
  -23.9076  -10.4188   21.0436 C   0  0  0  0  0  0
  -24.3618   -9.4114   21.9216 C   0  0  0  0  0  0
  -23.6275   -8.2170   22.0774 C   0  0  0  0  0  0
  -22.4260   -8.0242   21.3551 C   0  0  0  0  0  0
  -21.9903   -9.0217   20.4651 C   0  0  0  0  0  0
  -22.7255  -10.2075   20.3067 C   0  0  0  0  0  0
  -21.6830   -6.0722   22.5285 C   0  0  0  0  0  0
  -21.3997   -6.5631   23.8218 C   0  0  0  0  0  0
  -21.3655   -5.6786   24.9184 C   0  0  0  0  0  0
  -21.6042   -4.3050   24.7232 C   0  0  0  0  0  0
  -21.8820   -3.8139   23.4353 C   0  0  0  0  0  0
  -21.9184   -4.6953   22.3409 C   0  0  0  0  0  0
  -22.7804  -13.5105   21.1876 C   0  0  0  0  0  0
  -22.1657   -4.2143   21.0986 F   0  0  0  0  0  0
  -21.5630   -3.4534   25.7745 F   0  0  0  0  0  0
  -30.0060  -13.4666   20.4178 N   0  0  0  0  0  0
  -26.2959  -12.9226   20.3302 N   0  0  0  0  0  0
  -25.9350  -11.6385   20.5811 N   0  0  0  0  0  0
  -22.0428  -12.8149   22.0451 N   0  0  0  0  0  0
  -25.3870  -15.1518   20.3731 N   0  0  0  0  0  0
  -31.7924  -14.8306   20.1263 O   0  0  0  0  0  0
  -21.6607   -6.8857   21.4247 O   0  0  0  0  0  0
  -22.3529  -14.5435   20.6725 O   0  0  0  0  0  0
  -24.6259  -31.8583   23.2014 C   0  0  0  0  0  0
  -25.9099  -32.4772   23.8346 C   0  0  1  0  0  0
  -27.2405  -27.3250   20.1169 C   0  0  0  0  0  0
  -25.5922  -33.8571   24.2281 N   0  0  0  0  0  0
  -23.4200  -30.4812   21.5431 C   0  0  2  0  0  0
  -24.8694  -28.9332   20.1124 C   0  0  0  0  0  0
  -22.7474  -29.4615   22.4928 C   0  0  0  0  0  0
  -18.0293  -28.1376   22.8484 C   0  0  0  0  0  0
  -24.1487  -36.7289   23.2640 C   0  0  0  0  0  0
  -25.9601  -30.7917   21.3701 C   0  0  0  0  0  0
  -26.0369  -29.4183   20.7146 C   0  0  0  0  0  0
  -27.2234  -28.6271   20.7047 C   0  0  0  0  0  0
  -26.0451  -26.8866   19.4997 C   0  0  0  0  0  0
  -24.8751  -27.6719   19.4961 C   0  0  0  0  0  0
  -23.6359  -29.8129   20.1593 C   0  0  0  0  0  0
  -25.4111  -36.3076   24.0336 C   0  0  1  0  0  0
  -20.5889  -28.3669   23.1285 C   0  0  2  0  0  0
  -20.6779  -26.9390   22.5407 C   0  0  0  0  0  0
  -19.5759  -26.6373   21.5204 C   0  0  0  0  0  0
  -18.1939  -26.7923   22.1615 C   0  0  0  0  0  0
  -19.1545  -28.8840   23.2882 C   0  0  0  0  0  0
  -18.9469  -30.1447   23.8887 C   0  0  0  0  0  0
  -17.6470  -30.6579   24.0560 C   0  0  0  0  0  0
  -25.9046  -34.9446   23.5107 C   0  0  0  0  0  0
  -16.5358  -29.9077   23.6332 C   0  0  0  0  0  0
  -16.7280  -28.6498   23.0343 C   0  0  0  0  0  0
  -26.4494  -31.6579   25.0712 C   0  0  0  0  0  0
  -25.3740  -31.3714   26.1446 C   0  0  0  0  0  0
  -27.0337  -30.3012   24.6141 C   0  0  0  0  0  0
  -27.6053  -32.4306   25.7489 C   0  0  0  0  0  0
  -27.5577  -37.1800   24.8469 C   0  0  0  0  0  0
  -21.4189  -29.3032   22.3682 N   0  0  0  0  0  0
  -26.4288  -37.3768   23.9414 N   0  0  0  0  0  0
  -24.6874  -31.0606   22.0954 N   0  0  0  0  0  0
  -23.4205  -28.8152   23.2997 O   0  0  0  0  0  0
  -28.3796  -26.5010   20.1575 O   0  0  0  0  0  0
  -26.5610  -34.8919   22.4670 O   0  0  0  0  0  0
  -23.5426  -32.1369   23.7360 O   0  0  0  0  0  0
  -28.9126  -19.5296   20.8180 C   0  0  0  0  0  0
  -31.1477  -17.9287   20.3580 C   0  0  0  0  0  0
  -28.8136  -18.1075   20.8838 C   0  0  0  0  0  0
  -31.2315  -19.3595   20.2707 C   0  0  0  0  0  0
  -30.1052  -20.2111   20.4912 C   0  0  0  0  0  0
  -29.9389  -17.2429   20.6657 C   0  0  0  0  0  0
  -29.2640  -22.5269   20.3521 C   0  0  0  0  0  0
  -32.5777  -19.9821   19.9398 C   0  0  0  0  0  0
  -26.4248  -17.9969   20.0769 C   0  0  0  0  0  0
  -27.4197  -17.5860   21.1818 C   0  0  0  0  0  0
  -29.4620  -24.0954   20.3621 C   0  0  0  0  0  0
  -28.2113  -25.0318   20.0526 C   0  0  0  0  0  0
  -30.2274  -21.6499   20.4293 N   0  0  0  0  0  0
  -29.8026  -15.7716   20.7725 N   0  0  0  0  0  0
  -31.4802  -12.5539   19.1569 H   0  0  0  0  0  0
  -30.3852  -11.4382   19.9249 H   0  0  0  0  0  0
  -29.7845  -11.7415   17.5011 H   0  0  0  0  0  0
  -29.6422  -13.4663   17.7307 H   0  0  0  0  0  0
  -27.8854  -11.2820   18.8920 H   0  0  0  0  0  0
  -27.3782  -12.5405   17.7980 H   0  0  0  0  0  0
  -27.6466  -14.2459   19.4970 H   0  0  0  0  0  0
  -28.7218  -12.1047   21.3988 H   0  0  0  0  0  0
  -28.4337  -13.7694   21.8224 H   0  0  0  0  0  0
  -25.2761   -9.5580   22.4794 H   0  0  0  0  0  0
  -23.9965   -7.4554   22.7493 H   0  0  0  0  0  0
  -21.0834   -8.8751   19.8956 H   0  0  0  0  0  0
  -22.3742  -10.9625   19.6174 H   0  0  0  0  0  0
  -21.1988   -7.6138   23.9722 H   0  0  0  0  0  0
  -21.1478   -6.0518   25.9087 H   0  0  0  0  0  0
  -22.0606   -2.7602   23.2854 H   0  0  0  0  0  0
  -22.4012  -11.9795   22.4837 H   0  0  0  0  0  0
  -21.1059  -13.1219   22.2659 H   0  0  0  0  0  0
  -24.5886  -15.7712   20.4469 H   0  0  0  0  0  0
  -26.1936  -15.5927   19.9545 H   0  0  0  0  0  0
  -26.7161  -32.5440   23.1089 H   0  0  0  0  0  0
  -25.0087  -33.9709   25.0439 H   0  0  0  0  0  0
  -22.7144  -31.3020   21.3988 H   0  0  0  0  0  0
  -23.3751  -35.9619   23.3301 H   0  0  0  0  0  0
  -24.3587  -36.8906   22.2056 H   0  0  0  0  0  0
  -23.7246  -37.6496   23.6656 H   0  0  0  0  0  0
  -26.0909  -31.5547   20.6016 H   0  0  0  0  0  0
  -26.8415  -30.8417   21.9972 H   0  0  0  0  0  0
  -28.1198  -29.0001   21.1796 H   0  0  0  0  0  0
  -25.9888  -25.9230   19.0166 H   0  0  0  0  0  0
  -23.9805  -27.2938   19.0208 H   0  0  0  0  0  0
  -23.7546  -30.5884   19.4015 H   0  0  0  0  0  0
  -22.7565  -29.2413   19.8569 H   0  0  0  0  0  0
  -25.1293  -36.1923   25.0832 H   0  0  0  0  0  0
  -20.9987  -28.3227   24.1401 H   0  0  0  0  0  0
  -20.5664  -26.2272   23.3602 H   0  0  0  0  0  0
  -21.6650  -26.7408   22.1203 H   0  0  0  0  0  0
  -19.6917  -25.6283   21.1229 H   0  0  0  0  0  0
  -19.6704  -27.3192   20.6738 H   0  0  0  0  0  0
  -17.4206  -26.6663   21.4017 H   0  0  0  0  0  0
  -18.0343  -26.0072   22.9017 H   0  0  0  0  0  0
  -19.7942  -30.7274   24.2239 H   0  0  0  0  0  0
  -17.5022  -31.6258   24.5162 H   0  0  0  0  0  0
  -15.5359  -30.2975   23.7667 H   0  0  0  0  0  0
  -15.8680  -28.0826   22.7041 H   0  0  0  0  0  0
  -24.5922  -30.7049   25.7792 H   0  0  0  0  0  0
  -24.8922  -32.2877   26.4863 H   0  0  0  0  0  0
  -25.8080  -30.8911   27.0222 H   0  0  0  0  0  0
  -26.2901  -29.6762   24.1180 H   0  0  0  0  0  0
  -27.4083  -29.7259   25.4619 H   0  0  0  0  0  0
  -27.8747  -30.4330   23.9330 H   0  0  0  0  0  0
  -27.2666  -33.3611   26.2056 H   0  0  0  0  0  0
  -28.3872  -32.6849   25.0321 H   0  0  0  0  0  0
  -28.0699  -31.8428   26.5414 H   0  0  0  0  0  0
  -28.2591  -38.0097   24.7504 H   0  0  0  0  0  0
  -28.1074  -36.2628   24.6300 H   0  0  0  0  0  0
  -27.2298  -37.1455   25.8873 H   0  0  0  0  0  0
  -20.9362  -29.8774   21.6914 H   0  0  0  0  0  0
  -26.0170  -38.2845   24.1409 H   0  0  0  0  0  0
  -28.0267  -20.1087   21.0330 H   0  0  0  0  0  0
  -32.0452  -17.3532   20.1842 H   0  0  0  0  0  0
  -28.2160  -22.2240   20.2807 H   0  0  0  0  0  0
  -33.3528  -19.2286   19.8001 H   0  0  0  0  0  0
  -32.8961  -20.6440   20.7457 H   0  0  0  0  0  0
  -32.5096  -20.5684   19.0229 H   0  0  0  0  0  0
  -25.4033  -17.7329   20.3457 H   0  0  0  0  0  0
  -26.6674  -17.5146   19.1293 H   0  0  0  0  0  0
  -26.4134  -19.0712   19.8993 H   0  0  0  0  0  0
  -27.0953  -18.0082   22.1337 H   0  0  0  0  0  0
  -27.4209  -16.5091   21.3293 H   0  0  0  0  0  0
  -30.2547  -24.3356   19.6537 H   0  0  0  0  0  0
  -29.8535  -24.3635   21.3430 H   0  0  0  0  0  0
  -27.4021  -24.7391   20.7243 H   0  0  0  0  0  0
  -27.8756  -24.7977   19.0419 H   0  0  0  0  0  0
  -28.8775  -15.4689   21.0327 H   0  0  0  0  0  0
  1 25  1  0  0  0
  1 30  2  0  0  0
  1 84  1  0  0  0
  2  3  1  0  0  0
  2 25  1  0  0  0
  2 85  1  0  0  0
  2 86  1  0  0  0
  3  4  1  0  0  0
  3 87  1  0  0  0
  3 88  1  0  0  0
  4  5  1  0  0  0
  4 89  1  0  0  0
  4 90  1  0  0  0
  5  6  1  0  0  0
  5 26  1  0  0  0
  5 91  1  0  0  0
  6 25  1  0  0  0
  6 92  1  0  0  0
  6 93  1  0  0  0
  7  8  2  0  0  0
  7 26  1  0  0  0
  7 29  1  0  0  0
  8  9  1  0  0  0
  8 22  1  0  0  0
  9 10  1  0  0  0
  9 27  2  0  0  0
 10 11  2  0  0  0
 10 15  1  0  0  0
 11 12  1  0  0  0
 11 94  1  0  0  0
 12 13  2  0  0  0
 12 95  1  0  0  0
 13 14  1  0  0  0
 13 31  1  0  0  0
 14 15  2  0  0  0
 14 96  1  0  0  0
 15 97  1  0  0  0
 16 17  2  0  0  0
 16 21  1  0  0  0
 16 31  1  0  0  0
 17 18  1  0  0  0
 17 98  1  0  0  0
 18 19  2  0  0  0
 18 99  1  0  0  0
 19 20  1  0  0  0
 19 24  1  0  0  0
 20 21  2  0  0  0
 20100  1  0  0  0
 21 23  1  0  0  0
 22 28  1  0  0  0
 22 32  2  0  0  0
 26 27  1  0  0  0
 28101  1  0  0  0
 28102  1  0  0  0
 29103  1  0  0  0
 29104  1  0  0  0
 33 34  1  0  0  0
 33 66  1  0  0  0
 33 70  2  0  0  0
 34 36  1  0  0  0
 34 59  1  0  0  0
 34105  1  0  0  0
 35 44  2  0  0  0
 35 45  1  0  0  0
 35 68  1  0  0  0
 36 56  1  0  0  0
 36106  1  0  0  0
 37 39  1  0  0  0
 37 47  1  0  0  0
 37 66  1  0  0  0
 37107  1  0  0  0
 38 43  2  0  0  0
 38 46  1  0  0  0
 38 47  1  0  0  0
 39 64  1  0  0  0
 39 67  2  0  0  0
 40 52  1  0  0  0
 40 53  2  0  0  0
 40 58  1  0  0  0
 41108  1  0  0  0
 41109  1  0  0  0
 41110  1  0  0  0
 41 48  1  0  0  0
 42 43  1  0  0  0
 42 66  1  0  0  0
 42111  1  0  0  0
 42112  1  0  0  0
 43 44  1  0  0  0
 44113  1  0  0  0
 45 46  2  0  0  0
 45114  1  0  0  0
 46115  1  0  0  0
 47116  1  0  0  0
 47117  1  0  0  0
 48 56  1  0  0  0
 48 65  1  0  0  0
 48118  1  0  0  0
 49 50  1  0  0  0
 49 53  1  0  0  0
 49 64  1  0  0  0
 49119  1  0  0  0
 50 51  1  0  0  0
 50120  1  0  0  0
 50121  1  0  0  0
 51 52  1  0  0  0
 51122  1  0  0  0
 51123  1  0  0  0
 52124  1  0  0  0
 52125  1  0  0  0
 53 54  1  0  0  0
 54 55  2  0  0  0
 54126  1  0  0  0
 55 57  1  0  0  0
 55127  1  0  0  0
 56 69  2  0  0  0
 57 58  2  0  0  0
 57128  1  0  0  0
 58129  1  0  0  0
 59 60  1  0  0  0
 59 61  1  0  0  0
 59 62  1  0  0  0
 60130  1  0  0  0
 60131  1  0  0  0
 60132  1  0  0  0
 61133  1  0  0  0
 61134  1  0  0  0
 61135  1  0  0  0
 62136  1  0  0  0
 62137  1  0  0  0
 62138  1  0  0  0
 63 65  1  0  0  0
 63139  1  0  0  0
 63140  1  0  0  0
 63141  1  0  0  0
 64142  1  0  0  0
 65143  1  0  0  0
 68 82  1  0  0  0
 71 73  2  0  0  0
 71 75  1  0  0  0
 71144  1  0  0  0
 72 74  1  0  0  0
 72 76  2  0  0  0
 72145  1  0  0  0
 73 76  1  0  0  0
 73 80  1  0  0  0
 74 75  2  0  0  0
 74 78  1  0  0  0
 75 83  1  0  0  0
 76 84  1  0  0  0
 77 81  1  0  0  0
 77 83  2  0  0  0
 77146  1  0  0  0
 78147  1  0  0  0
 78148  1  0  0  0
 78149  1  0  0  0
 79 80  1  0  0  0
 79150  1  0  0  0
 79151  1  0  0  0
 79152  1  0  0  0
 80153  1  0  0  0
 80154  1  0  0  0
 81 82  1  0  0  0
 81155  1  0  0  0
 81156  1  0  0  0
 82157  1  0  0  0
 82158  1  0  0  0
 84159  1  0  0  0
M  ISO  4   1 100  68 101  82 101  84 100
M  END
> <chiral flag>
0

> <version>
0

> <s_m_source_file>
/data/baiqing/PycharmProjects/Reinvent-master-3.2/result/LINK_invent/BTK/process_docking_weight1_custom_product_contain_oxygen_bond_distance_aromatic_linkinvent_7_9_3/rearranged_h_0118.sdf

> <i_m_source_file_index>
91

> <r_mmod_Potential_Energy-OPLS-2005>
34.8491325378418

> <r_mmod_Stretch_Energy-OPLS-2005>
89.2878341674805

> <r_mmod_Bend_Energy-OPLS-2005>
152.061553955078

> <r_mmod_Torsional_Energy-OPLS-2005>
209.246612548828

> <r_mmod_Improper_Torsional_Energy-OPLS-2005>
4.78695869445801

> <r_mmod_Van_der_Waal_Energy-OPLS-2005>
153.726470947266

> <r_mmod_Electrostatic_Energy-OPLS-2005>
-423.184631347656

> <r_mmod_Solvation_Energy-OPLS-2005>
-208.38752746582

> <b_mmod_Minimization_Converged-OPLS-2005>
0

> <r_mmod_RMS_Derivative-OPLS-2005>
1.04836106300354

$$$$
92
                    3D
 Structure written by MMmdl.
161170  0  0  1  0            999 V2000
  -30.5193  -14.9148   20.4215 C   0  0  0  0  0  0
  -30.4515  -12.5612   19.4886 C   0  0  0  0  0  0
  -29.5229  -12.5276   18.2513 C   0  0  0  0  0  0
  -28.0544  -12.3191   18.6699 C   0  0  0  0  0  0
  -27.6389  -13.2384   19.8468 C   0  0  2  0  0  0
  -28.6850  -13.2228   20.9831 C   0  0  0  0  0  0
  -25.2513  -13.8197   20.5713 C   0  0  0  0  0  0
  -24.1808  -13.0437   20.9234 C   0  0  0  0  0  0
  -24.6397  -11.6918   20.8746 C   0  0  0  0  0  0
  -23.9071  -10.4293   21.0404 C   0  0  0  0  0  0
  -24.3621   -9.4209   21.9183 C   0  0  0  0  0  0
  -23.6297   -8.2243   22.0749 C   0  0  0  0  0  0
  -22.4278   -8.0282   21.3536 C   0  0  0  0  0  0
  -21.9914   -9.0255   20.4639 C   0  0  0  0  0  0
  -22.7242  -10.2138   20.3052 C   0  0  0  0  0  0
  -21.6855   -6.0736   22.5274 C   0  0  0  0  0  0
  -21.4016   -6.5640   23.8206 C   0  0  0  0  0  0
  -21.3664   -5.6792   24.9171 C   0  0  0  0  0  0
  -21.6043   -4.3053   24.7220 C   0  0  0  0  0  0
  -21.8823   -3.8147   23.4340 C   0  0  0  0  0  0
  -21.9194   -4.6965   22.3399 C   0  0  0  0  0  0
  -22.7829  -13.5221   21.1885 C   0  0  0  0  0  0
  -22.1663   -4.2151   21.0977 F   0  0  0  0  0  0
  -21.5631   -3.4537   25.7734 F   0  0  0  0  0  0
  -29.9683  -13.6369   20.3968 N   0  0  0  0  0  0
  -26.2934  -12.9404   20.3274 N   0  0  0  0  0  0
  -25.9333  -11.6545   20.5751 N   0  0  0  0  0  0
  -22.0466  -12.8204   22.0431 N   0  0  0  0  0  0
  -25.4199  -15.1918   20.4121 N   0  0  0  0  0  0
  -31.7068  -15.0417   20.1016 O   0  0  0  0  0  0
  -21.6642   -6.8877   21.4236 O   0  0  0  0  0  0
  -22.3518  -14.5527   20.6737 O   0  0  0  0  0  0
  -24.6409  -31.8437   23.1871 C   0  0  0  0  0  0
  -25.9188  -32.4690   23.8261 C   0  0  1  0  0  0
  -27.2314  -27.1576   20.1489 C   0  0  0  0  0  0
  -25.5942  -33.8497   24.2188 N   0  0  0  0  0  0
  -23.4444  -30.4608   21.5297 C   0  0  2  0  0  0
  -24.8955  -28.8836   20.1059 C   0  0  0  0  0  0
  -22.7550  -29.4546   22.4848 C   0  0  0  0  0  0
  -18.0299  -28.1405   22.8491 C   0  0  0  0  0  0
  -24.1474  -36.7240   23.2650 C   0  0  0  0  0  0
  -25.9961  -30.7219   21.3830 C   0  0  0  0  0  0
  -26.0663  -29.3341   20.7258 C   0  0  0  0  0  0
  -27.2292  -28.4844   20.7334 C   0  0  0  0  0  0
  -26.0350  -26.7927   19.4947 C   0  0  0  0  0  0
  -24.8913  -27.6262   19.4761 C   0  0  0  0  0  0
  -23.6696  -29.7829   20.1494 C   0  0  0  0  0  0
  -25.4113  -36.3032   24.0326 C   0  0  1  0  0  0
  -20.5912  -28.3721   23.1241 C   0  0  2  0  0  0
  -20.6778  -26.9424   22.5410 C   0  0  0  0  0  0
  -19.5750  -26.6389   21.5217 C   0  0  0  0  0  0
  -18.1930  -26.7949   22.1627 C   0  0  0  0  0  0
  -19.1560  -28.8882   23.2863 C   0  0  0  0  0  0
  -18.9484  -30.1477   23.8889 C   0  0  0  0  0  0
  -17.6483  -30.6607   24.0562 C   0  0  0  0  0  0
  -25.9065  -34.9407   23.5068 C   0  0  0  0  0  0
  -16.5371  -29.9103   23.6339 C   0  0  0  0  0  0
  -16.7285  -28.6518   23.0370 C   0  0  0  0  0  0
  -26.4530  -31.6570   25.0706 C   0  0  0  0  0  0
  -25.3730  -31.3751   26.1412 C   0  0  0  0  0  0
  -27.0418  -30.2978   24.6288 C   0  0  0  0  0  0
  -27.6053  -32.4351   25.7490 C   0  0  0  0  0  0
  -27.5565  -37.1773   24.8474 C   0  0  0  0  0  0
  -21.4245  -29.3044   22.3604 N   0  0  0  0  0  0
  -26.4272  -37.3751   23.9424 N   0  0  0  0  0  0
  -24.7129  -31.0312   22.0884 N   0  0  0  0  0  0
  -23.4201  -28.8099   23.2998 O   0  0  0  0  0  0
  -28.3275  -26.2376   20.2593 O   0  0  0  0  0  0
  -26.5654  -34.8908   22.4648 O   0  0  0  0  0  0
  -23.5536  -32.1299   23.7107 O   0  0  0  0  0  0
  -30.5241  -18.4151   19.8332 C   0  0  0  0  0  0
  -28.5705  -18.2973   21.1305 C   0  0  0  0  0  0
  -30.3721  -19.8674   19.7634 C   0  0  0  0  0  0
  -28.4130  -19.7434   21.0952 C   0  0  0  0  0  0
  -29.3338  -20.6349   20.4358 C   0  0  0  0  0  0
  -29.6387  -17.5401   20.5416 C   0  0  0  0  0  0
  -30.3254  -22.5948   21.4693 C   0  0  0  0  0  0
  -29.8737  -23.7385   22.3633 C   0  0  0  0  0  0
  -28.3784  -23.7913   22.1052 C   0  0  0  0  0  0
  -28.2949  -23.3399   20.6476 C   0  0  2  0  0  0
  -31.3999  -20.6016   18.9153 C   0  0  0  0  0  0
  -27.2298  -20.3158   21.8521 C   0  0  0  0  0  0
  -28.4315  -24.7687   19.7673 C   0  0  0  0  0  0
  -29.3747  -22.1789   20.5958 N   0  0  0  0  0  0
  -29.6597  -16.0127   20.6625 N   0  0  0  0  0  0
  -31.4583  -22.1215   21.6022 O   0  0  0  0  0  0
  -31.4822  -12.7302   19.1730 H   0  0  0  0  0  0
  -30.4503  -11.5979   20.0015 H   0  0  0  0  0  0
  -29.8331  -11.7351   17.5688 H   0  0  0  0  0  0
  -29.6163  -13.4629   17.6968 H   0  0  0  0  0  0
  -27.9437  -11.2755   18.9667 H   0  0  0  0  0  0
  -27.3897  -12.4657   17.8178 H   0  0  0  0  0  0
  -27.6148  -14.2488   19.4376 H   0  0  0  0  0  0
  -28.7630  -12.2304   21.4291 H   0  0  0  0  0  0
  -28.3906  -13.8963   21.7894 H   0  0  0  0  0  0
  -25.2759   -9.5696   22.4768 H   0  0  0  0  0  0
  -24.0009   -7.4633   22.7468 H   0  0  0  0  0  0
  -21.0848   -8.8771   19.8942 H   0  0  0  0  0  0
  -22.3688  -10.9681   19.6171 H   0  0  0  0  0  0
  -21.2005   -7.6147   23.9714 H   0  0  0  0  0  0
  -21.1485   -6.0521   25.9079 H   0  0  0  0  0  0
  -22.0598   -2.7609   23.2837 H   0  0  0  0  0  0
  -22.4084  -11.9871   22.4822 H   0  0  0  0  0  0
  -21.1082  -13.1226   22.2619 H   0  0  0  0  0  0
  -24.6471  -15.8406   20.5165 H   0  0  0  0  0  0
  -26.2494  -15.6248   20.0277 H   0  0  0  0  0  0
  -26.7253  -32.5298   23.0990 H   0  0  0  0  0  0
  -25.0089  -33.9606   25.0334 H   0  0  0  0  0  0
  -22.7477  -31.2868   21.3729 H   0  0  0  0  0  0
  -23.3752  -35.9554   23.3307 H   0  0  0  0  0  0
  -24.3552  -36.8869   22.2063 H   0  0  0  0  0  0
  -23.7204  -37.6427   23.6685 H   0  0  0  0  0  0
  -26.1541  -31.4764   20.6113 H   0  0  0  0  0  0
  -26.8664  -30.7705   22.0261 H   0  0  0  0  0  0
  -28.1206  -28.8238   21.2423 H   0  0  0  0  0  0
  -25.9547  -25.8248   19.0240 H   0  0  0  0  0  0
  -23.9948  -27.2762   18.9826 H   0  0  0  0  0  0
  -23.8039  -30.5540   19.3902 H   0  0  0  0  0  0
  -22.7857  -29.2217   19.8401 H   0  0  0  0  0  0
  -25.1296  -36.1858   25.0817 H   0  0  0  0  0  0
  -21.0021  -28.3313   24.1357 H   0  0  0  0  0  0
  -20.5659  -26.2337   23.3633 H   0  0  0  0  0  0
  -21.6643  -26.7421   22.1212 H   0  0  0  0  0  0
  -19.6905  -25.6295   21.1255 H   0  0  0  0  0  0
  -19.6685  -27.3192   20.6741 H   0  0  0  0  0  0
  -17.4198  -26.6708   21.4026 H   0  0  0  0  0  0
  -18.0319  -26.0097   22.9027 H   0  0  0  0  0  0
  -19.7962  -30.7293   24.2254 H   0  0  0  0  0  0
  -17.5041  -31.6286   24.5167 H   0  0  0  0  0  0
  -15.5372  -30.3007   23.7675 H   0  0  0  0  0  0
  -15.8681  -28.0827   22.7109 H   0  0  0  0  0  0
  -24.5902  -30.7106   25.7738 H   0  0  0  0  0  0
  -24.8935  -32.2932   26.4814 H   0  0  0  0  0  0
  -25.8032  -30.8942   27.0205 H   0  0  0  0  0  0
  -26.3049  -29.6686   24.1292 H   0  0  0  0  0  0
  -27.4045  -29.7294   25.4862 H   0  0  0  0  0  0
  -27.8938  -30.4239   23.9607 H   0  0  0  0  0  0
  -27.2637  -33.3665   26.2018 H   0  0  0  0  0  0
  -28.3894  -32.6890   25.0344 H   0  0  0  0  0  0
  -28.0698  -31.8519   26.5450 H   0  0  0  0  0  0
  -28.2590  -38.0063   24.7528 H   0  0  0  0  0  0
  -28.1054  -36.2599   24.6298 H   0  0  0  0  0  0
  -27.2288  -37.1414   25.8877 H   0  0  0  0  0  0
  -20.9455  -29.8744   21.6775 H   0  0  0  0  0  0
  -26.0139  -38.2812   24.1449 H   0  0  0  0  0  0
  -31.3530  -17.9620   19.3059 H   0  0  0  0  0  0
  -27.8234  -17.7326   21.6704 H   0  0  0  0  0  0
  -30.3727  -24.6572   22.0555 H   0  0  0  0  0  0
  -30.1032  -23.5487   23.4121 H   0  0  0  0  0  0
  -27.9526  -24.7781   22.2854 H   0  0  0  0  0  0
  -27.8543  -23.0988   22.7630 H   0  0  0  0  0  0
  -27.3045  -22.9313   20.4546 H   0  0  0  0  0  0
  -31.0268  -21.5659   18.5688 H   0  0  0  0  0  0
  -31.6603  -20.0202   18.0301 H   0  0  0  0  0  0
  -32.3153  -20.7693   19.4825 H   0  0  0  0  0  0
  -26.5665  -19.5290   22.2122 H   0  0  0  0  0  0
  -27.5709  -20.8756   22.7205 H   0  0  0  0  0  0
  -26.6325  -20.9663   21.2152 H   0  0  0  0  0  0
  -27.8289  -24.6650   18.8660 H   0  0  0  0  0  0
  -29.4487  -24.7419   19.3763 H   0  0  0  0  0  0
  -28.7748  -15.6559   20.9878 H   0  0  0  0  0  0
  1 25  1  0  0  0
  1 30  2  0  0  0
  1 85  1  0  0  0
  2  3  1  0  0  0
  2 25  1  0  0  0
  2 87  1  0  0  0
  2 88  1  0  0  0
  3  4  1  0  0  0
  3 89  1  0  0  0
  3 90  1  0  0  0
  4  5  1  0  0  0
  4 91  1  0  0  0
  4 92  1  0  0  0
  5  6  1  0  0  0
  5 26  1  0  0  0
  5 93  1  0  0  0
  6 25  1  0  0  0
  6 94  1  0  0  0
  6 95  1  0  0  0
  7  8  2  0  0  0
  7 26  1  0  0  0
  7 29  1  0  0  0
  8  9  1  0  0  0
  8 22  1  0  0  0
  9 10  1  0  0  0
  9 27  2  0  0  0
 10 11  2  0  0  0
 10 15  1  0  0  0
 11 12  1  0  0  0
 11 96  1  0  0  0
 12 13  2  0  0  0
 12 97  1  0  0  0
 13 14  1  0  0  0
 13 31  1  0  0  0
 14 15  2  0  0  0
 14 98  1  0  0  0
 15 99  1  0  0  0
 16 17  2  0  0  0
 16 21  1  0  0  0
 16 31  1  0  0  0
 17 18  1  0  0  0
 17100  1  0  0  0
 18 19  2  0  0  0
 18101  1  0  0  0
 19 20  1  0  0  0
 19 24  1  0  0  0
 20 21  2  0  0  0
 20102  1  0  0  0
 21 23  1  0  0  0
 22 28  1  0  0  0
 22 32  2  0  0  0
 26 27  1  0  0  0
 28103  1  0  0  0
 28104  1  0  0  0
 29105  1  0  0  0
 29106  1  0  0  0
 33 34  1  0  0  0
 33 66  1  0  0  0
 33 70  2  0  0  0
 34 36  1  0  0  0
 34 59  1  0  0  0
 34107  1  0  0  0
 35 44  2  0  0  0
 35 45  1  0  0  0
 35 68  1  0  0  0
 36 56  1  0  0  0
 36108  1  0  0  0
 37 39  1  0  0  0
 37 47  1  0  0  0
 37 66  1  0  0  0
 37109  1  0  0  0
 38 43  2  0  0  0
 38 46  1  0  0  0
 38 47  1  0  0  0
 39 64  1  0  0  0
 39 67  2  0  0  0
 40 52  1  0  0  0
 40 53  2  0  0  0
 40 58  1  0  0  0
 41110  1  0  0  0
 41111  1  0  0  0
 41112  1  0  0  0
 41 48  1  0  0  0
 42 43  1  0  0  0
 42 66  1  0  0  0
 42113  1  0  0  0
 42114  1  0  0  0
 43 44  1  0  0  0
 44115  1  0  0  0
 45 46  2  0  0  0
 45116  1  0  0  0
 46117  1  0  0  0
 47118  1  0  0  0
 47119  1  0  0  0
 48 56  1  0  0  0
 48 65  1  0  0  0
 48120  1  0  0  0
 49 50  1  0  0  0
 49 53  1  0  0  0
 49 64  1  0  0  0
 49121  1  0  0  0
 50 51  1  0  0  0
 50122  1  0  0  0
 50123  1  0  0  0
 51 52  1  0  0  0
 51124  1  0  0  0
 51125  1  0  0  0
 52126  1  0  0  0
 52127  1  0  0  0
 53 54  1  0  0  0
 54 55  2  0  0  0
 54128  1  0  0  0
 55 57  1  0  0  0
 55129  1  0  0  0
 56 69  2  0  0  0
 57 58  2  0  0  0
 57130  1  0  0  0
 58131  1  0  0  0
 59 60  1  0  0  0
 59 61  1  0  0  0
 59 62  1  0  0  0
 60132  1  0  0  0
 60133  1  0  0  0
 60134  1  0  0  0
 61135  1  0  0  0
 61136  1  0  0  0
 61137  1  0  0  0
 62138  1  0  0  0
 62139  1  0  0  0
 62140  1  0  0  0
 63 65  1  0  0  0
 63141  1  0  0  0
 63142  1  0  0  0
 63143  1  0  0  0
 64144  1  0  0  0
 65145  1  0  0  0
 68 83  1  0  0  0
 71 73  2  0  0  0
 71 76  1  0  0  0
 71146  1  0  0  0
 72 74  1  0  0  0
 72 76  2  0  0  0
 72147  1  0  0  0
 73 75  1  0  0  0
 73 81  1  0  0  0
 74 75  2  0  0  0
 74 82  1  0  0  0
 75 84  1  0  0  0
 76 85  1  0  0  0
 77 78  1  0  0  0
 77 84  1  0  0  0
 77 86  2  0  0  0
 78 79  1  0  0  0
 78148  1  0  0  0
 78149  1  0  0  0
 79 80  1  0  0  0
 79150  1  0  0  0
 79151  1  0  0  0
 80 83  1  0  0  0
 80 84  1  0  0  0
 80152  1  0  0  0
 81153  1  0  0  0
 81154  1  0  0  0
 81155  1  0  0  0
 82156  1  0  0  0
 82157  1  0  0  0
 82158  1  0  0  0
 83159  1  0  0  0
 83160  1  0  0  0
 85161  1  0  0  0
M  ISO  4   1 100  68 101  83 101  85 100
M  END
> <chiral flag>
0

> <version>
0

> <s_m_source_file>
/data/baiqing/PycharmProjects/Reinvent-master-3.2/result/LINK_invent/BTK/process_docking_weight1_custom_product_contain_oxygen_bond_distance_aromatic_linkinvent_7_9_3/rearranged_h_0118.sdf

> <i_m_source_file_index>
92

> <r_mmod_Potential_Energy-OPLS-2005>
589.850280761719

> <r_mmod_Stretch_Energy-OPLS-2005>
238.03759765625

> <r_mmod_Bend_Energy-OPLS-2005>
328.084075927734

> <r_mmod_Torsional_Energy-OPLS-2005>
307.928558349609

> <r_mmod_Improper_Torsional_Energy-OPLS-2005>
6.66458511352539

> <r_mmod_Van_der_Waal_Energy-OPLS-2005>
127.088516235352

> <r_mmod_Electrostatic_Energy-OPLS-2005>
-362.720031738281

> <r_mmod_Solvation_Energy-OPLS-2005>
-224.127853393555

> <b_mmod_Minimization_Converged-OPLS-2005>
0

> <r_mmod_RMS_Derivative-OPLS-2005>
1.26472246646881

$$$$
93
                    3D
 Structure written by MMmdl.
151159  0  0  1  0            999 V2000
  -30.6320  -14.7487   20.4743 C   0  0  0  0  0  0
  -30.4302  -12.4664   19.4646 C   0  0  0  0  0  0
  -29.5053  -12.5057   18.2294 C   0  0  0  0  0  0
  -28.0335  -12.3273   18.6490 C   0  0  0  0  0  0
  -27.6386  -13.2340   19.8454 C   0  0  2  0  0  0
  -28.6865  -13.1824   20.9775 C   0  0  0  0  0  0
  -25.2501  -13.8204   20.5701 C   0  0  0  0  0  0
  -24.1798  -13.0443   20.9215 C   0  0  0  0  0  0
  -24.6393  -11.6922   20.8753 C   0  0  0  0  0  0
  -23.9073  -10.4294   21.0410 C   0  0  0  0  0  0
  -24.3623   -9.4208   21.9186 C   0  0  0  0  0  0
  -23.6296   -8.2244   22.0754 C   0  0  0  0  0  0
  -22.4279   -8.0282   21.3544 C   0  0  0  0  0  0
  -21.9917   -9.0257   20.4646 C   0  0  0  0  0  0
  -22.7248  -10.2135   20.3057 C   0  0  0  0  0  0
  -21.6854   -6.0735   22.5279 C   0  0  0  0  0  0
  -21.4014   -6.5640   23.8212 C   0  0  0  0  0  0
  -21.3660   -5.6793   24.9175 C   0  0  0  0  0  0
  -21.6045   -4.3056   24.7226 C   0  0  0  0  0  0
  -21.8819   -3.8146   23.4347 C   0  0  0  0  0  0
  -21.9193   -4.6963   22.3403 C   0  0  0  0  0  0
  -22.7819  -13.5219   21.1873 C   0  0  0  0  0  0
  -22.1661   -4.2148   21.0980 F   0  0  0  0  0  0
  -21.5630   -3.4539   25.7738 F   0  0  0  0  0  0
  -29.9818  -13.5371   20.3848 N   0  0  0  0  0  0
  -26.2925  -12.9414   20.3275 N   0  0  0  0  0  0
  -25.9323  -11.6554   20.5756 N   0  0  0  0  0  0
  -22.0468  -12.8204   22.0426 N   0  0  0  0  0  0
  -25.4184  -15.1930   20.4111 N   0  0  0  0  0  0
  -31.8300  -14.8154   20.1886 O   0  0  0  0  0  0
  -21.6642   -6.8879   21.4241 O   0  0  0  0  0  0
  -22.3501  -14.5524   20.6722 O   0  0  0  0  0  0
  -24.6350  -31.8548   23.1995 C   0  0  0  0  0  0
  -25.9167  -32.4751   23.8338 C   0  0  1  0  0  0
  -27.2099  -27.2380   20.1205 C   0  0  0  0  0  0
  -25.5959  -33.8554   24.2256 N   0  0  0  0  0  0
  -23.4316  -30.4816   21.5446 C   0  0  2  0  0  0
  -24.8762  -28.9345   20.1099 C   0  0  0  0  0  0
  -22.7521  -29.4608   22.4906 C   0  0  0  0  0  0
  -18.0300  -28.1389   22.8486 C   0  0  0  0  0  0
  -24.1492  -36.7277   23.2637 C   0  0  0  0  0  0
  -25.9829  -30.7608   21.3845 C   0  0  0  0  0  0
  -26.0536  -29.3840   20.7213 C   0  0  0  0  0  0
  -27.2240  -28.5503   20.7152 C   0  0  0  0  0  0
  -26.0025  -26.8754   19.4741 C   0  0  0  0  0  0
  -24.8578  -27.6887   19.4749 C   0  0  0  0  0  0
  -23.6500  -29.8243   20.1591 C   0  0  0  0  0  0
  -25.4120  -36.3065   24.0323 C   0  0  1  0  0  0
  -20.5907  -28.3705   23.1259 C   0  0  2  0  0  0
  -20.6788  -26.9421   22.5402 C   0  0  0  0  0  0
  -19.5758  -26.6385   21.5212 C   0  0  0  0  0  0
  -18.1940  -26.7931   22.1627 C   0  0  0  0  0  0
  -19.1554  -28.8866   23.2866 C   0  0  0  0  0  0
  -18.9471  -30.1465   23.8882 C   0  0  0  0  0  0
  -17.6468  -30.6587   24.0566 C   0  0  0  0  0  0
  -25.9065  -34.9437   23.5087 C   0  0  0  0  0  0
  -16.5358  -29.9084   23.6335 C   0  0  0  0  0  0
  -16.7285  -28.6504   23.0353 C   0  0  0  0  0  0
  -26.4517  -31.6581   25.0736 C   0  0  0  0  0  0
  -25.3725  -31.3747   26.1447 C   0  0  0  0  0  0
  -27.0365  -30.2988   24.6248 C   0  0  0  0  0  0
  -27.6065  -32.4324   25.7515 C   0  0  0  0  0  0
  -27.5578  -37.1799   24.8466 C   0  0  0  0  0  0
  -21.4226  -29.3052   22.3647 N   0  0  0  0  0  0
  -26.4290  -37.3767   23.9408 N   0  0  0  0  0  0
  -24.7027  -31.0500   22.0985 N   0  0  0  0  0  0
  -23.4214  -28.8135   23.3001 O   0  0  0  0  0  0
  -28.2769  -26.2947   20.1813 O   0  0  0  0  0  0
  -26.5629  -34.8913   22.4651 O   0  0  0  0  0  0
  -23.5493  -32.1379   23.7275 O   0  0  0  0  0  0
  -30.5504  -20.7099   19.7598 C   0  0  0  0  0  0
  -29.3330  -20.9378   20.3363 C   0  0  0  0  0  0
  -28.9564  -19.6310   20.8853 C   0  0  0  0  0  0
  -29.9769  -18.7046   20.6194 C   0  0  0  0  0  0
  -28.5675  -22.2865   20.3732 C   0  0  0  0  0  0
  -28.9189  -23.6055   20.0967 C   0  0  0  0  0  0
  -27.7050  -19.3476   21.6736 C   0  0  0  0  0  0
  -30.4528  -17.2739   21.1241 C   0  0  0  0  0  0
  -27.9119  -24.8379   19.9892 C   0  0  0  0  0  0
  -29.9041  -15.9079   20.7121 N   0  0  0  0  0  0
  -30.9331  -19.3936   19.9115 O   0  0  0  0  0  0
  -31.4696  -12.5920   19.1564 H   0  0  0  0  0  0
  -30.3799  -11.4939   19.9570 H   0  0  0  0  0  0
  -29.7889  -11.7278   17.5191 H   0  0  0  0  0  0
  -29.6265  -13.4567   17.7080 H   0  0  0  0  0  0
  -27.8954  -11.2798   18.9195 H   0  0  0  0  0  0
  -27.3728  -12.5105   17.8008 H   0  0  0  0  0  0
  -27.6284  -14.2530   19.4575 H   0  0  0  0  0  0
  -28.7287  -12.1886   21.4258 H   0  0  0  0  0  0
  -28.4215  -13.8711   21.7815 H   0  0  0  0  0  0
  -25.2767   -9.5683   22.4762 H   0  0  0  0  0  0
  -24.0005   -7.4633   22.7471 H   0  0  0  0  0  0
  -21.0850   -8.8775   19.8950 H   0  0  0  0  0  0
  -22.3707  -10.9673   19.6166 H   0  0  0  0  0  0
  -21.2005   -7.6149   23.9714 H   0  0  0  0  0  0
  -21.1484   -6.0524   25.9077 H   0  0  0  0  0  0
  -22.0598   -2.7608   23.2848 H   0  0  0  0  0  0
  -22.4091  -11.9864   22.4806 H   0  0  0  0  0  0
  -21.1083  -13.1216   22.2634 H   0  0  0  0  0  0
  -24.6478  -15.8437   20.5177 H   0  0  0  0  0  0
  -26.2594  -15.6324   20.0602 H   0  0  0  0  0  0
  -26.7234  -32.5392   23.1076 H   0  0  0  0  0  0
  -25.0129  -33.9692   25.0417 H   0  0  0  0  0  0
  -22.7291  -31.3053   21.4016 H   0  0  0  0  0  0
  -23.3753  -35.9611   23.3309 H   0  0  0  0  0  0
  -24.3583  -36.8889   22.2050 H   0  0  0  0  0  0
  -23.7243  -37.6480   23.6657 H   0  0  0  0  0  0
  -26.1286  -31.5229   20.6177 H   0  0  0  0  0  0
  -26.8578  -30.8046   22.0215 H   0  0  0  0  0  0
  -28.1216  -28.8893   21.2133 H   0  0  0  0  0  0
  -25.8834  -25.9325   18.9662 H   0  0  0  0  0  0
  -23.9587  -27.3392   18.9862 H   0  0  0  0  0  0
  -23.7791  -30.6045   19.4082 H   0  0  0  0  0  0
  -22.7666  -29.2634   19.8487 H   0  0  0  0  0  0
  -25.1299  -36.1911   25.0814 H   0  0  0  0  0  0
  -21.0000  -28.3282   24.1378 H   0  0  0  0  0  0
  -20.5693  -26.2315   23.3608 H   0  0  0  0  0  0
  -21.6654  -26.7445   22.1188 H   0  0  0  0  0  0
  -19.6923  -25.6295   21.1243 H   0  0  0  0  0  0
  -19.6692  -27.3195   20.6740 H   0  0  0  0  0  0
  -17.4209  -26.6678   21.4031 H   0  0  0  0  0  0
  -18.0343  -26.0071   22.9022 H   0  0  0  0  0  0
  -19.7946  -30.7292   24.2237 H   0  0  0  0  0  0
  -17.5021  -31.6264   24.5173 H   0  0  0  0  0  0
  -15.5359  -30.2980   23.7667 H   0  0  0  0  0  0
  -15.8687  -28.0819   22.7070 H   0  0  0  0  0  0
  -24.5914  -30.7079   25.7778 H   0  0  0  0  0  0
  -24.8904  -32.2922   26.4830 H   0  0  0  0  0  0
  -25.8029  -30.8958   27.0250 H   0  0  0  0  0  0
  -26.2962  -29.6736   24.1245 H   0  0  0  0  0  0
  -27.4000  -29.7256   25.4785 H   0  0  0  0  0  0
  -27.8863  -30.4247   23.9534 H   0  0  0  0  0  0
  -27.2672  -33.3641   26.2053 H   0  0  0  0  0  0
  -28.3899  -32.6850   25.0358 H   0  0  0  0  0  0
  -28.0703  -31.8470   26.5462 H   0  0  0  0  0  0
  -28.2592  -38.0099   24.7510 H   0  0  0  0  0  0
  -28.1073  -36.2627   24.6293 H   0  0  0  0  0  0
  -27.2298  -37.1446   25.8869 H   0  0  0  0  0  0
  -20.9414  -29.8788   21.6862 H   0  0  0  0  0  0
  -26.0165  -38.2839   24.1409 H   0  0  0  0  0  0
  -31.2492  -21.3350   19.2202 H   0  0  0  0  0  0
  -27.5221  -22.1492   20.6128 H   0  0  0  0  0  0
  -29.9480  -23.8293   19.8555 H   0  0  0  0  0  0
  -26.8212  -19.6132   21.0931 H   0  0  0  0  0  0
  -27.6971  -19.9290   22.5957 H   0  0  0  0  0  0
  -27.6368  -18.2909   21.9334 H   0  0  0  0  0  0
  -30.3507  -17.2860   22.2096 H   0  0  0  0  0  0
  -31.5329  -17.2363   20.9758 H   0  0  0  0  0  0
  -27.0519  -24.6039   20.6190 H   0  0  0  0  0  0
  -27.5795  -24.7458   18.9557 H   0  0  0  0  0  0
  -28.9094  -15.7862   20.8210 H   0  0  0  0  0  0
  1 25  1  0  0  0
  1 30  2  0  0  0
  1 80  1  0  0  0
  2  3  1  0  0  0
  2 25  1  0  0  0
  2 82  1  0  0  0
  2 83  1  0  0  0
  3  4  1  0  0  0
  3 84  1  0  0  0
  3 85  1  0  0  0
  4  5  1  0  0  0
  4 86  1  0  0  0
  4 87  1  0  0  0
  5  6  1  0  0  0
  5 26  1  0  0  0
  5 88  1  0  0  0
  6 25  1  0  0  0
  6 89  1  0  0  0
  6 90  1  0  0  0
  7  8  2  0  0  0
  7 26  1  0  0  0
  7 29  1  0  0  0
  8  9  1  0  0  0
  8 22  1  0  0  0
  9 10  1  0  0  0
  9 27  2  0  0  0
 10 11  2  0  0  0
 10 15  1  0  0  0
 11 12  1  0  0  0
 11 91  1  0  0  0
 12 13  2  0  0  0
 12 92  1  0  0  0
 13 14  1  0  0  0
 13 31  1  0  0  0
 14 15  2  0  0  0
 14 93  1  0  0  0
 15 94  1  0  0  0
 16 17  2  0  0  0
 16 21  1  0  0  0
 16 31  1  0  0  0
 17 18  1  0  0  0
 17 95  1  0  0  0
 18 19  2  0  0  0
 18 96  1  0  0  0
 19 20  1  0  0  0
 19 24  1  0  0  0
 20 21  2  0  0  0
 20 97  1  0  0  0
 21 23  1  0  0  0
 22 28  1  0  0  0
 22 32  2  0  0  0
 26 27  1  0  0  0
 28 98  1  0  0  0
 28 99  1  0  0  0
 29100  1  0  0  0
 29101  1  0  0  0
 33 34  1  0  0  0
 33 66  1  0  0  0
 33 70  2  0  0  0
 34 36  1  0  0  0
 34 59  1  0  0  0
 34102  1  0  0  0
 35 44  2  0  0  0
 35 45  1  0  0  0
 35 68  1  0  0  0
 36 56  1  0  0  0
 36103  1  0  0  0
 37 39  1  0  0  0
 37 47  1  0  0  0
 37 66  1  0  0  0
 37104  1  0  0  0
 38 43  2  0  0  0
 38 46  1  0  0  0
 38 47  1  0  0  0
 39 64  1  0  0  0
 39 67  2  0  0  0
 40 52  1  0  0  0
 40 53  2  0  0  0
 40 58  1  0  0  0
 41105  1  0  0  0
 41106  1  0  0  0
 41107  1  0  0  0
 41 48  1  0  0  0
 42 43  1  0  0  0
 42 66  1  0  0  0
 42108  1  0  0  0
 42109  1  0  0  0
 43 44  1  0  0  0
 44110  1  0  0  0
 45 46  2  0  0  0
 45111  1  0  0  0
 46112  1  0  0  0
 47113  1  0  0  0
 47114  1  0  0  0
 48 56  1  0  0  0
 48 65  1  0  0  0
 48115  1  0  0  0
 49 50  1  0  0  0
 49 53  1  0  0  0
 49 64  1  0  0  0
 49116  1  0  0  0
 50 51  1  0  0  0
 50117  1  0  0  0
 50118  1  0  0  0
 51 52  1  0  0  0
 51119  1  0  0  0
 51120  1  0  0  0
 52121  1  0  0  0
 52122  1  0  0  0
 53 54  1  0  0  0
 54 55  2  0  0  0
 54123  1  0  0  0
 55 57  1  0  0  0
 55124  1  0  0  0
 56 69  2  0  0  0
 57 58  2  0  0  0
 57125  1  0  0  0
 58126  1  0  0  0
 59 60  1  0  0  0
 59 61  1  0  0  0
 59 62  1  0  0  0
 60127  1  0  0  0
 60128  1  0  0  0
 60129  1  0  0  0
 61130  1  0  0  0
 61131  1  0  0  0
 61132  1  0  0  0
 62133  1  0  0  0
 62134  1  0  0  0
 62135  1  0  0  0
 63 65  1  0  0  0
 63136  1  0  0  0
 63137  1  0  0  0
 63138  1  0  0  0
 64139  1  0  0  0
 65140  1  0  0  0
 68 79  1  0  0  0
 71 72  2  0  0  0
 71 81  1  0  0  0
 71141  1  0  0  0
 72 73  1  0  0  0
 72 75  1  0  0  0
 73 74  2  0  0  0
 73 77  1  0  0  0
 74 78  1  0  0  0
 74 81  1  0  0  0
 75 76  2  0  0  0
 75142  1  0  0  0
 76 79  1  0  0  0
 76143  1  0  0  0
 77144  1  0  0  0
 77145  1  0  0  0
 77146  1  0  0  0
 78 80  1  0  0  0
 78147  1  0  0  0
 78148  1  0  0  0
 79149  1  0  0  0
 79150  1  0  0  0
 80151  1  0  0  0
M  ISO  4   1 100  68 101  79 101  80 100
M  END
> <chiral flag>
0

> <version>
0

> <s_m_source_file>
/data/baiqing/PycharmProjects/Reinvent-master-3.2/result/LINK_invent/BTK/process_docking_weight1_custom_product_contain_oxygen_bond_distance_aromatic_linkinvent_7_9_3/rearranged_h_0118.sdf

> <i_m_source_file_index>
93

> <r_mmod_Potential_Energy-OPLS-2005>
126.711441040039

> <r_mmod_Stretch_Energy-OPLS-2005>
123.285797119141

> <r_mmod_Bend_Energy-OPLS-2005>
187.591400146484

> <r_mmod_Torsional_Energy-OPLS-2005>
215.539749145508

> <r_mmod_Improper_Torsional_Energy-OPLS-2005>
6.6666145324707

> <r_mmod_Van_der_Waal_Energy-OPLS-2005>
123.600982666016

> <r_mmod_Electrostatic_Energy-OPLS-2005>
-411.337768554688

> <r_mmod_Solvation_Energy-OPLS-2005>
-216.04377746582

> <b_mmod_Minimization_Converged-OPLS-2005>
0

> <r_mmod_RMS_Derivative-OPLS-2005>
0.42687115073204

$$$$
94
                    3D
 Structure written by MMmdl.
151159  0  0  1  0            999 V2000
  -30.6380  -14.7789   20.4250 C   0  0  0  0  0  0
  -30.4206  -12.4661   19.4953 C   0  0  0  0  0  0
  -29.5128  -12.5039   18.2463 C   0  0  0  0  0  0
  -28.0389  -12.3238   18.6551 C   0  0  0  0  0  0
  -27.6345  -13.2426   19.8391 C   0  0  2  0  0  0
  -28.6760  -13.2242   20.9779 C   0  0  0  0  0  0
  -25.2486  -13.8220   20.5702 C   0  0  0  0  0  0
  -24.1794  -13.0448   20.9214 C   0  0  0  0  0  0
  -24.6388  -11.6930   20.8736 C   0  0  0  0  0  0
  -23.9068  -10.4298   21.0392 C   0  0  0  0  0  0
  -24.3621   -9.4216   21.9172 C   0  0  0  0  0  0
  -23.6303   -8.2245   22.0743 C   0  0  0  0  0  0
  -22.4287   -8.0276   21.3534 C   0  0  0  0  0  0
  -21.9918   -9.0247   20.4640 C   0  0  0  0  0  0
  -22.7240  -10.2129   20.3046 C   0  0  0  0  0  0
  -21.6857   -6.0735   22.5280 C   0  0  0  0  0  0
  -21.4013   -6.5637   23.8212 C   0  0  0  0  0  0
  -21.3664   -5.6791   24.9179 C   0  0  0  0  0  0
  -21.6044   -4.3053   24.7226 C   0  0  0  0  0  0
  -21.8821   -3.8144   23.4346 C   0  0  0  0  0  0
  -21.9191   -4.6962   22.3403 C   0  0  0  0  0  0
  -22.7811  -13.5215   21.1883 C   0  0  0  0  0  0
  -22.1663   -4.2144   21.0984 F   0  0  0  0  0  0
  -21.5634   -3.4541   25.7739 F   0  0  0  0  0  0
  -29.9809  -13.5611   20.3991 N   0  0  0  0  0  0
  -26.2906  -12.9442   20.3243 N   0  0  0  0  0  0
  -25.9320  -11.6574   20.5722 N   0  0  0  0  0  0
  -22.0466  -12.8196   22.0438 N   0  0  0  0  0  0
  -25.4187  -15.1944   20.4153 N   0  0  0  0  0  0
  -31.8362  -14.7767   20.1291 O   0  0  0  0  0  0
  -21.6648   -6.8873   21.4237 O   0  0  0  0  0  0
  -22.3487  -14.5517   20.6734 O   0  0  0  0  0  0
  -24.6349  -31.8535   23.1981 C   0  0  0  0  0  0
  -25.9167  -32.4740   23.8325 C   0  0  1  0  0  0
  -27.2108  -27.2308   20.1244 C   0  0  0  0  0  0
  -25.5961  -33.8543   24.2248 N   0  0  0  0  0  0
  -23.4314  -30.4796   21.5426 C   0  0  2  0  0  0
  -24.8769  -28.9277   20.1088 C   0  0  0  0  0  0
  -22.7519  -29.4611   22.4905 C   0  0  0  0  0  0
  -18.0293  -28.1398   22.8486 C   0  0  0  0  0  0
  -24.1500  -36.7274   23.2634 C   0  0  0  0  0  0
  -25.9820  -30.7579   21.3822 C   0  0  0  0  0  0
  -26.0532  -29.3792   20.7212 C   0  0  0  0  0  0
  -27.2223  -28.5445   20.7180 C   0  0  0  0  0  0
  -26.0072  -26.8643   19.4759 C   0  0  0  0  0  0
  -24.8619  -27.6800   19.4736 C   0  0  0  0  0  0
  -23.6502  -29.8182   20.1576 C   0  0  0  0  0  0
  -25.4121  -36.3055   24.0320 C   0  0  1  0  0  0
  -20.5902  -28.3719   23.1266 C   0  0  2  0  0  0
  -20.6793  -26.9437   22.5412 C   0  0  0  0  0  0
  -19.5767  -26.6392   21.5221 C   0  0  0  0  0  0
  -18.1945  -26.7938   22.1626 C   0  0  0  0  0  0
  -19.1549  -28.8872   23.2869 C   0  0  0  0  0  0
  -18.9465  -30.1472   23.8894 C   0  0  0  0  0  0
  -17.6462  -30.6595   24.0566 C   0  0  0  0  0  0
  -25.9072  -34.9431   23.5083 C   0  0  0  0  0  0
  -16.5354  -29.9093   23.6332 C   0  0  0  0  0  0
  -16.7278  -28.6513   23.0351 C   0  0  0  0  0  0
  -26.4523  -31.6557   25.0716 C   0  0  0  0  0  0
  -25.3736  -31.3716   26.1428 C   0  0  0  0  0  0
  -27.0355  -30.2962   24.6222 C   0  0  0  0  0  0
  -27.6085  -32.4288   25.7485 C   0  0  0  0  0  0
  -27.5583  -37.1785   24.8454 C   0  0  0  0  0  0
  -21.4225  -29.3056   22.3644 N   0  0  0  0  0  0
  -26.4284  -37.3765   23.9416 N   0  0  0  0  0  0
  -24.7021  -31.0485   22.0966 N   0  0  0  0  0  0
  -23.4210  -28.8147   23.3005 O   0  0  0  0  0  0
  -28.2814  -26.2925   20.1880 O   0  0  0  0  0  0
  -26.5646  -34.8907   22.4654 O   0  0  0  0  0  0
  -23.5494  -32.1363   23.7270 O   0  0  0  0  0  0
  -31.4914  -19.6546   20.8215 C   0  0  0  0  0  0
  -31.0675  -21.0175   20.8177 C   0  0  0  0  0  0
  -30.4191  -18.8360   20.5851 C   0  0  0  0  0  0
  -29.7263  -21.0873   20.5353 C   0  0  0  0  0  0
  -33.3143  -22.1049   20.9106 C   0  0  0  0  0  0
  -31.9776  -22.1535   21.0332 C   0  0  0  0  0  0
  -30.5379  -17.3300   20.5257 C   0  0  0  0  0  0
  -28.8206  -22.2758   20.3302 C   0  0  0  0  0  0
  -29.8867  -16.0977   20.6042 C   0  0  0  0  0  0
  -29.0280  -23.6561   20.2086 C   0  0  0  0  0  0
  -27.9662  -24.8237   19.9661 C   0  0  0  0  0  0
  -29.3009  -19.7114   20.4212 O   0  0  0  0  0  0
  -31.4669  -12.5551   19.1983 H   0  0  0  0  0  0
  -30.3406  -11.5014   19.9985 H   0  0  0  0  0  0
  -29.8056  -11.7241   17.5424 H   0  0  0  0  0  0
  -29.6393  -13.4539   17.7243 H   0  0  0  0  0  0
  -27.9047  -11.2786   18.9368 H   0  0  0  0  0  0
  -27.3822  -12.4921   17.8007 H   0  0  0  0  0  0
  -27.6143  -14.2551   19.4350 H   0  0  0  0  0  0
  -28.7122  -12.2452   21.4572 H   0  0  0  0  0  0
  -28.4050  -13.9368   21.7586 H   0  0  0  0  0  0
  -25.2761   -9.5706   22.4748 H   0  0  0  0  0  0
  -24.0022   -7.4634   22.7459 H   0  0  0  0  0  0
  -21.0849   -8.8756   19.8942 H   0  0  0  0  0  0
  -22.3685  -10.9664   19.6158 H   0  0  0  0  0  0
  -21.2003   -7.6142   23.9717 H   0  0  0  0  0  0
  -21.1490   -6.0520   25.9082 H   0  0  0  0  0  0
  -22.0594   -2.7603   23.2847 H   0  0  0  0  0  0
  -22.4094  -11.9871   22.4839 H   0  0  0  0  0  0
  -21.1069  -13.1189   22.2620 H   0  0  0  0  0  0
  -24.6552  -15.8509   20.5368 H   0  0  0  0  0  0
  -26.2744  -15.6360   20.1033 H   0  0  0  0  0  0
  -26.7230  -32.5381   23.1059 H   0  0  0  0  0  0
  -25.0097  -33.9673   25.0389 H   0  0  0  0  0  0
  -22.7292  -31.3034   21.3989 H   0  0  0  0  0  0
  -23.3766  -35.9600   23.3257 H   0  0  0  0  0  0
  -24.3605  -36.8937   22.2057 H   0  0  0  0  0  0
  -23.7242  -37.6455   23.6690 H   0  0  0  0  0  0
  -26.1246  -31.5181   20.6129 H   0  0  0  0  0  0
  -26.8580  -30.8059   22.0171 H   0  0  0  0  0  0
  -28.1185  -28.8847   21.2180 H   0  0  0  0  0  0
  -25.9040  -25.9158   18.9726 H   0  0  0  0  0  0
  -23.9637  -27.3319   18.9820 H   0  0  0  0  0  0
  -23.7782  -30.5972   19.4049 H   0  0  0  0  0  0
  -22.7664  -29.2566   19.8500 H   0  0  0  0  0  0
  -25.1305  -36.1884   25.0812 H   0  0  0  0  0  0
  -20.9996  -28.3301   24.1386 H   0  0  0  0  0  0
  -20.5715  -26.2329   23.3617 H   0  0  0  0  0  0
  -21.6658  -26.7482   22.1190 H   0  0  0  0  0  0
  -19.6940  -25.6305   21.1248 H   0  0  0  0  0  0
  -19.6702  -27.3204   20.6750 H   0  0  0  0  0  0
  -17.4222  -26.6686   21.4020 H   0  0  0  0  0  0
  -18.0344  -26.0083   22.9023 H   0  0  0  0  0  0
  -19.7939  -30.7292   24.2262 H   0  0  0  0  0  0
  -17.5014  -31.6272   24.5174 H   0  0  0  0  0  0
  -15.5355  -30.2994   23.7661 H   0  0  0  0  0  0
  -15.8676  -28.0832   22.7066 H   0  0  0  0  0  0
  -24.5943  -30.7031   25.7751 H   0  0  0  0  0  0
  -24.8889  -32.2880   26.4807 H   0  0  0  0  0  0
  -25.8046  -30.8928   27.0230 H   0  0  0  0  0  0
  -26.2930  -29.6703   24.1258 H   0  0  0  0  0  0
  -27.4018  -29.7244   25.4755 H   0  0  0  0  0  0
  -27.8831  -30.4198   23.9478 H   0  0  0  0  0  0
  -27.2720  -33.3613   26.2027 H   0  0  0  0  0  0
  -28.3923  -32.6790   25.0322 H   0  0  0  0  0  0
  -28.0725  -31.8418   26.5422 H   0  0  0  0  0  0
  -28.2567  -38.0117   24.7550 H   0  0  0  0  0  0
  -28.1116  -36.2650   24.6216 H   0  0  0  0  0  0
  -27.2314  -37.1352   25.8858 H   0  0  0  0  0  0
  -20.9421  -29.8754   21.6822 H   0  0  0  0  0  0
  -26.0146  -38.2827   24.1445 H   0  0  0  0  0  0
  -32.4974  -19.2994   20.9943 H   0  0  0  0  0  0
  -33.9171  -22.9816   21.1013 H   0  0  0  0  0  0
  -33.8335  -21.2033   20.6175 H   0  0  0  0  0  0
  -31.5335  -23.0854   21.3454 H   0  0  0  0  0  0
  -31.5866  -17.1537   20.3335 H   0  0  0  0  0  0
  -27.7832  -21.9799   20.2711 H   0  0  0  0  0  0
  -28.8236  -16.0809   20.7878 H   0  0  0  0  0  0
  -30.0404  -24.0231   20.2342 H   0  0  0  0  0  0
  -27.0783  -24.5593   20.5426 H   0  0  0  0  0  0
  -27.6950  -24.7173   18.9154 H   0  0  0  0  0  0
  1 25  1  0  0  0
  1 30  2  0  0  0
  1 79  1  0  0  0
  2  3  1  0  0  0
  2 25  1  0  0  0
  2 83  1  0  0  0
  2 84  1  0  0  0
  3  4  1  0  0  0
  3 85  1  0  0  0
  3 86  1  0  0  0
  4  5  1  0  0  0
  4 87  1  0  0  0
  4 88  1  0  0  0
  5  6  1  0  0  0
  5 26  1  0  0  0
  5 89  1  0  0  0
  6 25  1  0  0  0
  6 90  1  0  0  0
  6 91  1  0  0  0
  7  8  2  0  0  0
  7 26  1  0  0  0
  7 29  1  0  0  0
  8  9  1  0  0  0
  8 22  1  0  0  0
  9 10  1  0  0  0
  9 27  2  0  0  0
 10 11  2  0  0  0
 10 15  1  0  0  0
 11 12  1  0  0  0
 11 92  1  0  0  0
 12 13  2  0  0  0
 12 93  1  0  0  0
 13 14  1  0  0  0
 13 31  1  0  0  0
 14 15  2  0  0  0
 14 94  1  0  0  0
 15 95  1  0  0  0
 16 17  2  0  0  0
 16 21  1  0  0  0
 16 31  1  0  0  0
 17 18  1  0  0  0
 17 96  1  0  0  0
 18 19  2  0  0  0
 18 97  1  0  0  0
 19 20  1  0  0  0
 19 24  1  0  0  0
 20 21  2  0  0  0
 20 98  1  0  0  0
 21 23  1  0  0  0
 22 28  1  0  0  0
 22 32  2  0  0  0
 26 27  1  0  0  0
 28 99  1  0  0  0
 28100  1  0  0  0
 29101  1  0  0  0
 29102  1  0  0  0
 33 34  1  0  0  0
 33 66  1  0  0  0
 33 70  2  0  0  0
 34 36  1  0  0  0
 34 59  1  0  0  0
 34103  1  0  0  0
 35 44  2  0  0  0
 35 45  1  0  0  0
 35 68  1  0  0  0
 36 56  1  0  0  0
 36104  1  0  0  0
 37 39  1  0  0  0
 37 47  1  0  0  0
 37 66  1  0  0  0
 37105  1  0  0  0
 38 43  2  0  0  0
 38 46  1  0  0  0
 38 47  1  0  0  0
 39 64  1  0  0  0
 39 67  2  0  0  0
 40 52  1  0  0  0
 40 53  2  0  0  0
 40 58  1  0  0  0
 41106  1  0  0  0
 41107  1  0  0  0
 41108  1  0  0  0
 41 48  1  0  0  0
 42 43  1  0  0  0
 42 66  1  0  0  0
 42109  1  0  0  0
 42110  1  0  0  0
 43 44  1  0  0  0
 44111  1  0  0  0
 45 46  2  0  0  0
 45112  1  0  0  0
 46113  1  0  0  0
 47114  1  0  0  0
 47115  1  0  0  0
 48 56  1  0  0  0
 48 65  1  0  0  0
 48116  1  0  0  0
 49 50  1  0  0  0
 49 53  1  0  0  0
 49 64  1  0  0  0
 49117  1  0  0  0
 50 51  1  0  0  0
 50118  1  0  0  0
 50119  1  0  0  0
 51 52  1  0  0  0
 51120  1  0  0  0
 51121  1  0  0  0
 52122  1  0  0  0
 52123  1  0  0  0
 53 54  1  0  0  0
 54 55  2  0  0  0
 54124  1  0  0  0
 55 57  1  0  0  0
 55125  1  0  0  0
 56 69  2  0  0  0
 57 58  2  0  0  0
 57126  1  0  0  0
 58127  1  0  0  0
 59 60  1  0  0  0
 59 61  1  0  0  0
 59 62  1  0  0  0
 60128  1  0  0  0
 60129  1  0  0  0
 60130  1  0  0  0
 61131  1  0  0  0
 61132  1  0  0  0
 61133  1  0  0  0
 62134  1  0  0  0
 62135  1  0  0  0
 62136  1  0  0  0
 63 65  1  0  0  0
 63137  1  0  0  0
 63138  1  0  0  0
 63139  1  0  0  0
 64140  1  0  0  0
 65141  1  0  0  0
 68 81  1  0  0  0
 71 72  1  0  0  0
 71 73  2  0  0  0
 71142  1  0  0  0
 72 74  2  0  0  0
 72 76  1  0  0  0
 73 77  1  0  0  0
 73 82  1  0  0  0
 74 78  1  0  0  0
 74 82  1  0  0  0
 75 76  2  0  0  0
 75143  1  0  0  0
 75144  1  0  0  0
 76145  1  0  0  0
 77 79  2  0  0  0
 77146  1  0  0  0
 78 80  2  0  0  0
 78147  1  0  0  0
 79148  1  0  0  0
 80 81  1  0  0  0
 80149  1  0  0  0
 81150  1  0  0  0
 81151  1  0  0  0
M  ISO  4   1 100  68 101  79 100  81 101
M  END
> <chiral flag>
0

> <version>
0

> <s_m_source_file>
/data/baiqing/PycharmProjects/Reinvent-master-3.2/result/LINK_invent/BTK/process_docking_weight1_custom_product_contain_oxygen_bond_distance_aromatic_linkinvent_7_9_3/rearranged_h_0118.sdf

> <i_m_source_file_index>
94

> <r_mmod_Potential_Energy-OPLS-2005>
259.057586669922

> <r_mmod_Stretch_Energy-OPLS-2005>
143.199340820312

> <r_mmod_Bend_Energy-OPLS-2005>
221.464920043945

> <r_mmod_Torsional_Energy-OPLS-2005>
191.540573120117

> <r_mmod_Improper_Torsional_Energy-OPLS-2005>
4.46306943893433

> <r_mmod_Van_der_Waal_Energy-OPLS-2005>
133.170318603516

> <r_mmod_Electrostatic_Energy-OPLS-2005>
-343.1728515625

> <r_mmod_Solvation_Energy-OPLS-2005>
-197.291854858398

> <b_mmod_Minimization_Converged-OPLS-2005>
0

> <r_mmod_RMS_Derivative-OPLS-2005>
1.19009900093079

$$$$
95
                    3D
 Structure written by MMmdl.
160169  0  0  1  0            999 V2000
  -30.5843  -14.8037   20.4106 C   0  0  0  0  0  0
  -30.4294  -12.4864   19.4829 C   0  0  0  0  0  0
  -29.5137  -12.5244   18.2399 C   0  0  0  0  0  0
  -28.0368  -12.3495   18.6454 C   0  0  0  0  0  0
  -27.6410  -13.2428   19.8518 C   0  0  2  0  0  0
  -28.6853  -13.1893   20.9865 C   0  0  0  0  0  0
  -25.2501  -13.8224   20.5685 C   0  0  0  0  0  0
  -24.1803  -13.0459   20.9217 C   0  0  0  0  0  0
  -24.6413  -11.6935   20.8771 C   0  0  0  0  0  0
  -23.9087  -10.4315   21.0424 C   0  0  0  0  0  0
  -24.3647   -9.4230   21.9189 C   0  0  0  0  0  0
  -23.6338   -8.2248   22.0744 C   0  0  0  0  0  0
  -22.4306   -8.0297   21.3545 C   0  0  0  0  0  0
  -21.9943   -9.0253   20.4629 C   0  0  0  0  0  0
  -22.7267  -10.2141   20.3047 C   0  0  0  0  0  0
  -21.6818   -6.0746   22.5271 C   0  0  0  0  0  0
  -21.3990   -6.5642   23.8224 C   0  0  0  0  0  0
  -21.3689   -5.6788   24.9182 C   0  0  0  0  0  0
  -21.6061   -4.3044   24.7212 C   0  0  0  0  0  0
  -21.8835   -3.8137   23.4322 C   0  0  0  0  0  0
  -21.9186   -4.6970   22.3399 C   0  0  0  0  0  0
  -22.7820  -13.5231   21.1854 C   0  0  0  0  0  0
  -22.1660   -4.2153   21.0974 F   0  0  0  0  0  0
  -21.5666   -3.4538   25.7729 F   0  0  0  0  0  0
  -29.9780  -13.5625   20.4015 N   0  0  0  0  0  0
  -26.2936  -12.9436   20.3301 N   0  0  0  0  0  0
  -25.9340  -11.6573   20.5759 N   0  0  0  0  0  0
  -22.0457  -12.8230   22.0407 N   0  0  0  0  0  0
  -25.4218  -15.1946   20.4104 N   0  0  0  0  0  0
  -31.7766  -14.8769   20.0923 O   0  0  0  0  0  0
  -21.6657   -6.8885   21.4237 O   0  0  0  0  0  0
  -22.3511  -14.5543   20.6716 O   0  0  0  0  0  0
  -24.6347  -31.8550   23.1966 C   0  0  0  0  0  0
  -25.9171  -32.4721   23.8334 C   0  0  1  0  0  0
  -27.2031  -27.2269   20.1180 C   0  0  0  0  0  0
  -25.6012  -33.8532   24.2256 N   0  0  0  0  0  0
  -23.4324  -30.4762   21.5428 C   0  0  2  0  0  0
  -24.8790  -28.9285   20.1002 C   0  0  0  0  0  0
  -22.7525  -29.4585   22.4906 C   0  0  0  0  0  0
  -18.0319  -28.1363   22.8482 C   0  0  0  0  0  0
  -24.1503  -36.7232   23.2636 C   0  0  0  0  0  0
  -25.9843  -30.7469   21.3914 C   0  0  0  0  0  0
  -26.0559  -29.3723   20.7225 C   0  0  0  0  0  0
  -27.2227  -28.5319   20.7270 C   0  0  0  0  0  0
  -26.0125  -26.8738   19.4464 C   0  0  0  0  0  0
  -24.8647  -27.6875   19.4488 C   0  0  0  0  0  0
  -23.6481  -29.8140   20.1582 C   0  0  0  0  0  0
  -25.4135  -36.3026   24.0322 C   0  0  1  0  0  0
  -20.5920  -28.3676   23.1256 C   0  0  2  0  0  0
  -20.6791  -26.9400   22.5381 C   0  0  0  0  0  0
  -19.5766  -26.6348   21.5203 C   0  0  0  0  0  0
  -18.1937  -26.7920   22.1598 C   0  0  0  0  0  0
  -19.1576  -28.8845   23.2848 C   0  0  0  0  0  0
  -18.9485  -30.1456   23.8838 C   0  0  0  0  0  0
  -17.6470  -30.6554   24.0552 C   0  0  0  0  0  0
  -25.9090  -34.9418   23.5069 C   0  0  0  0  0  0
  -16.5366  -29.9030   23.6351 C   0  0  0  0  0  0
  -16.7295  -28.6465   23.0349 C   0  0  0  0  0  0
  -26.4531  -31.6568   25.0748 C   0  0  0  0  0  0
  -25.3731  -31.3734   26.1446 C   0  0  0  0  0  0
  -27.0408  -30.2984   24.6279 C   0  0  0  0  0  0
  -27.6083  -32.4321   25.7515 C   0  0  0  0  0  0
  -27.5584  -37.1759   24.8454 C   0  0  0  0  0  0
  -21.4232  -29.3016   22.3635 N   0  0  0  0  0  0
  -26.4290  -37.3739   23.9412 N   0  0  0  0  0  0
  -24.7025  -31.0461   22.0965 N   0  0  0  0  0  0
  -23.4215  -28.8143   23.3034 O   0  0  0  0  0  0
  -28.2065  -26.2185   20.1869 O   0  0  0  0  0  0
  -26.5606  -34.8909   22.4597 O   0  0  0  0  0  0
  -23.5489  -32.1407   23.7213 O   0  0  0  0  0  0
  -30.3055  -19.9541   18.7802 C   0  0  0  0  0  0
  -30.7232  -17.5258   18.8583 C   0  0  0  0  0  0
  -29.3808  -18.6015   20.5743 C   0  0  0  0  0  0
  -30.8679  -18.7798   18.2253 C   0  0  0  0  0  0
  -29.5310  -19.9345   19.9624 C   0  0  0  0  0  0
  -29.9881  -17.3617   20.0590 C   0  0  0  0  0  0
  -28.0710  -23.5813   20.5930 C   0  0  0  0  0  0
  -27.7512  -24.9482   20.6818 C   0  0  0  0  0  0
  -27.1803  -22.5725   21.3079 C   0  0  0  0  0  0
  -27.9639  -21.2496   21.4850 C   0  0  0  0  0  0
  -29.1512  -22.6406   19.9332 C   0  0  1  0  0  0
  -31.6072  -18.8472   16.8994 C   0  0  0  0  0  0
  -30.5630  -23.1279   20.2646 C   0  0  0  0  0  0
  -28.9499  -21.2063   20.4172 N   0  0  0  0  0  0
  -29.8219  -15.9656   20.6088 N   0  0  0  0  0  0
  -31.4724  -12.6012   19.1860 H   0  0  0  0  0  0
  -30.3753  -11.5120   19.9700 H   0  0  0  0  0  0
  -29.8076  -11.7469   17.5331 H   0  0  0  0  0  0
  -29.6418  -13.4753   17.7192 H   0  0  0  0  0  0
  -27.8861  -11.2975   18.8942 H   0  0  0  0  0  0
  -27.3817  -12.5590   17.7981 H   0  0  0  0  0  0
  -27.6326  -14.2678   19.4776 H   0  0  0  0  0  0
  -28.7335  -12.1920   21.4291 H   0  0  0  0  0  0
  -28.4139  -13.8678   21.7959 H   0  0  0  0  0  0
  -25.2798   -9.5698   22.4757 H   0  0  0  0  0  0
  -24.0031   -7.4634   22.7476 H   0  0  0  0  0  0
  -21.0862   -8.8770   19.8944 H   0  0  0  0  0  0
  -22.3736  -10.9672   19.6145 H   0  0  0  0  0  0
  -21.1947   -7.6142   23.9720 H   0  0  0  0  0  0
  -21.1514   -6.0518   25.9107 H   0  0  0  0  0  0
  -22.0579   -2.7587   23.2808 H   0  0  0  0  0  0
  -22.4069  -11.9869   22.4772 H   0  0  0  0  0  0
  -21.1064  -13.1219   22.2602 H   0  0  0  0  0  0
  -24.6555  -15.8483   20.5258 H   0  0  0  0  0  0
  -26.2599  -15.6261   20.0411 H   0  0  0  0  0  0
  -26.7217  -32.5331   23.1058 H   0  0  0  0  0  0
  -25.0329  -33.9706   25.0515 H   0  0  0  0  0  0
  -22.7311  -31.3000   21.3976 H   0  0  0  0  0  0
  -23.3809  -35.9513   23.3240 H   0  0  0  0  0  0
  -24.3613  -36.8905   22.2060 H   0  0  0  0  0  0
  -23.7206  -37.6395   23.6702 H   0  0  0  0  0  0
  -26.1446  -31.5094   20.6302 H   0  0  0  0  0  0
  -26.8520  -30.7815   22.0358 H   0  0  0  0  0  0
  -28.1165  -28.8530   21.2439 H   0  0  0  0  0  0
  -25.9478  -25.9152   18.9519 H   0  0  0  0  0  0
  -23.9679  -27.3444   18.9493 H   0  0  0  0  0  0
  -23.7551  -30.5898   19.4004 H   0  0  0  0  0  0
  -22.7695  -29.2379   19.8630 H   0  0  0  0  0  0
  -25.1312  -36.1846   25.0808 H   0  0  0  0  0  0
  -21.0035  -28.3236   24.1384 H   0  0  0  0  0  0
  -20.5692  -26.2306   23.3581 H   0  0  0  0  0  0
  -21.6647  -26.7387   22.1187 H   0  0  0  0  0  0
  -19.6920  -25.6248   21.1255 H   0  0  0  0  0  0
  -19.6732  -27.3153   20.6732 H   0  0  0  0  0  0
  -17.4230  -26.6716   21.3956 H   0  0  0  0  0  0
  -18.0316  -26.0043   22.8967 H   0  0  0  0  0  0
  -19.7952  -30.7296   24.2169 H   0  0  0  0  0  0
  -17.5013  -31.6256   24.5110 H   0  0  0  0  0  0
  -15.5362  -30.2887   23.7710 H   0  0  0  0  0  0
  -15.8710  -28.0742   22.7081 H   0  0  0  0  0  0
  -24.5966  -30.7026   25.7758 H   0  0  0  0  0  0
  -24.8880  -32.2914   26.4781 H   0  0  0  0  0  0
  -25.8041  -30.8982   27.0273 H   0  0  0  0  0  0
  -26.3031  -29.6698   24.1294 H   0  0  0  0  0  0
  -27.4081  -29.7264   25.4806 H   0  0  0  0  0  0
  -27.8910  -30.4247   23.9574 H   0  0  0  0  0  0
  -27.2717  -33.3671   26.2008 H   0  0  0  0  0  0
  -28.3967  -32.6786   25.0383 H   0  0  0  0  0  0
  -28.0702  -31.8504   26.5506 H   0  0  0  0  0  0
  -28.2531  -38.0116   24.7569 H   0  0  0  0  0  0
  -28.1153  -36.2654   24.6205 H   0  0  0  0  0  0
  -27.2321  -37.1283   25.8855 H   0  0  0  0  0  0
  -20.9433  -29.8745   21.6830 H   0  0  0  0  0  0
  -26.0152  -38.2794   24.1452 H   0  0  0  0  0  0
  -30.4580  -20.8882   18.2583 H   0  0  0  0  0  0
  -31.1621  -16.6661   18.3727 H   0  0  0  0  0  0
  -28.7811  -18.5225   21.4705 H   0  0  0  0  0  0
  -26.8816  -25.1425   21.2957 H   0  0  0  0  0  0
  -26.3158  -22.3919   20.6654 H   0  0  0  0  0  0
  -26.8008  -22.9536   22.2546 H   0  0  0  0  0  0
  -27.2994  -20.3848   21.4646 H   0  0  0  0  0  0
  -28.4854  -21.2504   22.4434 H   0  0  0  0  0  0
  -28.9956  -22.6755   18.8531 H   0  0  0  0  0  0
  -31.9899  -19.8465   16.6883 H   0  0  0  0  0  0
  -30.9374  -18.5646   16.0863 H   0  0  0  0  0  0
  -32.4537  -18.1607   16.8863 H   0  0  0  0  0  0
  -30.7502  -23.0762   21.3385 H   0  0  0  0  0  0
  -30.7098  -24.1598   19.9449 H   0  0  0  0  0  0
  -31.3189  -22.5178   19.7698 H   0  0  0  0  0  0
  -28.9441  -15.7967   21.0786 H   0  0  0  0  0  0
  1 25  1  0  0  0
  1 30  2  0  0  0
  1 85  1  0  0  0
  2  3  1  0  0  0
  2 25  1  0  0  0
  2 86  1  0  0  0
  2 87  1  0  0  0
  3  4  1  0  0  0
  3 88  1  0  0  0
  3 89  1  0  0  0
  4  5  1  0  0  0
  4 90  1  0  0  0
  4 91  1  0  0  0
  5  6  1  0  0  0
  5 26  1  0  0  0
  5 92  1  0  0  0
  6 25  1  0  0  0
  6 93  1  0  0  0
  6 94  1  0  0  0
  7  8  2  0  0  0
  7 26  1  0  0  0
  7 29  1  0  0  0
  8  9  1  0  0  0
  8 22  1  0  0  0
  9 10  1  0  0  0
  9 27  2  0  0  0
 10 11  2  0  0  0
 10 15  1  0  0  0
 11 12  1  0  0  0
 11 95  1  0  0  0
 12 13  2  0  0  0
 12 96  1  0  0  0
 13 14  1  0  0  0
 13 31  1  0  0  0
 14 15  2  0  0  0
 14 97  1  0  0  0
 15 98  1  0  0  0
 16 17  2  0  0  0
 16 21  1  0  0  0
 16 31  1  0  0  0
 17 18  1  0  0  0
 17 99  1  0  0  0
 18 19  2  0  0  0
 18100  1  0  0  0
 19 20  1  0  0  0
 19 24  1  0  0  0
 20 21  2  0  0  0
 20101  1  0  0  0
 21 23  1  0  0  0
 22 28  1  0  0  0
 22 32  2  0  0  0
 26 27  1  0  0  0
 28102  1  0  0  0
 28103  1  0  0  0
 29104  1  0  0  0
 29105  1  0  0  0
 33 34  1  0  0  0
 33 66  1  0  0  0
 33 70  2  0  0  0
 34 36  1  0  0  0
 34 59  1  0  0  0
 34106  1  0  0  0
 35 44  2  0  0  0
 35 45  1  0  0  0
 35 68  1  0  0  0
 36 56  1  0  0  0
 36107  1  0  0  0
 37 39  1  0  0  0
 37 47  1  0  0  0
 37 66  1  0  0  0
 37108  1  0  0  0
 38 43  2  0  0  0
 38 46  1  0  0  0
 38 47  1  0  0  0
 39 64  1  0  0  0
 39 67  2  0  0  0
 40 52  1  0  0  0
 40 53  2  0  0  0
 40 58  1  0  0  0
 41109  1  0  0  0
 41110  1  0  0  0
 41111  1  0  0  0
 41 48  1  0  0  0
 42 43  1  0  0  0
 42 66  1  0  0  0
 42112  1  0  0  0
 42113  1  0  0  0
 43 44  1  0  0  0
 44114  1  0  0  0
 45 46  2  0  0  0
 45115  1  0  0  0
 46116  1  0  0  0
 47117  1  0  0  0
 47118  1  0  0  0
 48 56  1  0  0  0
 48 65  1  0  0  0
 48119  1  0  0  0
 49 50  1  0  0  0
 49 53  1  0  0  0
 49 64  1  0  0  0
 49120  1  0  0  0
 50 51  1  0  0  0
 50121  1  0  0  0
 50122  1  0  0  0
 51 52  1  0  0  0
 51123  1  0  0  0
 51124  1  0  0  0
 52125  1  0  0  0
 52126  1  0  0  0
 53 54  1  0  0  0
 54 55  2  0  0  0
 54127  1  0  0  0
 55 57  1  0  0  0
 55128  1  0  0  0
 56 69  2  0  0  0
 57 58  2  0  0  0
 57129  1  0  0  0
 58130  1  0  0  0
 59 60  1  0  0  0
 59 61  1  0  0  0
 59 62  1  0  0  0
 60131  1  0  0  0
 60132  1  0  0  0
 60133  1  0  0  0
 61134  1  0  0  0
 61135  1  0  0  0
 61136  1  0  0  0
 62137  1  0  0  0
 62138  1  0  0  0
 62139  1  0  0  0
 63 65  1  0  0  0
 63140  1  0  0  0
 63141  1  0  0  0
 63142  1  0  0  0
 64143  1  0  0  0
 65144  1  0  0  0
 68 78  1  0  0  0
 71 74  2  0  0  0
 71 75  1  0  0  0
 71145  1  0  0  0
 72 74  1  0  0  0
 72 76  2  0  0  0
 72146  1  0  0  0
 73 75  2  0  0  0
 73 76  1  0  0  0
 73147  1  0  0  0
 74 82  1  0  0  0
 75 84  1  0  0  0
 76 85  1  0  0  0
 77 78  2  0  0  0
 77 79  1  0  0  0
 77 81  1  0  0  0
 78148  1  0  0  0
 79 80  1  0  0  0
 79149  1  0  0  0
 79150  1  0  0  0
 80 84  1  0  0  0
 80151  1  0  0  0
 80152  1  0  0  0
 81 83  1  0  0  0
 81 84  1  0  0  0
 81153  1  0  0  0
 82154  1  0  0  0
 82155  1  0  0  0
 82156  1  0  0  0
 83157  1  0  0  0
 83158  1  0  0  0
 83159  1  0  0  0
 85160  1  0  0  0
M  ISO  4   1 100  68 101  78 101  85 100
M  END
> <chiral flag>
0

> <version>
0

> <s_m_source_file>
/data/baiqing/PycharmProjects/Reinvent-master-3.2/result/LINK_invent/BTK/process_docking_weight1_custom_product_contain_oxygen_bond_distance_aromatic_linkinvent_7_9_3/rearranged_h_0118.sdf

> <i_m_source_file_index>
95

> <r_mmod_Potential_Energy-OPLS-2005>
356.735595703125

> <r_mmod_Stretch_Energy-OPLS-2005>
147.348129272461

> <r_mmod_Bend_Energy-OPLS-2005>
266.354919433594

> <r_mmod_Torsional_Energy-OPLS-2005>
247.404220581055

> <r_mmod_Improper_Torsional_Energy-OPLS-2005>
4.62405300140381

> <r_mmod_Van_der_Waal_Energy-OPLS-2005>
135.641906738281

> <r_mmod_Electrostatic_Energy-OPLS-2005>
-352.005950927734

> <r_mmod_Solvation_Energy-OPLS-2005>
-214.835800170898

> <b_mmod_Minimization_Converged-OPLS-2005>
0

> <r_mmod_RMS_Derivative-OPLS-2005>
4.60987377166748

$$$$
96
                    3D
 Structure written by MMmdl.
163171  0  0  1  0            999 V2000
  -30.7339  -14.5143   20.4903 C   0  0  0  0  0  0
  -30.4052  -12.3134   19.4438 C   0  0  0  0  0  0
  -29.4910  -12.4827   18.2146 C   0  0  0  0  0  0
  -28.0146  -12.3462   18.6293 C   0  0  0  0  0  0
  -27.6502  -13.2214   19.8591 C   0  0  2  0  0  0
  -28.6977  -13.0884   20.9887 C   0  0  0  0  0  0
  -25.2518  -13.8160   20.5665 C   0  0  0  0  0  0
  -24.1805  -13.0423   20.9193 C   0  0  0  0  0  0
  -24.6390  -11.6903   20.8743 C   0  0  0  0  0  0
  -23.9068  -10.4284   21.0403 C   0  0  0  0  0  0
  -24.3620   -9.4201   21.9181 C   0  0  0  0  0  0
  -23.6289   -8.2242   22.0756 C   0  0  0  0  0  0
  -22.4267   -8.0287   21.3552 C   0  0  0  0  0  0
  -21.9905   -9.0257   20.4651 C   0  0  0  0  0  0
  -22.7238  -10.2131   20.3052 C   0  0  0  0  0  0
  -21.6856   -6.0731   22.5280 C   0  0  0  0  0  0
  -21.4012   -6.5633   23.8212 C   0  0  0  0  0  0
  -21.3659   -5.6788   24.9175 C   0  0  0  0  0  0
  -21.6045   -4.3049   24.7225 C   0  0  0  0  0  0
  -21.8821   -3.8143   23.4345 C   0  0  0  0  0  0
  -21.9191   -4.6959   22.3402 C   0  0  0  0  0  0
  -22.7831  -13.5221   21.1860 C   0  0  0  0  0  0
  -22.1661   -4.2146   21.0979 F   0  0  0  0  0  0
  -21.5631   -3.4531   25.7736 F   0  0  0  0  0  0
  -30.0225  -13.3550   20.4132 N   0  0  0  0  0  0
  -26.2976  -12.9379   20.3328 N   0  0  0  0  0  0
  -25.9325  -11.6527   20.5782 N   0  0  0  0  0  0
  -22.0464  -12.8222   22.0417 N   0  0  0  0  0  0
  -25.4158  -15.1857   20.4000 N   0  0  0  0  0  0
  -31.9236  -14.5442   20.1772 O   0  0  0  0  0  0
  -21.6645   -6.8878   21.4239 O   0  0  0  0  0  0
  -22.3521  -14.5528   20.6715 O   0  0  0  0  0  0
  -24.6181  -31.8673   23.2100 C   0  0  0  0  0  0
  -25.9072  -32.4816   23.8394 C   0  0  1  0  0  0
  -27.2251  -27.4079   20.1025 C   0  0  0  0  0  0
  -25.5926  -33.8610   24.2331 N   0  0  0  0  0  0
  -23.4058  -30.4932   21.5510 C   0  0  2  0  0  0
  -24.8503  -28.9597   20.1134 C   0  0  0  0  0  0
  -22.7423  -29.4666   22.4977 C   0  0  0  0  0  0
  -18.0279  -28.1378   22.8491 C   0  0  0  0  0  0
  -24.1490  -36.7311   23.2636 C   0  0  0  0  0  0
  -25.9381  -30.8264   21.3664 C   0  0  0  0  0  0
  -26.0148  -29.4600   20.7097 C   0  0  0  0  0  0
  -27.2070  -28.6944   20.6964 C   0  0  0  0  0  0
  -26.0413  -26.9371   19.4870 C   0  0  0  0  0  0
  -24.8600  -27.6996   19.4964 C   0  0  0  0  0  0
  -23.6145  -29.8295   20.1648 C   0  0  0  0  0  0
  -25.4110  -36.3107   24.0339 C   0  0  1  0  0  0
  -20.5872  -28.3674   23.1306 C   0  0  2  0  0  0
  -20.6775  -26.9406   22.5411 C   0  0  0  0  0  0
  -19.5752  -26.6387   21.5207 C   0  0  0  0  0  0
  -18.1930  -26.7927   22.1621 C   0  0  0  0  0  0
  -19.1529  -28.8839   23.2900 C   0  0  0  0  0  0
  -18.9457  -30.1446   23.8907 C   0  0  0  0  0  0
  -17.6459  -30.6585   24.0565 C   0  0  0  0  0  0
  -25.9031  -34.9474   23.5125 C   0  0  0  0  0  0
  -16.5349  -29.9085   23.6328 C   0  0  0  0  0  0
  -16.7266  -28.6503   23.0346 C   0  0  0  0  0  0
  -26.4485  -31.6594   25.0724 C   0  0  0  0  0  0
  -25.3751  -31.3710   26.1476 C   0  0  0  0  0  0
  -27.0308  -30.3033   24.6102 C   0  0  0  0  0  0
  -27.6060  -32.4313   25.7487 C   0  0  0  0  0  0
  -27.5581  -37.1809   24.8465 C   0  0  0  0  0  0
  -21.4150  -29.3046   22.3710 N   0  0  0  0  0  0
  -26.4297  -37.3792   23.9408 N   0  0  0  0  0  0
  -24.6724  -31.0762   22.1007 N   0  0  0  0  0  0
  -23.4190  -28.8197   23.3013 O   0  0  0  0  0  0
  -28.3679  -26.6252   20.1460 O   0  0  0  0  0  0
  -26.5588  -34.8931   22.4680 O   0  0  0  0  0  0
  -23.5373  -32.1428   23.7492 O   0  0  0  0  0  0
  -32.0101  -18.6485   19.4876 C   0  0  0  0  0  0
  -31.5412  -17.3387   19.6456 C   0  0  0  0  0  0
  -31.3820  -19.7250   20.1314 C   0  0  0  0  0  0
  -29.7699  -18.1428   21.1100 C   0  0  0  0  0  0
  -30.4582  -17.0355   20.5084 C   0  0  0  0  0  0
  -30.1982  -19.4994   20.8861 C   0  0  0  0  0  0
  -29.3738  -24.3861   20.6128 C   0  0  0  0  0  0
  -32.0649  -21.0821   20.0146 C   0  0  0  0  0  0
  -27.2392  -17.9730   21.2490 C   0  0  0  0  0  0
  -28.5652  -17.8695   22.0109 C   0  0  0  0  0  0
  -29.1814  -23.0929   21.4425 C   0  0  0  0  0  0
  -28.1242  -25.1974   20.2162 C   0  0  0  0  0  0
  -29.1073  -21.7613   20.6401 C   0  0  0  0  0  0
  -30.0396  -15.6577   20.7312 N   0  0  0  0  0  0
  -29.4756  -20.5807   21.4515 N   0  0  0  0  0  0
  -30.5065  -24.7607   20.2901 O   0  0  0  0  0  0
  -31.4525  -12.3704   19.1419 H   0  0  0  0  0  0
  -30.2788  -11.3237   19.8854 H   0  0  0  0  0  0
  -29.7338  -11.7377   17.4559 H   0  0  0  0  0  0
  -29.6612  -13.4570   17.7534 H   0  0  0  0  0  0
  -27.8379  -11.2945   18.8590 H   0  0  0  0  0  0
  -27.3631  -12.5857   17.7881 H   0  0  0  0  0  0
  -27.6688  -14.2549   19.5136 H   0  0  0  0  0  0
  -28.6781  -12.0853   21.4171 H   0  0  0  0  0  0
  -28.4732  -13.7717   21.8091 H   0  0  0  0  0  0
  -25.2755   -9.5679   22.4764 H   0  0  0  0  0  0
  -23.9997   -7.4632   22.7470 H   0  0  0  0  0  0
  -21.0841   -8.8773   19.8956 H   0  0  0  0  0  0
  -22.3691  -10.9674   19.6172 H   0  0  0  0  0  0
  -21.2004   -7.6140   23.9713 H   0  0  0  0  0  0
  -21.1482   -6.0518   25.9079 H   0  0  0  0  0  0
  -22.0597   -2.7602   23.2849 H   0  0  0  0  0  0
  -22.4080  -11.9893   22.4830 H   0  0  0  0  0  0
  -21.1083  -13.1270   22.2612 H   0  0  0  0  0  0
  -24.6424  -15.8331   20.5044 H   0  0  0  0  0  0
  -26.2606  -15.6248   20.0604 H   0  0  0  0  0  0
  -26.7133  -32.5525   23.1144 H   0  0  0  0  0  0
  -25.0105  -33.9751   25.0499 H   0  0  0  0  0  0
  -22.6962  -31.3119   21.4132 H   0  0  0  0  0  0
  -23.3748  -35.9645   23.3306 H   0  0  0  0  0  0
  -24.3583  -36.8913   22.2046 H   0  0  0  0  0  0
  -23.7245  -37.6522   23.6639 H   0  0  0  0  0  0
  -26.0561  -31.5941   20.6005 H   0  0  0  0  0  0
  -26.8235  -30.8758   21.9882 H   0  0  0  0  0  0
  -28.1044  -29.0731   21.1660 H   0  0  0  0  0  0
  -26.0039  -25.9770   18.9949 H   0  0  0  0  0  0
  -23.9672  -27.3104   19.0270 H   0  0  0  0  0  0
  -23.7275  -30.6063   19.4079 H   0  0  0  0  0  0
  -22.7361  -29.2541   19.8657 H   0  0  0  0  0  0
  -25.1283  -36.1965   25.0831 H   0  0  0  0  0  0
  -20.9970  -28.3253   24.1425 H   0  0  0  0  0  0
  -20.5683  -26.2281   23.3605 H   0  0  0  0  0  0
  -21.6646  -26.7456   22.1194 H   0  0  0  0  0  0
  -19.6924  -25.6300   21.1230 H   0  0  0  0  0  0
  -19.6693  -27.3203   20.6743 H   0  0  0  0  0  0
  -17.4199  -26.6675   21.4026 H   0  0  0  0  0  0
  -18.0342  -26.0057   22.9009 H   0  0  0  0  0  0
  -19.7932  -30.7264   24.2280 H   0  0  0  0  0  0
  -17.5011  -31.6264   24.5169 H   0  0  0  0  0  0
  -15.5350  -30.2992   23.7641 H   0  0  0  0  0  0
  -15.8669  -28.0827   22.7054 H   0  0  0  0  0  0
  -24.5918  -30.7059   25.7825 H   0  0  0  0  0  0
  -24.8951  -32.2867   26.4938 H   0  0  0  0  0  0
  -25.8109  -30.8877   27.0226 H   0  0  0  0  0  0
  -26.2849  -29.6799   24.1155 H   0  0  0  0  0  0
  -27.4073  -29.7266   25.4559 H   0  0  0  0  0  0
  -27.8691  -30.4347   23.9258 H   0  0  0  0  0  0
  -27.2677  -33.3601   26.2091 H   0  0  0  0  0  0
  -28.3855  -32.6885   25.0306 H   0  0  0  0  0  0
  -28.0738  -31.8418   26.5381 H   0  0  0  0  0  0
  -28.2603  -38.0101   24.7505 H   0  0  0  0  0  0
  -28.1069  -36.2631   24.6293 H   0  0  0  0  0  0
  -27.2297  -37.1468   25.8867 H   0  0  0  0  0  0
  -20.9318  -29.8774   21.6931 H   0  0  0  0  0  0
  -26.0187  -38.2870   24.1407 H   0  0  0  0  0  0
  -32.8833  -18.8208   18.8737 H   0  0  0  0  0  0
  -32.0699  -16.5793   19.0921 H   0  0  0  0  0  0
  -33.1484  -20.9615   19.9873 H   0  0  0  0  0  0
  -31.8451  -21.7243   20.8669 H   0  0  0  0  0  0
  -31.7693  -21.5910   19.0983 H   0  0  0  0  0  0
  -27.0679  -18.9840   20.8801 H   0  0  0  0  0  0
  -26.3988  -17.7058   21.8900 H   0  0  0  0  0  0
  -27.2335  -17.3048   20.3891 H   0  0  0  0  0  0
  -28.5659  -18.5591   22.8552 H   0  0  0  0  0  0
  -28.6475  -16.8865   22.4729 H   0  0  0  0  0  0
  -28.2942  -23.2009   22.0659 H   0  0  0  0  0  0
  -30.0242  -23.0461   22.1319 H   0  0  0  0  0  0
  -27.3330  -24.9892   20.9370 H   0  0  0  0  0  0
  -27.7922  -24.8303   19.2454 H   0  0  0  0  0  0
  -29.6921  -21.8349   19.7260 H   0  0  0  0  0  0
  -28.0814  -21.6213   20.2962 H   0  0  0  0  0  0
  -29.0937  -15.5257   21.0526 H   0  0  0  0  0  0
  -28.7248  -20.2750   22.0627 H   0  0  0  0  0  0
  1 25  1  0  0  0
  1 30  2  0  0  0
  1 84  1  0  0  0
  2  3  1  0  0  0
  2 25  1  0  0  0
  2 87  1  0  0  0
  2 88  1  0  0  0
  3  4  1  0  0  0
  3 89  1  0  0  0
  3 90  1  0  0  0
  4  5  1  0  0  0
  4 91  1  0  0  0
  4 92  1  0  0  0
  5  6  1  0  0  0
  5 26  1  0  0  0
  5 93  1  0  0  0
  6 25  1  0  0  0
  6 94  1  0  0  0
  6 95  1  0  0  0
  7  8  2  0  0  0
  7 26  1  0  0  0
  7 29  1  0  0  0
  8  9  1  0  0  0
  8 22  1  0  0  0
  9 10  1  0  0  0
  9 27  2  0  0  0
 10 11  2  0  0  0
 10 15  1  0  0  0
 11 12  1  0  0  0
 11 96  1  0  0  0
 12 13  2  0  0  0
 12 97  1  0  0  0
 13 14  1  0  0  0
 13 31  1  0  0  0
 14 15  2  0  0  0
 14 98  1  0  0  0
 15 99  1  0  0  0
 16 17  2  0  0  0
 16 21  1  0  0  0
 16 31  1  0  0  0
 17 18  1  0  0  0
 17100  1  0  0  0
 18 19  2  0  0  0
 18101  1  0  0  0
 19 20  1  0  0  0
 19 24  1  0  0  0
 20 21  2  0  0  0
 20102  1  0  0  0
 21 23  1  0  0  0
 22 28  1  0  0  0
 22 32  2  0  0  0
 26 27  1  0  0  0
 28103  1  0  0  0
 28104  1  0  0  0
 29105  1  0  0  0
 29106  1  0  0  0
 33 34  1  0  0  0
 33 66  1  0  0  0
 33 70  2  0  0  0
 34 36  1  0  0  0
 34 59  1  0  0  0
 34107  1  0  0  0
 35 44  2  0  0  0
 35 45  1  0  0  0
 35 68  1  0  0  0
 36 56  1  0  0  0
 36108  1  0  0  0
 37 39  1  0  0  0
 37 47  1  0  0  0
 37 66  1  0  0  0
 37109  1  0  0  0
 38 43  2  0  0  0
 38 46  1  0  0  0
 38 47  1  0  0  0
 39 64  1  0  0  0
 39 67  2  0  0  0
 40 52  1  0  0  0
 40 53  2  0  0  0
 40 58  1  0  0  0
 41110  1  0  0  0
 41111  1  0  0  0
 41112  1  0  0  0
 41 48  1  0  0  0
 42 43  1  0  0  0
 42 66  1  0  0  0
 42113  1  0  0  0
 42114  1  0  0  0
 43 44  1  0  0  0
 44115  1  0  0  0
 45 46  2  0  0  0
 45116  1  0  0  0
 46117  1  0  0  0
 47118  1  0  0  0
 47119  1  0  0  0
 48 56  1  0  0  0
 48 65  1  0  0  0
 48120  1  0  0  0
 49 50  1  0  0  0
 49 53  1  0  0  0
 49 64  1  0  0  0
 49121  1  0  0  0
 50 51  1  0  0  0
 50122  1  0  0  0
 50123  1  0  0  0
 51 52  1  0  0  0
 51124  1  0  0  0
 51125  1  0  0  0
 52126  1  0  0  0
 52127  1  0  0  0
 53 54  1  0  0  0
 54 55  2  0  0  0
 54128  1  0  0  0
 55 57  1  0  0  0
 55129  1  0  0  0
 56 69  2  0  0  0
 57 58  2  0  0  0
 57130  1  0  0  0
 58131  1  0  0  0
 59 60  1  0  0  0
 59 61  1  0  0  0
 59 62  1  0  0  0
 60132  1  0  0  0
 60133  1  0  0  0
 60134  1  0  0  0
 61135  1  0  0  0
 61136  1  0  0  0
 61137  1  0  0  0
 62138  1  0  0  0
 62139  1  0  0  0
 62140  1  0  0  0
 63 65  1  0  0  0
 63141  1  0  0  0
 63142  1  0  0  0
 63143  1  0  0  0
 64144  1  0  0  0
 65145  1  0  0  0
 68 82  1  0  0  0
 71 72  2  0  0  0
 71 73  1  0  0  0
 71146  1  0  0  0
 72 75  1  0  0  0
 72147  1  0  0  0
 73 76  2  0  0  0
 73 78  1  0  0  0
 74 75  2  0  0  0
 74 76  1  0  0  0
 74 80  1  0  0  0
 75 84  1  0  0  0
 76 85  1  0  0  0
 77 81  1  0  0  0
 77 82  1  0  0  0
 77 86  2  0  0  0
 78148  1  0  0  0
 78149  1  0  0  0
 78150  1  0  0  0
 79 80  1  0  0  0
 79151  1  0  0  0
 79152  1  0  0  0
 79153  1  0  0  0
 80154  1  0  0  0
 80155  1  0  0  0
 81 83  1  0  0  0
 81156  1  0  0  0
 81157  1  0  0  0
 82158  1  0  0  0
 82159  1  0  0  0
 83 85  1  0  0  0
 83160  1  0  0  0
 83161  1  0  0  0
 84162  1  0  0  0
 85163  1  0  0  0
M  ISO  4   1 100  68 101  82 101  84 100
M  END
> <chiral flag>
0

> <version>
0

> <s_m_source_file>
/data/baiqing/PycharmProjects/Reinvent-master-3.2/result/LINK_invent/BTK/process_docking_weight1_custom_product_contain_oxygen_bond_distance_aromatic_linkinvent_7_9_3/rearranged_h_0118.sdf

> <i_m_source_file_index>
96

> <r_mmod_Potential_Energy-OPLS-2005>
24.3639984130859

> <r_mmod_Stretch_Energy-OPLS-2005>
51.3280601501465

> <r_mmod_Bend_Energy-OPLS-2005>
108.631675720215

> <r_mmod_Torsional_Energy-OPLS-2005>
236.809432983398

> <r_mmod_Improper_Torsional_Energy-OPLS-2005>
8.19476127624512

> <r_mmod_Van_der_Waal_Energy-OPLS-2005>
164.383255004883

> <r_mmod_Electrostatic_Energy-OPLS-2005>
-342.236114501953

> <r_mmod_Solvation_Energy-OPLS-2005>
-230.55046081543

> <b_mmod_Minimization_Converged-OPLS-2005>
0

> <r_mmod_RMS_Derivative-OPLS-2005>
1.29134678840637

$$$$
