0
                    3D
 Structure written by MMmdl.
163172  0  0  1  0            999 V2000
  -30.7622  -14.4684   20.5993 C   0  0  0  0  0  0
  -30.3882  -12.3215   19.4202 C   0  0  0  0  0  0
  -29.4765  -12.5371   18.1954 C   0  0  0  0  0  0
  -27.9966  -12.3946   18.6000 C   0  0  0  0  0  0
  -27.6472  -13.2222   19.8641 C   0  0  2  0  0  0
  -28.6882  -13.0108   20.9795 C   0  0  0  0  0  0
  -25.2526  -13.8189   20.5710 C   0  0  0  0  0  0
  -24.1793  -13.0433   20.9181 C   0  0  0  0  0  0
  -24.6378  -11.6918   20.8729 C   0  0  0  0  0  0
  -23.9040  -10.4300   21.0394 C   0  0  0  0  0  0
  -24.3603   -9.4213   21.9173 C   0  0  0  0  0  0
  -23.6278   -8.2246   22.0752 C   0  0  0  0  0  0
  -22.4265   -8.0273   21.3540 C   0  0  0  0  0  0
  -21.9890   -9.0240   20.4644 C   0  0  0  0  0  0
  -22.7211  -10.2126   20.3037 C   0  0  0  0  0  0
  -21.6844   -6.0728   22.5277 C   0  0  0  0  0  0
  -21.4015   -6.5632   23.8212 C   0  0  0  0  0  0
  -21.3668   -5.6789   24.9176 C   0  0  0  0  0  0
  -21.6051   -4.3051   24.7223 C   0  0  0  0  0  0
  -21.8813   -3.8140   23.4341 C   0  0  0  0  0  0
  -21.9185   -4.6957   22.3396 C   0  0  0  0  0  0
  -22.7836  -13.5234   21.1844 C   0  0  0  0  0  0
  -22.1653   -4.2138   21.0974 F   0  0  0  0  0  0
  -21.5639   -3.4538   25.7739 F   0  0  0  0  0  0
  -30.0159  -13.3313   20.4329 N   0  0  0  0  0  0
  -26.2951  -12.9385   20.3329 N   0  0  0  0  0  0
  -25.9303  -11.6521   20.5741 N   0  0  0  0  0  0
  -22.0486  -12.8213   22.0406 N   0  0  0  0  0  0
  -25.4251  -15.1901   20.4179 N   0  0  0  0  0  0
  -31.8995  -14.5205   20.1314 O   0  0  0  0  0  0
  -21.6634   -6.8865   21.4235 O   0  0  0  0  0  0
  -22.3526  -14.5528   20.6681 O   0  0  0  0  0  0
  -24.6210  -31.8640   23.2077 C   0  0  0  0  0  0
  -25.9096  -32.4791   23.8361 C   0  0  1  0  0  0
  -27.2162  -27.3830   20.0928 C   0  0  0  0  0  0
  -25.5939  -33.8588   24.2294 N   0  0  0  0  0  0
  -23.4086  -30.4950   21.5486 C   0  0  2  0  0  0
  -24.8495  -28.9638   20.1104 C   0  0  0  0  0  0
  -22.7435  -29.4670   22.4941 C   0  0  0  0  0  0
  -18.0283  -28.1381   22.8485 C   0  0  0  0  0  0
  -24.1499  -36.7317   23.2634 C   0  0  0  0  0  0
  -25.9447  -30.8173   21.3663 C   0  0  0  0  0  0
  -26.0191  -29.4514   20.7078 C   0  0  0  0  0  0
  -27.2064  -28.6711   20.6922 C   0  0  0  0  0  0
  -26.0189  -26.9350   19.4803 C   0  0  0  0  0  0
  -24.8482  -27.7063   19.4939 C   0  0  0  0  0  0
  -23.6171  -29.8369   20.1612 C   0  0  0  0  0  0
  -25.4113  -36.3077   24.0324 C   0  0  1  0  0  0
  -20.5881  -28.3682   23.1285 C   0  0  2  0  0  0
  -20.6774  -26.9412   22.5405 C   0  0  0  0  0  0
  -19.5754  -26.6386   21.5199 C   0  0  0  0  0  0
  -18.1930  -26.7929   22.1617 C   0  0  0  0  0  0
  -19.1538  -28.8847   23.2886 C   0  0  0  0  0  0
  -18.9463  -30.1447   23.8900 C   0  0  0  0  0  0
  -17.6469  -30.6582   24.0569 C   0  0  0  0  0  0
  -25.9043  -34.9453   23.5098 C   0  0  0  0  0  0
  -16.5356  -29.9090   23.6322 C   0  0  0  0  0  0
  -16.7271  -28.6507   23.0336 C   0  0  0  0  0  0
  -26.4494  -31.6576   25.0711 C   0  0  0  0  0  0
  -25.3761  -31.3712   26.1468 C   0  0  0  0  0  0
  -27.0320  -30.2998   24.6124 C   0  0  0  0  0  0
  -27.6059  -32.4295   25.7500 C   0  0  0  0  0  0
  -27.5576  -37.1811   24.8457 C   0  0  0  0  0  0
  -21.4155  -29.3052   22.3684 N   0  0  0  0  0  0
  -26.4287  -37.3770   23.9403 N   0  0  0  0  0  0
  -24.6774  -31.0734   22.0986 N   0  0  0  0  0  0
  -23.4191  -28.8186   23.2982 O   0  0  0  0  0  0
  -28.3541  -26.5793   20.1212 O   0  0  0  0  0  0
  -26.5595  -34.8917   22.4651 O   0  0  0  0  0  0
  -23.5400  -32.1413   23.7452 O   0  0  0  0  0  0
  -31.5725  -18.6569   19.3827 C   0  0  0  0  0  0
  -30.6236  -19.6328   19.7111 C   0  0  0  0  0  0
  -31.4213  -17.3343   19.8270 C   0  0  0  0  0  0
  -29.3645  -17.9478   20.9519 C   0  0  0  0  0  0
  -29.5036  -19.2925   20.4908 C   0  0  0  0  0  0
  -30.3216  -16.9332   20.6360 C   0  0  0  0  0  0
  -29.2072  -22.1167   22.2820 C   0  0  0  0  0  0
  -28.9072  -22.6867   19.9796 C   0  0  0  0  0  0
  -29.4240  -23.5881   22.6518 C   0  0  0  0  0  0
  -30.0879  -24.3632   21.5172 C   0  0  0  0  0  0
  -29.3296  -24.1789   20.1977 C   0  0  2  0  0  0
  -29.8549  -15.5003   22.6021 C   0  0  0  0  0  0
  -28.4317  -20.3624   20.7704 C   0  0  0  0  0  0
  -28.1172  -25.1441   20.0215 C   0  0  0  0  0  0
  -28.8955  -21.7709   21.0032 N   0  0  0  0  0  0
  -30.1924  -15.5788   21.1732 N   0  0  0  0  0  0
  -29.2826  -21.2909   23.1999 O   0  0  0  0  0  0
  -28.5961  -22.3624   18.8284 O   0  0  0  0  0  0
  -31.4384  -12.3651   19.1284 H   0  0  0  0  0  0
  -30.2406  -11.3169   19.8197 H   0  0  0  0  0  0
  -29.7181  -11.8300   17.4002 H   0  0  0  0  0  0
  -29.6484  -13.5303   17.7783 H   0  0  0  0  0  0
  -27.7988  -11.3389   18.7835 H   0  0  0  0  0  0
  -27.3476  -12.6842   17.7710 H   0  0  0  0  0  0
  -27.6839  -14.2726   19.5766 H   0  0  0  0  0  0
  -28.6752  -11.9702   21.3064 H   0  0  0  0  0  0
  -28.4142  -13.5862   21.8580 H   0  0  0  0  0  0
  -25.2747   -9.5693   22.4757 H   0  0  0  0  0  0
  -23.9985   -7.4630   22.7463 H   0  0  0  0  0  0
  -21.0822   -8.8736   19.8950 H   0  0  0  0  0  0
  -22.3645  -10.9657   19.6145 H   0  0  0  0  0  0
  -21.2011   -7.6146   23.9704 H   0  0  0  0  0  0
  -21.1511   -6.0533   25.9078 H   0  0  0  0  0  0
  -22.0585   -2.7599   23.2845 H   0  0  0  0  0  0
  -22.4097  -11.9862   22.4776 H   0  0  0  0  0  0
  -21.1117  -13.1251   22.2650 H   0  0  0  0  0  0
  -24.6622  -15.8495   20.5276 H   0  0  0  0  0  0
  -26.2901  -15.6274   20.1265 H   0  0  0  0  0  0
  -26.7170  -32.5478   23.1119 H   0  0  0  0  0  0
  -25.0110  -33.9738   25.0453 H   0  0  0  0  0  0
  -22.7002  -31.3141   21.4103 H   0  0  0  0  0  0
  -23.3730  -35.9682   23.3293 H   0  0  0  0  0  0
  -24.3591  -36.8938   22.2051 H   0  0  0  0  0  0
  -23.7302  -37.6542   23.6652 H   0  0  0  0  0  0
  -26.0640  -31.5849   20.6003 H   0  0  0  0  0  0
  -26.8305  -30.8649   21.9878 H   0  0  0  0  0  0
  -28.1064  -29.0404   21.1631 H   0  0  0  0  0  0
  -25.9408  -25.9823   18.9813 H   0  0  0  0  0  0
  -23.9516  -27.3252   19.0244 H   0  0  0  0  0  0
  -23.7332  -30.6142   19.4058 H   0  0  0  0  0  0
  -22.7380  -29.2656   19.8574 H   0  0  0  0  0  0
  -25.1293  -36.1913   25.0815 H   0  0  0  0  0  0
  -20.9981  -28.3255   24.1405 H   0  0  0  0  0  0
  -20.5652  -26.2295   23.3601 H   0  0  0  0  0  0
  -21.6646  -26.7429   22.1214 H   0  0  0  0  0  0
  -19.6918  -25.6293   21.1232 H   0  0  0  0  0  0
  -19.6701  -27.3194   20.6727 H   0  0  0  0  0  0
  -17.4198  -26.6662   21.4021 H   0  0  0  0  0  0
  -18.0348  -26.0066   22.9014 H   0  0  0  0  0  0
  -19.7941  -30.7258   24.2274 H   0  0  0  0  0  0
  -17.5023  -31.6263   24.5172 H   0  0  0  0  0  0
  -15.5356  -30.2994   23.7648 H   0  0  0  0  0  0
  -15.8668  -28.0833   22.7039 H   0  0  0  0  0  0
  -24.5958  -30.7012   25.7828 H   0  0  0  0  0  0
  -24.8947  -32.2894   26.4851 H   0  0  0  0  0  0
  -25.8148  -30.8950   27.0252 H   0  0  0  0  0  0
  -26.2868  -29.6763   24.1177 H   0  0  0  0  0  0
  -27.4053  -29.7228   25.4592 H   0  0  0  0  0  0
  -27.8715  -30.4262   23.9288 H   0  0  0  0  0  0
  -27.2650  -33.3584   26.2078 H   0  0  0  0  0  0
  -28.3897  -32.6865   25.0363 H   0  0  0  0  0  0
  -28.0691  -31.8417   26.5437 H   0  0  0  0  0  0
  -28.2580  -38.0115   24.7472 H   0  0  0  0  0  0
  -28.1079  -36.2643   24.6295 H   0  0  0  0  0  0
  -27.2296  -37.1476   25.8861 H   0  0  0  0  0  0
  -20.9299  -29.8812   21.6948 H   0  0  0  0  0  0
  -26.0160  -38.2839   24.1401 H   0  0  0  0  0  0
  -32.4289  -18.9205   18.7786 H   0  0  0  0  0  0
  -30.7570  -20.6375   19.3402 H   0  0  0  0  0  0
  -32.2149  -16.6705   19.5290 H   0  0  0  0  0  0
  -28.5018  -17.6950   21.5505 H   0  0  0  0  0  0
  -30.0328  -23.6499   23.5536 H   0  0  0  0  0  0
  -28.4543  -24.0248   22.8913 H   0  0  0  0  0  0
  -31.1110  -24.0036   21.3946 H   0  0  0  0  0  0
  -30.1665  -25.4199   21.7726 H   0  0  0  0  0  0
  -30.0305  -24.4156   19.3957 H   0  0  0  0  0  0
  -30.4533  -16.2113   23.1737 H   0  0  0  0  0  0
  -30.0604  -14.5176   23.0304 H   0  0  0  0  0  0
  -28.8026  -15.7236   22.7797 H   0  0  0  0  0  0
  -27.8266  -20.0257   21.6145 H   0  0  0  0  0  0
  -27.7284  -20.3268   19.9360 H   0  0  0  0  0  0
  -27.3484  -24.8670   20.7456 H   0  0  0  0  0  0
  -27.7178  -24.9279   19.0303 H   0  0  0  0  0  0
  1 25  1  0  0  0
  1 30  2  0  0  0
  1 86  1  0  0  0
  2  3  1  0  0  0
  2 25  1  0  0  0
  2 89  1  0  0  0
  2 90  1  0  0  0
  3  4  1  0  0  0
  3 91  1  0  0  0
  3 92  1  0  0  0
  4  5  1  0  0  0
  4 93  1  0  0  0
  4 94  1  0  0  0
  5  6  1  0  0  0
  5 26  1  0  0  0
  5 95  1  0  0  0
  6 25  1  0  0  0
  6 96  1  0  0  0
  6 97  1  0  0  0
  7  8  2  0  0  0
  7 26  1  0  0  0
  7 29  1  0  0  0
  8  9  1  0  0  0
  8 22  1  0  0  0
  9 10  1  0  0  0
  9 27  2  0  0  0
 10 11  2  0  0  0
 10 15  1  0  0  0
 11 12  1  0  0  0
 11 98  1  0  0  0
 12 13  2  0  0  0
 12 99  1  0  0  0
 13 14  1  0  0  0
 13 31  1  0  0  0
 14 15  2  0  0  0
 14100  1  0  0  0
 15101  1  0  0  0
 16 17  2  0  0  0
 16 21  1  0  0  0
 16 31  1  0  0  0
 17 18  1  0  0  0
 17102  1  0  0  0
 18 19  2  0  0  0
 18103  1  0  0  0
 19 20  1  0  0  0
 19 24  1  0  0  0
 20 21  2  0  0  0
 20104  1  0  0  0
 21 23  1  0  0  0
 22 28  1  0  0  0
 22 32  2  0  0  0
 26 27  1  0  0  0
 28105  1  0  0  0
 28106  1  0  0  0
 29107  1  0  0  0
 29108  1  0  0  0
 33 34  1  0  0  0
 33 66  1  0  0  0
 33 70  2  0  0  0
 34 36  1  0  0  0
 34 59  1  0  0  0
 34109  1  0  0  0
 35 44  2  0  0  0
 35 45  1  0  0  0
 35 68  1  0  0  0
 36 56  1  0  0  0
 36110  1  0  0  0
 37 39  1  0  0  0
 37 47  1  0  0  0
 37 66  1  0  0  0
 37111  1  0  0  0
 38 43  2  0  0  0
 38 46  1  0  0  0
 38 47  1  0  0  0
 39 64  1  0  0  0
 39 67  2  0  0  0
 40 52  1  0  0  0
 40 53  2  0  0  0
 40 58  1  0  0  0
 41112  1  0  0  0
 41113  1  0  0  0
 41114  1  0  0  0
 41 48  1  0  0  0
 42 43  1  0  0  0
 42 66  1  0  0  0
 42115  1  0  0  0
 42116  1  0  0  0
 43 44  1  0  0  0
 44117  1  0  0  0
 45 46  2  0  0  0
 45118  1  0  0  0
 46119  1  0  0  0
 47120  1  0  0  0
 47121  1  0  0  0
 48 56  1  0  0  0
 48 65  1  0  0  0
 48122  1  0  0  0
 49 50  1  0  0  0
 49 53  1  0  0  0
 49 64  1  0  0  0
 49123  1  0  0  0
 50 51  1  0  0  0
 50124  1  0  0  0
 50125  1  0  0  0
 51 52  1  0  0  0
 51126  1  0  0  0
 51127  1  0  0  0
 52128  1  0  0  0
 52129  1  0  0  0
 53 54  1  0  0  0
 54 55  2  0  0  0
 54130  1  0  0  0
 55 57  1  0  0  0
 55131  1  0  0  0
 56 69  2  0  0  0
 57 58  2  0  0  0
 57132  1  0  0  0
 58133  1  0  0  0
 59 60  1  0  0  0
 59 61  1  0  0  0
 59 62  1  0  0  0
 60134  1  0  0  0
 60135  1  0  0  0
 60136  1  0  0  0
 61137  1  0  0  0
 61138  1  0  0  0
 61139  1  0  0  0
 62140  1  0  0  0
 62141  1  0  0  0
 62142  1  0  0  0
 63 65  1  0  0  0
 63143  1  0  0  0
 63144  1  0  0  0
 63145  1  0  0  0
 64146  1  0  0  0
 65147  1  0  0  0
 68 84  1  0  0  0
 71 72  2  0  0  0
 71 73  1  0  0  0
 71148  1  0  0  0
 72 75  1  0  0  0
 72149  1  0  0  0
 73 76  2  0  0  0
 73150  1  0  0  0
 74 75  2  0  0  0
 74 76  1  0  0  0
 74151  1  0  0  0
 75 83  1  0  0  0
 76 86  1  0  0  0
 77 79  1  0  0  0
 77 85  1  0  0  0
 77 87  2  0  0  0
 78 81  1  0  0  0
 78 85  1  0  0  0
 78 88  2  0  0  0
 79 80  1  0  0  0
 79152  1  0  0  0
 79153  1  0  0  0
 80 81  1  0  0  0
 80154  1  0  0  0
 80155  1  0  0  0
 81 84  1  0  0  0
 81156  1  0  0  0
 82 86  1  0  0  0
 82157  1  0  0  0
 82158  1  0  0  0
 82159  1  0  0  0
 83 85  1  0  0  0
 83160  1  0  0  0
 83161  1  0  0  0
 84162  1  0  0  0
 84163  1  0  0  0
M  ISO  4   1 100  68 101  84 101  86 100
M  END
> <chiral flag>
0

> <version>
0

> <s_m_source_file>
/data/baiqing/PycharmProjects/Reinvent-master-3.2/result/LINK_invent/BTK/process_docking_weight1_custom_product_contain_oxygen_bond_distance_aromatic_linkinvent_7_9_3/rearranged_h_0102.sdf

> <i_m_source_file_index>
1

> <r_mmod_Potential_Energy-OPLS-2005>
131.673400878906

> <r_mmod_Stretch_Energy-OPLS-2005>
63.2858467102051

> <r_mmod_Bend_Energy-OPLS-2005>
126.398582458496

> <r_mmod_Torsional_Energy-OPLS-2005>
290.179504394531

> <r_mmod_Improper_Torsional_Energy-OPLS-2005>
4.09174919128418

> <r_mmod_Van_der_Waal_Energy-OPLS-2005>
195.168579101562

> <r_mmod_Electrostatic_Energy-OPLS-2005>
-359.253540039062

> <r_mmod_Solvation_Energy-OPLS-2005>
-211.1328125

> <b_mmod_Minimization_Converged-OPLS-2005>
0

> <r_mmod_RMS_Derivative-OPLS-2005>
2.69836187362671

$$$$
1
                    3D
 Structure written by MMmdl.
163171  0  0  1  0            999 V2000
  -30.8493  -14.2693   20.7502 C   0  0  0  0  0  0
  -30.4005  -12.2853   19.3622 C   0  0  0  0  0  0
  -29.4627  -12.5354   18.1740 C   0  0  0  0  0  0
  -27.9978  -12.3736   18.6106 C   0  0  0  0  0  0
  -27.6676  -13.2002   19.8799 C   0  0  2  0  0  0
  -28.7118  -12.9666   20.9964 C   0  0  0  0  0  0
  -25.2619  -13.8160   20.5694 C   0  0  0  0  0  0
  -24.1854  -13.0451   20.9169 C   0  0  0  0  0  0
  -24.6396  -11.6911   20.8742 C   0  0  0  0  0  0
  -23.9061  -10.4299   21.0411 C   0  0  0  0  0  0
  -24.3611   -9.4217   21.9195 C   0  0  0  0  0  0
  -23.6291   -8.2254   22.0765 C   0  0  0  0  0  0
  -22.4278   -8.0287   21.3553 C   0  0  0  0  0  0
  -21.9917   -9.0254   20.4651 C   0  0  0  0  0  0
  -22.7237  -10.2137   20.3058 C   0  0  0  0  0  0
  -21.6852   -6.0738   22.5290 C   0  0  0  0  0  0
  -21.4010   -6.5644   23.8224 C   0  0  0  0  0  0
  -21.3656   -5.6793   24.9186 C   0  0  0  0  0  0
  -21.6046   -4.3056   24.7233 C   0  0  0  0  0  0
  -21.8822   -3.8148   23.4355 C   0  0  0  0  0  0
  -21.9194   -4.6964   22.3412 C   0  0  0  0  0  0
  -22.7877  -13.5248   21.1821 C   0  0  0  0  0  0
  -22.1663   -4.2151   21.0988 F   0  0  0  0  0  0
  -21.5627   -3.4540   25.7745 F   0  0  0  0  0  0
  -30.0551  -13.2147   20.4452 N   0  0  0  0  0  0
  -26.3068  -12.9323   20.3423 N   0  0  0  0  0  0
  -25.9331  -11.6482   20.5795 N   0  0  0  0  0  0
  -22.0517  -12.8247   22.0376 N   0  0  0  0  0  0
  -25.4369  -15.1877   20.4091 N   0  0  0  0  0  0
  -31.7391  -14.6682   19.9914 O   0  0  0  0  0  0
  -21.6646   -6.8882   21.4249 O   0  0  0  0  0  0
  -22.3562  -14.5547   20.6663 O   0  0  0  0  0  0
  -24.6104  -31.8702   23.2146 C   0  0  0  0  0  0
  -25.9015  -32.4832   23.8443 C   0  0  1  0  0  0
  -27.2416  -27.4768   20.0895 C   0  0  0  0  0  0
  -25.5883  -33.8629   24.2369 N   0  0  0  0  0  0
  -23.3982  -30.4941   21.5546 C   0  0  2  0  0  0
  -24.8468  -28.9633   20.1170 C   0  0  0  0  0  0
  -22.7379  -29.4668   22.5016 C   0  0  0  0  0  0
  -18.0266  -28.1374   22.8505 C   0  0  0  0  0  0
  -24.1469  -36.7318   23.2653 C   0  0  0  0  0  0
  -25.9229  -30.8494   21.3623 C   0  0  0  0  0  0
  -26.0037  -29.4861   20.7099 C   0  0  0  0  0  0
  -27.2068  -28.7499   20.6940 C   0  0  0  0  0  0
  -26.0737  -26.9566   19.4965 C   0  0  0  0  0  0
  -24.8744  -27.6942   19.5098 C   0  0  0  0  0  0
  -23.6041  -29.8241   20.1694 C   0  0  0  0  0  0
  -25.4096  -36.3121   24.0355 C   0  0  1  0  0  0
  -20.5847  -28.3667   23.1325 C   0  0  2  0  0  0
  -20.6737  -26.9402   22.5425 C   0  0  0  0  0  0
  -19.5730  -26.6387   21.5214 C   0  0  0  0  0  0
  -18.1899  -26.7932   22.1608 C   0  0  0  0  0  0
  -19.1512  -28.8838   23.2910 C   0  0  0  0  0  0
  -18.9441  -30.1440   23.8926 C   0  0  0  0  0  0
  -17.6443  -30.6585   24.0574 C   0  0  0  0  0  0
  -25.9022  -34.9474   23.5164 C   0  0  0  0  0  0
  -16.5334  -29.9089   23.6324 C   0  0  0  0  0  0
  -16.7254  -28.6492   23.0364 C   0  0  0  0  0  0
  -26.4472  -31.6601   25.0754 C   0  0  0  0  0  0
  -25.3730  -31.3616   26.1471 C   0  0  0  0  0  0
  -27.0367  -30.3075   24.6111 C   0  0  0  0  0  0
  -27.6031  -32.4347   25.7508 C   0  0  0  0  0  0
  -27.5583  -37.1810   24.8478 C   0  0  0  0  0  0
  -21.4111  -29.3031   22.3728 N   0  0  0  0  0  0
  -26.4293  -37.3797   23.9417 N   0  0  0  0  0  0
  -24.6621  -31.0840   22.1023 N   0  0  0  0  0  0
  -23.4156  -28.8221   23.3064 O   0  0  0  0  0  0
  -28.3917  -26.7336   20.0829 O   0  0  0  0  0  0
  -26.5583  -34.8919   22.4721 O   0  0  0  0  0  0
  -23.5301  -32.1437   23.7548 O   0  0  0  0  0  0
  -32.7271  -18.6200   22.1514 C   0  0  0  0  0  0
  -30.8770  -17.8849   23.5479 C   0  0  0  0  0  0
  -32.1381  -19.8948   22.0368 C   0  0  0  0  0  0
  -30.2892  -19.1579   23.4419 C   0  0  0  0  0  0
  -32.0989  -17.6062   22.9021 C   0  0  0  0  0  0
  -30.9074  -20.1687   22.6779 C   0  0  0  0  0  0
  -32.7421  -16.2943   23.0450 C   0  0  0  0  0  0
  -32.1931  -15.0831   22.7791 C   0  0  0  0  0  0
  -32.9648  -13.8711   23.0532 C   0  0  0  0  0  0
  -30.3063  -22.3778   21.6873 C   0  0  0  0  0  0
  -30.8067  -14.8675   22.1639 C   0  0  0  0  0  0
  -29.5000  -23.6433   21.9924 C   0  0  0  0  0  0
  -29.4287  -24.6617   20.8358 C   0  0  0  0  0  0
  -28.4158  -25.7733   21.1341 C   0  0  0  0  0  0
  -34.2488  -13.9428   22.7190 N   0  0  0  0  0  0
  -30.2804  -21.4417   22.6499 N   0  0  0  0  0  0
  -32.4979  -12.8284   23.5048 O   0  0  0  0  0  0
  -30.9032  -22.2533   20.6151 O   0  0  0  0  0  0
  -31.4415  -12.3764   19.0468 H   0  0  0  0  0  0
  -30.2899  -11.2593   19.7180 H   0  0  0  0  0  0
  -29.6886  -11.8435   17.3615 H   0  0  0  0  0  0
  -29.6230  -13.5402   17.7800 H   0  0  0  0  0  0
  -27.8178  -11.3139   18.7962 H   0  0  0  0  0  0
  -27.3300  -12.6534   17.7949 H   0  0  0  0  0  0
  -27.7236  -14.2512   19.5958 H   0  0  0  0  0  0
  -28.6575  -11.9436   21.3707 H   0  0  0  0  0  0
  -28.4689  -13.6149   21.8368 H   0  0  0  0  0  0
  -25.2758   -9.5704   22.4775 H   0  0  0  0  0  0
  -24.0009   -7.4651   22.7487 H   0  0  0  0  0  0
  -21.0858   -8.8763   19.8943 H   0  0  0  0  0  0
  -22.3700  -10.9672   19.6165 H   0  0  0  0  0  0
  -21.1997   -7.6155   23.9728 H   0  0  0  0  0  0
  -21.1472   -6.0522   25.9088 H   0  0  0  0  0  0
  -22.0600   -2.7613   23.2857 H   0  0  0  0  0  0
  -22.4130  -11.9909   22.4781 H   0  0  0  0  0  0
  -21.1131  -13.1266   22.2563 H   0  0  0  0  0  0
  -24.6771  -15.8512   20.5180 H   0  0  0  0  0  0
  -26.3030  -15.6237   20.1182 H   0  0  0  0  0  0
  -26.7087  -32.5564   23.1212 H   0  0  0  0  0  0
  -25.0029  -33.9789   25.0513 H   0  0  0  0  0  0
  -22.6853  -31.3105   21.4181 H   0  0  0  0  0  0
  -23.3740  -35.9643   23.3321 H   0  0  0  0  0  0
  -24.3556  -36.8925   22.2068 H   0  0  0  0  0  0
  -23.7201  -37.6513   23.6671 H   0  0  0  0  0  0
  -26.0301  -31.6172   20.5953 H   0  0  0  0  0  0
  -26.8102  -30.9019   21.9808 H   0  0  0  0  0  0
  -28.1031  -29.1518   21.1470 H   0  0  0  0  0  0
  -26.0981  -25.9825   19.0294 H   0  0  0  0  0  0
  -23.9829  -27.2838   19.0541 H   0  0  0  0  0  0
  -23.7020  -30.5988   19.4086 H   0  0  0  0  0  0
  -22.7292  -29.2389   19.8826 H   0  0  0  0  0  0
  -25.1261  -36.2003   25.0851 H   0  0  0  0  0  0
  -20.9956  -28.3245   24.1443 H   0  0  0  0  0  0
  -20.5623  -26.2276   23.3621 H   0  0  0  0  0  0
  -21.6607  -26.7426   22.1244 H   0  0  0  0  0  0
  -19.6877  -25.6304   21.1230 H   0  0  0  0  0  0
  -19.6665  -27.3192   20.6741 H   0  0  0  0  0  0
  -17.4184  -26.6733   21.3989 H   0  0  0  0  0  0
  -18.0254  -26.0045   22.8971 H   0  0  0  0  0  0
  -19.7917  -30.7242   24.2305 H   0  0  0  0  0  0
  -17.5005  -31.6262   24.5194 H   0  0  0  0  0  0
  -15.5337  -30.3006   23.7627 H   0  0  0  0  0  0
  -15.8647  -28.0812   22.7088 H   0  0  0  0  0  0
  -24.6053  -30.6793   25.7806 H   0  0  0  0  0  0
  -24.8717  -32.2692   26.4835 H   0  0  0  0  0  0
  -25.8109  -30.8913   27.0280 H   0  0  0  0  0  0
  -26.2926  -29.6746   24.1257 H   0  0  0  0  0  0
  -27.4280  -29.7394   25.4559 H   0  0  0  0  0  0
  -27.8683  -30.4464   23.9193 H   0  0  0  0  0  0
  -27.2670  -33.3666   26.2063 H   0  0  0  0  0  0
  -28.3834  -32.6859   25.0317 H   0  0  0  0  0  0
  -28.0711  -31.8486   26.5424 H   0  0  0  0  0  0
  -28.2604  -38.0104   24.7537 H   0  0  0  0  0  0
  -28.1069  -36.2637   24.6303 H   0  0  0  0  0  0
  -27.2293  -37.1445   25.8875 H   0  0  0  0  0  0
  -20.9272  -29.8764   21.6961 H   0  0  0  0  0  0
  -26.0196  -38.2875   24.1427 H   0  0  0  0  0  0
  -33.6716  -18.4258   21.6616 H   0  0  0  0  0  0
  -30.3917  -17.1244   24.1439 H   0  0  0  0  0  0
  -32.6528  -20.6556   21.4658 H   0  0  0  0  0  0
  -29.3572  -19.3491   23.9542 H   0  0  0  0  0  0
  -33.7447  -16.3437   23.4492 H   0  0  0  0  0  0
  -30.2383  -15.7919   22.1025 H   0  0  0  0  0  0
  -30.2644  -14.2169   22.8476 H   0  0  0  0  0  0
  -29.9221  -24.1206   22.8789 H   0  0  0  0  0  0
  -28.4903  -23.3330   22.2606 H   0  0  0  0  0  0
  -29.1406  -24.1607   19.9096 H   0  0  0  0  0  0
  -30.4151  -25.0966   20.6659 H   0  0  0  0  0  0
  -28.6696  -26.2764   22.0677 H   0  0  0  0  0  0
  -27.4310  -25.3230   21.2757 H   0  0  0  0  0  0
  -34.6164  -14.7806   22.2929 H   0  0  0  0  0  0
  -34.8553  -13.1467   22.8517 H   0  0  0  0  0  0
  -29.6774  -21.6489   23.4357 H   0  0  0  0  0  0
  1 25  1  0  0  0
  1 30  2  0  0  0
  1 81  1  0  0  0
  2  3  1  0  0  0
  2 25  1  0  0  0
  2 89  1  0  0  0
  2 90  1  0  0  0
  3  4  1  0  0  0
  3 91  1  0  0  0
  3 92  1  0  0  0
  4  5  1  0  0  0
  4 93  1  0  0  0
  4 94  1  0  0  0
  5  6  1  0  0  0
  5 26  1  0  0  0
  5 95  1  0  0  0
  6 25  1  0  0  0
  6 96  1  0  0  0
  6 97  1  0  0  0
  7  8  2  0  0  0
  7 26  1  0  0  0
  7 29  1  0  0  0
  8  9  1  0  0  0
  8 22  1  0  0  0
  9 10  1  0  0  0
  9 27  2  0  0  0
 10 11  2  0  0  0
 10 15  1  0  0  0
 11 12  1  0  0  0
 11 98  1  0  0  0
 12 13  2  0  0  0
 12 99  1  0  0  0
 13 14  1  0  0  0
 13 31  1  0  0  0
 14 15  2  0  0  0
 14100  1  0  0  0
 15101  1  0  0  0
 16 17  2  0  0  0
 16 21  1  0  0  0
 16 31  1  0  0  0
 17 18  1  0  0  0
 17102  1  0  0  0
 18 19  2  0  0  0
 18103  1  0  0  0
 19 20  1  0  0  0
 19 24  1  0  0  0
 20 21  2  0  0  0
 20104  1  0  0  0
 21 23  1  0  0  0
 22 28  1  0  0  0
 22 32  2  0  0  0
 26 27  1  0  0  0
 28105  1  0  0  0
 28106  1  0  0  0
 29107  1  0  0  0
 29108  1  0  0  0
 33 34  1  0  0  0
 33 66  1  0  0  0
 33 70  2  0  0  0
 34 36  1  0  0  0
 34 59  1  0  0  0
 34109  1  0  0  0
 35 44  2  0  0  0
 35 45  1  0  0  0
 35 68  1  0  0  0
 36 56  1  0  0  0
 36110  1  0  0  0
 37 39  1  0  0  0
 37 47  1  0  0  0
 37 66  1  0  0  0
 37111  1  0  0  0
 38 43  2  0  0  0
 38 46  1  0  0  0
 38 47  1  0  0  0
 39 64  1  0  0  0
 39 67  2  0  0  0
 40 52  1  0  0  0
 40 53  2  0  0  0
 40 58  1  0  0  0
 41112  1  0  0  0
 41113  1  0  0  0
 41114  1  0  0  0
 41 48  1  0  0  0
 42 43  1  0  0  0
 42 66  1  0  0  0
 42115  1  0  0  0
 42116  1  0  0  0
 43 44  1  0  0  0
 44117  1  0  0  0
 45 46  2  0  0  0
 45118  1  0  0  0
 46119  1  0  0  0
 47120  1  0  0  0
 47121  1  0  0  0
 48 56  1  0  0  0
 48 65  1  0  0  0
 48122  1  0  0  0
 49 50  1  0  0  0
 49 53  1  0  0  0
 49 64  1  0  0  0
 49123  1  0  0  0
 50 51  1  0  0  0
 50124  1  0  0  0
 50125  1  0  0  0
 51 52  1  0  0  0
 51126  1  0  0  0
 51127  1  0  0  0
 52128  1  0  0  0
 52129  1  0  0  0
 53 54  1  0  0  0
 54 55  2  0  0  0
 54130  1  0  0  0
 55 57  1  0  0  0
 55131  1  0  0  0
 56 69  2  0  0  0
 57 58  2  0  0  0
 57132  1  0  0  0
 58133  1  0  0  0
 59 60  1  0  0  0
 59 61  1  0  0  0
 59 62  1  0  0  0
 60134  1  0  0  0
 60135  1  0  0  0
 60136  1  0  0  0
 61137  1  0  0  0
 61138  1  0  0  0
 61139  1  0  0  0
 62140  1  0  0  0
 62141  1  0  0  0
 62142  1  0  0  0
 63 65  1  0  0  0
 63143  1  0  0  0
 63144  1  0  0  0
 63145  1  0  0  0
 64146  1  0  0  0
 65147  1  0  0  0
 68 84  1  0  0  0
 71 73  2  0  0  0
 71 75  1  0  0  0
 71148  1  0  0  0
 72 74  1  0  0  0
 72 75  2  0  0  0
 72149  1  0  0  0
 73 76  1  0  0  0
 73150  1  0  0  0
 74 76  2  0  0  0
 74151  1  0  0  0
 75 77  1  0  0  0
 76 86  1  0  0  0
 77 78  2  0  0  0
 77152  1  0  0  0
 78 79  1  0  0  0
 78 81  1  0  0  0
 79 85  1  0  0  0
 79 87  2  0  0  0
 80 82  1  0  0  0
 80 86  1  0  0  0
 80 88  2  0  0  0
 81153  1  0  0  0
 81154  1  0  0  0
 82 83  1  0  0  0
 82155  1  0  0  0
 82156  1  0  0  0
 83 84  1  0  0  0
 83157  1  0  0  0
 83158  1  0  0  0
 84159  1  0  0  0
 84160  1  0  0  0
 85161  1  0  0  0
 85162  1  0  0  0
 86163  1  0  0  0
M  ISO  4   1 100  68 101  81 100  84 101
M  END
> <chiral flag>
0

> <version>
0

> <s_m_source_file>
/data/baiqing/PycharmProjects/Reinvent-master-3.2/result/LINK_invent/BTK/process_docking_weight1_custom_product_contain_oxygen_bond_distance_aromatic_linkinvent_7_9_3/rearranged_h_0102.sdf

> <i_m_source_file_index>
2

> <r_mmod_Potential_Energy-OPLS-2005>
-290.633941650391

> <r_mmod_Stretch_Energy-OPLS-2005>
32.217601776123

> <r_mmod_Bend_Energy-OPLS-2005>
91.4528503417969

> <r_mmod_Torsional_Energy-OPLS-2005>
242.82568359375

> <r_mmod_Improper_Torsional_Energy-OPLS-2005>
4.37005090713501

> <r_mmod_Van_der_Waal_Energy-OPLS-2005>
160.96614074707

> <r_mmod_Electrostatic_Energy-OPLS-2005>
-584.67431640625

> <r_mmod_Solvation_Energy-OPLS-2005>
-247.128707885742

> <b_mmod_Minimization_Converged-OPLS-2005>
0

> <r_mmod_RMS_Derivative-OPLS-2005>
2.29448962211609

$$$$
2
                    3D
 Structure written by MMmdl.
164173  0  0  1  0            999 V2000
  -30.7589  -14.3748   20.6704 C   0  0  0  0  0  0
  -30.4153  -12.2894   19.3945 C   0  0  0  0  0  0
  -29.4841  -12.5323   18.1918 C   0  0  0  0  0  0
  -28.0076  -12.3875   18.6072 C   0  0  0  0  0  0
  -27.6663  -13.2040   19.8817 C   0  0  2  0  0  0
  -28.7044  -12.9404   20.9946 C   0  0  0  0  0  0
  -25.2609  -13.8159   20.5676 C   0  0  0  0  0  0
  -24.1852  -13.0441   20.9163 C   0  0  0  0  0  0
  -24.6400  -11.6905   20.8726 C   0  0  0  0  0  0
  -23.9067  -10.4291   21.0405 C   0  0  0  0  0  0
  -24.3618   -9.4207   21.9182 C   0  0  0  0  0  0
  -23.6293   -8.2244   22.0757 C   0  0  0  0  0  0
  -22.4275   -8.0285   21.3546 C   0  0  0  0  0  0
  -21.9913   -9.0259   20.4648 C   0  0  0  0  0  0
  -22.7243  -10.2133   20.3051 C   0  0  0  0  0  0
  -21.6850   -6.0741   22.5283 C   0  0  0  0  0  0
  -21.4012   -6.5644   23.8217 C   0  0  0  0  0  0
  -21.3656   -5.6795   24.9177 C   0  0  0  0  0  0
  -21.6041   -4.3060   24.7225 C   0  0  0  0  0  0
  -21.8820   -3.8151   23.4346 C   0  0  0  0  0  0
  -21.9196   -4.6968   22.3405 C   0  0  0  0  0  0
  -22.7877  -13.5243   21.1832 C   0  0  0  0  0  0
  -22.1663   -4.2158   21.0980 F   0  0  0  0  0  0
  -21.5626   -3.4539   25.7735 F   0  0  0  0  0  0
  -30.0466  -13.2371   20.4573 N   0  0  0  0  0  0
  -26.3048  -12.9323   20.3387 N   0  0  0  0  0  0
  -25.9325  -11.6483   20.5759 N   0  0  0  0  0  0
  -22.0510  -12.8236   22.0383 N   0  0  0  0  0  0
  -25.4349  -15.1875   20.4092 N   0  0  0  0  0  0
  -31.7964  -14.6364   20.0525 O   0  0  0  0  0  0
  -21.6638   -6.8883   21.4243 O   0  0  0  0  0  0
  -22.3573  -14.5560   20.6696 O   0  0  0  0  0  0
  -24.6121  -31.8698   23.2125 C   0  0  0  0  0  0
  -25.9027  -32.4825   23.8406 C   0  0  1  0  0  0
  -27.2338  -27.4527   20.0852 C   0  0  0  0  0  0
  -25.5897  -33.8629   24.2335 N   0  0  0  0  0  0
  -23.3978  -30.4946   21.5527 C   0  0  2  0  0  0
  -24.8417  -28.9634   20.1141 C   0  0  0  0  0  0
  -22.7387  -29.4667   22.5000 C   0  0  0  0  0  0
  -18.0264  -28.1372   22.8489 C   0  0  0  0  0  0
  -24.1484  -36.7312   23.2636 C   0  0  0  0  0  0
  -25.9249  -30.8382   21.3644 C   0  0  0  0  0  0
  -25.9995  -29.4743   20.7116 C   0  0  0  0  0  0
  -27.1944  -28.7241   20.6981 C   0  0  0  0  0  0
  -26.0573  -26.9572   19.4725 C   0  0  0  0  0  0
  -24.8645  -27.7029   19.4941 C   0  0  0  0  0  0
  -23.6037  -29.8285   20.1661 C   0  0  0  0  0  0
  -25.4104  -36.3115   24.0339 C   0  0  1  0  0  0
  -20.5849  -28.3658   23.1323 C   0  0  2  0  0  0
  -20.6755  -26.9397   22.5420 C   0  0  0  0  0  0
  -19.5742  -26.6383   21.5208 C   0  0  0  0  0  0
  -18.1915  -26.7924   22.1610 C   0  0  0  0  0  0
  -19.1512  -28.8829   23.2906 C   0  0  0  0  0  0
  -18.9446  -30.1434   23.8917 C   0  0  0  0  0  0
  -17.6451  -30.6583   24.0563 C   0  0  0  0  0  0
  -25.9034  -34.9479   23.5133 C   0  0  0  0  0  0
  -16.5340  -29.9088   23.6324 C   0  0  0  0  0  0
  -16.7254  -28.6503   23.0345 C   0  0  0  0  0  0
  -26.4469  -31.6596   25.0726 C   0  0  0  0  0  0
  -25.3749  -31.3694   26.1484 C   0  0  0  0  0  0
  -27.0289  -30.3038   24.6085 C   0  0  0  0  0  0
  -27.6050  -32.4310   25.7487 C   0  0  0  0  0  0
  -27.5581  -37.1807   24.8458 C   0  0  0  0  0  0
  -21.4119  -29.3030   22.3733 N   0  0  0  0  0  0
  -26.4285  -37.3803   23.9419 N   0  0  0  0  0  0
  -24.6629  -31.0815   22.1018 N   0  0  0  0  0  0
  -23.4174  -28.8208   23.3031 O   0  0  0  0  0  0
  -28.4263  -26.7613   20.1097 O   0  0  0  0  0  0
  -26.5593  -34.8929   22.4695 O   0  0  0  0  0  0
  -23.5320  -32.1450   23.7535 O   0  0  0  0  0  0
  -30.1544  -18.7319   22.7950 C   0  0  0  0  0  0
  -32.4826  -18.1000   22.4662 C   0  0  0  0  0  0
  -29.7493  -17.4457   22.3833 C   0  0  0  0  0  0
  -32.0789  -16.8177   22.0515 C   0  0  0  0  0  0
  -31.5242  -19.0662   22.8334 C   0  0  0  0  0  0
  -30.7049  -16.4842   21.9908 C   0  0  0  0  0  0
  -29.5722  -23.3356   20.7837 C   0  0  0  0  0  0
  -29.5441  -24.6407   20.5030 C   0  0  0  0  0  0
  -30.7325  -25.3721   21.0653 C   0  0  0  0  0  0
  -31.5783  -24.2371   21.6784 C   0  0  0  0  0  0
  -31.9804  -20.4456   23.2810 C   0  0  0  0  0  0
  -28.4335  -25.3737   19.7728 C   0  0  0  0  0  0
  -32.5622  -21.2936   22.1309 C   0  0  0  0  0  0
  -31.5202  -21.8028   21.1089 C   0  0  0  0  0  0
  -30.2407  -15.2001   21.5951 N   0  0  0  0  0  0
  -30.7667  -22.9913   21.5832 N   0  3  2  0  0  0
  -31.4592  -12.3850   19.0898 H   0  0  0  0  0  0
  -30.3088  -11.2660   19.7576 H   0  0  0  0  0  0
  -29.7160  -11.8348   17.3859 H   0  0  0  0  0  0
  -29.6553  -13.5320   17.7897 H   0  0  0  0  0  0
  -27.8107  -11.3288   18.7791 H   0  0  0  0  0  0
  -27.3557  -12.6867   17.7853 H   0  0  0  0  0  0
  -27.7254  -14.2594   19.6149 H   0  0  0  0  0  0
  -28.6666  -11.8939   21.3006 H   0  0  0  0  0  0
  -28.4527  -13.5058   21.8921 H   0  0  0  0  0  0
  -25.2767   -9.5685   22.4752 H   0  0  0  0  0  0
  -24.0006   -7.4637   22.7476 H   0  0  0  0  0  0
  -21.0847   -8.8779   19.8951 H   0  0  0  0  0  0
  -22.3713  -10.9671   19.6153 H   0  0  0  0  0  0
  -21.1997   -7.6153   23.9724 H   0  0  0  0  0  0
  -21.1475   -6.0522   25.9082 H   0  0  0  0  0  0
  -22.0598   -2.7614   23.2841 H   0  0  0  0  0  0
  -22.4111  -11.9879   22.4748 H   0  0  0  0  0  0
  -21.1130  -13.1268   22.2584 H   0  0  0  0  0  0
  -24.6715  -15.8469   20.5147 H   0  0  0  0  0  0
  -26.2958  -15.6233   20.1018 H   0  0  0  0  0  0
  -26.7096  -32.5541   23.1169 H   0  0  0  0  0  0
  -25.0069  -33.9801   25.0493 H   0  0  0  0  0  0
  -22.6859  -31.3114   21.4161 H   0  0  0  0  0  0
  -23.3753  -35.9634   23.3289 H   0  0  0  0  0  0
  -24.3587  -36.8940   22.2054 H   0  0  0  0  0  0
  -23.7224  -37.6509   23.6658 H   0  0  0  0  0  0
  -26.0367  -31.6048   20.5961 H   0  0  0  0  0  0
  -26.8129  -30.8892   21.9826 H   0  0  0  0  0  0
  -28.0884  -29.1159   21.1631 H   0  0  0  0  0  0
  -26.0379  -26.0066   18.9606 H   0  0  0  0  0  0
  -23.9757  -27.3078   19.0218 H   0  0  0  0  0  0
  -23.7101  -30.6045   19.4071 H   0  0  0  0  0  0
  -22.7280  -29.2477   19.8709 H   0  0  0  0  0  0
  -25.1278  -36.1977   25.0830 H   0  0  0  0  0  0
  -20.9941  -28.3222   24.1444 H   0  0  0  0  0  0
  -20.5650  -26.2269   23.3604 H   0  0  0  0  0  0
  -21.6628  -26.7447   22.1216 H   0  0  0  0  0  0
  -19.6909  -25.6301   21.1223 H   0  0  0  0  0  0
  -19.6693  -27.3204   20.6750 H   0  0  0  0  0  0
  -17.4196  -26.6682   21.3999 H   0  0  0  0  0  0
  -18.0310  -26.0054   22.8992 H   0  0  0  0  0  0
  -19.7928  -30.7233   24.2300 H   0  0  0  0  0  0
  -17.5017  -31.6267   24.5160 H   0  0  0  0  0  0
  -15.5343  -30.2999   23.7648 H   0  0  0  0  0  0
  -15.8650  -28.0833   22.7052 H   0  0  0  0  0  0
  -24.5930  -30.7026   25.7834 H   0  0  0  0  0  0
  -24.8931  -32.2842   26.4943 H   0  0  0  0  0  0
  -25.8119  -30.8869   27.0235 H   0  0  0  0  0  0
  -26.2820  -29.6806   24.1153 H   0  0  0  0  0  0
  -27.4076  -29.7267   25.4531 H   0  0  0  0  0  0
  -27.8651  -30.4352   23.9215 H   0  0  0  0  0  0
  -27.2671  -33.3601   26.2089 H   0  0  0  0  0  0
  -28.3852  -32.6880   25.0312 H   0  0  0  0  0  0
  -28.0724  -31.8419   26.5387 H   0  0  0  0  0  0
  -28.2584  -38.0120   24.7537 H   0  0  0  0  0  0
  -28.1093  -36.2659   24.6235 H   0  0  0  0  0  0
  -27.2312  -37.1394   25.8863 H   0  0  0  0  0  0
  -20.9271  -29.8756   21.6963 H   0  0  0  0  0  0
  -26.0171  -38.2874   24.1448 H   0  0  0  0  0  0
  -29.4054  -19.4566   23.0835 H   0  0  0  0  0  0
  -33.5367  -18.3379   22.5037 H   0  0  0  0  0  0
  -28.6947  -17.2074   22.3623 H   0  0  0  0  0  0
  -32.8422  -16.0991   21.7903 H   0  0  0  0  0  0
  -28.8567  -22.5608   20.5472 H   0  0  0  0  0  0
  -30.4110  -26.0865   21.8246 H   0  0  0  0  0  0
  -31.2708  -25.9084   20.2835 H   0  0  0  0  0  0
  -31.8321  -24.4428   22.7186 H   0  0  0  0  0  0
  -32.5161  -24.1399   21.1298 H   0  0  0  0  0  0
  -32.7465  -20.3079   24.0458 H   0  0  0  0  0  0
  -31.1635  -20.9709   23.7771 H   0  0  0  0  0  0
  -27.5058  -24.8675   20.0423 H   0  0  0  0  0  0
  -28.5770  -25.2675   18.6968 H   0  0  0  0  0  0
  -33.3116  -20.7017   21.6042 H   0  0  0  0  0  0
  -33.1154  -22.1347   22.5490 H   0  0  0  0  0  0
  -30.8228  -20.9995   20.8675 H   0  0  0  0  0  0
  -32.0147  -22.0549   20.1696 H   0  0  0  0  0  0
  -29.3491  -14.9097   21.9668 H   0  0  0  0  0  0
  -30.4503  -22.7803   22.5176 H   0  0  0  0  0  0
  1 25  1  0  0  0
  1 30  2  0  0  0
  1 85  1  0  0  0
  2  3  1  0  0  0
  2 25  1  0  0  0
  2 87  1  0  0  0
  2 88  1  0  0  0
  3  4  1  0  0  0
  3 89  1  0  0  0
  3 90  1  0  0  0
  4  5  1  0  0  0
  4 91  1  0  0  0
  4 92  1  0  0  0
  5  6  1  0  0  0
  5 26  1  0  0  0
  5 93  1  0  0  0
  6 25  1  0  0  0
  6 94  1  0  0  0
  6 95  1  0  0  0
  7  8  2  0  0  0
  7 26  1  0  0  0
  7 29  1  0  0  0
  8  9  1  0  0  0
  8 22  1  0  0  0
  9 10  1  0  0  0
  9 27  2  0  0  0
 10 11  2  0  0  0
 10 15  1  0  0  0
 11 12  1  0  0  0
 11 96  1  0  0  0
 12 13  2  0  0  0
 12 97  1  0  0  0
 13 14  1  0  0  0
 13 31  1  0  0  0
 14 15  2  0  0  0
 14 98  1  0  0  0
 15 99  1  0  0  0
 16 17  2  0  0  0
 16 21  1  0  0  0
 16 31  1  0  0  0
 17 18  1  0  0  0
 17100  1  0  0  0
 18 19  2  0  0  0
 18101  1  0  0  0
 19 20  1  0  0  0
 19 24  1  0  0  0
 20 21  2  0  0  0
 20102  1  0  0  0
 21 23  1  0  0  0
 22 28  1  0  0  0
 22 32  2  0  0  0
 26 27  1  0  0  0
 28103  1  0  0  0
 28104  1  0  0  0
 29105  1  0  0  0
 29106  1  0  0  0
 33 34  1  0  0  0
 33 66  1  0  0  0
 33 70  2  0  0  0
 34 36  1  0  0  0
 34 59  1  0  0  0
 34107  1  0  0  0
 35 44  2  0  0  0
 35 45  1  0  0  0
 35 68  1  0  0  0
 36 56  1  0  0  0
 36108  1  0  0  0
 37 39  1  0  0  0
 37 47  1  0  0  0
 37 66  1  0  0  0
 37109  1  0  0  0
 38 43  2  0  0  0
 38 46  1  0  0  0
 38 47  1  0  0  0
 39 64  1  0  0  0
 39 67  2  0  0  0
 40 52  1  0  0  0
 40 53  2  0  0  0
 40 58  1  0  0  0
 41110  1  0  0  0
 41111  1  0  0  0
 41112  1  0  0  0
 41 48  1  0  0  0
 42 43  1  0  0  0
 42 66  1  0  0  0
 42113  1  0  0  0
 42114  1  0  0  0
 43 44  1  0  0  0
 44115  1  0  0  0
 45 46  2  0  0  0
 45116  1  0  0  0
 46117  1  0  0  0
 47118  1  0  0  0
 47119  1  0  0  0
 48 56  1  0  0  0
 48 65  1  0  0  0
 48120  1  0  0  0
 49 50  1  0  0  0
 49 53  1  0  0  0
 49 64  1  0  0  0
 49121  1  0  0  0
 50 51  1  0  0  0
 50122  1  0  0  0
 50123  1  0  0  0
 51 52  1  0  0  0
 51124  1  0  0  0
 51125  1  0  0  0
 52126  1  0  0  0
 52127  1  0  0  0
 53 54  1  0  0  0
 54 55  2  0  0  0
 54128  1  0  0  0
 55 57  1  0  0  0
 55129  1  0  0  0
 56 69  2  0  0  0
 57 58  2  0  0  0
 57130  1  0  0  0
 58131  1  0  0  0
 59 60  1  0  0  0
 59 61  1  0  0  0
 59 62  1  0  0  0
 60132  1  0  0  0
 60133  1  0  0  0
 60134  1  0  0  0
 61135  1  0  0  0
 61136  1  0  0  0
 61137  1  0  0  0
 62138  1  0  0  0
 62139  1  0  0  0
 62140  1  0  0  0
 63 65  1  0  0  0
 63141  1  0  0  0
 63142  1  0  0  0
 63143  1  0  0  0
 64144  1  0  0  0
 65145  1  0  0  0
 68 82  1  0  0  0
 71 73  2  0  0  0
 71 75  1  0  0  0
 71146  1  0  0  0
 72 74  1  0  0  0
 72 75  2  0  0  0
 72147  1  0  0  0
 73 76  1  0  0  0
 73148  1  0  0  0
 74 76  2  0  0  0
 74149  1  0  0  0
 75 81  1  0  0  0
 76 85  1  0  0  0
 77 78  2  0  0  0
 77 86  1  0  0  0
 77150  1  0  0  0
 78 79  1  0  0  0
 78 82  1  0  0  0
 79 80  1  0  0  0
 79151  1  0  0  0
 79152  1  0  0  0
 80 86  1  0  0  0
 80153  1  0  0  0
 80154  1  0  0  0
 81 83  1  0  0  0
 81155  1  0  0  0
 81156  1  0  0  0
 82157  1  0  0  0
 82158  1  0  0  0
 83 84  1  0  0  0
 83159  1  0  0  0
 83160  1  0  0  0
 84161  1  0  0  0
 84162  1  0  0  0
 84 86  1  0  0  0
 85163  1  0  0  0
 86164  1  0  0  0
M  CHG  1  86   1
M  ISO  4   1 100  68 101  82 101  85 100
M  END
> <chiral flag>
0

> <version>
0

> <s_m_source_file>
/data/baiqing/PycharmProjects/Reinvent-master-3.2/result/LINK_invent/BTK/process_docking_weight1_custom_product_contain_oxygen_bond_distance_aromatic_linkinvent_7_9_3/rearranged_h_0102.sdf

> <i_m_source_file_index>
3

> <r_mmod_Potential_Energy-OPLS-2005>
-136.727264404297

> <r_mmod_Stretch_Energy-OPLS-2005>
33.4686431884766

> <r_mmod_Bend_Energy-OPLS-2005>
137.648574829102

> <r_mmod_Torsional_Energy-OPLS-2005>
239.408264160156

> <r_mmod_Improper_Torsional_Energy-OPLS-2005>
1.97263765335083

> <r_mmod_Van_der_Waal_Energy-OPLS-2005>
156.021896362305

> <r_mmod_Electrostatic_Energy-OPLS-2005>
-273.739624023438

> <r_mmod_Solvation_Energy-OPLS-2005>
-439.669036865234

> <b_mmod_Minimization_Converged-OPLS-2005>
0

> <r_mmod_RMS_Derivative-OPLS-2005>
0.793886184692383

$$$$
3
                    3D
 Structure written by MMmdl.
165173  0  0  1  0            999 V2000
  -30.7577  -14.3931   20.6339 C   0  0  0  0  0  0
  -30.4123  -12.2789   19.4126 C   0  0  0  0  0  0
  -29.4907  -12.5113   18.1999 C   0  0  0  0  0  0
  -28.0106  -12.3792   18.6082 C   0  0  0  0  0  0
  -27.6638  -13.2052   19.8754 C   0  0  2  0  0  0
  -28.6995  -12.9577   20.9927 C   0  0  0  0  0  0
  -25.2594  -13.8162   20.5666 C   0  0  0  0  0  0
  -24.1838  -13.0442   20.9155 C   0  0  0  0  0  0
  -24.6388  -11.6909   20.8715 C   0  0  0  0  0  0
  -23.9057  -10.4296   21.0402 C   0  0  0  0  0  0
  -24.3614   -9.4217   21.9184 C   0  0  0  0  0  0
  -23.6295   -8.2247   22.0755 C   0  0  0  0  0  0
  -22.4278   -8.0279   21.3546 C   0  0  0  0  0  0
  -21.9906   -9.0248   20.4648 C   0  0  0  0  0  0
  -22.7228  -10.2132   20.3056 C   0  0  0  0  0  0
  -21.6851   -6.0733   22.5284 C   0  0  0  0  0  0
  -21.4010   -6.5637   23.8218 C   0  0  0  0  0  0
  -21.3660   -5.6787   24.9178 C   0  0  0  0  0  0
  -21.6048   -4.3050   24.7226 C   0  0  0  0  0  0
  -21.8822   -3.8145   23.4344 C   0  0  0  0  0  0
  -21.9191   -4.6961   22.3401 C   0  0  0  0  0  0
  -22.7864  -13.5249   21.1829 C   0  0  0  0  0  0
  -22.1664   -4.2151   21.0978 F   0  0  0  0  0  0
  -21.5633   -3.4534   25.7737 F   0  0  0  0  0  0
  -30.0404  -13.2497   20.4541 N   0  0  0  0  0  0
  -26.3029  -12.9331   20.3349 N   0  0  0  0  0  0
  -25.9311  -11.6489   20.5730 N   0  0  0  0  0  0
  -22.0489  -12.8254   22.0382 N   0  0  0  0  0  0
  -25.4327  -15.1881   20.4104 N   0  0  0  0  0  0
  -31.8425  -14.5745   20.0784 O   0  0  0  0  0  0
  -21.6641   -6.8878   21.4246 O   0  0  0  0  0  0
  -22.3560  -14.5559   20.6676 O   0  0  0  0  0  0
  -24.6106  -31.8704   23.2137 C   0  0  0  0  0  0
  -25.9015  -32.4837   23.8414 C   0  0  1  0  0  0
  -27.2374  -27.4679   20.0695 C   0  0  0  0  0  0
  -25.5882  -33.8636   24.2341 N   0  0  0  0  0  0
  -23.3967  -30.4952   21.5537 C   0  0  2  0  0  0
  -24.8415  -28.9645   20.1165 C   0  0  0  0  0  0
  -22.7384  -29.4669   22.5009 C   0  0  0  0  0  0
  -18.0261  -28.1377   22.8495 C   0  0  0  0  0  0
  -24.1483  -36.7324   23.2639 C   0  0  0  0  0  0
  -25.9233  -30.8401   21.3659 C   0  0  0  0  0  0
  -25.9985  -29.4752   20.7169 C   0  0  0  0  0  0
  -27.1942  -28.7261   20.7066 C   0  0  0  0  0  0
  -26.0567  -26.9570   19.4822 C   0  0  0  0  0  0
  -24.8621  -27.6995   19.5049 C   0  0  0  0  0  0
  -23.6032  -29.8290   20.1672 C   0  0  0  0  0  0
  -25.4104  -36.3123   24.0340 C   0  0  1  0  0  0
  -20.5848  -28.3652   23.1335 C   0  0  2  0  0  0
  -20.6751  -26.9393   22.5425 C   0  0  0  0  0  0
  -19.5734  -26.6386   21.5216 C   0  0  0  0  0  0
  -18.1911  -26.7924   22.1625 C   0  0  0  0  0  0
  -19.1509  -28.8831   23.2913 C   0  0  0  0  0  0
  -18.9442  -30.1439   23.8920 C   0  0  0  0  0  0
  -17.6447  -30.6586   24.0567 C   0  0  0  0  0  0
  -25.9027  -34.9485   23.5138 C   0  0  0  0  0  0
  -16.5336  -29.9093   23.6323 C   0  0  0  0  0  0
  -16.7251  -28.6509   23.0343 C   0  0  0  0  0  0
  -26.4458  -31.6608   25.0730 C   0  0  0  0  0  0
  -25.3739  -31.3693   26.1489 C   0  0  0  0  0  0
  -27.0283  -30.3057   24.6082 C   0  0  0  0  0  0
  -27.6036  -32.4327   25.7486 C   0  0  0  0  0  0
  -27.5579  -37.1817   24.8464 C   0  0  0  0  0  0
  -21.4116  -29.3026   22.3747 N   0  0  0  0  0  0
  -26.4292  -37.3805   23.9408 N   0  0  0  0  0  0
  -24.6616  -31.0825   22.1030 N   0  0  0  0  0  0
  -23.4173  -28.8210   23.3036 O   0  0  0  0  0  0
  -28.4261  -26.7750   20.0517 O   0  0  0  0  0  0
  -26.5596  -34.8929   22.4702 O   0  0  0  0  0  0
  -23.5309  -32.1448   23.7551 O   0  0  0  0  0  0
  -30.6865  -20.1086   21.2041 C   0  0  0  0  0  0
  -30.0770  -19.3714   18.9653 C   0  0  0  0  0  0
  -30.3399  -21.4317   20.8613 C   0  0  0  0  0  0
  -29.7275  -20.6910   18.6241 C   0  0  0  0  0  0
  -30.5765  -19.0752   20.2504 C   0  0  0  0  0  0
  -29.8738  -21.7333   19.5609 C   0  0  0  0  0  0
  -30.0950  -15.3656   22.7783 C   0  0  0  0  0  0
  -33.2118  -17.7536   19.6070 C   0  0  0  0  0  0
  -30.1352  -25.4450   18.9640 C   0  0  0  0  0  0
  -30.1876  -24.1701   19.8234 C   0  0  0  0  0  0
  -29.8328  -16.6901   20.6999 C   0  0  0  0  0  0
  -28.7353  -26.0687   18.8522 C   0  0  0  0  0  0
  -31.0348  -17.6598   20.5767 C   0  0  1  0  0  0
  -29.5553  -23.0352   19.1553 N   0  0  0  0  0  0
  -30.1375  -15.3832   21.3128 N   0  0  0  0  0  0
  -31.9032  -17.1999   19.5496 O   0  0  0  0  0  0
  -31.4584  -12.3575   19.1113 H   0  0  0  0  0  0
  -30.2945  -11.2631   19.7932 H   0  0  0  0  0  0
  -29.7252  -11.7979   17.4083 H   0  0  0  0  0  0
  -29.6717  -13.5033   17.7816 H   0  0  0  0  0  0
  -27.8090  -11.3227   18.7883 H   0  0  0  0  0  0
  -27.3649  -12.6733   17.7799 H   0  0  0  0  0  0
  -27.7187  -14.2582   19.5975 H   0  0  0  0  0  0
  -28.6617  -11.9183   21.3218 H   0  0  0  0  0  0
  -28.4457  -13.5458   21.8729 H   0  0  0  0  0  0
  -25.2757   -9.5699   22.4759 H   0  0  0  0  0  0
  -24.0008   -7.4639   22.7472 H   0  0  0  0  0  0
  -21.0838   -8.8762   19.8951 H   0  0  0  0  0  0
  -22.3686  -10.9667   19.6165 H   0  0  0  0  0  0
  -21.2000   -7.6144   23.9724 H   0  0  0  0  0  0
  -21.1484   -6.0514   25.9085 H   0  0  0  0  0  0
  -22.0601   -2.7606   23.2838 H   0  0  0  0  0  0
  -22.4083  -11.9911   22.4783 H   0  0  0  0  0  0
  -21.1106  -13.1298   22.2569 H   0  0  0  0  0  0
  -24.6710  -15.8473   20.5284 H   0  0  0  0  0  0
  -26.2965  -15.6272   20.1167 H   0  0  0  0  0  0
  -26.7085  -32.5556   23.1180 H   0  0  0  0  0  0
  -25.0019  -33.9805   25.0476 H   0  0  0  0  0  0
  -22.6838  -31.3111   21.4175 H   0  0  0  0  0  0
  -23.3740  -35.9662   23.3317 H   0  0  0  0  0  0
  -24.3574  -36.8923   22.2050 H   0  0  0  0  0  0
  -23.7240  -37.6537   23.6641 H   0  0  0  0  0  0
  -26.0323  -31.6048   20.5956 H   0  0  0  0  0  0
  -26.8132  -30.8947   21.9810 H   0  0  0  0  0  0
  -28.0896  -29.1191   21.1677 H   0  0  0  0  0  0
  -26.0358  -25.9858   19.0109 H   0  0  0  0  0  0
  -23.9691  -27.2958   19.0475 H   0  0  0  0  0  0
  -23.7091  -30.6046   19.4078 H   0  0  0  0  0  0
  -22.7276  -29.2475   19.8728 H   0  0  0  0  0  0
  -25.1280  -36.1994   25.0834 H   0  0  0  0  0  0
  -20.9938  -28.3211   24.1456 H   0  0  0  0  0  0
  -20.5651  -26.2259   23.3605 H   0  0  0  0  0  0
  -21.6622  -26.7442   22.1216 H   0  0  0  0  0  0
  -19.6893  -25.6302   21.1233 H   0  0  0  0  0  0
  -19.6679  -27.3210   20.6758 H   0  0  0  0  0  0
  -17.4182  -26.6672   21.4025 H   0  0  0  0  0  0
  -18.0311  -26.0062   22.9018 H   0  0  0  0  0  0
  -19.7920  -30.7243   24.2302 H   0  0  0  0  0  0
  -17.5006  -31.6269   24.5162 H   0  0  0  0  0  0
  -15.5339  -30.3005   23.7635 H   0  0  0  0  0  0
  -15.8648  -28.0843   22.7041 H   0  0  0  0  0  0
  -24.5910  -30.7042   25.7829 H   0  0  0  0  0  0
  -24.8934  -32.2840   26.4969 H   0  0  0  0  0  0
  -25.8111  -30.8843   27.0226 H   0  0  0  0  0  0
  -26.2818  -29.6831   24.1139 H   0  0  0  0  0  0
  -27.4066  -29.7275   25.4522 H   0  0  0  0  0  0
  -27.8646  -30.4384   23.9216 H   0  0  0  0  0  0
  -27.2648  -33.3608   26.2103 H   0  0  0  0  0  0
  -28.3819  -32.6922   25.0298 H   0  0  0  0  0  0
  -28.0734  -31.8433   26.5370 H   0  0  0  0  0  0
  -28.2606  -38.0105   24.7507 H   0  0  0  0  0  0
  -28.1064  -36.2639   24.6293 H   0  0  0  0  0  0
  -27.2298  -37.1474   25.8868 H   0  0  0  0  0  0
  -20.9267  -29.8755   21.6983 H   0  0  0  0  0  0
  -26.0185  -38.2885   24.1410 H   0  0  0  0  0  0
  -31.0607  -19.8964   22.1956 H   0  0  0  0  0  0
  -29.9871  -18.5870   18.2270 H   0  0  0  0  0  0
  -30.4473  -22.2049   21.6084 H   0  0  0  0  0  0
  -29.3668  -20.8942   17.6254 H   0  0  0  0  0  0
  -29.0910  -15.5963   23.1351 H   0  0  0  0  0  0
  -30.7810  -16.1042   23.1938 H   0  0  0  0  0  0
  -30.3740  -14.3934   23.1897 H   0  0  0  0  0  0
  -33.8150  -17.3504   18.7934 H   0  0  0  0  0  0
  -33.7058  -17.4955   20.5446 H   0  0  0  0  0  0
  -33.2008  -18.8394   19.5047 H   0  0  0  0  0  0
  -30.5158  -25.2223   17.9663 H   0  0  0  0  0  0
  -30.8181  -26.1889   19.3769 H   0  0  0  0  0  0
  -29.7103  -24.3496   20.7880 H   0  0  0  0  0  0
  -31.2329  -23.9289   20.0257 H   0  0  0  0  0  0
  -29.3784  -16.5325   19.7204 H   0  0  0  0  0  0
  -29.0585  -17.1650   21.3044 H   0  0  0  0  0  0
  -28.0112  -25.2854   18.6320 H   0  0  0  0  0  0
  -28.7174  -26.7709   18.0167 H   0  0  0  0  0  0
  -31.5675  -17.6723   21.5295 H   0  0  0  0  0  0
  -29.3144  -23.1575   18.1753 H   0  0  0  0  0  0
  1 25  1  0  0  0
  1 30  2  0  0  0
  1 85  1  0  0  0
  2  3  1  0  0  0
  2 25  1  0  0  0
  2 87  1  0  0  0
  2 88  1  0  0  0
  3  4  1  0  0  0
  3 89  1  0  0  0
  3 90  1  0  0  0
  4  5  1  0  0  0
  4 91  1  0  0  0
  4 92  1  0  0  0
  5  6  1  0  0  0
  5 26  1  0  0  0
  5 93  1  0  0  0
  6 25  1  0  0  0
  6 94  1  0  0  0
  6 95  1  0  0  0
  7  8  2  0  0  0
  7 26  1  0  0  0
  7 29  1  0  0  0
  8  9  1  0  0  0
  8 22  1  0  0  0
  9 10  1  0  0  0
  9 27  2  0  0  0
 10 11  2  0  0  0
 10 15  1  0  0  0
 11 12  1  0  0  0
 11 96  1  0  0  0
 12 13  2  0  0  0
 12 97  1  0  0  0
 13 14  1  0  0  0
 13 31  1  0  0  0
 14 15  2  0  0  0
 14 98  1  0  0  0
 15 99  1  0  0  0
 16 17  2  0  0  0
 16 21  1  0  0  0
 16 31  1  0  0  0
 17 18  1  0  0  0
 17100  1  0  0  0
 18 19  2  0  0  0
 18101  1  0  0  0
 19 20  1  0  0  0
 19 24  1  0  0  0
 20 21  2  0  0  0
 20102  1  0  0  0
 21 23  1  0  0  0
 22 28  1  0  0  0
 22 32  2  0  0  0
 26 27  1  0  0  0
 28103  1  0  0  0
 28104  1  0  0  0
 29105  1  0  0  0
 29106  1  0  0  0
 33 34  1  0  0  0
 33 66  1  0  0  0
 33 70  2  0  0  0
 34 36  1  0  0  0
 34 59  1  0  0  0
 34107  1  0  0  0
 35 44  2  0  0  0
 35 45  1  0  0  0
 35 68  1  0  0  0
 36 56  1  0  0  0
 36108  1  0  0  0
 37 39  1  0  0  0
 37 47  1  0  0  0
 37 66  1  0  0  0
 37109  1  0  0  0
 38 43  2  0  0  0
 38 46  1  0  0  0
 38 47  1  0  0  0
 39 64  1  0  0  0
 39 67  2  0  0  0
 40 52  1  0  0  0
 40 53  2  0  0  0
 40 58  1  0  0  0
 41110  1  0  0  0
 41111  1  0  0  0
 41112  1  0  0  0
 41 48  1  0  0  0
 42 43  1  0  0  0
 42 66  1  0  0  0
 42113  1  0  0  0
 42114  1  0  0  0
 43 44  1  0  0  0
 44115  1  0  0  0
 45 46  2  0  0  0
 45116  1  0  0  0
 46117  1  0  0  0
 47118  1  0  0  0
 47119  1  0  0  0
 48 56  1  0  0  0
 48 65  1  0  0  0
 48120  1  0  0  0
 49 50  1  0  0  0
 49 53  1  0  0  0
 49 64  1  0  0  0
 49121  1  0  0  0
 50 51  1  0  0  0
 50122  1  0  0  0
 50123  1  0  0  0
 51 52  1  0  0  0
 51124  1  0  0  0
 51125  1  0  0  0
 52126  1  0  0  0
 52127  1  0  0  0
 53 54  1  0  0  0
 54 55  2  0  0  0
 54128  1  0  0  0
 55 57  1  0  0  0
 55129  1  0  0  0
 56 69  2  0  0  0
 57 58  2  0  0  0
 57130  1  0  0  0
 58131  1  0  0  0
 59 60  1  0  0  0
 59 61  1  0  0  0
 59 62  1  0  0  0
 60132  1  0  0  0
 60133  1  0  0  0
 60134  1  0  0  0
 61135  1  0  0  0
 61136  1  0  0  0
 61137  1  0  0  0
 62138  1  0  0  0
 62139  1  0  0  0
 62140  1  0  0  0
 63 65  1  0  0  0
 63141  1  0  0  0
 63142  1  0  0  0
 63143  1  0  0  0
 64144  1  0  0  0
 65145  1  0  0  0
 68 82  1  0  0  0
 71 73  2  0  0  0
 71 75  1  0  0  0
 71146  1  0  0  0
 72 74  1  0  0  0
 72 75  2  0  0  0
 72147  1  0  0  0
 73 76  1  0  0  0
 73148  1  0  0  0
 74 76  2  0  0  0
 74149  1  0  0  0
 75 83  1  0  0  0
 76 84  1  0  0  0
 77 85  1  0  0  0
 77150  1  0  0  0
 77151  1  0  0  0
 77152  1  0  0  0
 78 86  1  0  0  0
 78153  1  0  0  0
 78154  1  0  0  0
 78155  1  0  0  0
 79 80  1  0  0  0
 79 82  1  0  0  0
 79156  1  0  0  0
 79157  1  0  0  0
 80 84  1  0  0  0
 80158  1  0  0  0
 80159  1  0  0  0
 81 85  1  0  0  0
 81160  1  0  0  0
 81161  1  0  0  0
 81 83  1  0  0  0
 82162  1  0  0  0
 82163  1  0  0  0
 83 86  1  0  0  0
 83164  1  0  0  0
 84165  1  0  0  0
M  ISO  4   1 100  68 101  82 101  85 100
M  END
> <chiral flag>
0

> <version>
0

> <s_m_source_file>
/data/baiqing/PycharmProjects/Reinvent-master-3.2/result/LINK_invent/BTK/process_docking_weight1_custom_product_contain_oxygen_bond_distance_aromatic_linkinvent_7_9_3/rearranged_h_0102.sdf

> <i_m_source_file_index>
4

> <r_mmod_Potential_Energy-OPLS-2005>
77.3082504272461

> <r_mmod_Stretch_Energy-OPLS-2005>
34.1102027893066

> <r_mmod_Bend_Energy-OPLS-2005>
97.9587020874023

> <r_mmod_Torsional_Energy-OPLS-2005>
305.476318359375

> <r_mmod_Improper_Torsional_Energy-OPLS-2005>
6.56255578994751

> <r_mmod_Van_der_Waal_Energy-OPLS-2005>
157.768463134766

> <r_mmod_Electrostatic_Energy-OPLS-2005>
-320.435119628906

> <r_mmod_Solvation_Energy-OPLS-2005>
-212.841293334961

> <b_mmod_Minimization_Converged-OPLS-2005>
0

> <r_mmod_RMS_Derivative-OPLS-2005>
0.658654868602753

$$$$
4
                    3D
 Structure written by MMmdl.
163172  0  0  1  0            999 V2000
  -30.7718  -14.3642   20.6262 C   0  0  0  0  0  0
  -30.4287  -12.2646   19.3982 C   0  0  0  0  0  0
  -29.5053  -12.5262   18.1909 C   0  0  0  0  0  0
  -28.0202  -12.3981   18.5918 C   0  0  0  0  0  0
  -27.6767  -13.2055   19.8734 C   0  0  2  0  0  0
  -28.7169  -12.9373   20.9861 C   0  0  0  0  0  0
  -25.2662  -13.8139   20.5648 C   0  0  0  0  0  0
  -24.1901  -13.0415   20.9135 C   0  0  0  0  0  0
  -24.6467  -11.6895   20.8714 C   0  0  0  0  0  0
  -23.9128  -10.4264   21.0388 C   0  0  0  0  0  0
  -24.3635   -9.4181   21.9192 C   0  0  0  0  0  0
  -23.6291   -8.2232   22.0750 C   0  0  0  0  0  0
  -22.4265   -8.0290   21.3540 C   0  0  0  0  0  0
  -21.9922   -9.0281   20.4643 C   0  0  0  0  0  0
  -22.7289  -10.2146   20.3053 C   0  0  0  0  0  0
  -21.6832   -6.0735   22.5290 C   0  0  0  0  0  0
  -21.4007   -6.5615   23.8230 C   0  0  0  0  0  0
  -21.3665   -5.6764   24.9191 C   0  0  0  0  0  0
  -21.6049   -4.3023   24.7226 C   0  0  0  0  0  0
  -21.8809   -3.8139   23.4329 C   0  0  0  0  0  0
  -21.9193   -4.6974   22.3405 C   0  0  0  0  0  0
  -22.7908  -13.5245   21.1797 C   0  0  0  0  0  0
  -22.1672   -4.2179   21.0979 F   0  0  0  0  0  0
  -21.5635   -3.4503   25.7726 F   0  0  0  0  0  0
  -30.0673  -13.2142   20.4568 N   0  0  0  0  0  0
  -26.3117  -12.9338   20.3325 N   0  0  0  0  0  0
  -25.9390  -11.6488   20.5713 N   0  0  0  0  0  0
  -22.0477  -12.8322   22.0357 N   0  0  0  0  0  0
  -25.4335  -15.1862   20.4015 N   0  0  0  0  0  0
  -31.8301  -14.6087   20.0400 O   0  0  0  0  0  0
  -21.6617   -6.8902   21.4256 O   0  0  0  0  0  0
  -22.3642  -14.5578   20.6658 O   0  0  0  0  0  0
  -24.6098  -31.8723   23.2101 C   0  0  0  0  0  0
  -25.9029  -32.4846   23.8410 C   0  0  1  0  0  0
  -27.2613  -27.4910   20.0802 C   0  0  0  0  0  0
  -25.5941  -33.8635   24.2357 N   0  0  0  0  0  0
  -23.3933  -30.4916   21.5515 C   0  0  2  0  0  0
  -24.8476  -28.9558   20.1199 C   0  0  0  0  0  0
  -22.7380  -29.4645   22.5013 C   0  0  0  0  0  0
  -18.0286  -28.1318   22.8491 C   0  0  0  0  0  0
  -24.1486  -36.7310   23.2634 C   0  0  0  0  0  0
  -25.9166  -30.8524   21.3548 C   0  0  0  0  0  0
  -26.0009  -29.4844   20.7131 C   0  0  0  0  0  0
  -27.2066  -28.7554   20.7005 C   0  0  0  0  0  0
  -26.0979  -26.9661   19.4800 C   0  0  0  0  0  0
  -24.8870  -27.6874   19.5068 C   0  0  0  0  0  0
  -23.6023  -29.8152   20.1685 C   0  0  0  0  0  0
  -25.4109  -36.3128   24.0345 C   0  0  1  0  0  0
  -20.5863  -28.3595   23.1355 C   0  0  2  0  0  0
  -20.6761  -26.9330   22.5431 C   0  0  0  0  0  0
  -19.5735  -26.6315   21.5234 C   0  0  0  0  0  0
  -18.1906  -26.7871   22.1626 C   0  0  0  0  0  0
  -19.1532  -28.8759   23.2921 C   0  0  0  0  0  0
  -18.9466  -30.1368   23.8932 C   0  0  0  0  0  0
  -17.6476  -30.6521   24.0557 C   0  0  0  0  0  0
  -25.9033  -34.9500   23.5134 C   0  0  0  0  0  0
  -16.5357  -29.9047   23.6302 C   0  0  0  0  0  0
  -16.7288  -28.6452   23.0342 C   0  0  0  0  0  0
  -26.4474  -31.6579   25.0690 C   0  0  0  0  0  0
  -25.3783  -31.3696   26.1474 C   0  0  0  0  0  0
  -27.0274  -30.3045   24.5962 C   0  0  0  0  0  0
  -27.6037  -32.4298   25.7473 C   0  0  0  0  0  0
  -27.5572  -37.1825   24.8460 C   0  0  0  0  0  0
  -21.4092  -29.3010   22.3810 N   0  0  0  0  0  0
  -26.4298  -37.3812   23.9399 N   0  0  0  0  0  0
  -24.6591  -31.0851   22.0993 N   0  0  0  0  0  0
  -23.4163  -28.8187   23.3020 O   0  0  0  0  0  0
  -28.4342  -26.7780   19.9933 O   0  0  0  0  0  0
  -26.5547  -34.8952   22.4659 O   0  0  0  0  0  0
  -23.5302  -32.1461   23.7485 O   0  0  0  0  0  0
  -31.2532  -18.8167   21.1394 C   0  0  0  0  0  0
  -28.9209  -18.5474   20.4591 C   0  0  0  0  0  0
  -31.3236  -17.4352   21.4111 C   0  0  0  0  0  0
  -28.9892  -17.1746   20.7354 C   0  0  0  0  0  0
  -30.0419  -19.3777   20.6720 C   0  0  0  0  0  0
  -30.1923  -16.6170   21.2062 C   0  0  0  0  0  0
  -28.6965  -24.6806   23.1082 C   0  0  0  0  0  0
  -28.2873  -23.2069   23.1026 C   0  0  0  0  0  0
  -29.0306  -23.8357   20.9157 C   0  0  0  0  0  0
  -28.4665  -25.0575   21.6518 C   0  0  2  0  0  0
  -29.8748  -20.8723   20.4788 C   0  0  0  0  0  0
  -29.0384  -26.4173   21.2332 C   0  0  0  0  0  0
  -29.6087  -21.5525   21.8358 C   0  0  0  0  0  0
  -30.2186  -15.2349   21.4741 N   0  0  0  0  0  0
  -28.6535  -22.6813   21.7660 N   0  3  1  0  0  0
  -31.4784  -12.3352   19.1059 H   0  0  0  0  0  0
  -30.3002  -11.2464   19.7661 H   0  0  0  0  0  0
  -29.7330  -11.8364   17.3762 H   0  0  0  0  0  0
  -29.6963  -13.5254   17.7932 H   0  0  0  0  0  0
  -27.7927  -11.3401   18.7347 H   0  0  0  0  0  0
  -27.3962  -12.7328   17.7627 H   0  0  0  0  0  0
  -27.7371  -14.2630   19.6094 H   0  0  0  0  0  0
  -28.6665  -11.8931   21.2936 H   0  0  0  0  0  0
  -28.4771  -13.5093   21.8829 H   0  0  0  0  0  0
  -25.2766   -9.5626   22.4798 H   0  0  0  0  0  0
  -23.9936   -7.4607   22.7466 H   0  0  0  0  0  0
  -21.0834   -8.8860   19.8954 H   0  0  0  0  0  0
  -22.3768  -10.9702   19.6171 H   0  0  0  0  0  0
  -21.1990   -7.6117   23.9727 H   0  0  0  0  0  0
  -21.1516   -6.0501   25.9100 H   0  0  0  0  0  0
  -22.0594   -2.7598   23.2828 H   0  0  0  0  0  0
  -22.3940  -11.9948   22.4785 H   0  0  0  0  0  0
  -21.1119  -13.1481   22.2503 H   0  0  0  0  0  0
  -24.6520  -15.8267   20.4750 H   0  0  0  0  0  0
  -26.2712  -15.6201   20.0391 H   0  0  0  0  0  0
  -26.7089  -32.5626   23.1180 H   0  0  0  0  0  0
  -25.0233  -33.9804   25.0604 H   0  0  0  0  0  0
  -22.6762  -31.3055   21.4102 H   0  0  0  0  0  0
  -23.3756  -35.9635   23.3309 H   0  0  0  0  0  0
  -24.3578  -36.8881   22.2040 H   0  0  0  0  0  0
  -23.7227  -37.6523   23.6617 H   0  0  0  0  0  0
  -26.0058  -31.6155   20.5780 H   0  0  0  0  0  0
  -26.8118  -30.9167   21.9611 H   0  0  0  0  0  0
  -28.0999  -29.1771   21.1390 H   0  0  0  0  0  0
  -26.1310  -25.9987   18.9963 H   0  0  0  0  0  0
  -24.0042  -27.2662   19.0473 H   0  0  0  0  0  0
  -23.7067  -30.5875   19.4061 H   0  0  0  0  0  0
  -22.7273  -29.2307   19.8778 H   0  0  0  0  0  0
  -25.1280  -36.1986   25.0842 H   0  0  0  0  0  0
  -20.9938  -28.3134   24.1479 H   0  0  0  0  0  0
  -20.5620  -26.2199   23.3605 H   0  0  0  0  0  0
  -21.6669  -26.7349   22.1277 H   0  0  0  0  0  0
  -19.6887  -25.6233   21.1270 H   0  0  0  0  0  0
  -19.6669  -27.3099   20.6760 H   0  0  0  0  0  0
  -17.4166  -26.6600   21.4039 H   0  0  0  0  0  0
  -18.0257  -26.0003   22.8997 H   0  0  0  0  0  0
  -19.7962  -30.7142   24.2300 H   0  0  0  0  0  0
  -17.5052  -31.6205   24.5167 H   0  0  0  0  0  0
  -15.5355  -30.2933   23.7587 H   0  0  0  0  0  0
  -15.8700  -28.0751   22.7062 H   0  0  0  0  0  0
  -24.5968  -30.6985   25.7892 H   0  0  0  0  0  0
  -24.8988  -32.2860   26.4939 H   0  0  0  0  0  0
  -25.8234  -30.8937   27.0220 H   0  0  0  0  0  0
  -26.2798  -29.6824   24.1037 H   0  0  0  0  0  0
  -27.4104  -29.7229   25.4341 H   0  0  0  0  0  0
  -27.8589  -30.4381   23.9039 H   0  0  0  0  0  0
  -27.2634  -33.3592   26.2072 H   0  0  0  0  0  0
  -28.3878  -32.6871   25.0332 H   0  0  0  0  0  0
  -28.0663  -31.8417   26.5404 H   0  0  0  0  0  0
  -28.2616  -38.0104   24.7514 H   0  0  0  0  0  0
  -28.1051  -36.2641   24.6287 H   0  0  0  0  0  0
  -27.2286  -37.1467   25.8867 H   0  0  0  0  0  0
  -20.9185  -29.8820   21.7165 H   0  0  0  0  0  0
  -26.0173  -38.2885   24.1420 H   0  0  0  0  0  0
  -32.1242  -19.4338   21.3130 H   0  0  0  0  0  0
  -27.9883  -18.9614   20.0990 H   0  0  0  0  0  0
  -32.2479  -17.0104   21.7790 H   0  0  0  0  0  0
  -28.1234  -16.5517   20.5714 H   0  0  0  0  0  0
  -29.7521  -24.7812   23.3704 H   0  0  0  0  0  0
  -28.1106  -25.2829   23.8041 H   0  0  0  0  0  0
  -27.2035  -23.1241   23.1888 H   0  0  0  0  0  0
  -28.7197  -22.6489   23.9340 H   0  0  0  0  0  0
  -30.1147  -23.9076   20.8264 H   0  0  0  0  0  0
  -28.6238  -23.7301   19.9079 H   0  0  0  0  0  0
  -27.3884  -25.0771   21.4941 H   0  0  0  0  0  0
  -29.0569  -21.0385   19.7756 H   0  0  0  0  0  0
  -30.7685  -21.2910   20.0158 H   0  0  0  0  0  0
  -30.1209  -26.3613   21.1127 H   0  0  0  0  0  0
  -28.8490  -27.1528   22.0163 H   0  0  0  0  0  0
  -30.5442  -21.8688   22.3023 H   0  0  0  0  0  0
  -29.1698  -20.8241   22.5205 H   0  0  0  0  0  0
  -29.3986  -14.8664   21.9289 H   0  0  0  0  0  0
  -27.7996  -22.3083   21.3763 H   0  0  0  0  0  0
  1 25  1  0  0  0
  1 30  2  0  0  0
  1 84  1  0  0  0
  2  3  1  0  0  0
  2 25  1  0  0  0
  2 86  1  0  0  0
  2 87  1  0  0  0
  3  4  1  0  0  0
  3 88  1  0  0  0
  3 89  1  0  0  0
  4  5  1  0  0  0
  4 90  1  0  0  0
  4 91  1  0  0  0
  5  6  1  0  0  0
  5 26  1  0  0  0
  5 92  1  0  0  0
  6 25  1  0  0  0
  6 93  1  0  0  0
  6 94  1  0  0  0
  7  8  2  0  0  0
  7 26  1  0  0  0
  7 29  1  0  0  0
  8  9  1  0  0  0
  8 22  1  0  0  0
  9 10  1  0  0  0
  9 27  2  0  0  0
 10 11  2  0  0  0
 10 15  1  0  0  0
 11 12  1  0  0  0
 11 95  1  0  0  0
 12 13  2  0  0  0
 12 96  1  0  0  0
 13 14  1  0  0  0
 13 31  1  0  0  0
 14 15  2  0  0  0
 14 97  1  0  0  0
 15 98  1  0  0  0
 16 17  2  0  0  0
 16 21  1  0  0  0
 16 31  1  0  0  0
 17 18  1  0  0  0
 17 99  1  0  0  0
 18 19  2  0  0  0
 18100  1  0  0  0
 19 20  1  0  0  0
 19 24  1  0  0  0
 20 21  2  0  0  0
 20101  1  0  0  0
 21 23  1  0  0  0
 22 28  1  0  0  0
 22 32  2  0  0  0
 26 27  1  0  0  0
 28102  1  0  0  0
 28103  1  0  0  0
 29104  1  0  0  0
 29105  1  0  0  0
 33 34  1  0  0  0
 33 66  1  0  0  0
 33 70  2  0  0  0
 34 36  1  0  0  0
 34 59  1  0  0  0
 34106  1  0  0  0
 35 44  2  0  0  0
 35 45  1  0  0  0
 35 68  1  0  0  0
 36 56  1  0  0  0
 36107  1  0  0  0
 37 39  1  0  0  0
 37 47  1  0  0  0
 37 66  1  0  0  0
 37108  1  0  0  0
 38 43  2  0  0  0
 38 46  1  0  0  0
 38 47  1  0  0  0
 39 64  1  0  0  0
 39 67  2  0  0  0
 40 52  1  0  0  0
 40 53  2  0  0  0
 40 58  1  0  0  0
 41109  1  0  0  0
 41110  1  0  0  0
 41111  1  0  0  0
 41 48  1  0  0  0
 42 43  1  0  0  0
 42 66  1  0  0  0
 42112  1  0  0  0
 42113  1  0  0  0
 43 44  1  0  0  0
 44114  1  0  0  0
 45 46  2  0  0  0
 45115  1  0  0  0
 46116  1  0  0  0
 47117  1  0  0  0
 47118  1  0  0  0
 48 56  1  0  0  0
 48 65  1  0  0  0
 48119  1  0  0  0
 49 50  1  0  0  0
 49 53  1  0  0  0
 49 64  1  0  0  0
 49120  1  0  0  0
 50 51  1  0  0  0
 50121  1  0  0  0
 50122  1  0  0  0
 51 52  1  0  0  0
 51123  1  0  0  0
 51124  1  0  0  0
 52125  1  0  0  0
 52126  1  0  0  0
 53 54  1  0  0  0
 54 55  2  0  0  0
 54127  1  0  0  0
 55 57  1  0  0  0
 55128  1  0  0  0
 56 69  2  0  0  0
 57 58  2  0  0  0
 57129  1  0  0  0
 58130  1  0  0  0
 59 60  1  0  0  0
 59 61  1  0  0  0
 59 62  1  0  0  0
 60131  1  0  0  0
 60132  1  0  0  0
 60133  1  0  0  0
 61134  1  0  0  0
 61135  1  0  0  0
 61136  1  0  0  0
 62137  1  0  0  0
 62138  1  0  0  0
 62139  1  0  0  0
 63 65  1  0  0  0
 63140  1  0  0  0
 63141  1  0  0  0
 63142  1  0  0  0
 64143  1  0  0  0
 65144  1  0  0  0
 68 82  1  0  0  0
 71 73  2  0  0  0
 71 75  1  0  0  0
 71145  1  0  0  0
 72 74  1  0  0  0
 72 75  2  0  0  0
 72146  1  0  0  0
 73 76  1  0  0  0
 73147  1  0  0  0
 74 76  2  0  0  0
 74148  1  0  0  0
 75 81  1  0  0  0
 76 84  1  0  0  0
 77 78  1  0  0  0
 77 80  1  0  0  0
 77149  1  0  0  0
 77150  1  0  0  0
 78 85  1  0  0  0
 78151  1  0  0  0
 78152  1  0  0  0
 79 80  1  0  0  0
 79 85  1  0  0  0
 79153  1  0  0  0
 79154  1  0  0  0
 80 82  1  0  0  0
 80155  1  0  0  0
 81 83  1  0  0  0
 81156  1  0  0  0
 81157  1  0  0  0
 82158  1  0  0  0
 82159  1  0  0  0
 83160  1  0  0  0
 83161  1  0  0  0
 83 85  1  0  0  0
 84162  1  0  0  0
 85163  1  0  0  0
M  CHG  1  85   1
M  ISO  4   1 100  68 101  82 101  84 100
M  END
> <chiral flag>
0

> <version>
0

> <s_m_source_file>
/data/baiqing/PycharmProjects/Reinvent-master-3.2/result/LINK_invent/BTK/process_docking_weight1_custom_product_contain_oxygen_bond_distance_aromatic_linkinvent_7_9_3/rearranged_h_0102.sdf

> <i_m_source_file_index>
5

> <r_mmod_Potential_Energy-OPLS-2005>
-72.8647689819336

> <r_mmod_Stretch_Energy-OPLS-2005>
31.8099136352539

> <r_mmod_Bend_Energy-OPLS-2005>
122.302940368652

> <r_mmod_Torsional_Energy-OPLS-2005>
322.5478515625

> <r_mmod_Improper_Torsional_Energy-OPLS-2005>
5.45386648178101

> <r_mmod_Van_der_Waal_Energy-OPLS-2005>
144.917327880859

> <r_mmod_Electrostatic_Energy-OPLS-2005>
-261.785858154297

> <r_mmod_Solvation_Energy-OPLS-2005>
-445.095092773438

> <b_mmod_Minimization_Converged-OPLS-2005>
0

> <r_mmod_RMS_Derivative-OPLS-2005>
5.33620834350586

$$$$
5
                    3D
 Structure written by MMmdl.
140147  0  0  1  0            999 V2000
  -30.1611  -16.0041   20.3080 C   0  0  0  0  0  0
  -30.3940  -13.3709   19.5193 C   0  0  0  0  0  0
  -29.5602  -12.7495   18.3505 C   0  0  0  0  0  0
  -28.1679  -12.3098   18.8207 C   0  0  0  0  0  0
  -27.5837  -13.3431   19.8035 C   0  0  2  0  0  0
  -28.5794  -13.8362   20.8889 C   0  0  0  0  0  0
  -25.2278  -13.8329   20.5856 C   0  0  0  0  0  0
  -24.1700  -13.0433   20.9315 C   0  0  0  0  0  0
  -24.6450  -11.6960   20.8763 C   0  0  0  0  0  0
  -23.9156  -10.4295   21.0384 C   0  0  0  0  0  0
  -24.3676   -9.4207   21.9173 C   0  0  0  0  0  0
  -23.6326   -8.2253   22.0753 C   0  0  0  0  0  0
  -22.4305   -8.0296   21.3544 C   0  0  0  0  0  0
  -21.9960   -9.0273   20.4641 C   0  0  0  0  0  0
  -22.7315  -10.2138   20.3042 C   0  0  0  0  0  0
  -21.6863   -6.0747   22.5279 C   0  0  0  0  0  0
  -21.4022   -6.5646   23.8213 C   0  0  0  0  0  0
  -21.3661   -5.6796   24.9173 C   0  0  0  0  0  0
  -21.6044   -4.3059   24.7222 C   0  0  0  0  0  0
  -21.8818   -3.8153   23.4342 C   0  0  0  0  0  0
  -21.9196   -4.6972   22.3400 C   0  0  0  0  0  0
  -22.7702  -13.5137   21.1934 C   0  0  0  0  0  0
  -22.1662   -4.2158   21.0977 F   0  0  0  0  0  0
  -21.5626   -3.4540   25.7734 F   0  0  0  0  0  0
  -29.6775  -14.5802   20.1919 N   0  0  0  0  0  0
  -26.2769  -12.9729   20.3291 N   0  0  0  0  0  0
  -25.9412  -11.6758   20.5682 N   0  0  0  0  0  0
  -22.0374  -12.8106   22.0483 N   0  0  0  0  0  0
  -25.3817  -15.2078   20.4306 N   0  0  0  0  0  0
  -31.4087  -15.8722   20.2822 O   0  0  0  0  0  0
  -21.6655   -6.8899   21.4244 O   0  0  0  0  0  0
  -22.3368  -14.5432   20.6768 O   0  0  0  0  0  0
  -24.7122  -31.7741   23.1306 C   0  0  0  0  0  0
  -25.9575  -32.4339   23.7956 C   0  0  1  0  0  0
  -27.2357  -26.4414   20.2493 C   0  0  0  0  0  0
  -25.6043  -33.8173   24.1821 N   0  0  0  0  0  0
  -23.5502  -30.3697   21.4913 C   0  0  2  0  0  0
  -25.0042  -28.6446   20.1367 C   0  0  0  0  0  0
  -22.7896  -29.4343   22.4700 C   0  0  0  0  0  0
  -18.0162  -28.1569   22.8214 C   0  0  0  0  0  0
  -24.1498  -36.7093   23.2657 C   0  0  0  0  0  0
  -26.1405  -30.4200   21.4324 C   0  0  0  0  0  0
  -26.2010  -28.9529   20.7936 C   0  0  0  0  0  0
  -27.2917  -27.8910   20.8024 C   0  0  0  0  0  0
  -25.9991  -26.4075   19.5352 C   0  0  0  0  0  0
  -24.9575  -27.3998   19.4818 C   0  0  0  0  0  0
  -23.8153  -29.6344   20.1422 C   0  0  0  0  0  0
  -25.4158  -36.2817   24.0263 C   0  0  1  0  0  0
  -20.6073  -28.3875   23.0881 C   0  0  2  0  0  0
  -20.7786  -26.9756   22.4608 C   0  0  0  0  0  0
  -19.5498  -26.4216   21.7088 C   0  0  0  0  0  0
  -18.1097  -26.8638   22.0237 C   0  0  0  0  0  0
  -19.1588  -28.8842   23.2637 C   0  0  0  0  0  0
  -18.9570  -30.1345   23.8911 C   0  0  0  0  0  0
  -17.6624  -30.6560   24.0765 C   0  0  0  0  0  0
  -25.9160  -34.9216   23.4892 C   0  0  0  0  0  0
  -16.5419  -29.9202   23.6574 C   0  0  0  0  0  0
  -16.7219  -28.6723   23.0397 C   0  0  0  0  0  0
  -26.4648  -31.6466   25.0680 C   0  0  0  0  0  0
  -25.3637  -31.3855   26.1238 C   0  0  0  0  0  0
  -27.0614  -30.2776   24.6755 C   0  0  0  0  0  0
  -27.6047  -32.4377   25.7524 C   0  0  0  0  0  0
  -27.5558  -37.1705   24.8467 C   0  0  0  0  0  0
  -21.4495  -29.3435   22.3578 N   0  0  0  0  0  0
  -26.4262  -37.3606   23.9409 N   0  0  0  0  0  0
  -24.8283  -30.8941   22.0696 N   0  0  0  0  0  0
  -23.4210  -28.7802   23.3033 O   0  0  0  0  0  0
  -28.1967  -25.1262   20.2226 O   0  0  0  0  0  0
  -26.5824  -34.8842   22.4527 O   0  0  0  0  0  0
  -23.6085  -32.0940   23.6097 O   0  0  0  0  0  0
  -28.7705  -21.2825   19.9969 C   0  0  0  0  0  0
  -29.3625  -19.3536   20.6014 C   0  0  0  0  0  0
  -28.2110  -23.2498   20.5175 C   0  0  0  0  0  0
  -29.4079  -17.4693   20.2741 N   0  0  0  0  0  0
  -31.3466  -13.7011   19.1035 H   0  0  0  0  0  0
  -30.6640  -12.6081   20.2520 H   0  0  0  0  0  0
  -30.0920  -11.9085   17.9034 H   0  0  0  0  0  0
  -29.4512  -13.4961   17.5625 H   0  0  0  0  0  0
  -28.2677  -11.3481   19.3257 H   0  0  0  0  0  0
  -27.5014  -12.1499   17.9722 H   0  0  0  0  0  0
  -27.3925  -14.2099   19.1687 H   0  0  0  0  0  0
  -28.9347  -13.0208   21.5211 H   0  0  0  0  0  0
  -28.0774  -14.5353   21.5592 H   0  0  0  0  0  0
  -25.2813   -9.5677   22.4762 H   0  0  0  0  0  0
  -24.0020   -7.4647   22.7483 H   0  0  0  0  0  0
  -21.0888   -8.8807   19.8948 H   0  0  0  0  0  0
  -22.3776  -10.9680   19.6153 H   0  0  0  0  0  0
  -21.2018   -7.6155   23.9719 H   0  0  0  0  0  0
  -21.1482   -6.0525   25.9077 H   0  0  0  0  0  0
  -22.0594   -2.7615   23.2840 H   0  0  0  0  0  0
  -22.4027  -11.9789   22.4882 H   0  0  0  0  0  0
  -21.0974  -13.1085   22.2674 H   0  0  0  0  0  0
  -24.6092  -15.8546   20.5480 H   0  0  0  0  0  0
  -26.2271  -15.6547   20.1017 H   0  0  0  0  0  0
  -26.7689  -32.4750   23.0689 H   0  0  0  0  0  0
  -25.0068  -33.9166   24.9896 H   0  0  0  0  0  0
  -22.8946  -31.2157   21.2742 H   0  0  0  0  0  0
  -23.3788  -35.9392   23.3244 H   0  0  0  0  0  0
  -24.3558  -36.8846   22.2087 H   0  0  0  0  0  0
  -23.7232  -37.6231   23.6804 H   0  0  0  0  0  0
  -26.3681  -31.1235   20.6306 H   0  0  0  0  0  0
  -26.9832  -30.5006   22.1060 H   0  0  0  0  0  0
  -28.1975  -28.1537   21.3305 H   0  0  0  0  0  0
  -25.7911  -25.4872   19.0076 H   0  0  0  0  0  0
  -24.0632  -27.1495   18.9276 H   0  0  0  0  0  0
  -24.0136  -30.3783   19.3698 H   0  0  0  0  0  0
  -22.9130  -29.1146   19.8155 H   0  0  0  0  0  0
  -25.1379  -36.1542   25.0751 H   0  0  0  0  0  0
  -20.9993  -28.3319   24.1064 H   0  0  0  0  0  0
  -21.1583  -26.3040   23.2422 H   0  0  0  0  0  0
  -21.6163  -26.9721   21.7601 H   0  0  0  0  0  0
  -19.3880  -26.0269   22.7114 H   0  0  0  0  0  0
  -19.6128  -27.3462   21.1307 H   0  0  0  0  0  0
  -17.5815  -27.0283   21.0810 H   0  0  0  0  0  0
  -17.5017  -26.0951   22.5175 H   0  0  0  0  0  0
  -19.8097  -30.7074   24.2302 H   0  0  0  0  0  0
  -17.5302  -31.6181   24.5523 H   0  0  0  0  0  0
  -15.5460  -30.3152   23.8048 H   0  0  0  0  0  0
  -15.8546  -28.1225   22.6995 H   0  0  0  0  0  0
  -24.5858  -30.7178   25.7514 H   0  0  0  0  0  0
  -24.8793  -32.3100   26.4389 H   0  0  0  0  0  0
  -25.7743  -30.9184   27.0198 H   0  0  0  0  0  0
  -26.3378  -29.6321   24.1770 H   0  0  0  0  0  0
  -27.3966  -29.7315   25.5583 H   0  0  0  0  0  0
  -27.9387  -30.3845   24.0374 H   0  0  0  0  0  0
  -27.2557  -33.3779   26.1808 H   0  0  0  0  0  0
  -28.4013  -32.6778   25.0469 H   0  0  0  0  0  0
  -28.0543  -31.8704   26.5683 H   0  0  0  0  0  0
  -28.2525  -38.0046   24.7520 H   0  0  0  0  0  0
  -28.1104  -36.2565   24.6288 H   0  0  0  0  0  0
  -27.2271  -37.1326   25.8867 H   0  0  0  0  0  0
  -20.9859  -29.9264   21.6745 H   0  0  0  0  0  0
  -26.0065  -38.2641   24.1431 H   0  0  0  0  0  0
  -27.9479  -21.0312   19.3274 H   0  0  0  0  0  0
  -29.5799  -21.5046   19.3014 H   0  0  0  0  0  0
  -28.8623  -19.3135   21.5693 H   0  0  0  0  0  0
  -30.4044  -19.5229   20.8749 H   0  0  0  0  0  0
  -28.6621  -23.2870   21.5090 H   0  0  0  0  0  0
  -27.1534  -23.1048   20.7380 H   0  0  0  0  0  0
  -28.4467  -17.2150   20.0887 H   0  0  0  0  0  0
  1 25  1  0  0  0
  1 30  2  0  0  0
  1 74  1  0  0  0
  2  3  1  0  0  0
  2 25  1  0  0  0
  2 75  1  0  0  0
  2 76  1  0  0  0
  3  4  1  0  0  0
  3 77  1  0  0  0
  3 78  1  0  0  0
  4  5  1  0  0  0
  4 79  1  0  0  0
  4 80  1  0  0  0
  5  6  1  0  0  0
  5 26  1  0  0  0
  5 81  1  0  0  0
  6 25  1  0  0  0
  6 82  1  0  0  0
  6 83  1  0  0  0
  7  8  2  0  0  0
  7 26  1  0  0  0
  7 29  1  0  0  0
  8  9  1  0  0  0
  8 22  1  0  0  0
  9 10  1  0  0  0
  9 27  2  0  0  0
 10 11  2  0  0  0
 10 15  1  0  0  0
 11 12  1  0  0  0
 11 84  1  0  0  0
 12 13  2  0  0  0
 12 85  1  0  0  0
 13 14  1  0  0  0
 13 31  1  0  0  0
 14 15  2  0  0  0
 14 86  1  0  0  0
 15 87  1  0  0  0
 16 17  2  0  0  0
 16 21  1  0  0  0
 16 31  1  0  0  0
 17 18  1  0  0  0
 17 88  1  0  0  0
 18 19  2  0  0  0
 18 89  1  0  0  0
 19 20  1  0  0  0
 19 24  1  0  0  0
 20 21  2  0  0  0
 20 90  1  0  0  0
 21 23  1  0  0  0
 22 28  1  0  0  0
 22 32  2  0  0  0
 26 27  1  0  0  0
 28 91  1  0  0  0
 28 92  1  0  0  0
 29 93  1  0  0  0
 29 94  1  0  0  0
 33 34  1  0  0  0
 33 66  1  0  0  0
 33 70  2  0  0  0
 34 36  1  0  0  0
 34 59  1  0  0  0
 34 95  1  0  0  0
 35 44  2  0  0  0
 35 45  1  0  0  0
 35 68  1  0  0  0
 36 56  1  0  0  0
 36 96  1  0  0  0
 37 39  1  0  0  0
 37 47  1  0  0  0
 37 66  1  0  0  0
 37 97  1  0  0  0
 38 43  2  0  0  0
 38 46  1  0  0  0
 38 47  1  0  0  0
 39 64  1  0  0  0
 39 67  2  0  0  0
 40 52  1  0  0  0
 40 53  2  0  0  0
 40 58  1  0  0  0
 41 98  1  0  0  0
 41 99  1  0  0  0
 41100  1  0  0  0
 41 48  1  0  0  0
 42 43  1  0  0  0
 42 66  1  0  0  0
 42101  1  0  0  0
 42102  1  0  0  0
 43 44  1  0  0  0
 44103  1  0  0  0
 45 46  2  0  0  0
 45104  1  0  0  0
 46105  1  0  0  0
 47106  1  0  0  0
 47107  1  0  0  0
 48 56  1  0  0  0
 48 65  1  0  0  0
 48108  1  0  0  0
 49 50  1  0  0  0
 49 53  1  0  0  0
 49 64  1  0  0  0
 49109  1  0  0  0
 50 51  1  0  0  0
 50110  1  0  0  0
 50111  1  0  0  0
 51 52  1  0  0  0
 51112  1  0  0  0
 51113  1  0  0  0
 52114  1  0  0  0
 52115  1  0  0  0
 53 54  1  0  0  0
 54 55  2  0  0  0
 54116  1  0  0  0
 55 57  1  0  0  0
 55117  1  0  0  0
 56 69  2  0  0  0
 57 58  2  0  0  0
 57118  1  0  0  0
 58119  1  0  0  0
 59 60  1  0  0  0
 59 61  1  0  0  0
 59 62  1  0  0  0
 60120  1  0  0  0
 60121  1  0  0  0
 60122  1  0  0  0
 61123  1  0  0  0
 61124  1  0  0  0
 61125  1  0  0  0
 62126  1  0  0  0
 62127  1  0  0  0
 62128  1  0  0  0
 63 65  1  0  0  0
 63129  1  0  0  0
 63130  1  0  0  0
 63131  1  0  0  0
 64132  1  0  0  0
 65133  1  0  0  0
 68 73  1  0  0  0
 71 72  1  0  0  0
 71 73  1  0  0  0
 71134  1  0  0  0
 71135  1  0  0  0
 72 74  1  0  0  0
 72136  1  0  0  0
 72137  1  0  0  0
 73138  1  0  0  0
 73139  1  0  0  0
 74140  1  0  0  0
M  ISO  4   1 100  68 101  73 101  74 100
M  END
> <chiral flag>
0

> <version>
0

> <s_m_source_file>
/data/baiqing/PycharmProjects/Reinvent-master-3.2/result/LINK_invent/BTK/process_docking_weight1_custom_product_contain_oxygen_bond_distance_aromatic_linkinvent_7_9_3/rearranged_h_0102.sdf

> <i_m_source_file_index>
6

> <r_mmod_Potential_Energy-OPLS-2005>
4439.1796875

> <r_mmod_Stretch_Energy-OPLS-2005>
1928.78686523438

> <r_mmod_Bend_Energy-OPLS-2005>
1134.07287597656

> <r_mmod_Torsional_Energy-OPLS-2005>
253.740341186523

> <r_mmod_Improper_Torsional_Energy-OPLS-2005>
5.21059560775757

> <r_mmod_Van_der_Waal_Energy-OPLS-2005>
136.971328735352

> <r_mmod_Electrostatic_Energy-OPLS-2005>
-343.119842529297

> <r_mmod_Solvation_Energy-OPLS-2005>
-223.109710693359

> <b_mmod_Minimization_Converged-OPLS-2005>
0

> <r_mmod_RMS_Derivative-OPLS-2005>
0.0710311159491539

$$$$
6
                    3D
 Structure written by MMmdl.
162171  0  0  1  0            999 V2000
  -30.6799  -14.4996   20.5534 C   0  0  0  0  0  0
  -30.4236  -12.3158   19.4294 C   0  0  0  0  0  0
  -29.4964  -12.5081   18.2098 C   0  0  0  0  0  0
  -28.0163  -12.3674   18.6212 C   0  0  0  0  0  0
  -27.6621  -13.2072   19.8763 C   0  0  2  0  0  0
  -28.7032  -12.9943   20.9991 C   0  0  0  0  0  0
  -25.2590  -13.8154   20.5676 C   0  0  0  0  0  0
  -24.1833  -13.0431   20.9154 C   0  0  0  0  0  0
  -24.6381  -11.6897   20.8699 C   0  0  0  0  0  0
  -23.9031  -10.4288   21.0376 C   0  0  0  0  0  0
  -24.3588   -9.4211   21.9163 C   0  0  0  0  0  0
  -23.6281   -8.2234   22.0743 C   0  0  0  0  0  0
  -22.4263   -8.0263   21.3529 C   0  0  0  0  0  0
  -21.9886   -9.0231   20.4634 C   0  0  0  0  0  0
  -22.7196  -10.2125   20.3033 C   0  0  0  0  0  0
  -21.6852   -6.0721   22.5267 C   0  0  0  0  0  0
  -21.4015   -6.5628   23.8204 C   0  0  0  0  0  0
  -21.3670   -5.6790   24.9171 C   0  0  0  0  0  0
  -21.6051   -4.3050   24.7225 C   0  0  0  0  0  0
  -21.8823   -3.8133   23.4346 C   0  0  0  0  0  0
  -21.9192   -4.6945   22.3401 C   0  0  0  0  0  0
  -22.7859  -13.5222   21.1848 C   0  0  0  0  0  0
  -22.1651   -4.2121   21.0980 F   0  0  0  0  0  0
  -21.5644   -3.4541   25.7745 F   0  0  0  0  0  0
  -30.0343  -13.3043   20.4494 N   0  0  0  0  0  0
  -26.3026  -12.9324   20.3373 N   0  0  0  0  0  0
  -25.9316  -11.6481   20.5764 N   0  0  0  0  0  0
  -22.0500  -12.8205   22.0410 N   0  0  0  0  0  0
  -25.4348  -15.1870   20.4119 N   0  0  0  0  0  0
  -31.8110  -14.6791   20.0905 O   0  0  0  0  0  0
  -21.6627   -6.8859   21.4228 O   0  0  0  0  0  0
  -22.3534  -14.5529   20.6701 O   0  0  0  0  0  0
  -24.6147  -31.8677   23.2089 C   0  0  0  0  0  0
  -25.9036  -32.4827   23.8391 C   0  0  1  0  0  0
  -27.2333  -27.4221   20.1089 C   0  0  0  0  0  0
  -25.5891  -33.8625   24.2328 N   0  0  0  0  0  0
  -23.4060  -30.4893   21.5473 C   0  0  2  0  0  0
  -24.8563  -28.9514   20.1170 C   0  0  0  0  0  0
  -22.7418  -29.4647   22.4962 C   0  0  0  0  0  0
  -18.0272  -28.1372   22.8489 C   0  0  0  0  0  0
  -24.1485  -36.7317   23.2638 C   0  0  0  0  0  0
  -25.9359  -30.8275   21.3663 C   0  0  0  0  0  0
  -26.0154  -29.4590   20.7195 C   0  0  0  0  0  0
  -27.2111  -28.7005   20.7173 C   0  0  0  0  0  0
  -26.0640  -26.9334   19.4975 C   0  0  0  0  0  0
  -24.8749  -27.6864   19.5032 C   0  0  0  0  0  0
  -23.6190  -29.8206   20.1619 C   0  0  0  0  0  0
  -25.4107  -36.3119   24.0341 C   0  0  1  0  0  0
  -20.5864  -28.3661   23.1309 C   0  0  2  0  0  0
  -20.6748  -26.9389   22.5423 C   0  0  0  0  0  0
  -19.5735  -26.6373   21.5209 C   0  0  0  0  0  0
  -18.1915  -26.7919   22.1619 C   0  0  0  0  0  0
  -19.1524  -28.8829   23.2899 C   0  0  0  0  0  0
  -18.9458  -30.1432   23.8912 C   0  0  0  0  0  0
  -17.6463  -30.6581   24.0561 C   0  0  0  0  0  0
  -25.9030  -34.9483   23.5137 C   0  0  0  0  0  0
  -16.5351  -29.9086   23.6326 C   0  0  0  0  0  0
  -16.7262  -28.6500   23.0353 C   0  0  0  0  0  0
  -26.4462  -31.6605   25.0717 C   0  0  0  0  0  0
  -25.3724  -31.3740   26.1465 C   0  0  0  0  0  0
  -27.0288  -30.3043   24.6104 C   0  0  0  0  0  0
  -27.6051  -32.4309   25.7478 C   0  0  0  0  0  0
  -27.5594  -37.1811   24.8465 C   0  0  0  0  0  0
  -21.4139  -29.3036   22.3714 N   0  0  0  0  0  0
  -26.4304  -37.3799   23.9410 N   0  0  0  0  0  0
  -24.6703  -31.0763   22.0994 N   0  0  0  0  0  0
  -23.4181  -28.8182   23.3007 O   0  0  0  0  0  0
  -28.3547  -26.6229   20.0818 O   0  0  0  0  0  0
  -26.5598  -34.8939   22.4700 O   0  0  0  0  0  0
  -23.5332  -32.1432   23.7471 O   0  0  0  0  0  0
  -30.6232  -18.8643   19.4925 C   0  0  0  0  0  0
  -30.6713  -17.4793   19.7603 C   0  0  0  0  0  0
  -29.2174  -19.2002   21.4295 C   0  0  0  0  0  0
  -29.2659  -17.8053   21.7241 C   0  0  0  0  0  0
  -29.8900  -19.7499   20.3114 C   0  0  0  0  0  0
  -29.9948  -16.9218   20.8723 C   0  0  0  0  0  0
  -28.8864  -24.5795   21.2845 C   0  0  0  0  0  0
  -28.1608  -18.0078   23.9831 C   0  0  0  0  0  0
  -28.5945  -17.2835   22.9360 C   0  0  0  0  0  0
  -28.6229  -25.9089   21.2266 C   0  0  0  0  0  0
  -29.2490  -23.8452   22.5531 C   0  0  0  0  0  0
  -28.8991  -23.5623   20.1473 C   0  0  0  0  0  0
  -29.8608  -22.5296   22.0575 C   0  0  0  0  0  0
  -29.8376  -21.2413   19.8924 C   0  0  0  0  0  0
  -29.9592  -15.4982   21.1112 N   0  0  0  0  0  0
  -29.1631  -22.2330   20.7857 N   0  3  2  0  0  0
  -31.4685  -12.4102   19.1292 H   0  0  0  0  0  0
  -30.3179  -11.3067   19.8288 H   0  0  0  0  0  0
  -29.7373  -11.7794   17.4345 H   0  0  0  0  0  0
  -29.6642  -13.4917   17.7688 H   0  0  0  0  0  0
  -27.8257  -11.3123   18.8173 H   0  0  0  0  0  0
  -27.3646  -12.6433   17.7918 H   0  0  0  0  0  0
  -27.7044  -14.2545   19.5746 H   0  0  0  0  0  0
  -28.6838  -11.9606   21.3468 H   0  0  0  0  0  0
  -28.4598  -13.5972   21.8751 H   0  0  0  0  0  0
  -25.2739   -9.5694   22.4724 H   0  0  0  0  0  0
  -24.0001   -7.4623   22.7464 H   0  0  0  0  0  0
  -21.0810   -8.8737   19.8947 H   0  0  0  0  0  0
  -22.3642  -10.9651   19.6128 H   0  0  0  0  0  0
  -21.2007   -7.6140   23.9697 H   0  0  0  0  0  0
  -21.1492   -6.0519   25.9075 H   0  0  0  0  0  0
  -22.0599   -2.7588   23.2848 H   0  0  0  0  0  0
  -22.4127  -11.9860   22.4775 H   0  0  0  0  0  0
  -21.1122  -13.1221   22.2654 H   0  0  0  0  0  0
  -24.6746  -15.8473   20.5337 H   0  0  0  0  0  0
  -26.3014  -15.6268   20.1263 H   0  0  0  0  0  0
  -26.7109  -32.5549   23.1156 H   0  0  0  0  0  0
  -25.0039  -33.9779   25.0473 H   0  0  0  0  0  0
  -22.6959  -31.3063   21.4057 H   0  0  0  0  0  0
  -23.3753  -35.9647   23.3312 H   0  0  0  0  0  0
  -24.3579  -36.8914   22.2052 H   0  0  0  0  0  0
  -23.7229  -37.6525   23.6636 H   0  0  0  0  0  0
  -26.0493  -31.5898   20.5943 H   0  0  0  0  0  0
  -26.8222  -30.8850   21.9855 H   0  0  0  0  0  0
  -28.1083  -29.0847   21.1818 H   0  0  0  0  0  0
  -26.0766  -25.9615   19.0255 H   0  0  0  0  0  0
  -23.9860  -27.2881   19.0344 H   0  0  0  0  0  0
  -23.7331  -30.5952   19.4025 H   0  0  0  0  0  0
  -22.7435  -29.2416   19.8627 H   0  0  0  0  0  0
  -25.1283  -36.1997   25.0835 H   0  0  0  0  0  0
  -20.9972  -28.3226   24.1426 H   0  0  0  0  0  0
  -20.5615  -26.2279   23.3615 H   0  0  0  0  0  0
  -21.6628  -26.7397   22.1250 H   0  0  0  0  0  0
  -19.6890  -25.6284   21.1239 H   0  0  0  0  0  0
  -19.6685  -27.3182   20.6737 H   0  0  0  0  0  0
  -17.4192  -26.6677   21.4014 H   0  0  0  0  0  0
  -18.0311  -26.0049   22.9002 H   0  0  0  0  0  0
  -19.7939  -30.7234   24.2297 H   0  0  0  0  0  0
  -17.5027  -31.6267   24.5157 H   0  0  0  0  0  0
  -15.5357  -30.3000   23.7631 H   0  0  0  0  0  0
  -15.8662  -28.0818   22.7067 H   0  0  0  0  0  0
  -24.5895  -30.7081   25.7821 H   0  0  0  0  0  0
  -24.8908  -32.2911   26.4879 H   0  0  0  0  0  0
  -25.8064  -30.8946   27.0248 H   0  0  0  0  0  0
  -26.2841  -29.6817   24.1133 H   0  0  0  0  0  0
  -27.4030  -29.7268   25.4570 H   0  0  0  0  0  0
  -27.8690  -30.4360   23.9279 H   0  0  0  0  0  0
  -27.2682  -33.3593   26.2104 H   0  0  0  0  0  0
  -28.3840  -32.6891   25.0291 H   0  0  0  0  0  0
  -28.0742  -31.8395   26.5352 H   0  0  0  0  0  0
  -28.2626  -38.0094   24.7513 H   0  0  0  0  0  0
  -28.1073  -36.2633   24.6287 H   0  0  0  0  0  0
  -27.2315  -37.1466   25.8867 H   0  0  0  0  0  0
  -20.9281  -29.8814   21.6994 H   0  0  0  0  0  0
  -26.0202  -38.2887   24.1401 H   0  0  0  0  0  0
  -31.1436  -19.2435   18.6235 H   0  0  0  0  0  0
  -31.2212  -16.8551   19.0714 H   0  0  0  0  0  0
  -28.6331  -19.8503   22.0612 H   0  0  0  0  0  0
  -27.6683  -17.5240   24.8153 H   0  0  0  0  0  0
  -28.2821  -19.0792   24.0477 H   0  0  0  0  0  0
  -28.4208  -16.2186   22.9837 H   0  0  0  0  0  0
  -28.6337  -26.5421   22.1042 H   0  0  0  0  0  0
  -28.3397  -23.6505   23.1235 H   0  0  0  0  0  0
  -29.9343  -24.4146   23.1831 H   0  0  0  0  0  0
  -29.6992  -23.8233   19.4534 H   0  0  0  0  0  0
  -27.9564  -23.5622   19.5993 H   0  0  0  0  0  0
  -29.7757  -21.7283   22.7917 H   0  0  0  0  0  0
  -30.9250  -22.6761   21.8592 H   0  0  0  0  0  0
  -29.3294  -21.2671   18.9276 H   0  0  0  0  0  0
  -30.8556  -21.5819   19.6965 H   0  0  0  0  0  0
  -29.1521  -15.1772   21.6224 H   0  0  0  0  0  0
  -28.2591  -21.8548   21.0199 H   0  0  0  0  0  0
  1 25  1  0  0  0
  1 30  2  0  0  0
  1 85  1  0  0  0
  2  3  1  0  0  0
  2 25  1  0  0  0
  2 87  1  0  0  0
  2 88  1  0  0  0
  3  4  1  0  0  0
  3 89  1  0  0  0
  3 90  1  0  0  0
  4  5  1  0  0  0
  4 91  1  0  0  0
  4 92  1  0  0  0
  5  6  1  0  0  0
  5 26  1  0  0  0
  5 93  1  0  0  0
  6 25  1  0  0  0
  6 94  1  0  0  0
  6 95  1  0  0  0
  7  8  2  0  0  0
  7 26  1  0  0  0
  7 29  1  0  0  0
  8  9  1  0  0  0
  8 22  1  0  0  0
  9 10  1  0  0  0
  9 27  2  0  0  0
 10 11  2  0  0  0
 10 15  1  0  0  0
 11 12  1  0  0  0
 11 96  1  0  0  0
 12 13  2  0  0  0
 12 97  1  0  0  0
 13 14  1  0  0  0
 13 31  1  0  0  0
 14 15  2  0  0  0
 14 98  1  0  0  0
 15 99  1  0  0  0
 16 17  2  0  0  0
 16 21  1  0  0  0
 16 31  1  0  0  0
 17 18  1  0  0  0
 17100  1  0  0  0
 18 19  2  0  0  0
 18101  1  0  0  0
 19 20  1  0  0  0
 19 24  1  0  0  0
 20 21  2  0  0  0
 20102  1  0  0  0
 21 23  1  0  0  0
 22 28  1  0  0  0
 22 32  2  0  0  0
 26 27  1  0  0  0
 28103  1  0  0  0
 28104  1  0  0  0
 29105  1  0  0  0
 29106  1  0  0  0
 33 34  1  0  0  0
 33 66  1  0  0  0
 33 70  2  0  0  0
 34 36  1  0  0  0
 34 59  1  0  0  0
 34107  1  0  0  0
 35 44  2  0  0  0
 35 45  1  0  0  0
 35 68  1  0  0  0
 36 56  1  0  0  0
 36108  1  0  0  0
 37 39  1  0  0  0
 37 47  1  0  0  0
 37 66  1  0  0  0
 37109  1  0  0  0
 38 43  2  0  0  0
 38 46  1  0  0  0
 38 47  1  0  0  0
 39 64  1  0  0  0
 39 67  2  0  0  0
 40 52  1  0  0  0
 40 53  2  0  0  0
 40 58  1  0  0  0
 41110  1  0  0  0
 41111  1  0  0  0
 41112  1  0  0  0
 41 48  1  0  0  0
 42 43  1  0  0  0
 42 66  1  0  0  0
 42113  1  0  0  0
 42114  1  0  0  0
 43 44  1  0  0  0
 44115  1  0  0  0
 45 46  2  0  0  0
 45116  1  0  0  0
 46117  1  0  0  0
 47118  1  0  0  0
 47119  1  0  0  0
 48 56  1  0  0  0
 48 65  1  0  0  0
 48120  1  0  0  0
 49 50  1  0  0  0
 49 53  1  0  0  0
 49 64  1  0  0  0
 49121  1  0  0  0
 50 51  1  0  0  0
 50122  1  0  0  0
 50123  1  0  0  0
 51 52  1  0  0  0
 51124  1  0  0  0
 51125  1  0  0  0
 52126  1  0  0  0
 52127  1  0  0  0
 53 54  1  0  0  0
 54 55  2  0  0  0
 54128  1  0  0  0
 55 57  1  0  0  0
 55129  1  0  0  0
 56 69  2  0  0  0
 57 58  2  0  0  0
 57130  1  0  0  0
 58131  1  0  0  0
 59 60  1  0  0  0
 59 61  1  0  0  0
 59 62  1  0  0  0
 60132  1  0  0  0
 60133  1  0  0  0
 60134  1  0  0  0
 61135  1  0  0  0
 61136  1  0  0  0
 61137  1  0  0  0
 62138  1  0  0  0
 62139  1  0  0  0
 62140  1  0  0  0
 63 65  1  0  0  0
 63141  1  0  0  0
 63142  1  0  0  0
 63143  1  0  0  0
 64144  1  0  0  0
 65145  1  0  0  0
 68 80  1  0  0  0
 71 72  2  0  0  0
 71 75  1  0  0  0
 71146  1  0  0  0
 72 76  1  0  0  0
 72147  1  0  0  0
 73 74  1  0  0  0
 73 75  2  0  0  0
 73148  1  0  0  0
 74 76  2  0  0  0
 74 79  1  0  0  0
 75 84  1  0  0  0
 76 85  1  0  0  0
 77 80  2  0  0  0
 77 81  1  0  0  0
 77 82  1  0  0  0
 78 79  2  0  0  0
 78149  1  0  0  0
 78150  1  0  0  0
 79151  1  0  0  0
 80152  1  0  0  0
 81 83  1  0  0  0
 81153  1  0  0  0
 81154  1  0  0  0
 82 86  1  0  0  0
 82155  1  0  0  0
 82156  1  0  0  0
 83 86  1  0  0  0
 83157  1  0  0  0
 83158  1  0  0  0
 84159  1  0  0  0
 84160  1  0  0  0
 84 86  1  0  0  0
 85161  1  0  0  0
 86162  1  0  0  0
M  CHG  1  86   1
M  ISO  4   1 100  68 101  80 101  85 100
M  END
> <chiral flag>
0

> <version>
0

> <s_m_source_file>
/data/baiqing/PycharmProjects/Reinvent-master-3.2/result/LINK_invent/BTK/process_docking_weight1_custom_product_contain_oxygen_bond_distance_aromatic_linkinvent_7_9_3/rearranged_h_0102.sdf

> <i_m_source_file_index>
7

> <r_mmod_Potential_Energy-OPLS-2005>
-117.05638885498

> <r_mmod_Stretch_Energy-OPLS-2005>
44.081974029541

> <r_mmod_Bend_Energy-OPLS-2005>
135.504318237305

> <r_mmod_Torsional_Energy-OPLS-2005>
267.621948242188

> <r_mmod_Improper_Torsional_Energy-OPLS-2005>
3.28350949287415

> <r_mmod_Van_der_Waal_Energy-OPLS-2005>
145.984954833984

> <r_mmod_Electrostatic_Energy-OPLS-2005>
-294.900543212891

> <r_mmod_Solvation_Energy-OPLS-2005>
-434.139770507812

> <b_mmod_Minimization_Converged-OPLS-2005>
0

> <r_mmod_RMS_Derivative-OPLS-2005>
2.00267028808594

$$$$
7
                    3D
 Structure written by MMmdl.
148156  0  0  1  0            999 V2000
  -30.3730  -15.4168   20.3551 C   0  0  0  0  0  0
  -30.4352  -12.9173   19.5369 C   0  0  0  0  0  0
  -29.5434  -12.6086   18.3047 C   0  0  0  0  0  0
  -28.1002  -12.3000   18.7362 C   0  0  0  0  0  0
  -27.6048  -13.2880   19.8193 C   0  0  2  0  0  0
  -28.6306  -13.5231   20.9499 C   0  0  0  0  0  0
  -25.2362  -13.8260   20.5771 C   0  0  0  0  0  0
  -24.1731  -13.0437   20.9279 C   0  0  0  0  0  0
  -24.6404  -11.6939   20.8769 C   0  0  0  0  0  0
  -23.9106  -10.4292   21.0409 C   0  0  0  0  0  0
  -24.3644   -9.4204   21.9188 C   0  0  0  0  0  0
  -23.6308   -8.2243   22.0756 C   0  0  0  0  0  0
  -22.4289   -8.0285   21.3545 C   0  0  0  0  0  0
  -21.9936   -9.0261   20.4643 C   0  0  0  0  0  0
  -22.7276  -10.2134   20.3057 C   0  0  0  0  0  0
  -21.6856   -6.0744   22.5281 C   0  0  0  0  0  0
  -21.4019   -6.5648   23.8216 C   0  0  0  0  0  0
  -21.3658   -5.6798   24.9175 C   0  0  0  0  0  0
  -21.6042   -4.3061   24.7223 C   0  0  0  0  0  0
  -21.8820   -3.8154   23.4345 C   0  0  0  0  0  0
  -21.9194   -4.6972   22.3402 C   0  0  0  0  0  0
  -22.7745  -13.5176   21.1918 C   0  0  0  0  0  0
  -22.1663   -4.2160   21.0980 F   0  0  0  0  0  0
  -21.5625   -3.4543   25.7734 F   0  0  0  0  0  0
  -29.8407  -14.0790   20.3153 N   0  0  0  0  0  0
  -26.2790  -12.9556   20.3211 N   0  0  0  0  0  0
  -25.9341  -11.6649   20.5706 N   0  0  0  0  0  0
  -22.0409  -12.8157   22.0473 N   0  0  0  0  0  0
  -25.3995  -15.1992   20.4216 N   0  0  0  0  0  0
  -31.5982  -15.4041   20.1505 O   0  0  0  0  0  0
  -21.6643   -6.8888   21.4244 O   0  0  0  0  0  0
  -22.3412  -14.5465   20.6742 O   0  0  0  0  0  0
  -24.6707  -31.8129   23.1622 C   0  0  0  0  0  0
  -25.9348  -32.4529   23.8120 C   0  0  1  0  0  0
  -27.2229  -26.8258   20.2070 C   0  0  0  0  0  0
  -25.5978  -33.8349   24.2013 N   0  0  0  0  0  0
  -23.4908  -30.4188   21.5131 C   0  0  2  0  0  0
  -24.9454  -28.7798   20.1193 C   0  0  0  0  0  0
  -22.7703  -29.4381   22.4760 C   0  0  0  0  0  0
  -18.0329  -28.1411   22.8465 C   0  0  0  0  0  0
  -24.1498  -36.7184   23.2651 C   0  0  0  0  0  0
  -26.0638  -30.5837   21.4102 C   0  0  0  0  0  0
  -26.1281  -29.1596   20.7648 C   0  0  0  0  0  0
  -27.2540  -28.2048   20.7839 C   0  0  0  0  0  0
  -26.0129  -26.6239   19.5019 C   0  0  0  0  0  0
  -24.9181  -27.5340   19.4684 C   0  0  0  0  0  0
  -23.7374  -29.7222   20.1446 C   0  0  0  0  0  0
  -25.4143  -36.2932   24.0291 C   0  0  1  0  0  0
  -20.5956  -28.3761   23.1175 C   0  0  2  0  0  0
  -20.6799  -26.9434   22.5405 C   0  0  0  0  0  0
  -19.5774  -26.6373   21.5216 C   0  0  0  0  0  0
  -18.1958  -26.7943   22.1622 C   0  0  0  0  0  0
  -19.1591  -28.8909   23.2805 C   0  0  0  0  0  0
  -18.9500  -30.1498   23.8842 C   0  0  0  0  0  0
  -17.6490  -30.6599   24.0554 C   0  0  0  0  0  0
  -25.9113  -34.9317   23.4982 C   0  0  0  0  0  0
  -16.5382  -29.9083   23.6345 C   0  0  0  0  0  0
  -16.7310  -28.6505   23.0362 C   0  0  0  0  0  0
  -26.4569  -31.6518   25.0693 C   0  0  0  0  0  0
  -25.3670  -31.3793   26.1332 C   0  0  0  0  0  0
  -27.0486  -30.2874   24.6503 C   0  0  0  0  0  0
  -27.6043  -32.4353   25.7496 C   0  0  0  0  0  0
  -27.5570  -37.1750   24.8467 C   0  0  0  0  0  0
  -21.4364  -29.3034   22.3512 N   0  0  0  0  0  0
  -26.4280  -37.3678   23.9405 N   0  0  0  0  0  0
  -24.7638  -30.9693   22.0812 N   0  0  0  0  0  0
  -23.4206  -28.7967   23.3049 O   0  0  0  0  0  0
  -28.2548  -25.7134   20.2245 O   0  0  0  0  0  0
  -26.5744  -34.8871   22.4593 O   0  0  0  0  0  0
  -23.5756  -32.1148   23.6657 O   0  0  0  0  0  0
  -28.4151  -22.9252   20.3510 C   0  0  0  0  0  0
  -28.2651  -24.2355   20.2700 C   0  0  0  0  0  0
  -26.8904  -21.5582   21.4253 C   0  0  0  0  0  0
  -26.0733  -20.6275   22.0633 C   0  0  0  0  0  0
  -27.6132  -18.8952   21.4581 C   0  0  0  0  0  0
  -28.1299  -21.3149   20.7502 C   0  0  0  0  0  0
  -28.5388  -19.7209   20.7558 C   0  0  0  0  0  0
  -26.4373  -19.2964   22.0891 C   0  0  0  0  0  0
  -29.6869  -18.4362   20.2836 C   0  0  0  0  0  0
  -25.6289  -18.3683   22.7395 N   0  0  0  0  0  0
  -29.5841  -16.7103   20.4302 N   0  0  0  0  0  0
  -31.4451  -13.1466   19.1944 H   0  0  0  0  0  0
  -30.5396  -12.0349   20.1703 H   0  0  0  0  0  0
  -29.9532  -11.7734   17.7347 H   0  0  0  0  0  0
  -29.5459  -13.4697   17.6348 H   0  0  0  0  0  0
  -28.0843  -11.2850   19.1352 H   0  0  0  0  0  0
  -27.4312  -12.3030   17.8746 H   0  0  0  0  0  0
  -27.4996  -14.2381   19.2939 H   0  0  0  0  0  0
  -28.8346  -12.6068   21.5057 H   0  0  0  0  0  0
  -28.2395  -14.2424   21.6709 H   0  0  0  0  0  0
  -25.2780   -9.5681   22.4777 H   0  0  0  0  0  0
  -24.0010   -7.4637   22.7481 H   0  0  0  0  0  0
  -21.0870   -8.8790   19.8943 H   0  0  0  0  0  0
  -22.3738  -10.9682   19.6174 H   0  0  0  0  0  0
  -21.2018   -7.6157   23.9725 H   0  0  0  0  0  0
  -21.1476   -6.0525   25.9079 H   0  0  0  0  0  0
  -22.0598   -2.7617   23.2841 H   0  0  0  0  0  0
  -22.4048  -11.9832   22.4870 H   0  0  0  0  0  0
  -21.1018  -13.1160   22.2673 H   0  0  0  0  0  0
  -24.6388  -15.8539   20.5684 H   0  0  0  0  0  0
  -26.2350  -15.6420   20.0652 H   0  0  0  0  0  0
  -26.7423  -32.5036   23.0833 H   0  0  0  0  0  0
  -25.0039  -33.9405   25.0106 H   0  0  0  0  0  0
  -22.8094  -31.2526   21.3321 H   0  0  0  0  0  0
  -23.3771  -35.9504   23.3273 H   0  0  0  0  0  0
  -24.3575  -36.8879   22.2074 H   0  0  0  0  0  0
  -23.7247  -37.6352   23.6745 H   0  0  0  0  0  0
  -26.2551  -31.3134   20.6224 H   0  0  0  0  0  0
  -26.9201  -30.6474   22.0694 H   0  0  0  0  0  0
  -28.1518  -28.5025   21.3069 H   0  0  0  0  0  0
  -25.8825  -25.6797   18.9920 H   0  0  0  0  0  0
  -24.0236  -27.2380   18.9377 H   0  0  0  0  0  0
  -23.9044  -30.4844   19.3829 H   0  0  0  0  0  0
  -22.8446  -29.1825   19.8242 H   0  0  0  0  0  0
  -25.1348  -36.1713   25.0782 H   0  0  0  0  0  0
  -21.0044  -28.3374   24.1299 H   0  0  0  0  0  0
  -20.5669  -26.2380   23.3652 H   0  0  0  0  0  0
  -21.6662  -26.7392   22.1219 H   0  0  0  0  0  0
  -19.6930  -25.6268   21.1282 H   0  0  0  0  0  0
  -19.6716  -27.3152   20.6720 H   0  0  0  0  0  0
  -17.4227  -26.6688   21.4027 H   0  0  0  0  0  0
  -18.0353  -26.0097   22.9030 H   0  0  0  0  0  0
  -19.7974  -30.7333   24.2184 H   0  0  0  0  0  0
  -17.5039  -31.6271   24.5168 H   0  0  0  0  0  0
  -15.5379  -30.2964   23.7699 H   0  0  0  0  0  0
  -15.8712  -28.0803   22.7106 H   0  0  0  0  0  0
  -24.5874  -30.7121   25.7634 H   0  0  0  0  0  0
  -24.8831  -32.2998   26.4607 H   0  0  0  0  0  0
  -25.7874  -30.9054   27.0211 H   0  0  0  0  0  0
  -26.3174  -29.6516   24.1499 H   0  0  0  0  0  0
  -27.3967  -29.7280   25.5198 H   0  0  0  0  0  0
  -27.9135  -30.4032   23.9970 H   0  0  0  0  0  0
  -27.2602  -33.3712   26.1912 H   0  0  0  0  0  0
  -28.3930  -32.6824   25.0377 H   0  0  0  0  0  0
  -28.0631  -31.8593   26.5543 H   0  0  0  0  0  0
  -28.2562  -38.0068   24.7510 H   0  0  0  0  0  0
  -28.1090  -36.2591   24.6300 H   0  0  0  0  0  0
  -27.2286  -37.1398   25.8869 H   0  0  0  0  0  0
  -20.9641  -29.8702   21.6606 H   0  0  0  0  0  0
  -26.0118  -38.2734   24.1405 H   0  0  0  0  0  0
  -26.4580  -22.5483   21.5101 H   0  0  0  0  0  0
  -25.1616  -20.9612   22.5399 H   0  0  0  0  0  0
  -27.7955  -17.8394   21.5511 H   0  0  0  0  0  0
  -30.6229  -18.7039   20.7751 H   0  0  0  0  0  0
  -29.8834  -18.6151   19.2262 H   0  0  0  0  0  0
  -24.9161  -18.6853   23.3894 H   0  0  0  0  0  0
  -25.9763  -17.4355   22.9385 H   0  0  0  0  0  0
  -28.6175  -16.4531   20.5567 H   0  0  0  0  0  0
  1 25  1  0  0  0
  1 30  2  0  0  0
  1 81  1  0  0  0
  2  3  1  0  0  0
  2 25  1  0  0  0
  2 82  1  0  0  0
  2 83  1  0  0  0
  3  4  1  0  0  0
  3 84  1  0  0  0
  3 85  1  0  0  0
  4  5  1  0  0  0
  4 86  1  0  0  0
  4 87  1  0  0  0
  5  6  1  0  0  0
  5 26  1  0  0  0
  5 88  1  0  0  0
  6 25  1  0  0  0
  6 89  1  0  0  0
  6 90  1  0  0  0
  7  8  2  0  0  0
  7 26  1  0  0  0
  7 29  1  0  0  0
  8  9  1  0  0  0
  8 22  1  0  0  0
  9 10  1  0  0  0
  9 27  2  0  0  0
 10 11  2  0  0  0
 10 15  1  0  0  0
 11 12  1  0  0  0
 11 91  1  0  0  0
 12 13  2  0  0  0
 12 92  1  0  0  0
 13 14  1  0  0  0
 13 31  1  0  0  0
 14 15  2  0  0  0
 14 93  1  0  0  0
 15 94  1  0  0  0
 16 17  2  0  0  0
 16 21  1  0  0  0
 16 31  1  0  0  0
 17 18  1  0  0  0
 17 95  1  0  0  0
 18 19  2  0  0  0
 18 96  1  0  0  0
 19 20  1  0  0  0
 19 24  1  0  0  0
 20 21  2  0  0  0
 20 97  1  0  0  0
 21 23  1  0  0  0
 22 28  1  0  0  0
 22 32  2  0  0  0
 26 27  1  0  0  0
 28 98  1  0  0  0
 28 99  1  0  0  0
 29100  1  0  0  0
 29101  1  0  0  0
 33 34  1  0  0  0
 33 66  1  0  0  0
 33 70  2  0  0  0
 34 36  1  0  0  0
 34 59  1  0  0  0
 34102  1  0  0  0
 35 44  2  0  0  0
 35 45  1  0  0  0
 35 68  1  0  0  0
 36 56  1  0  0  0
 36103  1  0  0  0
 37 39  1  0  0  0
 37 47  1  0  0  0
 37 66  1  0  0  0
 37104  1  0  0  0
 38 43  2  0  0  0
 38 46  1  0  0  0
 38 47  1  0  0  0
 39 64  1  0  0  0
 39 67  2  0  0  0
 40 52  1  0  0  0
 40 53  2  0  0  0
 40 58  1  0  0  0
 41105  1  0  0  0
 41106  1  0  0  0
 41107  1  0  0  0
 41 48  1  0  0  0
 42 43  1  0  0  0
 42 66  1  0  0  0
 42108  1  0  0  0
 42109  1  0  0  0
 43 44  1  0  0  0
 44110  1  0  0  0
 45 46  2  0  0  0
 45111  1  0  0  0
 46112  1  0  0  0
 47113  1  0  0  0
 47114  1  0  0  0
 48 56  1  0  0  0
 48 65  1  0  0  0
 48115  1  0  0  0
 49 50  1  0  0  0
 49 53  1  0  0  0
 49 64  1  0  0  0
 49116  1  0  0  0
 50 51  1  0  0  0
 50117  1  0  0  0
 50118  1  0  0  0
 51 52  1  0  0  0
 51119  1  0  0  0
 51120  1  0  0  0
 52121  1  0  0  0
 52122  1  0  0  0
 53 54  1  0  0  0
 54 55  2  0  0  0
 54123  1  0  0  0
 55 57  1  0  0  0
 55124  1  0  0  0
 56 69  2  0  0  0
 57 58  2  0  0  0
 57125  1  0  0  0
 58126  1  0  0  0
 59 60  1  0  0  0
 59 61  1  0  0  0
 59 62  1  0  0  0
 60127  1  0  0  0
 60128  1  0  0  0
 60129  1  0  0  0
 61130  1  0  0  0
 61131  1  0  0  0
 61132  1  0  0  0
 62133  1  0  0  0
 62134  1  0  0  0
 62135  1  0  0  0
 63 65  1  0  0  0
 63136  1  0  0  0
 63137  1  0  0  0
 63138  1  0  0  0
 64139  1  0  0  0
 65140  1  0  0  0
 68 72  1  0  0  0
 71 72  3  0  0  0
 71 76  1  0  0  0
 73 74  2  0  0  0
 73 76  1  0  0  0
 73141  1  0  0  0
 74 78  1  0  0  0
 74142  1  0  0  0
 75 77  1  0  0  0
 75 78  2  0  0  0
 75143  1  0  0  0
 76 77  2  0  0  0
 77 79  1  0  0  0
 78 80  1  0  0  0
 79 81  1  0  0  0
 79144  1  0  0  0
 79145  1  0  0  0
 80146  1  0  0  0
 80147  1  0  0  0
 81148  1  0  0  0
M  ISO  4   1 100  68 101  72 101  81 100
M  END
> <chiral flag>
0

> <version>
0

> <s_m_source_file>
/data/baiqing/PycharmProjects/Reinvent-master-3.2/result/LINK_invent/BTK/process_docking_weight1_custom_product_contain_oxygen_bond_distance_aromatic_linkinvent_7_9_3/rearranged_h_0102.sdf

> <i_m_source_file_index>
8

> <r_mmod_Potential_Energy-OPLS-2005>
1681.89428710938

> <r_mmod_Stretch_Energy-OPLS-2005>
751.150573730469

> <r_mmod_Bend_Energy-OPLS-2005>
619.9150390625

> <r_mmod_Torsional_Energy-OPLS-2005>
196.709121704102

> <r_mmod_Improper_Torsional_Energy-OPLS-2005>
5.72649669647217

> <r_mmod_Van_der_Waal_Energy-OPLS-2005>
139.070343017578

> <r_mmod_Electrostatic_Energy-OPLS-2005>
-419.246002197266

> <r_mmod_Solvation_Energy-OPLS-2005>
-228.255722045898

> <b_mmod_Minimization_Converged-OPLS-2005>
0

> <r_mmod_RMS_Derivative-OPLS-2005>
0.448311179876328

$$$$
8
                    3D
 Structure written by MMmdl.
160168  0  0  1  0            999 V2000
  -30.1434  -14.4844   19.4132 C   0  0  0  0  0  0
  -30.7956  -12.2422   19.4526 C   0  0  0  0  0  0
  -29.7629  -11.8536   18.4169 C   0  0  0  0  0  0
  -28.4716  -11.7420   19.2318 C   0  0  0  0  0  0
  -28.1368  -12.8844   20.4518 C   0  0  2  0  0  0
  -29.3172  -13.0718   21.2563 C   0  0  0  0  0  0
  -25.9551  -13.9310   20.9338 C   0  0  0  0  0  0
  -24.1868  -13.2673   20.6865 C   0  0  0  0  0  0
  -24.0210  -12.0600   20.2982 C   0  0  0  0  0  0
  -23.6325  -10.6303   20.8361 C   0  0  0  0  0  0
  -24.2276   -9.6259   21.7064 C   0  0  0  0  0  0
  -23.6045   -8.3744   21.9721 C   0  0  0  0  0  0
  -22.3878   -8.0605   21.3309 C   0  0  0  0  0  0
  -21.8513   -8.9881   20.4344 C   0  0  0  0  0  0
  -22.4604  -10.2240   20.1973 C   0  0  0  0  0  0
  -21.7197   -6.0768   22.5345 C   0  0  0  0  0  0
  -21.4286   -6.5710   23.8244 C   0  0  0  0  0  0
  -21.3754   -5.6845   24.9197 C   0  0  0  0  0  0
  -21.6053   -4.3082   24.7263 C   0  0  0  0  0  0
  -21.8819   -3.8140   23.4400 C   0  0  0  0  0  0
  -21.9330   -4.6964   22.3472 C   0  0  0  0  0  0
  -22.6049  -13.6497   21.0259 C   0  0  0  0  0  0
  -22.1716   -4.2124   21.1039 F   0  0  0  0  0  0
  -21.5552   -3.4568   25.7766 F   0  0  0  0  0  0
  -30.2426  -13.3747   20.1760 N   0  0  0  0  0  0
  -26.8109  -13.4048   21.0687 N   0  0  0  0  0  0
  -24.9778  -13.1794   20.6656 N   0  0  0  0  0  0
  -21.9705  -12.9269   21.9610 N   0  0  0  0  0  0
  -26.7815  -15.1575   21.1576 N   0  0  0  0  0  0
  -31.1676  -15.1827   19.5117 O   0  0  0  0  0  0
  -21.7025   -6.8726   21.4202 O   0  0  0  0  0  0
  -22.0288  -14.5771   20.4701 O   0  0  0  0  0  0
  -24.6527  -31.8407   23.1889 C   0  0  0  0  0  0
  -25.9291  -32.4651   23.8264 C   0  0  1  0  0  0
  -26.9552  -26.9569   20.2295 C   0  0  0  0  0  0
  -25.6023  -33.8471   24.2165 N   0  0  0  0  0  0
  -23.4465  -30.4794   21.5385 C   0  0  2  0  0  0
  -24.8496  -28.9068   20.0865 C   0  0  0  0  0  0
  -22.7567  -29.4559   22.4784 C   0  0  0  0  0  0
  -18.0299  -28.1397   22.8464 C   0  0  0  0  0  0
  -24.1486  -36.7221   23.2643 C   0  0  0  0  0  0
  -26.0132  -30.6594   21.4094 C   0  0  0  0  0  0
  -26.0356  -29.2657   20.7425 C   0  0  0  0  0  0
  -27.1179  -28.2991   20.7930 C   0  0  0  0  0  0
  -25.8053  -26.7533   19.4706 C   0  0  0  0  0  0
  -24.7612  -27.6828   19.4163 C   0  0  0  0  0  0
  -23.6634  -29.8493   20.1412 C   0  0  0  0  0  0
  -25.4128  -36.3007   24.0307 C   0  0  1  0  0  0
  -20.5919  -28.3736   23.1196 C   0  0  2  0  0  0
  -20.6791  -26.9434   22.5386 C   0  0  0  0  0  0
  -19.5763  -26.6373   21.5200 C   0  0  0  0  0  0
  -18.1941  -26.7928   22.1613 C   0  0  0  0  0  0
  -19.1559  -28.8880   23.2826 C   0  0  0  0  0  0
  -18.9479  -30.1473   23.8861 C   0  0  0  0  0  0
  -17.6479  -30.6596   24.0552 C   0  0  0  0  0  0
  -25.9098  -34.9386   23.5037 C   0  0  0  0  0  0
  -16.5365  -29.9090   23.6345 C   0  0  0  0  0  0
  -16.7284  -28.6507   23.0366 C   0  0  0  0  0  0
  -26.4556  -31.6573   25.0768 C   0  0  0  0  0  0
  -25.3700  -31.3825   26.1442 C   0  0  0  0  0  0
  -27.0450  -30.2944   24.6484 C   0  0  0  0  0  0
  -27.6049  -32.4378   25.7571 C   0  0  0  0  0  0
  -27.5567  -37.1781   24.8465 C   0  0  0  0  0  0
  -21.4254  -29.3064   22.3551 N   0  0  0  0  0  0
  -26.4276  -37.3738   23.9408 N   0  0  0  0  0  0
  -24.7268  -31.0198   22.0969 N   0  0  0  0  0  0
  -23.4206  -28.8071   23.2915 O   0  0  0  0  0  0
  -27.7354  -25.7548   20.3589 O   0  0  0  0  0  0
  -26.5675  -34.8895   22.4613 O   0  0  0  0  0  0
  -23.5640  -32.1366   23.7061 O   0  0  0  0  0  0
  -25.0749  -14.9386   19.1417 C   0  0  0  0  0  0
  -24.7348  -14.1324   22.7973 C   0  0  0  0  0  0
  -26.2182  -11.3880   20.3962 C   0  0  0  0  0  0
  -24.4495  -15.5803   21.1099 C   0  0  0  0  0  0
  -26.1178  -13.0914   18.7684 C   0  0  0  0  0  0
  -25.5512  -12.0970   22.4874 C   0  0  0  0  0  0
  -25.2646  -19.9267   20.7450 C   0  0  0  0  0  0
  -24.3030  -17.2779   21.2672 C   0  0  0  0  0  0
  -27.5225  -13.8386   17.9493 C   0  0  0  0  0  0
  -26.3122  -21.2536   21.0557 C   0  0  0  0  0  0
  -26.4756  -22.8419   20.2952 C   0  0  0  0  0  0
  -27.1295  -24.3550   20.9186 C   0  0  0  0  0  0
  -25.3663  -18.5217   21.1352 N   0  0  0  0  0  0
  -28.9918  -14.6074   18.4518 N   0  0  0  0  0  0
  -24.2362  -20.2386   20.1439 O   0  0  0  0  0  0
  -25.7573  -11.3190   23.5789 F   0  0  0  0  0  0
  -31.7493  -12.4886   18.9805 H   0  0  0  0  0  0
  -30.9987  -11.4162   20.1365 H   0  0  0  0  0  0
  -30.0162  -10.8710   18.0150 H   0  0  0  0  0  0
  -29.7539  -12.4898   17.5360 H   0  0  0  0  0  0
  -28.6576  -10.8242   19.7944 H   0  0  0  0  0  0
  -27.7256  -11.4020   18.5155 H   0  0  0  0  0  0
  -28.0687  -13.7861   20.1094 H   0  0  0  0  0  0
  -29.5907  -12.1732   21.8103 H   0  0  0  0  0  0
  -29.2400  -13.9059   21.9574 H   0  0  0  0  0  0
  -25.1973   -9.7321   22.1525 H   0  0  0  0  0  0
  -24.0854   -7.6597   22.6242 H   0  0  0  0  0  0
  -20.9385   -8.7449   19.9086 H   0  0  0  0  0  0
  -21.9809  -10.8913   19.4931 H   0  0  0  0  0  0
  -21.2345   -7.6235   23.9733 H   0  0  0  0  0  0
  -21.1546   -6.0584   25.9094 H   0  0  0  0  0  0
  -22.0480   -2.7586   23.2901 H   0  0  0  0  0  0
  -22.4481  -12.1826   22.4461 H   0  0  0  0  0  0
  -21.0112  -13.1378   22.1964 H   0  0  0  0  0  0
  -26.2275  -15.9546   20.8799 H   0  0  0  0  0  0
  -27.7049  -15.1741   20.7568 H   0  0  0  0  0  0
  -26.7340  -32.5152   23.0950 H   0  0  0  0  0  0
  -25.0160  -33.9586   25.0307 H   0  0  0  0  0  0
  -22.7541  -31.3128   21.4055 H   0  0  0  0  0  0
  -23.3768  -35.9532   23.3287 H   0  0  0  0  0  0
  -24.3558  -36.8881   22.2061 H   0  0  0  0  0  0
  -23.7217  -37.6398   23.6701 H   0  0  0  0  0  0
  -26.2077  -31.4086   20.6408 H   0  0  0  0  0  0
  -26.8737  -30.6818   22.0661 H   0  0  0  0  0  0
  -28.0098  -28.5295   21.3586 H   0  0  0  0  0  0
  -25.6570  -25.7987   18.9841 H   0  0  0  0  0  0
  -23.8585  -27.4233   18.8816 H   0  0  0  0  0  0
  -23.8387  -30.6415   19.4126 H   0  0  0  0  0  0
  -22.7602  -29.3371   19.8055 H   0  0  0  0  0  0
  -25.1316  -36.1820   25.0800 H   0  0  0  0  0  0
  -21.0018  -28.3336   24.1315 H   0  0  0  0  0  0
  -20.5682  -26.2353   23.3613 H   0  0  0  0  0  0
  -21.6655  -26.7433   22.1184 H   0  0  0  0  0  0
  -19.6933  -25.6269   21.1268 H   0  0  0  0  0  0
  -19.6704  -27.3146   20.6700 H   0  0  0  0  0  0
  -17.4208  -26.6649   21.4024 H   0  0  0  0  0  0
  -18.0357  -26.0083   22.9026 H   0  0  0  0  0  0
  -19.7959  -30.7292   24.2216 H   0  0  0  0  0  0
  -17.5040  -31.6274   24.5154 H   0  0  0  0  0  0
  -15.5369  -30.2988   23.7700 H   0  0  0  0  0  0
  -15.8673  -28.0818   22.7121 H   0  0  0  0  0  0
  -24.5859  -30.7200   25.7764 H   0  0  0  0  0  0
  -24.8926  -32.3044   26.4784 H   0  0  0  0  0  0
  -25.7945  -30.9044   27.0282 H   0  0  0  0  0  0
  -26.3113  -29.6613   24.1492 H   0  0  0  0  0  0
  -27.3983  -29.7325   25.5142 H   0  0  0  0  0  0
  -27.9055  -30.4132   23.9896 H   0  0  0  0  0  0
  -27.2606  -33.3706   26.2058 H   0  0  0  0  0  0
  -28.3919  -32.6906   25.0450 H   0  0  0  0  0  0
  -28.0660  -31.8582   26.5585 H   0  0  0  0  0  0
  -28.2564  -38.0097   24.7522 H   0  0  0  0  0  0
  -28.1084  -36.2624   24.6278 H   0  0  0  0  0  0
  -27.2285  -37.1405   25.8869 H   0  0  0  0  0  0
  -20.9444  -29.8818   21.6776 H   0  0  0  0  0  0
  -26.0126  -38.2797   24.1422 H   0  0  0  0  0  0
  -25.1563  -15.7171   18.3981 H   0  0  0  0  0  0
  -24.5300  -14.4602   23.8050 H   0  0  0  0  0  0
  -26.6701  -10.4146   20.2735 H   0  0  0  0  0  0
  -23.8620  -17.4114   22.2553 H   0  0  0  0  0  0
  -23.4949  -17.5348   20.5821 H   0  0  0  0  0  0
  -27.0452  -14.6652   17.4251 H   0  0  0  0  0  0
  -27.7591  -13.1875   17.1088 H   0  0  0  0  0  0
  -27.3129  -20.8222   21.0872 H   0  0  0  0  0  0
  -26.0945  -21.4765   22.1002 H   0  0  0  0  0  0
  -25.4849  -23.0873   19.9104 H   0  0  0  0  0  0
  -27.0574  -22.6432   19.3950 H   0  0  0  0  0  0
  -27.9731  -24.0064   21.5143 H   0  0  0  0  0  0
  -26.4056  -24.6701   21.6706 H   0  0  0  0  0  0
  -26.2537  -18.3090   21.5726 H   0  0  0  0  0  0
  -29.1273  -15.4483   17.9072 H   0  0  0  0  0  0
  1 25  1  0  0  0
  1 30  2  0  0  0
  1 84  1  0  0  0
  2  3  1  0  0  0
  2 25  1  0  0  0
  2 87  1  0  0  0
  2 88  1  0  0  0
  3  4  1  0  0  0
  3 89  1  0  0  0
  3 90  1  0  0  0
  4  5  1  0  0  0
  4 91  1  0  0  0
  4 92  1  0  0  0
  5  6  1  0  0  0
  5 26  1  0  0  0
  5 93  1  0  0  0
  6 25  1  0  0  0
  6 94  1  0  0  0
  6 95  1  0  0  0
  7  8  2  0  0  0
  7 26  1  0  0  0
  7 29  1  0  0  0
  8  9  1  0  0  0
  8 22  1  0  0  0
  9 10  1  0  0  0
  9 27  2  0  0  0
 10 11  2  0  0  0
 10 15  1  0  0  0
 11 12  1  0  0  0
 11 96  1  0  0  0
 12 13  2  0  0  0
 12 97  1  0  0  0
 13 14  1  0  0  0
 13 31  1  0  0  0
 14 15  2  0  0  0
 14 98  1  0  0  0
 15 99  1  0  0  0
 16 17  2  0  0  0
 16 21  1  0  0  0
 16 31  1  0  0  0
 17 18  1  0  0  0
 17100  1  0  0  0
 18 19  2  0  0  0
 18101  1  0  0  0
 19 20  1  0  0  0
 19 24  1  0  0  0
 20 21  2  0  0  0
 20102  1  0  0  0
 21 23  1  0  0  0
 22 28  1  0  0  0
 22 32  2  0  0  0
 26 27  1  0  0  0
 28103  1  0  0  0
 28104  1  0  0  0
 29105  1  0  0  0
 29106  1  0  0  0
 33 34  1  0  0  0
 33 66  1  0  0  0
 33 70  2  0  0  0
 34 36  1  0  0  0
 34 59  1  0  0  0
 34107  1  0  0  0
 35 44  2  0  0  0
 35 45  1  0  0  0
 35 68  1  0  0  0
 36 56  1  0  0  0
 36108  1  0  0  0
 37 39  1  0  0  0
 37 47  1  0  0  0
 37 66  1  0  0  0
 37109  1  0  0  0
 38 43  2  0  0  0
 38 46  1  0  0  0
 38 47  1  0  0  0
 39 64  1  0  0  0
 39 67  2  0  0  0
 40 52  1  0  0  0
 40 53  2  0  0  0
 40 58  1  0  0  0
 41110  1  0  0  0
 41111  1  0  0  0
 41112  1  0  0  0
 41 48  1  0  0  0
 42 43  1  0  0  0
 42 66  1  0  0  0
 42113  1  0  0  0
 42114  1  0  0  0
 43 44  1  0  0  0
 44115  1  0  0  0
 45 46  2  0  0  0
 45116  1  0  0  0
 46117  1  0  0  0
 47118  1  0  0  0
 47119  1  0  0  0
 48 56  1  0  0  0
 48 65  1  0  0  0
 48120  1  0  0  0
 49 50  1  0  0  0
 49 53  1  0  0  0
 49 64  1  0  0  0
 49121  1  0  0  0
 50 51  1  0  0  0
 50122  1  0  0  0
 50123  1  0  0  0
 51 52  1  0  0  0
 51124  1  0  0  0
 51125  1  0  0  0
 52126  1  0  0  0
 52127  1  0  0  0
 53 54  1  0  0  0
 54 55  2  0  0  0
 54128  1  0  0  0
 55 57  1  0  0  0
 55129  1  0  0  0
 56 69  2  0  0  0
 57 58  2  0  0  0
 57130  1  0  0  0
 58131  1  0  0  0
 59 60  1  0  0  0
 59 61  1  0  0  0
 59 62  1  0  0  0
 60132  1  0  0  0
 60133  1  0  0  0
 60134  1  0  0  0
 61135  1  0  0  0
 61136  1  0  0  0
 61137  1  0  0  0
 62138  1  0  0  0
 62139  1  0  0  0
 62140  1  0  0  0
 63 65  1  0  0  0
 63141  1  0  0  0
 63142  1  0  0  0
 63143  1  0  0  0
 64144  1  0  0  0
 65145  1  0  0  0
 68 82  1  0  0  0
 71 74  2  0  0  0
 71 75  1  0  0  0
 71146  1  0  0  0
 72 74  1  0  0  0
 72 76  2  0  0  0
 72147  1  0  0  0
 73 75  2  0  0  0
 73 76  1  0  0  0
 73148  1  0  0  0
 74 78  1  0  0  0
 75 79  1  0  0  0
 76 86  1  0  0  0
 77 80  1  0  0  0
 77 83  1  0  0  0
 77 85  2  0  0  0
 78 83  1  0  0  0
 78149  1  0  0  0
 78150  1  0  0  0
 79 84  1  0  0  0
 79151  1  0  0  0
 79152  1  0  0  0
 80 81  1  0  0  0
 80153  1  0  0  0
 80154  1  0  0  0
 81 82  1  0  0  0
 81155  1  0  0  0
 81156  1  0  0  0
 82157  1  0  0  0
 82158  1  0  0  0
 83159  1  0  0  0
 84160  1  0  0  0
M  ISO  4   1 100  68 101  82 101  84 100
M  END
> <chiral flag>
0

> <version>
0

> <s_m_source_file>
/data/baiqing/PycharmProjects/Reinvent-master-3.2/result/LINK_invent/BTK/process_docking_weight1_custom_product_contain_oxygen_bond_distance_aromatic_linkinvent_7_9_3/rearranged_h_0102.sdf

> <i_m_source_file_index>
9

> <r_mmod_Potential_Energy-OPLS-2005>
19324.041015625

> <r_mmod_Stretch_Energy-OPLS-2005>
10748.90234375

> <r_mmod_Bend_Energy-OPLS-2005>
2188.7119140625

> <r_mmod_Torsional_Energy-OPLS-2005>
608.556457519531

> <r_mmod_Improper_Torsional_Energy-OPLS-2005>
83.3614196777344

> <r_mmod_Van_der_Waal_Energy-OPLS-2005>
4676.03369140625

> <r_mmod_Electrostatic_Energy-OPLS-2005>
-475.934936523438

> <r_mmod_Solvation_Energy-OPLS-2005>
-245.541107177734

> <b_mmod_Minimization_Converged-OPLS-2005>
0

> <r_mmod_RMS_Derivative-OPLS-2005>
3.24860596656799

$$$$
9
                    3D
 Structure written by MMmdl.
166175  0  0  1  0            999 V2000
  -30.6418  -14.7115   20.3921 C   0  0  0  0  0  0
  -30.4222  -12.4129   19.4626 C   0  0  0  0  0  0
  -29.4862  -12.3851   18.2322 C   0  0  0  0  0  0
  -28.0117  -12.2815   18.6600 C   0  0  0  0  0  0
  -27.6323  -13.2181   19.8394 C   0  0  2  0  0  0
  -28.6870  -13.1911   20.9654 C   0  0  0  0  0  0
  -25.2498  -13.8173   20.5745 C   0  0  0  0  0  0
  -24.1769  -13.0446   20.9243 C   0  0  0  0  0  0
  -24.6338  -11.6917   20.8799 C   0  0  0  0  0  0
  -23.9022  -10.4305   21.0433 C   0  0  0  0  0  0
  -24.3602   -9.4214   21.9191 C   0  0  0  0  0  0
  -23.6293   -8.2241   22.0739 C   0  0  0  0  0  0
  -22.4274   -8.0279   21.3532 C   0  0  0  0  0  0
  -21.9903   -9.0252   20.4635 C   0  0  0  0  0  0
  -22.7215  -10.2140   20.3066 C   0  0  0  0  0  0
  -21.6864   -6.0735   22.5268 C   0  0  0  0  0  0
  -21.4018   -6.5627   23.8206 C   0  0  0  0  0  0
  -21.3666   -5.6775   24.9162 C   0  0  0  0  0  0
  -21.6055   -4.3038   24.7209 C   0  0  0  0  0  0
  -21.8824   -3.8140   23.4327 C   0  0  0  0  0  0
  -21.9197   -4.6961   22.3390 C   0  0  0  0  0  0
  -22.7789  -13.5237   21.1879 C   0  0  0  0  0  0
  -22.1669   -4.2147   21.0967 F   0  0  0  0  0  0
  -21.5638   -3.4522   25.7722 F   0  0  0  0  0  0
  -29.9781  -13.5088   20.3493 N   0  0  0  0  0  0
  -26.2896  -12.9354   20.3333 N   0  0  0  0  0  0
  -25.9262  -11.6520   20.5847 N   0  0  0  0  0  0
  -22.0427  -12.8242   22.0432 N   0  0  0  0  0  0
  -25.4205  -15.1882   20.4143 N   0  0  0  0  0  0
  -31.8680  -14.7156   20.2592 O   0  0  0  0  0  0
  -21.6644   -6.8875   21.4230 O   0  0  0  0  0  0
  -22.3481  -14.5534   20.6693 O   0  0  0  0  0  0
  -24.6231  -31.8588   23.1993 C   0  0  0  0  0  0
  -25.9083  -32.4772   23.8318 C   0  0  1  0  0  0
  -27.2261  -27.3162   20.1295 C   0  0  0  0  0  0
  -25.5917  -33.8573   24.2258 N   0  0  0  0  0  0
  -23.4149  -30.4786   21.5430 C   0  0  2  0  0  0
  -24.8621  -28.9251   20.1111 C   0  0  0  0  0  0
  -22.7443  -29.4616   22.4952 C   0  0  0  0  0  0
  -18.0278  -28.1377   22.8489 C   0  0  0  0  0  0
  -24.1486  -36.7287   23.2639 C   0  0  0  0  0  0
  -25.9518  -30.7909   21.3648 C   0  0  0  0  0  0
  -26.0259  -29.4137   20.7152 C   0  0  0  0  0  0
  -27.2062  -28.6186   20.7160 C   0  0  0  0  0  0
  -26.0391  -26.8682   19.5083 C   0  0  0  0  0  0
  -24.8707  -27.6585   19.4994 C   0  0  0  0  0  0
  -23.6275  -29.8036   20.1603 C   0  0  0  0  0  0
  -25.4111  -36.3076   24.0324 C   0  0  1  0  0  0
  -20.5871  -28.3680   23.1311 C   0  0  2  0  0  0
  -20.6770  -26.9412   22.5425 C   0  0  0  0  0  0
  -19.5753  -26.6383   21.5225 C   0  0  0  0  0  0
  -18.1931  -26.7921   22.1631 C   0  0  0  0  0  0
  -19.1526  -28.8845   23.2898 C   0  0  0  0  0  0
  -18.9455  -30.1451   23.8905 C   0  0  0  0  0  0
  -17.6457  -30.6588   24.0562 C   0  0  0  0  0  0
  -25.9054  -34.9448   23.5090 C   0  0  0  0  0  0
  -16.5344  -29.9089   23.6328 C   0  0  0  0  0  0
  -16.7267  -28.6502   23.0351 C   0  0  0  0  0  0
  -26.4474  -31.6572   25.0677 C   0  0  0  0  0  0
  -25.3710  -31.3724   26.1410 C   0  0  0  0  0  0
  -27.0302  -30.2993   24.6105 C   0  0  0  0  0  0
  -27.6028  -32.4303   25.7464 C   0  0  0  0  0  0
  -27.5572  -37.1799   24.8466 C   0  0  0  0  0  0
  -21.4160  -29.3036   22.3703 N   0  0  0  0  0  0
  -26.4281  -37.3778   23.9415 N   0  0  0  0  0  0
  -24.6820  -31.0598   22.0934 N   0  0  0  0  0  0
  -23.4178  -28.8171   23.3035 O   0  0  0  0  0  0
  -28.3803  -26.5264   20.1981 O   0  0  0  0  0  0
  -26.5629  -34.8919   22.4668 O   0  0  0  0  0  0
  -23.5404  -32.1380   23.7341 O   0  0  0  0  0  0
  -28.2325  -19.1798   20.6096 C   0  0  0  0  0  0
  -28.4602  -17.7876   20.3723 C   0  0  0  0  0  0
  -30.5438  -19.4304   21.1784 C   0  0  0  0  0  0
  -30.7805  -18.0356   20.9549 C   0  0  0  0  0  0
  -29.2760  -20.0613   21.0014 C   0  0  0  0  0  0
  -29.7365  -17.1621   20.5106 C   0  0  0  0  0  0
  -29.4608  -21.9414   22.5324 C   0  0  0  0  0  0
  -28.5543  -22.4301   20.3939 C   0  0  0  0  0  0
  -29.6809  -23.4383   22.7842 C   0  0  0  0  0  0
  -28.5163  -24.2718   22.2556 C   0  0  0  0  0  0
  -28.1218  -23.9201   20.8065 C   0  0  2  0  0  0
  -32.2046  -17.5446   21.1304 C   0  0  0  0  0  0
  -30.3121  -17.1607   17.7491 C   0  0  0  0  0  0
  -28.4598  -25.1034   19.7830 C   0  0  0  0  0  0
  -29.8737  -15.8442   18.4281 C   0  0  0  0  0  0
  -29.0740  -21.5081   21.2978 N   0  0  0  0  0  0
  -29.9371  -15.8184   19.9154 N   0  0  0  0  0  0
  -29.6514  -21.1766   23.4870 O   0  0  0  0  0  0
  -28.3865  -22.1141   19.2103 O   0  0  0  0  0  0
  -31.4557  -12.5370   19.1347 H   0  0  0  0  0  0
  -30.3886  -11.4640   19.9991 H   0  0  0  0  0  0
  -29.7399  -11.5297   17.6040 H   0  0  0  0  0  0
  -29.6211  -13.2519   17.5941 H   0  0  0  0  0  0
  -27.8478  -11.2434   18.9519 H   0  0  0  0  0  0
  -27.3537  -12.4590   17.8080 H   0  0  0  0  0  0
  -27.6098  -14.2269   19.4312 H   0  0  0  0  0  0
  -28.7231  -12.2153   21.4514 H   0  0  0  0  0  0
  -28.4399  -13.9197   21.7401 H   0  0  0  0  0  0
  -25.2752   -9.5703   22.4749 H   0  0  0  0  0  0
  -24.0034   -7.4622   22.7430 H   0  0  0  0  0  0
  -21.0848   -8.8750   19.8919 H   0  0  0  0  0  0
  -22.3672  -10.9680   19.6173 H   0  0  0  0  0  0
  -21.2007   -7.6132   23.9708 H   0  0  0  0  0  0
  -21.1490   -6.0501   25.9068 H   0  0  0  0  0  0
  -22.0603   -2.7603   23.2814 H   0  0  0  0  0  0
  -22.4061  -11.9950   22.4887 H   0  0  0  0  0  0
  -21.1007  -13.1217   22.2555 H   0  0  0  0  0  0
  -24.6571  -15.8451   20.5325 H   0  0  0  0  0  0
  -26.2795  -15.6243   20.1074 H   0  0  0  0  0  0
  -26.7140  -32.5440   23.1063 H   0  0  0  0  0  0
  -25.0048  -33.9720   25.0387 H   0  0  0  0  0  0
  -22.7073  -31.2981   21.3981 H   0  0  0  0  0  0
  -23.3747  -35.9622   23.3302 H   0  0  0  0  0  0
  -24.3575  -36.8907   22.2054 H   0  0  0  0  0  0
  -23.7231  -37.6484   23.6662 H   0  0  0  0  0  0
  -26.0716  -31.5487   20.5890 H   0  0  0  0  0  0
  -26.8365  -30.8513   21.9871 H   0  0  0  0  0  0
  -28.0978  -28.9896   21.2018 H   0  0  0  0  0  0
  -25.9870  -25.8940   19.0455 H   0  0  0  0  0  0
  -23.9752  -27.2768   19.0283 H   0  0  0  0  0  0
  -23.7366  -30.5747   19.3969 H   0  0  0  0  0  0
  -22.7487  -29.2258   19.8673 H   0  0  0  0  0  0
  -25.1296  -36.1919   25.0812 H   0  0  0  0  0  0
  -20.9957  -28.3251   24.1435 H   0  0  0  0  0  0
  -20.5689  -26.2286   23.3616 H   0  0  0  0  0  0
  -21.6643  -26.7461   22.1214 H   0  0  0  0  0  0
  -19.6924  -25.6302   21.1251 H   0  0  0  0  0  0
  -19.6692  -27.3198   20.6763 H   0  0  0  0  0  0
  -17.4201  -26.6667   21.4031 H   0  0  0  0  0  0
  -18.0332  -26.0065   22.9030 H   0  0  0  0  0  0
  -19.7935  -30.7271   24.2264 H   0  0  0  0  0  0
  -17.5016  -31.6269   24.5168 H   0  0  0  0  0  0
  -15.5350  -30.3001   23.7646 H   0  0  0  0  0  0
  -15.8665  -28.0832   22.7063 H   0  0  0  0  0  0
  -24.5892  -30.7061   25.7753 H   0  0  0  0  0  0
  -24.8892  -32.2898   26.4798 H   0  0  0  0  0  0
  -25.8029  -30.8930   27.0202 H   0  0  0  0  0  0
  -26.2867  -29.6779   24.1094 H   0  0  0  0  0  0
  -27.3978  -29.7209   25.4594 H   0  0  0  0  0  0
  -27.8746  -30.4292   23.9328 H   0  0  0  0  0  0
  -27.2628  -33.3614   26.2017 H   0  0  0  0  0  0
  -28.3854  -32.6844   25.0303 H   0  0  0  0  0  0
  -28.0666  -31.8430   26.5403 H   0  0  0  0  0  0
  -28.2590  -38.0097   24.7513 H   0  0  0  0  0  0
  -28.1059  -36.2625   24.6284 H   0  0  0  0  0  0
  -27.2289  -37.1442   25.8867 H   0  0  0  0  0  0
  -20.9322  -29.8737   21.6908 H   0  0  0  0  0  0
  -26.0154  -38.2848   24.1419 H   0  0  0  0  0  0
  -27.2335  -19.5690   20.4709 H   0  0  0  0  0  0
  -27.6319  -17.1991   20.0058 H   0  0  0  0  0  0
  -31.3791  -20.0441   21.4869 H   0  0  0  0  0  0
  -30.6125  -23.7367   22.3014 H   0  0  0  0  0  0
  -29.8150  -23.6192   23.8523 H   0  0  0  0  0  0
  -28.7740  -25.3270   22.3428 H   0  0  0  0  0  0
  -27.6520  -24.1327   22.9067 H   0  0  0  0  0  0
  -27.0321  -23.8770   20.8125 H   0  0  0  0  0  0
  -32.8421  -18.3042   21.5816 H   0  0  0  0  0  0
  -32.6371  -17.2795   20.1656 H   0  0  0  0  0  0
  -32.2345  -16.6767   21.7881 H   0  0  0  0  0  0
  -31.3161  -17.4500   18.0605 H   0  0  0  0  0  0
  -29.6354  -17.9910   17.9517 H   0  0  0  0  0  0
  -30.3384  -17.0394   16.6664 H   0  0  0  0  0  0
  -29.5049  -24.9713   19.4992 H   0  0  0  0  0  0
  -27.9216  -24.9471   18.8481 H   0  0  0  0  0  0
  -28.8647  -15.5856   18.1074 H   0  0  0  0  0  0
  -30.5337  -15.0937   17.9914 H   0  0  0  0  0  0
  1 25  1  0  0  0
  1 30  2  0  0  0
  1 87  1  0  0  0
  2  3  1  0  0  0
  2 25  1  0  0  0
  2 90  1  0  0  0
  2 91  1  0  0  0
  3  4  1  0  0  0
  3 92  1  0  0  0
  3 93  1  0  0  0
  4  5  1  0  0  0
  4 94  1  0  0  0
  4 95  1  0  0  0
  5  6  1  0  0  0
  5 26  1  0  0  0
  5 96  1  0  0  0
  6 25  1  0  0  0
  6 97  1  0  0  0
  6 98  1  0  0  0
  7  8  2  0  0  0
  7 26  1  0  0  0
  7 29  1  0  0  0
  8  9  1  0  0  0
  8 22  1  0  0  0
  9 10  1  0  0  0
  9 27  2  0  0  0
 10 11  2  0  0  0
 10 15  1  0  0  0
 11 12  1  0  0  0
 11 99  1  0  0  0
 12 13  2  0  0  0
 12100  1  0  0  0
 13 14  1  0  0  0
 13 31  1  0  0  0
 14 15  2  0  0  0
 14101  1  0  0  0
 15102  1  0  0  0
 16 17  2  0  0  0
 16 21  1  0  0  0
 16 31  1  0  0  0
 17 18  1  0  0  0
 17103  1  0  0  0
 18 19  2  0  0  0
 18104  1  0  0  0
 19 20  1  0  0  0
 19 24  1  0  0  0
 20 21  2  0  0  0
 20105  1  0  0  0
 21 23  1  0  0  0
 22 28  1  0  0  0
 22 32  2  0  0  0
 26 27  1  0  0  0
 28106  1  0  0  0
 28107  1  0  0  0
 29108  1  0  0  0
 29109  1  0  0  0
 33 34  1  0  0  0
 33 66  1  0  0  0
 33 70  2  0  0  0
 34 36  1  0  0  0
 34 59  1  0  0  0
 34110  1  0  0  0
 35 44  2  0  0  0
 35 45  1  0  0  0
 35 68  1  0  0  0
 36 56  1  0  0  0
 36111  1  0  0  0
 37 39  1  0  0  0
 37 47  1  0  0  0
 37 66  1  0  0  0
 37112  1  0  0  0
 38 43  2  0  0  0
 38 46  1  0  0  0
 38 47  1  0  0  0
 39 64  1  0  0  0
 39 67  2  0  0  0
 40 52  1  0  0  0
 40 53  2  0  0  0
 40 58  1  0  0  0
 41113  1  0  0  0
 41114  1  0  0  0
 41115  1  0  0  0
 41 48  1  0  0  0
 42 43  1  0  0  0
 42 66  1  0  0  0
 42116  1  0  0  0
 42117  1  0  0  0
 43 44  1  0  0  0
 44118  1  0  0  0
 45 46  2  0  0  0
 45119  1  0  0  0
 46120  1  0  0  0
 47121  1  0  0  0
 47122  1  0  0  0
 48 56  1  0  0  0
 48 65  1  0  0  0
 48123  1  0  0  0
 49 50  1  0  0  0
 49 53  1  0  0  0
 49 64  1  0  0  0
 49124  1  0  0  0
 50 51  1  0  0  0
 50125  1  0  0  0
 50126  1  0  0  0
 51 52  1  0  0  0
 51127  1  0  0  0
 51128  1  0  0  0
 52129  1  0  0  0
 52130  1  0  0  0
 53 54  1  0  0  0
 54 55  2  0  0  0
 54131  1  0  0  0
 55 57  1  0  0  0
 55132  1  0  0  0
 56 69  2  0  0  0
 57 58  2  0  0  0
 57133  1  0  0  0
 58134  1  0  0  0
 59 60  1  0  0  0
 59 61  1  0  0  0
 59 62  1  0  0  0
 60135  1  0  0  0
 60136  1  0  0  0
 60137  1  0  0  0
 61138  1  0  0  0
 61139  1  0  0  0
 61140  1  0  0  0
 62141  1  0  0  0
 62142  1  0  0  0
 62143  1  0  0  0
 63 65  1  0  0  0
 63144  1  0  0  0
 63145  1  0  0  0
 63146  1  0  0  0
 64147  1  0  0  0
 65148  1  0  0  0
 68 84  1  0  0  0
 71 72  2  0  0  0
 71 75  1  0  0  0
 71149  1  0  0  0
 72 76  1  0  0  0
 72150  1  0  0  0
 73 74  1  0  0  0
 73 75  2  0  0  0
 73151  1  0  0  0
 74 76  2  0  0  0
 74 82  1  0  0  0
 75 86  1  0  0  0
 76 87  1  0  0  0
 77 79  1  0  0  0
 77 86  1  0  0  0
 77 88  2  0  0  0
 78 81  1  0  0  0
 78 86  1  0  0  0
 78 89  2  0  0  0
 79 80  1  0  0  0
 79152  1  0  0  0
 79153  1  0  0  0
 80 81  1  0  0  0
 80154  1  0  0  0
 80155  1  0  0  0
 81 84  1  0  0  0
 81156  1  0  0  0
 82157  1  0  0  0
 82158  1  0  0  0
 82159  1  0  0  0
 83 85  1  0  0  0
 83160  1  0  0  0
 83161  1  0  0  0
 83162  1  0  0  0
 84163  1  0  0  0
 84164  1  0  0  0
 85 87  1  0  0  0
 85165  1  0  0  0
 85166  1  0  0  0
M  ISO  4   1 100  68 101  84 101  87 100
M  END
> <chiral flag>
0

> <version>
0

> <s_m_source_file>
/data/baiqing/PycharmProjects/Reinvent-master-3.2/result/LINK_invent/BTK/process_docking_weight1_custom_product_contain_oxygen_bond_distance_aromatic_linkinvent_7_9_3/rearranged_h_0102.sdf

> <i_m_source_file_index>
10

> <r_mmod_Potential_Energy-OPLS-2005>
448.335083007812

> <r_mmod_Stretch_Energy-OPLS-2005>
108.767028808594

> <r_mmod_Bend_Energy-OPLS-2005>
177.322875976562

> <r_mmod_Torsional_Energy-OPLS-2005>
382.128967285156

> <r_mmod_Improper_Torsional_Energy-OPLS-2005>
29.1967334747314

> <r_mmod_Van_der_Waal_Energy-OPLS-2005>
165.38948059082

> <r_mmod_Electrostatic_Energy-OPLS-2005>
-275.847961425781

> <r_mmod_Solvation_Energy-OPLS-2005>
-212.390518188477

> <b_mmod_Minimization_Converged-OPLS-2005>
0

> <r_mmod_RMS_Derivative-OPLS-2005>
1.99295389652252

$$$$
10
                    3D
 Structure written by MMmdl.
163172  0  0  1  0            999 V2000
  -30.7066  -14.5094   20.5641 C   0  0  0  0  0  0
  -30.4279  -12.3248   19.4496 C   0  0  0  0  0  0
  -29.5040  -12.5040   18.2243 C   0  0  0  0  0  0
  -28.0264  -12.3536   18.6296 C   0  0  0  0  0  0
  -27.6620  -13.2034   19.8753 C   0  0  2  0  0  0
  -28.7035  -13.0245   21.0064 C   0  0  0  0  0  0
  -25.2617  -13.8142   20.5729 C   0  0  0  0  0  0
  -24.1857  -13.0436   20.9182 C   0  0  0  0  0  0
  -24.6381  -11.6894   20.8722 C   0  0  0  0  0  0
  -23.9042  -10.4291   21.0370 C   0  0  0  0  0  0
  -24.3600   -9.4224   21.9161 C   0  0  0  0  0  0
  -23.6296   -8.2249   22.0741 C   0  0  0  0  0  0
  -22.4284   -8.0269   21.3526 C   0  0  0  0  0  0
  -21.9897   -9.0241   20.4641 C   0  0  0  0  0  0
  -22.7201  -10.2125   20.3042 C   0  0  0  0  0  0
  -21.6870   -6.0736   22.5284 C   0  0  0  0  0  0
  -21.3999   -6.5635   23.8209 C   0  0  0  0  0  0
  -21.3659   -5.6794   24.9170 C   0  0  0  0  0  0
  -21.6039   -4.3059   24.7226 C   0  0  0  0  0  0
  -21.8828   -3.8155   23.4354 C   0  0  0  0  0  0
  -21.9185   -4.6963   22.3400 C   0  0  0  0  0  0
  -22.7869  -13.5219   21.1841 C   0  0  0  0  0  0
  -22.1648   -4.2139   21.0981 F   0  0  0  0  0  0
  -21.5656   -3.4549   25.7744 F   0  0  0  0  0  0
  -30.0406  -13.3235   20.4642 N   0  0  0  0  0  0
  -26.3030  -12.9301   20.3366 N   0  0  0  0  0  0
  -25.9307  -11.6462   20.5745 N   0  0  0  0  0  0
  -22.0523  -12.8232   22.0411 N   0  0  0  0  0  0
  -25.4420  -15.1863   20.4126 N   0  0  0  0  0  0
  -31.8156  -14.6869   20.0565 O   0  0  0  0  0  0
  -21.6653   -6.8871   21.4236 O   0  0  0  0  0  0
  -22.3538  -14.5502   20.6657 O   0  0  0  0  0  0
  -24.6132  -31.8645   23.2078 C   0  0  0  0  0  0
  -25.9042  -32.4807   23.8332 C   0  0  1  0  0  0
  -27.2339  -27.4179   20.1267 C   0  0  0  0  0  0
  -25.5881  -33.8600   24.2280 N   0  0  0  0  0  0
  -23.4023  -30.4913   21.5443 C   0  0  2  0  0  0
  -24.8544  -28.9481   20.1228 C   0  0  0  0  0  0
  -22.7375  -29.4646   22.4899 C   0  0  0  0  0  0
  -18.0273  -28.1402   22.8449 C   0  0  0  0  0  0
  -24.1493  -36.7334   23.2640 C   0  0  0  0  0  0
  -25.9300  -30.8358   21.3581 C   0  0  0  0  0  0
  -26.0119  -29.4593   20.7230 C   0  0  0  0  0  0
  -27.2079  -28.7023   20.7196 C   0  0  0  0  0  0
  -26.0675  -26.9265   19.5124 C   0  0  0  0  0  0
  -24.8744  -27.6804   19.5152 C   0  0  0  0  0  0
  -23.6227  -29.8284   20.1574 C   0  0  0  0  0  0
  -25.4114  -36.3089   24.0310 C   0  0  1  0  0  0
  -20.5827  -28.3647   23.1319 C   0  0  2  0  0  0
  -20.6765  -26.9343   22.5468 C   0  0  0  0  0  0
  -19.5830  -26.6331   21.5201 C   0  0  0  0  0  0
  -18.1968  -26.7923   22.1592 C   0  0  0  0  0  0
  -19.1513  -28.8820   23.2943 C   0  0  0  0  0  0
  -18.9419  -30.1402   23.9010 C   0  0  0  0  0  0
  -17.6445  -30.6589   24.0578 C   0  0  0  0  0  0
  -25.9026  -34.9481   23.5097 C   0  0  0  0  0  0
  -16.5329  -29.9111   23.6248 C   0  0  0  0  0  0
  -16.7258  -28.6532   23.0244 C   0  0  0  0  0  0
  -26.4489  -31.6575   25.0633 C   0  0  0  0  0  0
  -25.3759  -31.3674   26.1374 C   0  0  0  0  0  0
  -27.0297  -30.2996   24.5990 C   0  0  0  0  0  0
  -27.6022  -32.4276   25.7434 C   0  0  0  0  0  0
  -27.5566  -37.1820   24.8462 C   0  0  0  0  0  0
  -21.4085  -29.2981   22.3668 N   0  0  0  0  0  0
  -26.4294  -37.3776   23.9416 N   0  0  0  0  0  0
  -24.6665  -31.0771   22.0955 N   0  0  0  0  0  0
  -23.4212  -28.8220   23.2923 O   0  0  0  0  0  0
  -28.3956  -26.6722   20.0835 O   0  0  0  0  0  0
  -26.5626  -34.8959   22.4658 O   0  0  0  0  0  0
  -23.5305  -32.1378   23.7485 O   0  0  0  0  0  0
  -28.7524  -19.1130   19.1918 C   0  0  0  0  0  0
  -29.0909  -16.6946   19.2014 C   0  0  0  0  0  0
  -29.7348  -18.0180   21.1401 C   0  0  0  0  0  0
  -28.6176  -17.8588   18.5662 C   0  0  0  0  0  0
  -29.3167  -19.2163   20.4873 C   0  0  0  0  0  0
  -29.6533  -16.7529   20.4967 C   0  0  0  0  0  0
  -27.1236  -23.4315   20.6555 C   0  0  0  0  0  0
  -27.4520  -21.9256   20.5490 C   0  0  0  0  0  0
  -29.4629  -23.1167   20.9520 C   0  0  0  0  0  0
  -28.4500  -24.1693   20.4275 C   0  0  2  0  0  0
  -27.9354  -17.7481   17.2158 C   0  0  0  0  0  0
  -29.5166  -20.5876   21.1804 C   0  0  0  0  0  0
  -28.5269  -25.6034   21.0460 C   0  0  0  0  0  0
  -30.0645  -15.5433   21.1526 N   0  0  0  0  0  0
  -28.9331  -21.7984   20.5104 N   0  3  1  0  0  0
  -31.4737  -12.4229   19.1482 H   0  0  0  0  0  0
  -30.3332  -11.3170   19.8585 H   0  0  0  0  0  0
  -29.7496  -11.7722   17.4532 H   0  0  0  0  0  0
  -29.6726  -13.4893   17.7811 H   0  0  0  0  0  0
  -27.8517  -11.2958   18.8402 H   0  0  0  0  0  0
  -27.3731  -12.6090   17.7939 H   0  0  0  0  0  0
  -27.6897  -14.2458   19.5655 H   0  0  0  0  0  0
  -28.6800  -11.9983   21.3774 H   0  0  0  0  0  0
  -28.4551  -13.6531   21.8601 H   0  0  0  0  0  0
  -25.2722   -9.5737   22.4762 H   0  0  0  0  0  0
  -24.0028   -7.4635   22.7447 H   0  0  0  0  0  0
  -21.0844   -8.8743   19.8942 H   0  0  0  0  0  0
  -22.3626  -10.9679   19.6191 H   0  0  0  0  0  0
  -21.1991   -7.6142   23.9702 H   0  0  0  0  0  0
  -21.1463   -6.0530   25.9069 H   0  0  0  0  0  0
  -22.0610   -2.7620   23.2860 H   0  0  0  0  0  0
  -22.4138  -11.9874   22.4783 H   0  0  0  0  0  0
  -21.1125  -13.1259   22.2590 H   0  0  0  0  0  0
  -24.6956  -15.8623   20.5363 H   0  0  0  0  0  0
  -26.3165  -15.6110   20.1329 H   0  0  0  0  0  0
  -26.7110  -32.5545   23.1100 H   0  0  0  0  0  0
  -24.9949  -33.9705   25.0374 H   0  0  0  0  0  0
  -22.6905  -31.3063   21.4056 H   0  0  0  0  0  0
  -23.3703  -35.9699   23.3317 H   0  0  0  0  0  0
  -24.3592  -36.8942   22.2038 H   0  0  0  0  0  0
  -23.7302  -37.6556   23.6675 H   0  0  0  0  0  0
  -26.0394  -31.5989   20.5853 H   0  0  0  0  0  0
  -26.8160  -30.8946   21.9786 H   0  0  0  0  0  0
  -28.1039  -29.0989   21.1780 H   0  0  0  0  0  0
  -26.0943  -25.9601   19.0310 H   0  0  0  0  0  0
  -23.9883  -27.2819   19.0419 H   0  0  0  0  0  0
  -23.7564  -30.6143   19.4128 H   0  0  0  0  0  0
  -22.7418  -29.2676   19.8351 H   0  0  0  0  0  0
  -25.1309  -36.1910   25.0790 H   0  0  0  0  0  0
  -20.9890  -28.3287   24.1431 H   0  0  0  0  0  0
  -20.5681  -26.2118   23.3595 H   0  0  0  0  0  0
  -21.6707  -26.7460   22.1353 H   0  0  0  0  0  0
  -19.7076  -25.6274   21.1144 H   0  0  0  0  0  0
  -19.6785  -27.3260   20.6814 H   0  0  0  0  0  0
  -17.4229  -26.6717   21.4019 H   0  0  0  0  0  0
  -18.0287  -26.0021   22.8910 H   0  0  0  0  0  0
  -19.7883  -30.7208   24.2505 H   0  0  0  0  0  0
  -17.4996  -31.6290   24.5165 H   0  0  0  0  0  0
  -15.5308  -30.2994   23.7545 H   0  0  0  0  0  0
  -15.8689  -28.0834   22.6900 H   0  0  0  0  0  0
  -24.5952  -30.7015   25.7747 H   0  0  0  0  0  0
  -24.8955  -32.2810   26.4840 H   0  0  0  0  0  0
  -25.8099  -30.8842   27.0144 H   0  0  0  0  0  0
  -26.2816  -29.6740   24.1100 H   0  0  0  0  0  0
  -27.4137  -29.7229   25.4439 H   0  0  0  0  0  0
  -27.8645  -30.4281   23.9085 H   0  0  0  0  0  0
  -27.2600  -33.3558   26.2028 H   0  0  0  0  0  0
  -28.3837  -32.6842   25.0283 H   0  0  0  0  0  0
  -28.0685  -31.8381   26.5336 H   0  0  0  0  0  0
  -28.2575  -38.0125   24.7469 H   0  0  0  0  0  0
  -28.1040  -36.2630   24.6311 H   0  0  0  0  0  0
  -27.2276  -37.1531   25.8866 H   0  0  0  0  0  0
  -20.9217  -29.8581   21.6793 H   0  0  0  0  0  0
  -26.0140  -38.2831   24.1450 H   0  0  0  0  0  0
  -28.4102  -19.9886   18.6588 H   0  0  0  0  0  0
  -28.9927  -15.7508   18.6831 H   0  0  0  0  0  0
  -30.1550  -18.0797   22.1336 H   0  0  0  0  0  0
  -26.7392  -23.6463   21.6558 H   0  0  0  0  0  0
  -26.3506  -23.7423   19.9551 H   0  0  0  0  0  0
  -27.0217  -21.5027   19.6436 H   0  0  0  0  0  0
  -27.0233  -21.3778   21.3882 H   0  0  0  0  0  0
  -29.5123  -23.1424   22.0422 H   0  0  0  0  0  0
  -30.4656  -23.3008   20.5713 H   0  0  0  0  0  0
  -28.6183  -24.2559   19.3506 H   0  0  0  0  0  0
  -26.8610  -17.6355   17.3552 H   0  0  0  0  0  0
  -28.2911  -16.8819   16.6605 H   0  0  0  0  0  0
  -28.1051  -18.6364   16.6118 H   0  0  0  0  0  0
  -30.5972  -20.7307   21.2428 H   0  0  0  0  0  0
  -29.1646  -20.5261   22.2118 H   0  0  0  0  0  0
  -29.5133  -25.7242   21.4971 H   0  0  0  0  0  0
  -27.8199  -25.7155   21.8711 H   0  0  0  0  0  0
  -29.9241  -15.4702   22.1491 H   0  0  0  0  0  0
  -29.2067  -21.7343   19.5420 H   0  0  0  0  0  0
  1 25  1  0  0  0
  1 30  2  0  0  0
  1 84  1  0  0  0
  2  3  1  0  0  0
  2 25  1  0  0  0
  2 86  1  0  0  0
  2 87  1  0  0  0
  3  4  1  0  0  0
  3 88  1  0  0  0
  3 89  1  0  0  0
  4  5  1  0  0  0
  4 90  1  0  0  0
  4 91  1  0  0  0
  5  6  1  0  0  0
  5 26  1  0  0  0
  5 92  1  0  0  0
  6 25  1  0  0  0
  6 93  1  0  0  0
  6 94  1  0  0  0
  7  8  2  0  0  0
  7 26  1  0  0  0
  7 29  1  0  0  0
  8  9  1  0  0  0
  8 22  1  0  0  0
  9 10  1  0  0  0
  9 27  2  0  0  0
 10 11  2  0  0  0
 10 15  1  0  0  0
 11 12  1  0  0  0
 11 95  1  0  0  0
 12 13  2  0  0  0
 12 96  1  0  0  0
 13 14  1  0  0  0
 13 31  1  0  0  0
 14 15  2  0  0  0
 14 97  1  0  0  0
 15 98  1  0  0  0
 16 17  2  0  0  0
 16 21  1  0  0  0
 16 31  1  0  0  0
 17 18  1  0  0  0
 17 99  1  0  0  0
 18 19  2  0  0  0
 18100  1  0  0  0
 19 20  1  0  0  0
 19 24  1  0  0  0
 20 21  2  0  0  0
 20101  1  0  0  0
 21 23  1  0  0  0
 22 28  1  0  0  0
 22 32  2  0  0  0
 26 27  1  0  0  0
 28102  1  0  0  0
 28103  1  0  0  0
 29104  1  0  0  0
 29105  1  0  0  0
 33 34  1  0  0  0
 33 66  1  0  0  0
 33 70  2  0  0  0
 34 36  1  0  0  0
 34 59  1  0  0  0
 34106  1  0  0  0
 35 44  2  0  0  0
 35 45  1  0  0  0
 35 68  1  0  0  0
 36 56  1  0  0  0
 36107  1  0  0  0
 37 39  1  0  0  0
 37 47  1  0  0  0
 37 66  1  0  0  0
 37108  1  0  0  0
 38 43  2  0  0  0
 38 46  1  0  0  0
 38 47  1  0  0  0
 39 64  1  0  0  0
 39 67  2  0  0  0
 40 52  1  0  0  0
 40 53  2  0  0  0
 40 58  1  0  0  0
 41109  1  0  0  0
 41110  1  0  0  0
 41111  1  0  0  0
 41 48  1  0  0  0
 42 43  1  0  0  0
 42 66  1  0  0  0
 42112  1  0  0  0
 42113  1  0  0  0
 43 44  1  0  0  0
 44114  1  0  0  0
 45 46  2  0  0  0
 45115  1  0  0  0
 46116  1  0  0  0
 47117  1  0  0  0
 47118  1  0  0  0
 48 56  1  0  0  0
 48 65  1  0  0  0
 48119  1  0  0  0
 49 50  1  0  0  0
 49 53  1  0  0  0
 49 64  1  0  0  0
 49120  1  0  0  0
 50 51  1  0  0  0
 50121  1  0  0  0
 50122  1  0  0  0
 51 52  1  0  0  0
 51123  1  0  0  0
 51124  1  0  0  0
 52125  1  0  0  0
 52126  1  0  0  0
 53 54  1  0  0  0
 54 55  2  0  0  0
 54127  1  0  0  0
 55 57  1  0  0  0
 55128  1  0  0  0
 56 69  2  0  0  0
 57 58  2  0  0  0
 57129  1  0  0  0
 58130  1  0  0  0
 59 60  1  0  0  0
 59 61  1  0  0  0
 59 62  1  0  0  0
 60131  1  0  0  0
 60132  1  0  0  0
 60133  1  0  0  0
 61134  1  0  0  0
 61135  1  0  0  0
 61136  1  0  0  0
 62137  1  0  0  0
 62138  1  0  0  0
 62139  1  0  0  0
 63 65  1  0  0  0
 63140  1  0  0  0
 63141  1  0  0  0
 63142  1  0  0  0
 64143  1  0  0  0
 65144  1  0  0  0
 68 83  1  0  0  0
 71 74  2  0  0  0
 71 75  1  0  0  0
 71145  1  0  0  0
 72 74  1  0  0  0
 72 76  2  0  0  0
 72146  1  0  0  0
 73 75  2  0  0  0
 73 76  1  0  0  0
 73147  1  0  0  0
 74 81  1  0  0  0
 75 82  1  0  0  0
 76 84  1  0  0  0
 77 78  1  0  0  0
 77 80  1  0  0  0
 77148  1  0  0  0
 77149  1  0  0  0
 78 85  1  0  0  0
 78150  1  0  0  0
 78151  1  0  0  0
 79 80  1  0  0  0
 79 85  1  0  0  0
 79152  1  0  0  0
 79153  1  0  0  0
 80 83  1  0  0  0
 80154  1  0  0  0
 81155  1  0  0  0
 81156  1  0  0  0
 81157  1  0  0  0
 82158  1  0  0  0
 82159  1  0  0  0
 82 85  1  0  0  0
 83160  1  0  0  0
 83161  1  0  0  0
 84162  1  0  0  0
 85163  1  0  0  0
M  CHG  1  85   1
M  ISO  4   1 100  68 101  83 101  84 100
M  END
> <chiral flag>
0

> <version>
0

> <s_m_source_file>
/data/baiqing/PycharmProjects/Reinvent-master-3.2/result/LINK_invent/BTK/process_docking_weight1_custom_product_contain_oxygen_bond_distance_aromatic_linkinvent_7_9_3/rearranged_h_0102.sdf

> <i_m_source_file_index>
11

> <r_mmod_Potential_Energy-OPLS-2005>
-40.6799240112305

> <r_mmod_Stretch_Energy-OPLS-2005>
44.6549110412598

> <r_mmod_Bend_Energy-OPLS-2005>
128.13005065918

> <r_mmod_Torsional_Energy-OPLS-2005>
359.03955078125

> <r_mmod_Improper_Torsional_Energy-OPLS-2005>
2.99823451042175

> <r_mmod_Van_der_Waal_Energy-OPLS-2005>
133.05680847168

> <r_mmod_Electrostatic_Energy-OPLS-2005>
-273.76025390625

> <r_mmod_Solvation_Energy-OPLS-2005>
-450.263000488281

> <b_mmod_Minimization_Converged-OPLS-2005>
0

> <r_mmod_RMS_Derivative-OPLS-2005>
6.22980165481567

$$$$
11
                    3D
 Structure written by MMmdl.
161169  0  0  1  0            999 V2000
  -29.8198  -14.3517   19.3223 C   0  0  0  0  0  0
  -30.8388  -12.2693   19.4399 C   0  0  0  0  0  0
  -29.7704  -11.8070   18.4739 C   0  0  0  0  0  0
  -28.5166  -11.7107   19.3541 C   0  0  0  0  0  0
  -28.2260  -12.7985   20.7167 C   0  0  2  0  0  0
  -29.4870  -13.0002   21.3599 C   0  0  0  0  0  0
  -25.9543  -14.0108   21.0201 C   0  0  0  0  0  0
  -24.2301  -13.4519   20.5910 C   0  0  0  0  0  0
  -24.0776  -12.2173   20.2163 C   0  0  0  0  0  0
  -23.6665  -10.7419   20.7756 C   0  0  0  0  0  0
  -24.2393   -9.7365   21.6804 C   0  0  0  0  0  0
  -23.6307   -8.4696   21.9616 C   0  0  0  0  0  0
  -22.4207   -8.1156   21.3218 C   0  0  0  0  0  0
  -21.8872   -9.0418   20.4153 C   0  0  0  0  0  0
  -22.4921  -10.2882   20.1581 C   0  0  0  0  0  0
  -21.7460   -6.0992   22.5236 C   0  0  0  0  0  0
  -21.4525   -6.5866   23.8152 C   0  0  0  0  0  0
  -21.3860   -5.6959   24.9084 C   0  0  0  0  0  0
  -21.6042   -4.3175   24.7129 C   0  0  0  0  0  0
  -21.8803   -3.8274   23.4266 C   0  0  0  0  0  0
  -21.9410   -4.7145   22.3353 C   0  0  0  0  0  0
  -22.6560  -13.7975   20.9535 C   0  0  0  0  0  0
  -22.1752   -4.2249   21.0942 F   0  0  0  0  0  0
  -21.5516   -3.4648   25.7644 F   0  0  0  0  0  0
  -30.2683  -13.3858   20.1792 N   0  0  0  0  0  0
  -26.8747  -13.5225   21.2181 N   0  0  0  0  0  0
  -25.0457  -13.3502   20.6108 N   0  0  0  0  0  0
  -22.0331  -13.0404   21.8813 N   0  0  0  0  0  0
  -26.8130  -15.1570   21.4704 N   0  0  0  0  0  0
  -30.7529  -15.1693   19.1967 O   0  0  0  0  0  0
  -21.7490   -6.9110   21.4121 O   0  0  0  0  0  0
  -22.0716  -14.7341   20.4357 O   0  0  0  0  0  0
  -24.6702  -31.8218   23.1776 C   0  0  0  0  0  0
  -25.9390  -32.4564   23.8190 C   0  0  1  0  0  0
  -26.8212  -26.7094   20.2781 C   0  0  0  0  0  0
  -25.6060  -33.8403   24.2078 N   0  0  0  0  0  0
  -23.4691  -30.4617   21.5325 C   0  0  2  0  0  0
  -24.8611  -28.8637   20.0747 C   0  0  0  0  0  0
  -22.7651  -29.4454   22.4716 C   0  0  0  0  0  0
  -18.0306  -28.1414   22.8450 C   0  0  0  0  0  0
  -24.1493  -36.7204   23.2635 C   0  0  0  0  0  0
  -26.0454  -30.5515   21.4409 C   0  0  0  0  0  0
  -26.0402  -29.1371   20.7787 C   0  0  0  0  0  0
  -27.0468  -28.0649   20.8664 C   0  0  0  0  0  0
  -25.7407  -26.6855   19.4002 C   0  0  0  0  0  0
  -24.7591  -27.6831   19.3409 C   0  0  0  0  0  0
  -23.6952  -29.8385   20.1323 C   0  0  0  0  0  0
  -25.4140  -36.2973   24.0290 C   0  0  1  0  0  0
  -20.5936  -28.3758   23.1161 C   0  0  2  0  0  0
  -20.6796  -26.9436   22.5390 C   0  0  0  0  0  0
  -19.5769  -26.6367   21.5212 C   0  0  0  0  0  0
  -18.1945  -26.7943   22.1614 C   0  0  0  0  0  0
  -19.1571  -28.8906   23.2791 C   0  0  0  0  0  0
  -18.9486  -30.1494   23.8835 C   0  0  0  0  0  0
  -17.6481  -30.6601   24.0555 C   0  0  0  0  0  0
  -25.9125  -34.9355   23.5001 C   0  0  0  0  0  0
  -16.5366  -29.9087   23.6354 C   0  0  0  0  0  0
  -16.7288  -28.6512   23.0360 C   0  0  0  0  0  0
  -26.4576  -31.6563   25.0778 C   0  0  0  0  0  0
  -25.3645  -31.3887   26.1402 C   0  0  0  0  0  0
  -27.0496  -30.2905   24.6667 C   0  0  0  0  0  0
  -27.6070  -32.4390   25.7565 C   0  0  0  0  0  0
  -27.5589  -37.1753   24.8448 C   0  0  0  0  0  0
  -21.4320  -29.3046   22.3496 N   0  0  0  0  0  0
  -26.4272  -37.3730   23.9429 N   0  0  0  0  0  0
  -24.7537  -30.9801   22.0989 N   0  0  0  0  0  0
  -23.4216  -28.7956   23.2896 O   0  0  0  0  0  0
  -27.3956  -25.3391   20.4635 O   0  0  0  0  0  0
  -26.5708  -34.8896   22.4585 O   0  0  0  0  0  0
  -23.5770  -32.1297   23.6821 O   0  0  0  0  0  0
  -25.3891  -12.2767   22.5131 C   0  0  0  0  0  0
  -26.2535  -11.5312   20.4985 C   0  0  0  0  0  0
  -24.6110  -14.3561   22.7400 C   0  0  0  0  0  0
  -25.4349  -15.1504   19.1688 C   0  0  0  0  0  0
  -26.4683  -13.2977   18.8900 C   0  0  0  0  0  0
  -24.5978  -15.8086   21.0152 C   0  0  0  0  0  0
  -25.4835  -18.6922   20.6739 C   0  0  0  0  0  0
  -27.1723  -15.2602   16.3056 C   0  0  0  0  0  0
  -25.4940  -20.4886   21.0086 C   0  0  0  0  0  0
  -28.2364  -14.3592   16.9608 C   0  0  0  0  0  0
  -26.5320  -22.0054   20.5397 C   0  0  0  0  0  0
  -26.4708  -23.8911   20.7026 C   0  0  0  0  0  0
  -28.1074  -14.1845   18.4985 C   0  0  2  0  0  0
  -24.7197  -17.4803   21.2114 N   0  0  0  0  0  0
  -26.2933  -18.4082   19.7903 O   0  0  0  0  0  0
  -31.7517  -12.5623   18.9143 H   0  0  0  0  0  0
  -31.1264  -11.4582   20.1119 H   0  0  0  0  0  0
  -30.0249  -10.8149   18.0976 H   0  0  0  0  0  0
  -29.7110  -12.4034   17.5715 H   0  0  0  0  0  0
  -28.6917  -10.7618   19.8642 H   0  0  0  0  0  0
  -27.7495  -11.4063   18.6423 H   0  0  0  0  0  0
  -28.2336  -13.7969   20.6602 H   0  0  0  0  0  0
  -29.8449  -12.0768   21.8189 H   0  0  0  0  0  0
  -29.4998  -13.7694   22.1389 H   0  0  0  0  0  0
  -25.1879   -9.8835   22.1640 H   0  0  0  0  0  0
  -24.1140   -7.7771   22.6361 H   0  0  0  0  0  0
  -20.9780   -8.7865   19.8855 H   0  0  0  0  0  0
  -22.0017  -10.9366   19.4436 H   0  0  0  0  0  0
  -21.2753   -7.6414   23.9672 H   0  0  0  0  0  0
  -21.1649   -6.0706   25.8974 H   0  0  0  0  0  0
  -22.0362   -2.7705   23.2736 H   0  0  0  0  0  0
  -22.5419  -12.3120   22.3604 H   0  0  0  0  0  0
  -21.0807  -13.2379   22.1477 H   0  0  0  0  0  0
  -26.2713  -16.0134   21.4683 H   0  0  0  0  0  0
  -27.6861  -15.2940   20.9902 H   0  0  0  0  0  0
  -26.7432  -32.4968   23.0849 H   0  0  0  0  0  0
  -25.0187  -33.9489   25.0211 H   0  0  0  0  0  0
  -22.7845  -31.3015   21.3964 H   0  0  0  0  0  0
  -23.3810  -35.9473   23.3199 H   0  0  0  0  0  0
  -24.3576  -36.8955   22.2066 H   0  0  0  0  0  0
  -23.7163  -37.6333   23.6747 H   0  0  0  0  0  0
  -26.2708  -31.2815   20.6617 H   0  0  0  0  0  0
  -26.8986  -30.5770   22.1063 H   0  0  0  0  0  0
  -27.9023  -28.2136   21.5095 H   0  0  0  0  0  0
  -25.5443  -25.7892   18.8300 H   0  0  0  0  0  0
  -23.8814  -27.5076   18.7342 H   0  0  0  0  0  0
  -23.8963  -30.6323   19.4113 H   0  0  0  0  0  0
  -22.7828  -29.3483   19.7859 H   0  0  0  0  0  0
  -25.1316  -36.1776   25.0773 H   0  0  0  0  0  0
  -21.0018  -28.3386   24.1288 H   0  0  0  0  0  0
  -20.5725  -26.2364   23.3628 H   0  0  0  0  0  0
  -21.6648  -26.7439   22.1165 H   0  0  0  0  0  0
  -19.6935  -25.6261   21.1281 H   0  0  0  0  0  0
  -19.6723  -27.3141   20.6715 H   0  0  0  0  0  0
  -17.4216  -26.6667   21.4019 H   0  0  0  0  0  0
  -18.0345  -26.0110   22.9036 H   0  0  0  0  0  0
  -19.7960  -30.7322   24.2186 H   0  0  0  0  0  0
  -17.5032  -31.6280   24.5161 H   0  0  0  0  0  0
  -15.5365  -30.2970   23.7733 H   0  0  0  0  0  0
  -15.8679  -28.0823   22.7113 H   0  0  0  0  0  0
  -24.5834  -30.7230   25.7710 H   0  0  0  0  0  0
  -24.8817  -32.3112   26.4640 H   0  0  0  0  0  0
  -25.7809  -30.9170   27.0311 H   0  0  0  0  0  0
  -26.3187  -29.6513   24.1713 H   0  0  0  0  0  0
  -27.3963  -29.7386   25.5414 H   0  0  0  0  0  0
  -27.9165  -30.4048   24.0160 H   0  0  0  0  0  0
  -27.2661  -33.3760   26.1994 H   0  0  0  0  0  0
  -28.3954  -32.6846   25.0433 H   0  0  0  0  0  0
  -28.0663  -31.8618   26.5605 H   0  0  0  0  0  0
  -28.2517  -38.0141   24.7626 H   0  0  0  0  0  0
  -28.1183  -36.2682   24.6112 H   0  0  0  0  0  0
  -27.2332  -37.1185   25.8850 H   0  0  0  0  0  0
  -20.9553  -29.8815   21.6707 H   0  0  0  0  0  0
  -26.0125  -38.2780   24.1496 H   0  0  0  0  0  0
  -25.3770  -11.6309   23.3794 H   0  0  0  0  0  0
  -26.6535  -10.5300   20.4170 H   0  0  0  0  0  0
  -24.3054  -14.7004   23.7154 H   0  0  0  0  0  0
  -25.6633  -15.9498   18.4835 H   0  0  0  0  0  0
  -27.3424  -15.3308   15.2307 H   0  0  0  0  0  0
  -27.2054  -16.2753   16.7027 H   0  0  0  0  0  0
  -26.1621  -14.8715   16.4467 H   0  0  0  0  0  0
  -25.4446  -20.5261   22.0970 H   0  0  0  0  0  0
  -24.4872  -20.7716   20.6988 H   0  0  0  0  0  0
  -29.2232  -14.7614   16.7228 H   0  0  0  0  0  0
  -28.1775  -13.3845   16.4755 H   0  0  0  0  0  0
  -26.6999  -21.8621   19.4723 H   0  0  0  0  0  0
  -27.5004  -21.7642   20.9772 H   0  0  0  0  0  0
  -26.2284  -24.0066   21.7591 H   0  0  0  0  0  0
  -25.5212  -24.1199   20.2234 H   0  0  0  0  0  0
  -27.8297  -15.1896   18.8088 H   0  0  0  0  0  0
  -24.1307  -17.7897   21.9744 H   0  0  0  0  0  0
  1 25  1  0  0  0
  1 30  2  0  0  0
  1 83  1  0  0  0
  2  3  1  0  0  0
  2 25  1  0  0  0
  2 86  1  0  0  0
  2 87  1  0  0  0
  3  4  1  0  0  0
  3 88  1  0  0  0
  3 89  1  0  0  0
  4  5  1  0  0  0
  4 90  1  0  0  0
  4 91  1  0  0  0
  5  6  1  0  0  0
  5 26  1  0  0  0
  5 92  1  0  0  0
  6 25  1  0  0  0
  6 93  1  0  0  0
  6 94  1  0  0  0
  7  8  2  0  0  0
  7 26  1  0  0  0
  7 29  1  0  0  0
  8  9  1  0  0  0
  8 22  1  0  0  0
  9 10  1  0  0  0
  9 27  2  0  0  0
 10 11  2  0  0  0
 10 15  1  0  0  0
 11 12  1  0  0  0
 11 95  1  0  0  0
 12 13  2  0  0  0
 12 96  1  0  0  0
 13 14  1  0  0  0
 13 31  1  0  0  0
 14 15  2  0  0  0
 14 97  1  0  0  0
 15 98  1  0  0  0
 16 17  2  0  0  0
 16 21  1  0  0  0
 16 31  1  0  0  0
 17 18  1  0  0  0
 17 99  1  0  0  0
 18 19  2  0  0  0
 18100  1  0  0  0
 19 20  1  0  0  0
 19 24  1  0  0  0
 20 21  2  0  0  0
 20101  1  0  0  0
 21 23  1  0  0  0
 22 28  1  0  0  0
 22 32  2  0  0  0
 26 27  1  0  0  0
 28102  1  0  0  0
 28103  1  0  0  0
 29104  1  0  0  0
 29105  1  0  0  0
 33 34  1  0  0  0
 33 66  1  0  0  0
 33 70  2  0  0  0
 34 36  1  0  0  0
 34 59  1  0  0  0
 34106  1  0  0  0
 35 44  2  0  0  0
 35 45  1  0  0  0
 35 68  1  0  0  0
 36 56  1  0  0  0
 36107  1  0  0  0
 37 39  1  0  0  0
 37 47  1  0  0  0
 37 66  1  0  0  0
 37108  1  0  0  0
 38 43  2  0  0  0
 38 46  1  0  0  0
 38 47  1  0  0  0
 39 64  1  0  0  0
 39 67  2  0  0  0
 40 52  1  0  0  0
 40 53  2  0  0  0
 40 58  1  0  0  0
 41109  1  0  0  0
 41110  1  0  0  0
 41111  1  0  0  0
 41 48  1  0  0  0
 42 43  1  0  0  0
 42 66  1  0  0  0
 42112  1  0  0  0
 42113  1  0  0  0
 43 44  1  0  0  0
 44114  1  0  0  0
 45 46  2  0  0  0
 45115  1  0  0  0
 46116  1  0  0  0
 47117  1  0  0  0
 47118  1  0  0  0
 48 56  1  0  0  0
 48 65  1  0  0  0
 48119  1  0  0  0
 49 50  1  0  0  0
 49 53  1  0  0  0
 49 64  1  0  0  0
 49120  1  0  0  0
 50 51  1  0  0  0
 50121  1  0  0  0
 50122  1  0  0  0
 51 52  1  0  0  0
 51123  1  0  0  0
 51124  1  0  0  0
 52125  1  0  0  0
 52126  1  0  0  0
 53 54  1  0  0  0
 54 55  2  0  0  0
 54127  1  0  0  0
 55 57  1  0  0  0
 55128  1  0  0  0
 56 69  2  0  0  0
 57 58  2  0  0  0
 57129  1  0  0  0
 58130  1  0  0  0
 59 60  1  0  0  0
 59 61  1  0  0  0
 59 62  1  0  0  0
 60131  1  0  0  0
 60132  1  0  0  0
 60133  1  0  0  0
 61134  1  0  0  0
 61135  1  0  0  0
 61136  1  0  0  0
 62137  1  0  0  0
 62138  1  0  0  0
 62139  1  0  0  0
 63 65  1  0  0  0
 63140  1  0  0  0
 63141  1  0  0  0
 63142  1  0  0  0
 64143  1  0  0  0
 65144  1  0  0  0
 68 82  1  0  0  0
 71 72  2  0  0  0
 71 73  1  0  0  0
 71145  1  0  0  0
 72 75  1  0  0  0
 72146  1  0  0  0
 73 76  2  0  0  0
 73147  1  0  0  0
 74 75  2  0  0  0
 74 76  1  0  0  0
 74148  1  0  0  0
 75 83  1  0  0  0
 76 84  1  0  0  0
 77 79  1  0  0  0
 77 84  1  0  0  0
 77 85  2  0  0  0
 78 80  1  0  0  0
 78149  1  0  0  0
 78150  1  0  0  0
 78151  1  0  0  0
 79 81  1  0  0  0
 79152  1  0  0  0
 79153  1  0  0  0
 80154  1  0  0  0
 80155  1  0  0  0
 80 83  1  0  0  0
 81 82  1  0  0  0
 81156  1  0  0  0
 81157  1  0  0  0
 82158  1  0  0  0
 82159  1  0  0  0
 83160  1  0  0  0
 84161  1  0  0  0
M  ISO  4   1 100  68 101  82 101  83 100
M  END
> <chiral flag>
0

> <version>
0

> <s_m_source_file>
/data/baiqing/PycharmProjects/Reinvent-master-3.2/result/LINK_invent/BTK/process_docking_weight1_custom_product_contain_oxygen_bond_distance_aromatic_linkinvent_7_9_3/rearranged_h_0102.sdf

> <i_m_source_file_index>
12

> <r_mmod_Potential_Energy-OPLS-2005>
21489.86328125

> <r_mmod_Stretch_Energy-OPLS-2005>
11463.8115234375

> <r_mmod_Bend_Energy-OPLS-2005>
2562.33422851562

> <r_mmod_Torsional_Energy-OPLS-2005>
613.542663574219

> <r_mmod_Improper_Torsional_Energy-OPLS-2005>
87.2473526000977

> <r_mmod_Van_der_Waal_Energy-OPLS-2005>
4737.017578125

> <r_mmod_Electrostatic_Energy-OPLS-2005>
-297.507690429688

> <r_mmod_Solvation_Energy-OPLS-2005>
-218.082641601562

> <b_mmod_Minimization_Converged-OPLS-2005>
0

> <r_mmod_RMS_Derivative-OPLS-2005>
7.40395784378052

$$$$
12
                    3D
 Structure written by MMmdl.
160168  0  0  1  0            999 V2000
  -30.6353  -14.5690   20.5007 C   0  0  0  0  0  0
  -30.4343  -12.3455   19.4374 C   0  0  0  0  0  0
  -29.5054  -12.5081   18.2137 C   0  0  0  0  0  0
  -28.0228  -12.3642   18.6182 C   0  0  0  0  0  0
  -27.6583  -13.2042   19.8712 C   0  0  2  0  0  0
  -28.7034  -12.9980   20.9902 C   0  0  0  0  0  0
  -25.2576  -13.8139   20.5659 C   0  0  0  0  0  0
  -24.1826  -13.0424   20.9190 C   0  0  0  0  0  0
  -24.6372  -11.6890   20.8739 C   0  0  0  0  0  0
  -23.9039  -10.4305   21.0408 C   0  0  0  0  0  0
  -24.3614   -9.4232   21.9186 C   0  0  0  0  0  0
  -23.6302   -8.2259   22.0753 C   0  0  0  0  0  0
  -22.4283   -8.0292   21.3538 C   0  0  0  0  0  0
  -21.9905   -9.0262   20.4638 C   0  0  0  0  0  0
  -22.7218  -10.2148   20.3050 C   0  0  0  0  0  0
  -21.6846   -6.0737   22.5276 C   0  0  0  0  0  0
  -21.4012   -6.5638   23.8214 C   0  0  0  0  0  0
  -21.3665   -5.6792   24.9174 C   0  0  0  0  0  0
  -21.6054   -4.3051   24.7224 C   0  0  0  0  0  0
  -21.8819   -3.8141   23.4340 C   0  0  0  0  0  0
  -21.9191   -4.6964   22.3397 C   0  0  0  0  0  0
  -22.7866  -13.5237   21.1880 C   0  0  0  0  0  0
  -22.1647   -4.2143   21.0973 F   0  0  0  0  0  0
  -21.5650   -3.4535   25.7736 F   0  0  0  0  0  0
  -30.0233  -13.3458   20.4381 N   0  0  0  0  0  0
  -26.3005  -12.9297   20.3343 N   0  0  0  0  0  0
  -25.9298  -11.6457   20.5767 N   0  0  0  0  0  0
  -22.0487  -12.8226   22.0420 N   0  0  0  0  0  0
  -25.4301  -15.1848   20.4048 N   0  0  0  0  0  0
  -31.8039  -14.7133   20.1262 O   0  0  0  0  0  0
  -21.6645   -6.8879   21.4236 O   0  0  0  0  0  0
  -22.3564  -14.5560   20.6752 O   0  0  0  0  0  0
  -24.6183  -31.8651   23.2072 C   0  0  0  0  0  0
  -25.9066  -32.4804   23.8381 C   0  0  1  0  0  0
  -27.2290  -27.3883   20.0860 C   0  0  0  0  0  0
  -25.5905  -33.8602   24.2310 N   0  0  0  0  0  0
  -23.4076  -30.4898   21.5487 C   0  0  2  0  0  0
  -24.8511  -28.9485   20.1115 C   0  0  0  0  0  0
  -22.7422  -29.4660   22.4973 C   0  0  0  0  0  0
  -18.0280  -28.1368   22.8495 C   0  0  0  0  0  0
  -24.1490  -36.7307   23.2642 C   0  0  0  0  0  0
  -25.9413  -30.8122   21.3699 C   0  0  0  0  0  0
  -26.0135  -29.4430   20.7142 C   0  0  0  0  0  0
  -27.2004  -28.6662   20.7055 C   0  0  0  0  0  0
  -26.0401  -26.9186   19.4814 C   0  0  0  0  0  0
  -24.8603  -27.6862   19.4955 C   0  0  0  0  0  0
  -23.6162  -29.8224   20.1627 C   0  0  0  0  0  0
  -25.4114  -36.3105   24.0339 C   0  0  1  0  0  0
  -20.5869  -28.3671   23.1298 C   0  0  2  0  0  0
  -20.6773  -26.9399   22.5414 C   0  0  0  0  0  0
  -19.5752  -26.6374   21.5214 C   0  0  0  0  0  0
  -18.1926  -26.7919   22.1627 C   0  0  0  0  0  0
  -19.1529  -28.8835   23.2897 C   0  0  0  0  0  0
  -18.9461  -30.1441   23.8914 C   0  0  0  0  0  0
  -17.6457  -30.6579   24.0561 C   0  0  0  0  0  0
  -25.9042  -34.9469   23.5121 C   0  0  0  0  0  0
  -16.5347  -29.9080   23.6320 C   0  0  0  0  0  0
  -16.7264  -28.6490   23.0353 C   0  0  0  0  0  0
  -26.4474  -31.6599   25.0729 C   0  0  0  0  0  0
  -25.3725  -31.3714   26.1468 C   0  0  0  0  0  0
  -27.0311  -30.3033   24.6141 C   0  0  0  0  0  0
  -27.6047  -32.4321   25.7488 C   0  0  0  0  0  0
  -27.5578  -37.1812   24.8467 C   0  0  0  0  0  0
  -21.4146  -29.3043   22.3709 N   0  0  0  0  0  0
  -26.4299  -37.3788   23.9402 N   0  0  0  0  0  0
  -24.6743  -31.0713   22.0994 N   0  0  0  0  0  0
  -23.4176  -28.8210   23.3037 O   0  0  0  0  0  0
  -28.3948  -26.6301   20.1129 O   0  0  0  0  0  0
  -26.5609  -34.8923   22.4686 O   0  0  0  0  0  0
  -23.5367  -32.1437   23.7439 O   0  0  0  0  0  0
  -29.6070  -19.4772   20.3479 C   0  0  0  0  0  0
  -27.4186  -19.4517   22.0590 C   0  0  0  0  0  0
  -29.3076  -18.2585   21.0316 C   0  0  0  0  0  0
  -28.2080  -18.2878   21.9374 C   0  0  0  0  0  0
  -28.8532  -20.6785   20.5130 C   0  0  0  0  0  0
  -27.7066  -20.6301   21.3403 C   0  0  0  0  0  0
  -30.1264  -17.0244   20.7330 C   0  0  0  0  0  0
  -29.7568  -15.7140   20.8308 C   0  0  0  0  0  0
  -27.8388  -17.1199   22.8393 C   0  0  0  0  0  0
  -25.5255  -21.4772   21.0677 C   0  0  0  0  0  0
  -28.0850  -24.0835   19.6180 C   0  0  0  0  0  0
  -28.5707  -25.5169   19.1985 C   0  0  0  0  0  0
  -29.1013  -23.1471   20.3548 C   0  0  0  0  0  0
  -26.8775  -21.7203   21.4363 O   0  0  0  0  0  0
  -29.2140  -21.8136   19.7881 O   0  0  0  0  0  0
  -31.4771  -12.4549   19.1360 H   0  0  0  0  0  0
  -30.3500  -11.3397   19.8517 H   0  0  0  0  0  0
  -29.7607  -11.7738   17.4484 H   0  0  0  0  0  0
  -29.6666  -13.4862   17.7582 H   0  0  0  0  0  0
  -27.8312  -11.3090   18.8101 H   0  0  0  0  0  0
  -27.3758  -12.6377   17.7842 H   0  0  0  0  0  0
  -27.6891  -14.2476   19.5597 H   0  0  0  0  0  0
  -28.7039  -11.9581   21.3197 H   0  0  0  0  0  0
  -28.4634  -13.5748   21.8847 H   0  0  0  0  0  0
  -25.2760   -9.5708   22.4758 H   0  0  0  0  0  0
  -24.0016   -7.4641   22.7453 H   0  0  0  0  0  0
  -21.0843   -8.8757   19.8943 H   0  0  0  0  0  0
  -22.3664  -10.9686   19.6160 H   0  0  0  0  0  0
  -21.1994   -7.6142   23.9711 H   0  0  0  0  0  0
  -21.1489   -6.0516   25.9077 H   0  0  0  0  0  0
  -22.0596   -2.7602   23.2832 H   0  0  0  0  0  0
  -22.4099  -11.9886   22.4812 H   0  0  0  0  0  0
  -21.1113  -13.1262   22.2631 H   0  0  0  0  0  0
  -24.6608  -15.8383   20.5054 H   0  0  0  0  0  0
  -26.2784  -15.6210   20.0652 H   0  0  0  0  0  0
  -26.7130  -32.5489   23.1135 H   0  0  0  0  0  0
  -25.0054  -33.9759   25.0455 H   0  0  0  0  0  0
  -22.6991  -31.3091   21.4087 H   0  0  0  0  0  0
  -23.3746  -35.9645   23.3327 H   0  0  0  0  0  0
  -24.3575  -36.8895   22.2049 H   0  0  0  0  0  0
  -23.7253  -37.6523   23.6638 H   0  0  0  0  0  0
  -26.0653  -31.5808   20.6054 H   0  0  0  0  0  0
  -26.8247  -30.8597   21.9953 H   0  0  0  0  0  0
  -28.0950  -29.0430   21.1820 H   0  0  0  0  0  0
  -25.9975  -25.9501   19.0052 H   0  0  0  0  0  0
  -23.9651  -27.2972   19.0298 H   0  0  0  0  0  0
  -23.7241  -30.5985   19.4030 H   0  0  0  0  0  0
  -22.7378  -29.2446   19.8679 H   0  0  0  0  0  0
  -25.1295  -36.1968   25.0832 H   0  0  0  0  0  0
  -20.9969  -28.3241   24.1417 H   0  0  0  0  0  0
  -20.5664  -26.2286   23.3614 H   0  0  0  0  0  0
  -21.6642  -26.7437   22.1209 H   0  0  0  0  0  0
  -19.6911  -25.6287   21.1242 H   0  0  0  0  0  0
  -19.6680  -27.3187   20.6745 H   0  0  0  0  0  0
  -17.4197  -26.6665   21.4023 H   0  0  0  0  0  0
  -18.0326  -26.0049   22.9015 H   0  0  0  0  0  0
  -19.7933  -30.7244   24.2291 H   0  0  0  0  0  0
  -17.5017  -31.6260   24.5158 H   0  0  0  0  0  0
  -15.5353  -30.2990   23.7629 H   0  0  0  0  0  0
  -15.8669  -28.0809   22.7075 H   0  0  0  0  0  0
  -24.5897  -30.7068   25.7796 H   0  0  0  0  0  0
  -24.8924  -32.2875   26.4916 H   0  0  0  0  0  0
  -25.8067  -30.8875   27.0227 H   0  0  0  0  0  0
  -26.2873  -29.6792   24.1175 H   0  0  0  0  0  0
  -27.4042  -29.7270   25.4619 H   0  0  0  0  0  0
  -27.8725  -30.4340   23.9334 H   0  0  0  0  0  0
  -27.2666  -33.3612   26.2087 H   0  0  0  0  0  0
  -28.3839  -32.6894   25.0302 H   0  0  0  0  0  0
  -28.0736  -31.8436   26.5382 H   0  0  0  0  0  0
  -28.2618  -38.0089   24.7486 H   0  0  0  0  0  0
  -28.1052  -36.2617   24.6331 H   0  0  0  0  0  0
  -27.2287  -37.1511   25.8870 H   0  0  0  0  0  0
  -20.9311  -29.8771   21.6934 H   0  0  0  0  0  0
  -26.0190  -38.2871   24.1373 H   0  0  0  0  0  0
  -30.4431  -19.4961   19.6651 H   0  0  0  0  0  0
  -26.5710  -19.4393   22.7315 H   0  0  0  0  0  0
  -31.1389  -17.2293   20.4069 H   0  0  0  0  0  0
  -28.7495  -15.5186   21.1339 H   0  0  0  0  0  0
  -28.7290  -16.5947   23.1880 H   0  0  0  0  0  0
  -27.1804  -16.4221   22.3213 H   0  0  0  0  0  0
  -27.3078  -17.4599   23.7298 H   0  0  0  0  0  0
  -24.9534  -22.4018   21.1492 H   0  0  0  0  0  0
  -25.0433  -20.7315   21.7005 H   0  0  0  0  0  0
  -25.4612  -21.1455   20.0302 H   0  0  0  0  0  0
  -27.8224  -23.5717   18.6917 H   0  0  0  0  0  0
  -27.1491  -24.1426   20.1729 H   0  0  0  0  0  0
  -28.1149  -25.7770   18.2415 H   0  0  0  0  0  0
  -29.6342  -25.4678   18.9608 H   0  0  0  0  0  0
  -28.9025  -23.1322   21.4266 H   0  0  0  0  0  0
  -30.0999  -23.5766   20.2722 H   0  0  0  0  0  0
  1 25  1  0  0  0
  1 30  2  0  0  0
  1 78  1  0  0  0
  2  3  1  0  0  0
  2 25  1  0  0  0
  2 86  1  0  0  0
  2 87  1  0  0  0
  3  4  1  0  0  0
  3 88  1  0  0  0
  3 89  1  0  0  0
  4  5  1  0  0  0
  4 90  1  0  0  0
  4 91  1  0  0  0
  5  6  1  0  0  0
  5 26  1  0  0  0
  5 92  1  0  0  0
  6 25  1  0  0  0
  6 93  1  0  0  0
  6 94  1  0  0  0
  7  8  2  0  0  0
  7 26  1  0  0  0
  7 29  1  0  0  0
  8  9  1  0  0  0
  8 22  1  0  0  0
  9 10  1  0  0  0
  9 27  2  0  0  0
 10 11  2  0  0  0
 10 15  1  0  0  0
 11 12  1  0  0  0
 11 95  1  0  0  0
 12 13  2  0  0  0
 12 96  1  0  0  0
 13 14  1  0  0  0
 13 31  1  0  0  0
 14 15  2  0  0  0
 14 97  1  0  0  0
 15 98  1  0  0  0
 16 17  2  0  0  0
 16 21  1  0  0  0
 16 31  1  0  0  0
 17 18  1  0  0  0
 17 99  1  0  0  0
 18 19  2  0  0  0
 18100  1  0  0  0
 19 20  1  0  0  0
 19 24  1  0  0  0
 20 21  2  0  0  0
 20101  1  0  0  0
 21 23  1  0  0  0
 22 28  1  0  0  0
 22 32  2  0  0  0
 26 27  1  0  0  0
 28102  1  0  0  0
 28103  1  0  0  0
 29104  1  0  0  0
 29105  1  0  0  0
 33 34  1  0  0  0
 33 66  1  0  0  0
 33 70  2  0  0  0
 34 36  1  0  0  0
 34 59  1  0  0  0
 34106  1  0  0  0
 35 44  2  0  0  0
 35 45  1  0  0  0
 35 68  1  0  0  0
 36 56  1  0  0  0
 36107  1  0  0  0
 37 39  1  0  0  0
 37 47  1  0  0  0
 37 66  1  0  0  0
 37108  1  0  0  0
 38 43  2  0  0  0
 38 46  1  0  0  0
 38 47  1  0  0  0
 39 64  1  0  0  0
 39 67  2  0  0  0
 40 52  1  0  0  0
 40 53  2  0  0  0
 40 58  1  0  0  0
 41109  1  0  0  0
 41110  1  0  0  0
 41111  1  0  0  0
 41 48  1  0  0  0
 42 43  1  0  0  0
 42 66  1  0  0  0
 42112  1  0  0  0
 42113  1  0  0  0
 43 44  1  0  0  0
 44114  1  0  0  0
 45 46  2  0  0  0
 45115  1  0  0  0
 46116  1  0  0  0
 47117  1  0  0  0
 47118  1  0  0  0
 48 56  1  0  0  0
 48 65  1  0  0  0
 48119  1  0  0  0
 49 50  1  0  0  0
 49 53  1  0  0  0
 49 64  1  0  0  0
 49120  1  0  0  0
 50 51  1  0  0  0
 50121  1  0  0  0
 50122  1  0  0  0
 51 52  1  0  0  0
 51123  1  0  0  0
 51124  1  0  0  0
 52125  1  0  0  0
 52126  1  0  0  0
 53 54  1  0  0  0
 54 55  2  0  0  0
 54127  1  0  0  0
 55 57  1  0  0  0
 55128  1  0  0  0
 56 69  2  0  0  0
 57 58  2  0  0  0
 57129  1  0  0  0
 58130  1  0  0  0
 59 60  1  0  0  0
 59 61  1  0  0  0
 59 62  1  0  0  0
 60131  1  0  0  0
 60132  1  0  0  0
 60133  1  0  0  0
 61134  1  0  0  0
 61135  1  0  0  0
 61136  1  0  0  0
 62137  1  0  0  0
 62138  1  0  0  0
 62139  1  0  0  0
 63 65  1  0  0  0
 63140  1  0  0  0
 63141  1  0  0  0
 63142  1  0  0  0
 64143  1  0  0  0
 65144  1  0  0  0
 68 82  1  0  0  0
 71 73  2  0  0  0
 71 75  1  0  0  0
 71145  1  0  0  0
 72 74  2  0  0  0
 72 76  1  0  0  0
 72146  1  0  0  0
 73 74  1  0  0  0
 73 77  1  0  0  0
 74 79  1  0  0  0
 75 76  2  0  0  0
 75 85  1  0  0  0
 76 84  1  0  0  0
 77 78  2  0  0  0
 77147  1  0  0  0
 78148  1  0  0  0
 79149  1  0  0  0
 79150  1  0  0  0
 79151  1  0  0  0
 80 84  1  0  0  0
 80152  1  0  0  0
 80153  1  0  0  0
 80154  1  0  0  0
 81 82  1  0  0  0
 81 83  1  0  0  0
 81155  1  0  0  0
 81156  1  0  0  0
 82157  1  0  0  0
 82158  1  0  0  0
 83 85  1  0  0  0
 83159  1  0  0  0
 83160  1  0  0  0
M  ISO  4   1 100  68 101  78 100  82 101
M  END
> <chiral flag>
0

> <version>
0

> <s_m_source_file>
/data/baiqing/PycharmProjects/Reinvent-master-3.2/result/LINK_invent/BTK/process_docking_weight1_custom_product_contain_oxygen_bond_distance_aromatic_linkinvent_7_9_3/rearranged_h_0102.sdf

> <i_m_source_file_index>
13

> <r_mmod_Potential_Energy-OPLS-2005>
56.7724761962891

> <r_mmod_Stretch_Energy-OPLS-2005>
56.1577606201172

> <r_mmod_Bend_Energy-OPLS-2005>
131.854568481445

> <r_mmod_Torsional_Energy-OPLS-2005>
232.189849853516

> <r_mmod_Improper_Torsional_Energy-OPLS-2005>
5.08338642120361

> <r_mmod_Van_der_Waal_Energy-OPLS-2005>
160.938064575195

> <r_mmod_Electrostatic_Energy-OPLS-2005>
-354.282653808594

> <r_mmod_Solvation_Energy-OPLS-2005>
-200.519760131836

> <b_mmod_Minimization_Converged-OPLS-2005>
0

> <r_mmod_RMS_Derivative-OPLS-2005>
2.4495062828064

$$$$
13
                    3D
 Structure written by MMmdl.
160169  0  0  1  0            999 V2000
  -30.6149  -14.6374   20.5045 C   0  0  0  0  0  0
  -30.4394  -12.3896   19.4543 C   0  0  0  0  0  0
  -29.5083  -12.5106   18.2259 C   0  0  0  0  0  0
  -28.0311  -12.3481   18.6378 C   0  0  0  0  0  0
  -27.6543  -13.2162   19.8682 C   0  0  2  0  0  0
  -28.6980  -13.0608   20.9981 C   0  0  0  0  0  0
  -25.2543  -13.8160   20.5690 C   0  0  0  0  0  0
  -24.1805  -13.0420   20.9164 C   0  0  0  0  0  0
  -24.6386  -11.6899   20.8734 C   0  0  0  0  0  0
  -23.9064  -10.4282   21.0403 C   0  0  0  0  0  0
  -24.3611   -9.4201   21.9187 C   0  0  0  0  0  0
  -23.6282   -8.2242   22.0765 C   0  0  0  0  0  0
  -22.4263   -8.0279   21.3552 C   0  0  0  0  0  0
  -21.9897   -9.0256   20.4655 C   0  0  0  0  0  0
  -22.7235  -10.2126   20.3057 C   0  0  0  0  0  0
  -21.6849   -6.0729   22.5281 C   0  0  0  0  0  0
  -21.4021   -6.5637   23.8213 C   0  0  0  0  0  0
  -21.3661   -5.6790   24.9178 C   0  0  0  0  0  0
  -21.6040   -4.3053   24.7225 C   0  0  0  0  0  0
  -21.8818   -3.8143   23.4349 C   0  0  0  0  0  0
  -21.9193   -4.6960   22.3404 C   0  0  0  0  0  0
  -22.7827  -13.5221   21.1831 C   0  0  0  0  0  0
  -22.1657   -4.2148   21.0981 F   0  0  0  0  0  0
  -21.5626   -3.4538   25.7740 F   0  0  0  0  0  0
  -30.0170  -13.4051   20.4399 N   0  0  0  0  0  0
  -26.2987  -12.9354   20.3342 N   0  0  0  0  0  0
  -25.9317  -11.6507   20.5756 N   0  0  0  0  0  0
  -22.0470  -12.8226   22.0400 N   0  0  0  0  0  0
  -25.4230  -15.1880   20.4155 N   0  0  0  0  0  0
  -31.7664  -14.8163   20.0971 O   0  0  0  0  0  0
  -21.6632   -6.8873   21.4243 O   0  0  0  0  0  0
  -22.3518  -14.5539   20.6700 O   0  0  0  0  0  0
  -24.6251  -31.8607   23.2028 C   0  0  0  0  0  0
  -25.9103  -32.4784   23.8356 C   0  0  1  0  0  0
  -27.2266  -27.3292   20.1197 C   0  0  0  0  0  0
  -25.5922  -33.8584   24.2286 N   0  0  0  0  0  0
  -23.4182  -30.4836   21.5458 C   0  0  2  0  0  0
  -24.8649  -28.9363   20.1151 C   0  0  0  0  0  0
  -22.7467  -29.4626   22.4949 C   0  0  0  0  0  0
  -18.0285  -28.1381   22.8489 C   0  0  0  0  0  0
  -24.1488  -36.7299   23.2639 C   0  0  0  0  0  0
  -25.9577  -30.7943   21.3713 C   0  0  0  0  0  0
  -26.0332  -29.4206   20.7174 C   0  0  0  0  0  0
  -27.2188  -28.6304   20.7076 C   0  0  0  0  0  0
  -26.0394  -26.8958   19.4885 C   0  0  0  0  0  0
  -24.8692  -27.6784   19.4923 C   0  0  0  0  0  0
  -23.6329  -29.8165   20.1619 C   0  0  0  0  0  0
  -25.4111  -36.3088   24.0332 C   0  0  1  0  0  0
  -20.5882  -28.3683   23.1290 C   0  0  2  0  0  0
  -20.6774  -26.9410   22.5410 C   0  0  0  0  0  0
  -19.5752  -26.6385   21.5210 C   0  0  0  0  0  0
  -18.1932  -26.7924   22.1623 C   0  0  0  0  0  0
  -19.1536  -28.8850   23.2887 C   0  0  0  0  0  0
  -18.9459  -30.1451   23.8907 C   0  0  0  0  0  0
  -17.6460  -30.6586   24.0561 C   0  0  0  0  0  0
  -25.9051  -34.9456   23.5111 C   0  0  0  0  0  0
  -16.5352  -29.9086   23.6324 C   0  0  0  0  0  0
  -16.7272  -28.6499   23.0353 C   0  0  0  0  0  0
  -26.4490  -31.6590   25.0724 C   0  0  0  0  0  0
  -25.3725  -31.3723   26.1455 C   0  0  0  0  0  0
  -27.0322  -30.3015   24.6160 C   0  0  0  0  0  0
  -27.6055  -32.4320   25.7492 C   0  0  0  0  0  0
  -27.5579  -37.1805   24.8466 C   0  0  0  0  0  0
  -21.4182  -29.3041   22.3690 N   0  0  0  0  0  0
  -26.4290  -37.3780   23.9411 N   0  0  0  0  0  0
  -24.6858  -31.0629   22.0969 N   0  0  0  0  0  0
  -23.4198  -28.8163   23.3023 O   0  0  0  0  0  0
  -28.3543  -26.5003   20.1241 O   0  0  0  0  0  0
  -26.5619  -34.8920   22.4677 O   0  0  0  0  0  0
  -23.5421  -32.1400   23.7369 O   0  0  0  0  0  0
  -30.6648  -19.2836   19.8620 C   0  0  0  0  0  0
  -30.8324  -17.8838   20.1054 C   0  0  0  0  0  0
  -28.4468  -19.2016   20.7873 C   0  0  0  0  0  0
  -29.4621  -19.9815   20.1758 C   0  0  0  0  0  0
  -29.7923  -17.1030   20.6774 C   0  0  0  0  0  0
  -28.6102  -17.8063   21.0274 C   0  0  0  0  0  0
  -31.5182  -23.4435   20.8479 C   0  0  0  0  0  0
  -30.6983  -24.6114   20.3097 C   0  0  0  0  0  0
  -30.4674  -22.5800   21.5396 C   0  0  0  0  0  0
  -29.2868  -24.0439   20.0372 C   0  0  2  0  0  0
  -29.2113  -21.4686   19.7011 C   0  0  0  0  0  0
  -28.1852  -25.0845   20.5308 C   0  0  0  0  0  0
  -29.8080  -15.6610   20.9191 N   0  0  0  0  0  0
  -29.2717  -22.6414   20.6687 N   0  3  1  0  0  0
  -27.5862  -17.1101   21.5770 F   0  0  0  0  0  0
  -31.4807  -12.5181   19.1542 H   0  0  0  0  0  0
  -30.3758  -11.3905   19.8891 H   0  0  0  0  0  0
  -29.7717  -11.7626   17.4762 H   0  0  0  0  0  0
  -29.6502  -13.4811   17.7477 H   0  0  0  0  0  0
  -27.8712  -11.2950   18.8712 H   0  0  0  0  0  0
  -27.3749  -12.5777   17.7973 H   0  0  0  0  0  0
  -27.6745  -14.2527   19.5309 H   0  0  0  0  0  0
  -28.7050  -12.0363   21.3732 H   0  0  0  0  0  0
  -28.4403  -13.6851   21.8551 H   0  0  0  0  0  0
  -25.2755   -9.5677   22.4764 H   0  0  0  0  0  0
  -23.9995   -7.4630   22.7479 H   0  0  0  0  0  0
  -21.0832   -8.8774   19.8955 H   0  0  0  0  0  0
  -22.3702  -10.9667   19.6165 H   0  0  0  0  0  0
  -21.2023   -7.6145   23.9721 H   0  0  0  0  0  0
  -21.1481   -6.0518   25.9081 H   0  0  0  0  0  0
  -22.0597   -2.7608   23.2845 H   0  0  0  0  0  0
  -22.4081  -11.9886   22.4788 H   0  0  0  0  0  0
  -21.1102  -13.1283   22.2628 H   0  0  0  0  0  0
  -24.6667  -15.8429   20.5771 H   0  0  0  0  0  0
  -26.3019  -15.6475   20.2152 H   0  0  0  0  0  0
  -26.7171  -32.5456   23.1107 H   0  0  0  0  0  0
  -25.0059  -33.9722   25.0425 H   0  0  0  0  0  0
  -22.7120  -31.3039   21.4023 H   0  0  0  0  0  0
  -23.3749  -35.9633   23.3299 H   0  0  0  0  0  0
  -24.3584  -36.8920   22.2054 H   0  0  0  0  0  0
  -23.7244  -37.6501   23.6662 H   0  0  0  0  0  0
  -26.0874  -31.5561   20.6011 H   0  0  0  0  0  0
  -26.8391  -30.8453   21.9988 H   0  0  0  0  0  0
  -28.1185  -29.0039   21.1771 H   0  0  0  0  0  0
  -26.0032  -25.9450   18.9770 H   0  0  0  0  0  0
  -23.9764  -27.3051   19.0100 H   0  0  0  0  0  0
  -23.7536  -30.5919   19.4046 H   0  0  0  0  0  0
  -22.7529  -29.2464   19.8594 H   0  0  0  0  0  0
  -25.1289  -36.1939   25.0824 H   0  0  0  0  0  0
  -20.9973  -28.3255   24.1413 H   0  0  0  0  0  0
  -20.5676  -26.2295   23.3606 H   0  0  0  0  0  0
  -21.6645  -26.7446   22.1206 H   0  0  0  0  0  0
  -19.6915  -25.6298   21.1241 H   0  0  0  0  0  0
  -19.6686  -27.3194   20.6738 H   0  0  0  0  0  0
  -17.4200  -26.6672   21.4024 H   0  0  0  0  0  0
  -18.0332  -26.0064   22.9017 H   0  0  0  0  0  0
  -19.7934  -30.7258   24.2291 H   0  0  0  0  0  0
  -17.5015  -31.6267   24.5157 H   0  0  0  0  0  0
  -15.5353  -30.2991   23.7640 H   0  0  0  0  0  0
  -15.8670  -28.0815   22.7074 H   0  0  0  0  0  0
  -24.5902  -30.7068   25.7787 H   0  0  0  0  0  0
  -24.8913  -32.2886   26.4885 H   0  0  0  0  0  0
  -25.8053  -30.8901   27.0227 H   0  0  0  0  0  0
  -26.2880  -29.6777   24.1192 H   0  0  0  0  0  0
  -27.4035  -29.7262   25.4652 H   0  0  0  0  0  0
  -27.8750  -30.4312   23.9364 H   0  0  0  0  0  0
  -27.2669  -33.3622   26.2068 H   0  0  0  0  0  0
  -28.3862  -32.6875   25.0315 H   0  0  0  0  0  0
  -28.0722  -31.8444   26.5407 H   0  0  0  0  0  0
  -28.2600  -38.0099   24.7510 H   0  0  0  0  0  0
  -28.1072  -36.2634   24.6290 H   0  0  0  0  0  0
  -27.2303  -37.1452   25.8870 H   0  0  0  0  0  0
  -20.9362  -29.8769   21.6902 H   0  0  0  0  0  0
  -26.0174  -38.2858   24.1401 H   0  0  0  0  0  0
  -31.4707  -19.8170   19.3761 H   0  0  0  0  0  0
  -31.7624  -17.4132   19.8192 H   0  0  0  0  0  0
  -27.4999  -19.6578   21.0372 H   0  0  0  0  0  0
  -32.3141  -23.7598   21.5233 H   0  0  0  0  0  0
  -31.9777  -22.8928   20.0260 H   0  0  0  0  0  0
  -31.1456  -25.0598   19.4213 H   0  0  0  0  0  0
  -30.6561  -25.3920   21.0712 H   0  0  0  0  0  0
  -30.2117  -23.0252   22.5022 H   0  0  0  0  0  0
  -30.8254  -21.5719   21.7484 H   0  0  0  0  0  0
  -29.1661  -23.9344   18.9581 H   0  0  0  0  0  0
  -28.2355  -21.4969   19.2149 H   0  0  0  0  0  0
  -29.9272  -21.6659   18.9023 H   0  0  0  0  0  0
  -28.1772  -25.0856   21.6219 H   0  0  0  0  0  0
  -27.2120  -24.6915   20.2422 H   0  0  0  0  0  0
  -28.9379  -15.3299   21.3073 H   0  0  0  0  0  0
  -28.4596  -22.5486   21.2622 H   0  0  0  0  0  0
  1 25  1  0  0  0
  1 30  2  0  0  0
  1 83  1  0  0  0
  2  3  1  0  0  0
  2 25  1  0  0  0
  2 86  1  0  0  0
  2 87  1  0  0  0
  3  4  1  0  0  0
  3 88  1  0  0  0
  3 89  1  0  0  0
  4  5  1  0  0  0
  4 90  1  0  0  0
  4 91  1  0  0  0
  5  6  1  0  0  0
  5 26  1  0  0  0
  5 92  1  0  0  0
  6 25  1  0  0  0
  6 93  1  0  0  0
  6 94  1  0  0  0
  7  8  2  0  0  0
  7 26  1  0  0  0
  7 29  1  0  0  0
  8  9  1  0  0  0
  8 22  1  0  0  0
  9 10  1  0  0  0
  9 27  2  0  0  0
 10 11  2  0  0  0
 10 15  1  0  0  0
 11 12  1  0  0  0
 11 95  1  0  0  0
 12 13  2  0  0  0
 12 96  1  0  0  0
 13 14  1  0  0  0
 13 31  1  0  0  0
 14 15  2  0  0  0
 14 97  1  0  0  0
 15 98  1  0  0  0
 16 17  2  0  0  0
 16 21  1  0  0  0
 16 31  1  0  0  0
 17 18  1  0  0  0
 17 99  1  0  0  0
 18 19  2  0  0  0
 18100  1  0  0  0
 19 20  1  0  0  0
 19 24  1  0  0  0
 20 21  2  0  0  0
 20101  1  0  0  0
 21 23  1  0  0  0
 22 28  1  0  0  0
 22 32  2  0  0  0
 26 27  1  0  0  0
 28102  1  0  0  0
 28103  1  0  0  0
 29104  1  0  0  0
 29105  1  0  0  0
 33 34  1  0  0  0
 33 66  1  0  0  0
 33 70  2  0  0  0
 34 36  1  0  0  0
 34 59  1  0  0  0
 34106  1  0  0  0
 35 44  2  0  0  0
 35 45  1  0  0  0
 35 68  1  0  0  0
 36 56  1  0  0  0
 36107  1  0  0  0
 37 39  1  0  0  0
 37 47  1  0  0  0
 37 66  1  0  0  0
 37108  1  0  0  0
 38 43  2  0  0  0
 38 46  1  0  0  0
 38 47  1  0  0  0
 39 64  1  0  0  0
 39 67  2  0  0  0
 40 52  1  0  0  0
 40 53  2  0  0  0
 40 58  1  0  0  0
 41109  1  0  0  0
 41110  1  0  0  0
 41111  1  0  0  0
 41 48  1  0  0  0
 42 43  1  0  0  0
 42 66  1  0  0  0
 42112  1  0  0  0
 42113  1  0  0  0
 43 44  1  0  0  0
 44114  1  0  0  0
 45 46  2  0  0  0
 45115  1  0  0  0
 46116  1  0  0  0
 47117  1  0  0  0
 47118  1  0  0  0
 48 56  1  0  0  0
 48 65  1  0  0  0
 48119  1  0  0  0
 49 50  1  0  0  0
 49 53  1  0  0  0
 49 64  1  0  0  0
 49120  1  0  0  0
 50 51  1  0  0  0
 50121  1  0  0  0
 50122  1  0  0  0
 51 52  1  0  0  0
 51123  1  0  0  0
 51124  1  0  0  0
 52125  1  0  0  0
 52126  1  0  0  0
 53 54  1  0  0  0
 54 55  2  0  0  0
 54127  1  0  0  0
 55 57  1  0  0  0
 55128  1  0  0  0
 56 69  2  0  0  0
 57 58  2  0  0  0
 57129  1  0  0  0
 58130  1  0  0  0
 59 60  1  0  0  0
 59 61  1  0  0  0
 59 62  1  0  0  0
 60131  1  0  0  0
 60132  1  0  0  0
 60133  1  0  0  0
 61134  1  0  0  0
 61135  1  0  0  0
 61136  1  0  0  0
 62137  1  0  0  0
 62138  1  0  0  0
 62139  1  0  0  0
 63 65  1  0  0  0
 63140  1  0  0  0
 63141  1  0  0  0
 63142  1  0  0  0
 64143  1  0  0  0
 65144  1  0  0  0
 68 82  1  0  0  0
 71 72  2  0  0  0
 71 74  1  0  0  0
 71145  1  0  0  0
 72 75  1  0  0  0
 72146  1  0  0  0
 73 74  2  0  0  0
 73 76  1  0  0  0
 73147  1  0  0  0
 74 81  1  0  0  0
 75 76  2  0  0  0
 75 83  1  0  0  0
 76 85  1  0  0  0
 77 78  1  0  0  0
 77 79  1  0  0  0
 77148  1  0  0  0
 77149  1  0  0  0
 78 80  1  0  0  0
 78150  1  0  0  0
 78151  1  0  0  0
 79 84  1  0  0  0
 79152  1  0  0  0
 79153  1  0  0  0
 80 82  1  0  0  0
 80 84  1  0  0  0
 80154  1  0  0  0
 81155  1  0  0  0
 81156  1  0  0  0
 81 84  1  0  0  0
 82157  1  0  0  0
 82158  1  0  0  0
 83159  1  0  0  0
 84160  1  0  0  0
M  CHG  1  84   1
M  ISO  4   1 100  68 101  82 101  83 100
M  END
> <chiral flag>
0

> <version>
0

> <s_m_source_file>
/data/baiqing/PycharmProjects/Reinvent-master-3.2/result/LINK_invent/BTK/process_docking_weight1_custom_product_contain_oxygen_bond_distance_aromatic_linkinvent_7_9_3/rearranged_h_0102.sdf

> <i_m_source_file_index>
14

> <r_mmod_Potential_Energy-OPLS-2005>
22.1129570007324

> <r_mmod_Stretch_Energy-OPLS-2005>
80.3119430541992

> <r_mmod_Bend_Energy-OPLS-2005>
163.003128051758

> <r_mmod_Torsional_Energy-OPLS-2005>
288.649932861328

> <r_mmod_Improper_Torsional_Energy-OPLS-2005>
4.53385353088379

> <r_mmod_Van_der_Waal_Energy-OPLS-2005>
137.763717651367

> <r_mmod_Electrostatic_Energy-OPLS-2005>
-263.133239746094

> <r_mmod_Solvation_Energy-OPLS-2005>
-433.199249267578

> <b_mmod_Minimization_Converged-OPLS-2005>
0

> <r_mmod_RMS_Derivative-OPLS-2005>
1.13686311244965

$$$$
14
                    3D
 Structure written by MMmdl.
165173  0  0  1  0            999 V2000
  -30.6693  -14.4929   20.5855 C   0  0  0  0  0  0
  -30.4373  -12.3212   19.4216 C   0  0  0  0  0  0
  -29.5036  -12.5175   18.2077 C   0  0  0  0  0  0
  -28.0226  -12.3734   18.6159 C   0  0  0  0  0  0
  -27.6667  -13.2030   19.8778 C   0  0  2  0  0  0
  -28.7064  -12.9608   20.9955 C   0  0  0  0  0  0
  -25.2612  -13.8152   20.5668 C   0  0  0  0  0  0
  -24.1847  -13.0444   20.9165 C   0  0  0  0  0  0
  -24.6391  -11.6905   20.8717 C   0  0  0  0  0  0
  -23.9046  -10.4301   21.0404 C   0  0  0  0  0  0
  -24.3598   -9.4216   21.9182 C   0  0  0  0  0  0
  -23.6277   -8.2249   22.0751 C   0  0  0  0  0  0
  -22.4259   -8.0281   21.3548 C   0  0  0  0  0  0
  -21.9892   -9.0257   20.4657 C   0  0  0  0  0  0
  -22.7219  -10.2137   20.3062 C   0  0  0  0  0  0
  -21.6854   -6.0726   22.5277 C   0  0  0  0  0  0
  -21.4019   -6.5626   23.8212 C   0  0  0  0  0  0
  -21.3664   -5.6779   24.9173 C   0  0  0  0  0  0
  -21.6036   -4.3040   24.7225 C   0  0  0  0  0  0
  -21.8817   -3.8140   23.4348 C   0  0  0  0  0  0
  -21.9195   -4.6955   22.3407 C   0  0  0  0  0  0
  -22.7870  -13.5254   21.1828 C   0  0  0  0  0  0
  -22.1660   -4.2141   21.0984 F   0  0  0  0  0  0
  -21.5632   -3.4529   25.7742 F   0  0  0  0  0  0
  -30.0397  -13.2902   20.4566 N   0  0  0  0  0  0
  -26.3048  -12.9310   20.3352 N   0  0  0  0  0  0
  -25.9317  -11.6481   20.5732 N   0  0  0  0  0  0
  -22.0489  -12.8269   22.0388 N   0  0  0  0  0  0
  -25.4345  -15.1867   20.4051 N   0  0  0  0  0  0
  -31.7797  -14.7182   20.0950 O   0  0  0  0  0  0
  -21.6639   -6.8867   21.4239 O   0  0  0  0  0  0
  -22.3567  -14.5557   20.6670 O   0  0  0  0  0  0
  -24.6155  -31.8664   23.2104 C   0  0  0  0  0  0
  -25.9053  -32.4821   23.8394 C   0  0  1  0  0  0
  -27.2400  -27.4237   20.0822 C   0  0  0  0  0  0
  -25.5904  -33.8618   24.2323 N   0  0  0  0  0  0
  -23.4042  -30.4899   21.5500 C   0  0  2  0  0  0
  -24.8511  -28.9515   20.1160 C   0  0  0  0  0  0
  -22.7414  -29.4655   22.4989 C   0  0  0  0  0  0
  -18.0271  -28.1376   22.8487 C   0  0  0  0  0  0
  -24.1482  -36.7308   23.2635 C   0  0  0  0  0  0
  -25.9358  -30.8225   21.3705 C   0  0  0  0  0  0
  -26.0104  -29.4549   20.7191 C   0  0  0  0  0  0
  -27.2014  -28.6920   20.7114 C   0  0  0  0  0  0
  -26.0582  -26.9365   19.4791 C   0  0  0  0  0  0
  -24.8691  -27.6900   19.4979 C   0  0  0  0  0  0
  -23.6148  -29.8197   20.1649 C   0  0  0  0  0  0
  -25.4106  -36.3115   24.0339 C   0  0  1  0  0  0
  -20.5868  -28.3657   23.1313 C   0  0  2  0  0  0
  -20.6763  -26.9393   22.5411 C   0  0  0  0  0  0
  -19.5748  -26.6378   21.5200 C   0  0  0  0  0  0
  -18.1923  -26.7921   22.1610 C   0  0  0  0  0  0
  -19.1526  -28.8834   23.2893 C   0  0  0  0  0  0
  -18.9450  -30.1436   23.8902 C   0  0  0  0  0  0
  -17.6458  -30.6582   24.0563 C   0  0  0  0  0  0
  -25.9029  -34.9474   23.5121 C   0  0  0  0  0  0
  -16.5348  -29.9082   23.6328 C   0  0  0  0  0  0
  -16.7264  -28.6502   23.0345 C   0  0  0  0  0  0
  -26.4471  -31.6619   25.0739 C   0  0  0  0  0  0
  -25.3730  -31.3756   26.1491 C   0  0  0  0  0  0
  -27.0296  -30.3054   24.6149 C   0  0  0  0  0  0
  -27.6045  -32.4346   25.7491 C   0  0  0  0  0  0
  -27.5591  -37.1807   24.8456 C   0  0  0  0  0  0
  -21.4143  -29.3029   22.3729 N   0  0  0  0  0  0
  -26.4291  -37.3799   23.9411 N   0  0  0  0  0  0
  -24.6696  -31.0747   22.1015 N   0  0  0  0  0  0
  -23.4186  -28.8190   23.3026 O   0  0  0  0  0  0
  -28.4224  -26.7029   20.0984 O   0  0  0  0  0  0
  -26.5583  -34.8925   22.4679 O   0  0  0  0  0  0
  -23.5346  -32.1433   23.7491 O   0  0  0  0  0  0
  -28.7440  -17.5471   21.4247 C   0  0  0  0  0  0
  -31.0713  -17.6504   20.7651 C   0  0  0  0  0  0
  -28.6384  -18.9612   21.3884 C   0  0  0  0  0  0
  -29.9435  -16.8690   21.1110 C   0  0  0  0  0  0
  -30.9843  -19.0655   20.7329 C   0  0  0  0  0  0
  -29.7716  -19.7440   21.0170 C   0  0  0  0  0  0
  -26.0706  -21.2335   23.3106 C   0  0  0  0  0  0
  -27.3004  -19.5701   21.8056 C   0  0  0  0  0  0
  -27.3932  -20.5163   23.0187 C   0  0  0  0  0  0
  -28.2241  -24.2557   19.4243 C   0  0  0  0  0  0
  -29.2330  -23.3977   20.2337 C   0  0  0  0  0  0
  -28.6580  -25.7103   19.0877 C   0  0  0  0  0  0
  -28.9291  -21.8762   20.1734 C   0  0  0  0  0  0
  -32.1210  -19.8187   20.4385 N   0  0  0  0  0  0
  -29.9325  -15.4355   21.2151 N   0  0  0  0  0  0
  -29.8125  -21.1352   21.0268 O   0  0  0  0  0  0
  -31.4801  -12.4375   19.1221 H   0  0  0  0  0  0
  -30.3534  -11.3040   19.8073 H   0  0  0  0  0  0
  -29.7470  -11.7980   17.4253 H   0  0  0  0  0  0
  -29.6699  -13.5047   17.7715 H   0  0  0  0  0  0
  -27.8311  -11.3155   18.8024 H   0  0  0  0  0  0
  -27.3758  -12.6575   17.7857 H   0  0  0  0  0  0
  -27.7189  -14.2541   19.5926 H   0  0  0  0  0  0
  -28.6883  -11.9144   21.3040 H   0  0  0  0  0  0
  -28.4566  -13.5256   21.8941 H   0  0  0  0  0  0
  -25.2751   -9.5689   22.4744 H   0  0  0  0  0  0
  -23.9996   -7.4638   22.7464 H   0  0  0  0  0  0
  -21.0823   -8.8773   19.8967 H   0  0  0  0  0  0
  -22.3680  -10.9664   19.6162 H   0  0  0  0  0  0
  -21.2015   -7.6135   23.9706 H   0  0  0  0  0  0
  -21.1484   -6.0515   25.9069 H   0  0  0  0  0  0
  -22.0595   -2.7605   23.2853 H   0  0  0  0  0  0
  -22.4084  -11.9940   22.4810 H   0  0  0  0  0  0
  -21.1111  -13.1315   22.2579 H   0  0  0  0  0  0
  -24.6647  -15.8403   20.4975 H   0  0  0  0  0  0
  -26.2776  -15.6162   20.0461 H   0  0  0  0  0  0
  -26.7122  -32.5523   23.1150 H   0  0  0  0  0  0
  -25.0103  -33.9778   25.0507 H   0  0  0  0  0  0
  -22.6941  -31.3073   21.4083 H   0  0  0  0  0  0
  -23.3751  -35.9634   23.3300 H   0  0  0  0  0  0
  -24.3586  -36.8925   22.2050 H   0  0  0  0  0  0
  -23.7219  -37.6508   23.6645 H   0  0  0  0  0  0
  -26.0591  -31.5863   20.6016 H   0  0  0  0  0  0
  -26.8208  -30.8728   21.9935 H   0  0  0  0  0  0
  -28.0964  -29.0760   21.1812 H   0  0  0  0  0  0
  -26.0332  -25.9720   18.9948 H   0  0  0  0  0  0
  -23.9776  -27.2955   19.0291 H   0  0  0  0  0  0
  -23.7263  -30.5918   19.4028 H   0  0  0  0  0  0
  -22.7389  -29.2395   19.8683 H   0  0  0  0  0  0
  -25.1277  -36.1982   25.0834 H   0  0  0  0  0  0
  -20.9959  -28.3218   24.1436 H   0  0  0  0  0  0
  -20.5657  -26.2257   23.3591 H   0  0  0  0  0  0
  -21.6637  -26.7427   22.1221 H   0  0  0  0  0  0
  -19.6904  -25.6284   21.1234 H   0  0  0  0  0  0
  -19.6705  -27.3180   20.6724 H   0  0  0  0  0  0
  -17.4195  -26.6675   21.4009 H   0  0  0  0  0  0
  -18.0329  -26.0062   22.9004 H   0  0  0  0  0  0
  -19.7928  -30.7236   24.2298 H   0  0  0  0  0  0
  -17.5014  -31.6271   24.5144 H   0  0  0  0  0  0
  -15.5347  -30.2978   23.7648 H   0  0  0  0  0  0
  -15.8667  -28.0806   22.7067 H   0  0  0  0  0  0
  -24.5898  -30.7098   25.7851 H   0  0  0  0  0  0
  -24.8917  -32.2920   26.4915 H   0  0  0  0  0  0
  -25.8082  -30.8955   27.0265 H   0  0  0  0  0  0
  -26.2848  -29.6839   24.1165 H   0  0  0  0  0  0
  -27.4004  -29.7287   25.4633 H   0  0  0  0  0  0
  -27.8717  -30.4361   23.9350 H   0  0  0  0  0  0
  -27.2666  -33.3645   26.2074 H   0  0  0  0  0  0
  -28.3840  -32.6912   25.0307 H   0  0  0  0  0  0
  -28.0727  -31.8472   26.5402 H   0  0  0  0  0  0
  -28.2594  -38.0119   24.7522 H   0  0  0  0  0  0
  -28.1098  -36.2647   24.6241 H   0  0  0  0  0  0
  -27.2315  -37.1424   25.8862 H   0  0  0  0  0  0
  -20.9300  -29.8755   21.6958 H   0  0  0  0  0  0
  -26.0184  -38.2884   24.1415 H   0  0  0  0  0  0
  -27.8816  -16.9657   21.7173 H   0  0  0  0  0  0
  -32.0167  -17.1749   20.5530 H   0  0  0  0  0  0
  -26.1519  -21.8425   24.2113 H   0  0  0  0  0  0
  -25.2566  -20.5240   23.4601 H   0  0  0  0  0  0
  -25.7939  -21.8970   22.4906 H   0  0  0  0  0  0
  -26.6073  -18.7690   22.0641 H   0  0  0  0  0  0
  -26.8318  -20.0449   20.9461 H   0  0  0  0  0  0
  -27.7056  -19.9442   23.8931 H   0  0  0  0  0  0
  -28.1584  -21.2762   22.8669 H   0  0  0  0  0  0
  -27.2498  -24.2457   19.9127 H   0  0  0  0  0  0
  -28.0715  -23.7522   18.4693 H   0  0  0  0  0  0
  -29.2281  -23.7336   21.2706 H   0  0  0  0  0  0
  -30.2443  -23.5697   19.8651 H   0  0  0  0  0  0
  -28.1941  -26.0269   18.1518 H   0  0  0  0  0  0
  -29.7263  -25.7169   18.8724 H   0  0  0  0  0  0
  -29.0285  -21.5154   19.1492 H   0  0  0  0  0  0
  -27.8913  -21.7494   20.4591 H   0  0  0  0  0  0
  -32.8483  -19.4048   19.8649 H   0  0  0  0  0  0
  -31.9660  -20.8035   20.2453 H   0  0  0  0  0  0
  -29.0934  -15.0489   21.6186 H   0  0  0  0  0  0
  1 25  1  0  0  0
  1 30  2  0  0  0
  1 85  1  0  0  0
  2  3  1  0  0  0
  2 25  1  0  0  0
  2 87  1  0  0  0
  2 88  1  0  0  0
  3  4  1  0  0  0
  3 89  1  0  0  0
  3 90  1  0  0  0
  4  5  1  0  0  0
  4 91  1  0  0  0
  4 92  1  0  0  0
  5  6  1  0  0  0
  5 26  1  0  0  0
  5 93  1  0  0  0
  6 25  1  0  0  0
  6 94  1  0  0  0
  6 95  1  0  0  0
  7  8  2  0  0  0
  7 26  1  0  0  0
  7 29  1  0  0  0
  8  9  1  0  0  0
  8 22  1  0  0  0
  9 10  1  0  0  0
  9 27  2  0  0  0
 10 11  2  0  0  0
 10 15  1  0  0  0
 11 12  1  0  0  0
 11 96  1  0  0  0
 12 13  2  0  0  0
 12 97  1  0  0  0
 13 14  1  0  0  0
 13 31  1  0  0  0
 14 15  2  0  0  0
 14 98  1  0  0  0
 15 99  1  0  0  0
 16 17  2  0  0  0
 16 21  1  0  0  0
 16 31  1  0  0  0
 17 18  1  0  0  0
 17100  1  0  0  0
 18 19  2  0  0  0
 18101  1  0  0  0
 19 20  1  0  0  0
 19 24  1  0  0  0
 20 21  2  0  0  0
 20102  1  0  0  0
 21 23  1  0  0  0
 22 28  1  0  0  0
 22 32  2  0  0  0
 26 27  1  0  0  0
 28103  1  0  0  0
 28104  1  0  0  0
 29105  1  0  0  0
 29106  1  0  0  0
 33 34  1  0  0  0
 33 66  1  0  0  0
 33 70  2  0  0  0
 34 36  1  0  0  0
 34 59  1  0  0  0
 34107  1  0  0  0
 35 44  2  0  0  0
 35 45  1  0  0  0
 35 68  1  0  0  0
 36 56  1  0  0  0
 36108  1  0  0  0
 37 39  1  0  0  0
 37 47  1  0  0  0
 37 66  1  0  0  0
 37109  1  0  0  0
 38 43  2  0  0  0
 38 46  1  0  0  0
 38 47  1  0  0  0
 39 64  1  0  0  0
 39 67  2  0  0  0
 40 52  1  0  0  0
 40 53  2  0  0  0
 40 58  1  0  0  0
 41110  1  0  0  0
 41111  1  0  0  0
 41112  1  0  0  0
 41 48  1  0  0  0
 42 43  1  0  0  0
 42 66  1  0  0  0
 42113  1  0  0  0
 42114  1  0  0  0
 43 44  1  0  0  0
 44115  1  0  0  0
 45 46  2  0  0  0
 45116  1  0  0  0
 46117  1  0  0  0
 47118  1  0  0  0
 47119  1  0  0  0
 48 56  1  0  0  0
 48 65  1  0  0  0
 48120  1  0  0  0
 49 50  1  0  0  0
 49 53  1  0  0  0
 49 64  1  0  0  0
 49121  1  0  0  0
 50 51  1  0  0  0
 50122  1  0  0  0
 50123  1  0  0  0
 51 52  1  0  0  0
 51124  1  0  0  0
 51125  1  0  0  0
 52126  1  0  0  0
 52127  1  0  0  0
 53 54  1  0  0  0
 54 55  2  0  0  0
 54128  1  0  0  0
 55 57  1  0  0  0
 55129  1  0  0  0
 56 69  2  0  0  0
 57 58  2  0  0  0
 57130  1  0  0  0
 58131  1  0  0  0
 59 60  1  0  0  0
 59 61  1  0  0  0
 59 62  1  0  0  0
 60132  1  0  0  0
 60133  1  0  0  0
 60134  1  0  0  0
 61135  1  0  0  0
 61136  1  0  0  0
 61137  1  0  0  0
 62138  1  0  0  0
 62139  1  0  0  0
 62140  1  0  0  0
 63 65  1  0  0  0
 63141  1  0  0  0
 63142  1  0  0  0
 63143  1  0  0  0
 64144  1  0  0  0
 65145  1  0  0  0
 68 82  1  0  0  0
 71 73  2  0  0  0
 71 74  1  0  0  0
 71146  1  0  0  0
 72 74  2  0  0  0
 72 75  1  0  0  0
 72147  1  0  0  0
 73 76  1  0  0  0
 73 78  1  0  0  0
 74 85  1  0  0  0
 75 76  2  0  0  0
 75 84  1  0  0  0
 76 86  1  0  0  0
 77 79  1  0  0  0
 77148  1  0  0  0
 77149  1  0  0  0
 77150  1  0  0  0
 78 79  1  0  0  0
 78151  1  0  0  0
 78152  1  0  0  0
 79153  1  0  0  0
 79154  1  0  0  0
 80 81  1  0  0  0
 80 82  1  0  0  0
 80155  1  0  0  0
 80156  1  0  0  0
 81 83  1  0  0  0
 81157  1  0  0  0
 81158  1  0  0  0
 82159  1  0  0  0
 82160  1  0  0  0
 83 86  1  0  0  0
 83161  1  0  0  0
 83162  1  0  0  0
 84163  1  0  0  0
 84164  1  0  0  0
 85165  1  0  0  0
M  ISO  4   1 100  68 101  82 101  85 100
M  END
> <chiral flag>
0

> <version>
0

> <s_m_source_file>
/data/baiqing/PycharmProjects/Reinvent-master-3.2/result/LINK_invent/BTK/process_docking_weight1_custom_product_contain_oxygen_bond_distance_aromatic_linkinvent_7_9_3/rearranged_h_0102.sdf

> <i_m_source_file_index>
15

> <r_mmod_Potential_Energy-OPLS-2005>
-17.3179817199707

> <r_mmod_Stretch_Energy-OPLS-2005>
43.400562286377

> <r_mmod_Bend_Energy-OPLS-2005>
123.765693664551

> <r_mmod_Torsional_Energy-OPLS-2005>
240.452270507812

> <r_mmod_Improper_Torsional_Energy-OPLS-2005>
7.41623115539551

> <r_mmod_Van_der_Waal_Energy-OPLS-2005>
151.674774169922

> <r_mmod_Electrostatic_Energy-OPLS-2005>
-382.286590576172

> <r_mmod_Solvation_Energy-OPLS-2005>
-215.913223266602

> <b_mmod_Minimization_Converged-OPLS-2005>
0

> <r_mmod_RMS_Derivative-OPLS-2005>
1.91003119945526

$$$$
15
                    3D
 Structure written by MMmdl.
164173  0  0  1  0            999 V2000
  -30.6599  -14.6530   20.5557 C   0  0  0  0  0  0
  -30.4261  -12.4133   19.4659 C   0  0  0  0  0  0
  -29.5079  -12.5255   18.2313 C   0  0  0  0  0  0
  -28.0298  -12.3623   18.6346 C   0  0  0  0  0  0
  -27.6489  -13.2324   19.8628 C   0  0  2  0  0  0
  -28.6856  -13.1010   20.9959 C   0  0  0  0  0  0
  -25.2513  -13.8190   20.5685 C   0  0  0  0  0  0
  -24.1799  -13.0425   20.9165 C   0  0  0  0  0  0
  -24.6405  -11.6906   20.8721 C   0  0  0  0  0  0
  -23.9082  -10.4276   21.0376 C   0  0  0  0  0  0
  -24.3641   -9.4196   21.9157 C   0  0  0  0  0  0
  -23.6313   -8.2232   22.0735 C   0  0  0  0  0  0
  -22.4286   -8.0265   21.3540 C   0  0  0  0  0  0
  -21.9929   -9.0229   20.4629 C   0  0  0  0  0  0
  -22.7250  -10.2107   20.3030 C   0  0  0  0  0  0
  -21.6850   -6.0728   22.5294 C   0  0  0  0  0  0
  -21.4015   -6.5631   23.8228 C   0  0  0  0  0  0
  -21.3663   -5.6781   24.9189 C   0  0  0  0  0  0
  -21.6053   -4.3047   24.7236 C   0  0  0  0  0  0
  -21.8822   -3.8137   23.4358 C   0  0  0  0  0  0
  -21.9196   -4.6959   22.3414 C   0  0  0  0  0  0
  -22.7817  -13.5193   21.1845 C   0  0  0  0  0  0
  -22.1645   -4.2142   21.0987 F   0  0  0  0  0  0
  -21.5649   -3.4527   25.7747 F   0  0  0  0  0  0
  -30.0054  -13.4463   20.4420 N   0  0  0  0  0  0
  -26.2973  -12.9415   20.3320 N   0  0  0  0  0  0
  -25.9343  -11.6551   20.5744 N   0  0  0  0  0  0
  -22.0462  -12.8181   22.0405 N   0  0  0  0  0  0
  -25.4166  -15.1914   20.4156 N   0  0  0  0  0  0
  -31.7737  -14.8031   20.0424 O   0  0  0  0  0  0
  -21.6651   -6.8860   21.4241 O   0  0  0  0  0  0
  -22.3475  -14.5482   20.6671 O   0  0  0  0  0  0
  -24.6265  -31.8549   23.2007 C   0  0  0  0  0  0
  -25.9093  -32.4762   23.8362 C   0  0  1  0  0  0
  -27.2319  -27.3068   20.1240 C   0  0  0  0  0  0
  -25.5890  -33.8561   24.2284 N   0  0  0  0  0  0
  -23.4243  -30.4738   21.5403 C   0  0  2  0  0  0
  -24.8737  -28.9172   20.1167 C   0  0  0  0  0  0
  -22.7485  -29.4584   22.4926 C   0  0  0  0  0  0
  -18.0278  -28.1379   22.8464 C   0  0  0  0  0  0
  -24.1481  -36.7295   23.2652 C   0  0  0  0  0  0
  -25.9640  -30.7826   21.3723 C   0  0  0  0  0  0
  -26.0419  -29.4072   20.7154 C   0  0  0  0  0  0
  -27.2274  -28.6139   20.7025 C   0  0  0  0  0  0
  -26.0427  -26.8577   19.5175 C   0  0  0  0  0  0
  -24.8749  -27.6482   19.5116 C   0  0  0  0  0  0
  -23.6437  -29.8001   20.1588 C   0  0  0  0  0  0
  -25.4106  -36.3080   24.0343 C   0  0  1  0  0  0
  -20.5878  -28.3671   23.1272 C   0  0  2  0  0  0
  -20.6751  -26.9389   22.5402 C   0  0  0  0  0  0
  -19.5737  -26.6374   21.5187 C   0  0  0  0  0  0
  -18.1918  -26.7918   22.1601 C   0  0  0  0  0  0
  -19.1535  -28.8840   23.2859 C   0  0  0  0  0  0
  -18.9465  -30.1444   23.8880 C   0  0  0  0  0  0
  -17.6469  -30.6587   24.0545 C   0  0  0  0  0  0
  -25.9030  -34.9442   23.5122 C   0  0  0  0  0  0
  -16.5357  -29.9082   23.6330 C   0  0  0  0  0  0
  -16.7265  -28.6495   23.0348 C   0  0  0  0  0  0
  -26.4489  -31.6583   25.0747 C   0  0  0  0  0  0
  -25.3750  -31.3682   26.1495 C   0  0  0  0  0  0
  -27.0352  -30.3022   24.6203 C   0  0  0  0  0  0
  -27.6055  -32.4327   25.7497 C   0  0  0  0  0  0
  -27.5584  -37.1790   24.8467 C   0  0  0  0  0  0
  -21.4193  -29.3029   22.3675 N   0  0  0  0  0  0
  -26.4283  -37.3783   23.9426 N   0  0  0  0  0  0
  -24.6905  -31.0542   22.0957 N   0  0  0  0  0  0
  -23.4183  -28.8130   23.3031 O   0  0  0  0  0  0
  -28.3665  -26.4873   20.0965 O   0  0  0  0  0  0
  -26.5598  -34.8912   22.4692 O   0  0  0  0  0  0
  -23.5427  -32.1338   23.7331 O   0  0  0  0  0  0
  -30.4645  -19.1878   19.6635 C   0  0  0  0  0  0
  -30.6894  -17.8181   19.9952 C   0  0  0  0  0  0
  -28.3800  -19.1494   20.8429 C   0  0  0  0  0  0
  -29.2911  -19.9067   20.0475 C   0  0  0  0  0  0
  -29.7753  -17.0622   20.7776 C   0  0  0  0  0  0
  -28.6057  -17.7705   21.2035 C   0  0  0  0  0  0
  -29.0852  -21.4586   18.1752 C   0  0  0  0  0  0
  -28.6652  -22.3808   20.3331 C   0  0  0  0  0  0
  -28.9840  -22.8470   17.5127 C   0  0  0  0  0  0
  -29.1830  -24.0173   18.4765 C   0  0  0  0  0  0
  -28.3065  -23.8132   19.7076 C   0  0  2  0  0  0
  -30.1553  -15.5526   22.7147 C   0  0  0  0  0  0
  -26.6797  -17.7420   22.6618 C   0  0  0  0  0  0
  -28.3133  -25.1087   20.6510 C   0  0  0  0  0  0
  -29.0075  -21.2877   19.5347 N   0  0  0  0  0  0
  -30.0555  -15.6843   21.2518 N   0  0  0  0  0  0
  -29.2060  -20.5112   17.3888 O   0  0  0  0  0  0
  -28.6138  -22.2730   21.5635 O   0  0  0  0  0  0
  -27.6980  -17.0476   21.9516 O   0  0  0  0  0  0
  -31.4710  -12.5207   19.1697 H   0  0  0  0  0  0
  -30.3462  -11.4186   19.9066 H   0  0  0  0  0  0
  -29.7808  -11.7781   17.4852 H   0  0  0  0  0  0
  -29.6529  -13.4973   17.7572 H   0  0  0  0  0  0
  -27.8626  -11.3076   18.8578 H   0  0  0  0  0  0
  -27.3812  -12.6006   17.7905 H   0  0  0  0  0  0
  -27.6639  -14.2693   19.5261 H   0  0  0  0  0  0
  -28.6952  -12.0854   21.3913 H   0  0  0  0  0  0
  -28.4012  -13.7426   21.8284 H   0  0  0  0  0  0
  -25.2783   -9.5700   22.4731 H   0  0  0  0  0  0
  -24.0031   -7.4635   22.7474 H   0  0  0  0  0  0
  -21.0851   -8.8745   19.8944 H   0  0  0  0  0  0
  -22.3689  -10.9647   19.6153 H   0  0  0  0  0  0
  -21.1986   -7.6135   23.9741 H   0  0  0  0  0  0
  -21.1497   -6.0501   25.9098 H   0  0  0  0  0  0
  -22.0605   -2.7597   23.2866 H   0  0  0  0  0  0
  -22.4063  -11.9854   22.4834 H   0  0  0  0  0  0
  -21.1072  -13.1198   22.2566 H   0  0  0  0  0  0
  -24.6539  -15.8421   20.5595 H   0  0  0  0  0  0
  -26.2996  -15.6485   20.2252 H   0  0  0  0  0  0
  -26.7167  -32.5427   23.1108 H   0  0  0  0  0  0
  -25.0010  -33.9694   25.0413 H   0  0  0  0  0  0
  -22.7199  -31.2939   21.3879 H   0  0  0  0  0  0
  -23.3757  -35.9611   23.3285 H   0  0  0  0  0  0
  -24.3586  -36.8943   22.2075 H   0  0  0  0  0  0
  -23.7200  -37.6478   23.6687 H   0  0  0  0  0  0
  -26.0968  -31.5489   20.6070 H   0  0  0  0  0  0
  -26.8429  -30.8325   22.0037 H   0  0  0  0  0  0
  -28.1325  -28.9868   21.1611 H   0  0  0  0  0  0
  -26.0157  -25.8843   19.0481 H   0  0  0  0  0  0
  -23.9788  -27.2644   19.0442 H   0  0  0  0  0  0
  -23.7694  -30.5702   19.3970 H   0  0  0  0  0  0
  -22.7660  -29.2270   19.8554 H   0  0  0  0  0  0
  -25.1284  -36.1931   25.0836 H   0  0  0  0  0  0
  -20.9954  -28.3225   24.1397 H   0  0  0  0  0  0
  -20.5598  -26.2280   23.3597 H   0  0  0  0  0  0
  -21.6625  -26.7377   22.1229 H   0  0  0  0  0  0
  -19.6893  -25.6278   21.1226 H   0  0  0  0  0  0
  -19.6696  -27.3173   20.6709 H   0  0  0  0  0  0
  -17.4182  -26.6644   21.4021 H   0  0  0  0  0  0
  -18.0344  -26.0068   22.9011 H   0  0  0  0  0  0
  -19.7948  -30.7251   24.2258 H   0  0  0  0  0  0
  -17.5031  -31.6271   24.5137 H   0  0  0  0  0  0
  -15.5359  -30.2979   23.7687 H   0  0  0  0  0  0
  -15.8653  -28.0818   22.7088 H   0  0  0  0  0  0
  -24.5939  -30.6997   25.7847 H   0  0  0  0  0  0
  -24.8925  -32.2826   26.4971 H   0  0  0  0  0  0
  -25.8130  -30.8851   27.0244 H   0  0  0  0  0  0
  -26.2929  -29.6735   24.1272 H   0  0  0  0  0  0
  -27.4108  -29.7310   25.4706 H   0  0  0  0  0  0
  -27.8772  -30.4338   23.9399 H   0  0  0  0  0  0
  -27.2678  -33.3639   26.2055 H   0  0  0  0  0  0
  -28.3863  -32.6856   25.0312 H   0  0  0  0  0  0
  -28.0719  -31.8459   26.5415 H   0  0  0  0  0  0
  -28.2572  -38.0118   24.7550 H   0  0  0  0  0  0
  -28.1099  -36.2645   24.6236 H   0  0  0  0  0  0
  -27.2300  -37.1373   25.8867 H   0  0  0  0  0  0
  -20.9376  -29.8772   21.6898 H   0  0  0  0  0  0
  -26.0162  -38.2850   24.1473 H   0  0  0  0  0  0
  -31.2104  -19.6819   19.0545 H   0  0  0  0  0  0
  -31.6055  -17.3584   19.6555 H   0  0  0  0  0  0
  -27.4694  -19.6395   21.1511 H   0  0  0  0  0  0
  -28.0024  -22.9176   17.0423 H   0  0  0  0  0  0
  -29.7132  -22.9148   16.7053 H   0  0  0  0  0  0
  -28.9188  -24.9483   17.9725 H   0  0  0  0  0  0
  -30.2315  -24.1065   18.7662 H   0  0  0  0  0  0
  -27.2801  -23.7168   19.3549 H   0  0  0  0  0  0
  -29.1718  -15.4882   23.1772 H   0  0  0  0  0  0
  -30.6662  -16.4181   23.1390 H   0  0  0  0  0  0
  -30.7153  -14.6702   23.0316 H   0  0  0  0  0  0
  -26.1707  -17.0422   23.3243 H   0  0  0  0  0  0
  -25.9260  -18.1552   21.9900 H   0  0  0  0  0  0
  -27.0888  -18.5387   23.2848 H   0  0  0  0  0  0
  -29.1914  -25.0296   21.2919 H   0  0  0  0  0  0
  -27.4647  -25.0412   21.3335 H   0  0  0  0  0  0
  1 25  1  0  0  0
  1 30  2  0  0  0
  1 86  1  0  0  0
  2  3  1  0  0  0
  2 25  1  0  0  0
  2 90  1  0  0  0
  2 91  1  0  0  0
  3  4  1  0  0  0
  3 92  1  0  0  0
  3 93  1  0  0  0
  4  5  1  0  0  0
  4 94  1  0  0  0
  4 95  1  0  0  0
  5  6  1  0  0  0
  5 26  1  0  0  0
  5 96  1  0  0  0
  6 25  1  0  0  0
  6 97  1  0  0  0
  6 98  1  0  0  0
  7  8  2  0  0  0
  7 26  1  0  0  0
  7 29  1  0  0  0
  8  9  1  0  0  0
  8 22  1  0  0  0
  9 10  1  0  0  0
  9 27  2  0  0  0
 10 11  2  0  0  0
 10 15  1  0  0  0
 11 12  1  0  0  0
 11 99  1  0  0  0
 12 13  2  0  0  0
 12100  1  0  0  0
 13 14  1  0  0  0
 13 31  1  0  0  0
 14 15  2  0  0  0
 14101  1  0  0  0
 15102  1  0  0  0
 16 17  2  0  0  0
 16 21  1  0  0  0
 16 31  1  0  0  0
 17 18  1  0  0  0
 17103  1  0  0  0
 18 19  2  0  0  0
 18104  1  0  0  0
 19 20  1  0  0  0
 19 24  1  0  0  0
 20 21  2  0  0  0
 20105  1  0  0  0
 21 23  1  0  0  0
 22 28  1  0  0  0
 22 32  2  0  0  0
 26 27  1  0  0  0
 28106  1  0  0  0
 28107  1  0  0  0
 29108  1  0  0  0
 29109  1  0  0  0
 33 34  1  0  0  0
 33 66  1  0  0  0
 33 70  2  0  0  0
 34 36  1  0  0  0
 34 59  1  0  0  0
 34110  1  0  0  0
 35 44  2  0  0  0
 35 45  1  0  0  0
 35 68  1  0  0  0
 36 56  1  0  0  0
 36111  1  0  0  0
 37 39  1  0  0  0
 37 47  1  0  0  0
 37 66  1  0  0  0
 37112  1  0  0  0
 38 43  2  0  0  0
 38 46  1  0  0  0
 38 47  1  0  0  0
 39 64  1  0  0  0
 39 67  2  0  0  0
 40 52  1  0  0  0
 40 53  2  0  0  0
 40 58  1  0  0  0
 41113  1  0  0  0
 41114  1  0  0  0
 41115  1  0  0  0
 41 48  1  0  0  0
 42 43  1  0  0  0
 42 66  1  0  0  0
 42116  1  0  0  0
 42117  1  0  0  0
 43 44  1  0  0  0
 44118  1  0  0  0
 45 46  2  0  0  0
 45119  1  0  0  0
 46120  1  0  0  0
 47121  1  0  0  0
 47122  1  0  0  0
 48 56  1  0  0  0
 48 65  1  0  0  0
 48123  1  0  0  0
 49 50  1  0  0  0
 49 53  1  0  0  0
 49 64  1  0  0  0
 49124  1  0  0  0
 50 51  1  0  0  0
 50125  1  0  0  0
 50126  1  0  0  0
 51 52  1  0  0  0
 51127  1  0  0  0
 51128  1  0  0  0
 52129  1  0  0  0
 52130  1  0  0  0
 53 54  1  0  0  0
 54 55  2  0  0  0
 54131  1  0  0  0
 55 57  1  0  0  0
 55132  1  0  0  0
 56 69  2  0  0  0
 57 58  2  0  0  0
 57133  1  0  0  0
 58134  1  0  0  0
 59 60  1  0  0  0
 59 61  1  0  0  0
 59 62  1  0  0  0
 60135  1  0  0  0
 60136  1  0  0  0
 60137  1  0  0  0
 61138  1  0  0  0
 61139  1  0  0  0
 61140  1  0  0  0
 62141  1  0  0  0
 62142  1  0  0  0
 62143  1  0  0  0
 63 65  1  0  0  0
 63144  1  0  0  0
 63145  1  0  0  0
 63146  1  0  0  0
 64147  1  0  0  0
 65148  1  0  0  0
 68 84  1  0  0  0
 71 72  2  0  0  0
 71 74  1  0  0  0
 71149  1  0  0  0
 72 75  1  0  0  0
 72150  1  0  0  0
 73 74  2  0  0  0
 73 76  1  0  0  0
 73151  1  0  0  0
 74 85  1  0  0  0
 75 76  2  0  0  0
 75 86  1  0  0  0
 76 89  1  0  0  0
 77 79  1  0  0  0
 77 85  1  0  0  0
 77 87  2  0  0  0
 78 81  1  0  0  0
 78 85  1  0  0  0
 78 88  2  0  0  0
 79 80  1  0  0  0
 79152  1  0  0  0
 79153  1  0  0  0
 80 81  1  0  0  0
 80154  1  0  0  0
 80155  1  0  0  0
 81 84  1  0  0  0
 81156  1  0  0  0
 82 86  1  0  0  0
 82157  1  0  0  0
 82158  1  0  0  0
 82159  1  0  0  0
 83 89  1  0  0  0
 83160  1  0  0  0
 83161  1  0  0  0
 83162  1  0  0  0
 84163  1  0  0  0
 84164  1  0  0  0
M  ISO  4   1 100  68 101  84 101  86 100
M  END
> <chiral flag>
0

> <version>
0

> <s_m_source_file>
/data/baiqing/PycharmProjects/Reinvent-master-3.2/result/LINK_invent/BTK/process_docking_weight1_custom_product_contain_oxygen_bond_distance_aromatic_linkinvent_7_9_3/rearranged_h_0102.sdf

> <i_m_source_file_index>
16

> <r_mmod_Potential_Energy-OPLS-2005>
335.250915527344

> <r_mmod_Stretch_Energy-OPLS-2005>
113.919540405273

> <r_mmod_Bend_Energy-OPLS-2005>
165.685928344727

> <r_mmod_Torsional_Energy-OPLS-2005>
362.213928222656

> <r_mmod_Improper_Torsional_Energy-OPLS-2005>
3.99765586853027

> <r_mmod_Van_der_Waal_Energy-OPLS-2005>
159.79377746582

> <r_mmod_Electrostatic_Energy-OPLS-2005>
-302.966644287109

> <r_mmod_Solvation_Energy-OPLS-2005>
-216.27571105957

> <b_mmod_Minimization_Converged-OPLS-2005>
0

> <r_mmod_RMS_Derivative-OPLS-2005>
2.61585569381714

$$$$
16
                    3D
 Structure written by MMmdl.
162171  0  0  1  0            999 V2000
  -30.6293  -14.6535   20.6052 C   0  0  0  0  0  0
  -30.4585  -12.4420   19.4306 C   0  0  0  0  0  0
  -29.5059  -12.5583   18.2148 C   0  0  0  0  0  0
  -28.0217  -12.3890   18.6102 C   0  0  0  0  0  0
  -27.6597  -13.2056   19.8782 C   0  0  2  0  0  0
  -28.7117  -12.9294   20.9663 C   0  0  0  0  0  0
  -25.2603  -13.8119   20.5671 C   0  0  0  0  0  0
  -24.1854  -13.0420   20.9173 C   0  0  0  0  0  0
  -24.6410  -11.6888   20.8755 C   0  0  0  0  0  0
  -23.9066  -10.4277   21.0436 C   0  0  0  0  0  0
  -24.3632   -9.4170   21.9185 C   0  0  0  0  0  0
  -23.6280   -8.2234   22.0761 C   0  0  0  0  0  0
  -22.4259   -8.0291   21.3554 C   0  0  0  0  0  0
  -21.9902   -9.0266   20.4661 C   0  0  0  0  0  0
  -22.7256  -10.2133   20.3073 C   0  0  0  0  0  0
  -21.6834   -6.0745   22.5281 C   0  0  0  0  0  0
  -21.3998   -6.5662   23.8219 C   0  0  0  0  0  0
  -21.3637   -5.6829   24.9182 C   0  0  0  0  0  0
  -21.6032   -4.3085   24.7236 C   0  0  0  0  0  0
  -21.8803   -3.8172   23.4363 C   0  0  0  0  0  0
  -21.9183   -4.6982   22.3407 C   0  0  0  0  0  0
  -22.7879  -13.5234   21.1846 C   0  0  0  0  0  0
  -22.1647   -4.2174   21.0988 F   0  0  0  0  0  0
  -21.5625   -3.4561   25.7741 F   0  0  0  0  0  0
  -30.0137  -13.4168   20.4598 N   0  0  0  0  0  0
  -26.3039  -12.9276   20.3396 N   0  0  0  0  0  0
  -25.9330  -11.6437   20.5762 N   0  0  0  0  0  0
  -22.0522  -12.8229   22.0422 N   0  0  0  0  0  0
  -25.4323  -15.1839   20.4102 N   0  0  0  0  0  0
  -31.7474  -14.8271   20.1014 O   0  0  0  0  0  0
  -21.6622   -6.8894   21.4256 O   0  0  0  0  0  0
  -22.3534  -14.5527   20.6681 O   0  0  0  0  0  0
  -24.6268  -31.8604   23.2004 C   0  0  0  0  0  0
  -25.9112  -32.4769   23.8333 C   0  0  1  0  0  0
  -27.2207  -27.3069   20.1017 C   0  0  0  0  0  0
  -25.5902  -33.8571   24.2256 N   0  0  0  0  0  0
  -23.4206  -30.4858   21.5470 C   0  0  2  0  0  0
  -24.8636  -28.9394   20.1150 C   0  0  0  0  0  0
  -22.7476  -29.4644   22.4944 C   0  0  0  0  0  0
  -18.0279  -28.1396   22.8476 C   0  0  0  0  0  0
  -24.1506  -36.7313   23.2647 C   0  0  0  0  0  0
  -25.9650  -30.7857   21.3739 C   0  0  0  0  0  0
  -26.0383  -29.4136   20.7111 C   0  0  0  0  0  0
  -27.2201  -28.6105   20.6909 C   0  0  0  0  0  0
  -26.0106  -26.8873   19.4979 C   0  0  0  0  0  0
  -24.8517  -27.6790   19.5029 C   0  0  0  0  0  0
  -23.6352  -29.8225   20.1617 C   0  0  0  0  0  0
  -25.4127  -36.3087   24.0325 C   0  0  1  0  0  0
  -20.5884  -28.3722   23.1271 C   0  0  2  0  0  0
  -20.6790  -26.9442   22.5413 C   0  0  0  0  0  0
  -19.5776  -26.6391   21.5213 C   0  0  0  0  0  0
  -18.1949  -26.7929   22.1615 C   0  0  0  0  0  0
  -19.1534  -28.8870   23.2878 C   0  0  0  0  0  0
  -18.9448  -30.1461   23.8910 C   0  0  0  0  0  0
  -17.6451  -30.6597   24.0571 C   0  0  0  0  0  0
  -25.9058  -34.9453   23.5103 C   0  0  0  0  0  0
  -16.5341  -29.9099   23.6332 C   0  0  0  0  0  0
  -16.7267  -28.6522   23.0346 C   0  0  0  0  0  0
  -26.4496  -31.6579   25.0710 C   0  0  0  0  0  0
  -25.3712  -31.3724   26.1442 C   0  0  0  0  0  0
  -27.0364  -30.3006   24.6186 C   0  0  0  0  0  0
  -27.6059  -32.4330   25.7446 C   0  0  0  0  0  0
  -27.5592  -37.1813   24.8463 C   0  0  0  0  0  0
  -21.4190  -29.3073   22.3675 N   0  0  0  0  0  0
  -26.4309  -37.3769   23.9397 N   0  0  0  0  0  0
  -24.6902  -31.0608   22.0964 N   0  0  0  0  0  0
  -23.4198  -28.8133   23.2999 O   0  0  0  0  0  0
  -28.3415  -26.4511   20.1243 O   0  0  0  0  0  0
  -26.5665  -34.8932   22.4692 O   0  0  0  0  0  0
  -23.5434  -32.1391   23.7328 O   0  0  0  0  0  0
  -31.0057  -19.4047   21.3035 C   0  0  0  0  0  0
  -29.1479  -19.2541   19.8029 C   0  0  0  0  0  0
  -31.0501  -17.9864   21.4175 C   0  0  0  0  0  0
  -29.1571  -17.8252   19.9560 C   0  0  0  0  0  0
  -30.0583  -20.1092   20.4972 C   0  0  0  0  0  0
  -30.1028  -17.1471   20.7769 C   0  0  0  0  0  0
  -29.3227  -23.9695   20.0089 C   0  0  0  0  0  0
  -30.6257  -24.4111   19.8329 C   0  0  0  0  0  0
  -29.0475  -22.4806   20.1335 C   0  0  0  0  0  0
  -31.7477  -23.3978   19.8204 C   0  0  0  0  0  0
  -31.4043  -22.2166   20.7205 C   0  0  0  0  0  0
  -29.1296  -16.7149   23.4350 C   0  0  0  0  0  0
  -28.1127  -24.9849   19.9706 C   0  0  0  0  0  0
  -29.1826  -15.5416   22.4308 C   0  0  0  0  0  0
  -30.1055  -21.6029   20.3866 N   0  0  0  0  0  0
  -29.9459  -15.7354   21.1718 N   0  0  0  0  0  0
  -31.1129  -25.5533   19.6687 O   0  5  0  0  0  0
  -27.8954  -22.0599   20.0100 O   0  0  0  0  0  0
  -30.4587  -11.4284   19.8323 H   0  0  0  0  0  0
  -31.4896  -12.6148   19.1111 H   0  0  0  0  0  0
  -29.7718  -11.8329   17.4446 H   0  0  0  0  0  0
  -29.6388  -13.5395   17.7615 H   0  0  0  0  0  0
  -27.8390  -11.3281   18.7850 H   0  0  0  0  0  0
  -27.3736  -12.6681   17.7797 H   0  0  0  0  0  0
  -27.7080  -14.2624   19.6190 H   0  0  0  0  0  0
  -28.4037  -13.2765   21.9414 H   0  0  0  0  0  0
  -28.7605  -11.8532   21.1361 H   0  0  0  0  0  0
  -25.2765   -9.5617   22.4785 H   0  0  0  0  0  0
  -23.9955   -7.4617   22.7487 H   0  0  0  0  0  0
  -21.0800   -8.8800   19.8978 H   0  0  0  0  0  0
  -22.3690  -10.9695   19.6213 H   0  0  0  0  0  0
  -21.1985   -7.6168   23.9713 H   0  0  0  0  0  0
  -21.1474   -6.0569   25.9085 H   0  0  0  0  0  0
  -22.0599   -2.7630   23.2870 H   0  0  0  0  0  0
  -22.4138  -11.9883   22.4781 H   0  0  0  0  0  0
  -21.1182  -13.1321   22.2730 H   0  0  0  0  0  0
  -24.6717  -15.8470   20.5184 H   0  0  0  0  0  0
  -26.2940  -15.6158   20.1080 H   0  0  0  0  0  0
  -26.7180  -32.5432   23.1094 H   0  0  0  0  0  0
  -24.9954  -33.9698   25.0322 H   0  0  0  0  0  0
  -22.7166  -31.3081   21.4054 H   0  0  0  0  0  0
  -23.3747  -35.9669   23.3307 H   0  0  0  0  0  0
  -24.3602  -36.8933   22.2054 H   0  0  0  0  0  0
  -23.7282  -37.6528   23.6680 H   0  0  0  0  0  0
  -26.1068  -31.5473   20.6044 H   0  0  0  0  0  0
  -26.8413  -30.8275   22.0101 H   0  0  0  0  0  0
  -28.1234  -28.9753   21.1568 H   0  0  0  0  0  0
  -25.9156  -25.9284   19.0163 H   0  0  0  0  0  0
  -23.9454  -27.3055   19.0456 H   0  0  0  0  0  0
  -23.7625  -30.6016   19.4087 H   0  0  0  0  0  0
  -22.7498  -29.2600   19.8566 H   0  0  0  0  0  0
  -25.1312  -36.1949   25.0812 H   0  0  0  0  0  0
  -20.9976  -28.3316   24.1397 H   0  0  0  0  0  0
  -20.5696  -26.2339   23.3623 H   0  0  0  0  0  0
  -21.6659  -26.7485   22.1209 H   0  0  0  0  0  0
  -19.6947  -25.6301   21.1257 H   0  0  0  0  0  0
  -19.6707  -27.3198   20.6738 H   0  0  0  0  0  0
  -17.4214  -26.6657   21.4024 H   0  0  0  0  0  0
  -18.0362  -26.0090   22.9030 H   0  0  0  0  0  0
  -19.7928  -30.7274   24.2293 H   0  0  0  0  0  0
  -17.5005  -31.6272   24.5181 H   0  0  0  0  0  0
  -15.5350  -30.3002   23.7634 H   0  0  0  0  0  0
  -15.8672  -28.0834   22.7047 H   0  0  0  0  0  0
  -24.5906  -30.7080   25.7742 H   0  0  0  0  0  0
  -24.8914  -32.2890   26.4867 H   0  0  0  0  0  0
  -25.8023  -30.8882   27.0212 H   0  0  0  0  0  0
  -26.2997  -29.6788   24.1092 H   0  0  0  0  0  0
  -27.3887  -29.7219   25.4732 H   0  0  0  0  0  0
  -27.8935  -30.4271   23.9561 H   0  0  0  0  0  0
  -27.2696  -33.3670   26.1947 H   0  0  0  0  0  0
  -28.3872  -32.6796   25.0245 H   0  0  0  0  0  0
  -28.0746  -31.8494   26.5382 H   0  0  0  0  0  0
  -28.2592  -38.0127   24.7500 H   0  0  0  0  0  0
  -28.1105  -36.2641   24.6311 H   0  0  0  0  0  0
  -27.2306  -37.1486   25.8870 H   0  0  0  0  0  0
  -20.9358  -29.8845   21.6930 H   0  0  0  0  0  0
  -26.0195  -38.2854   24.1371 H   0  0  0  0  0  0
  -31.7266  -19.9453   21.9006 H   0  0  0  0  0  0
  -28.4050  -19.6831   19.1466 H   0  0  0  0  0  0
  -31.7756  -17.5479   22.0889 H   0  0  0  0  0  0
  -28.3916  -17.2487   19.4575 H   0  0  0  0  0  0
  -32.6983  -23.8275   20.1473 H   0  0  0  0  0  0
  -31.9057  -23.0402   18.7991 H   0  0  0  0  0  0
  -31.3694  -22.5466   21.7601 H   0  0  0  0  0  0
  -32.2367  -21.5231   20.6285 H   0  0  0  0  0  0
  -28.4977  -16.4549   24.2854 H   0  0  0  0  0  0
  -28.7000  -17.6175   23.0011 H   0  0  0  0  0  0
  -30.1166  -16.9546   23.8329 H   0  0  0  0  0  0
  -27.3874  -24.6810   20.7294 H   0  0  0  0  0  0
  -27.6566  -24.7983   18.9996 H   0  0  0  0  0  0
  -28.1500  -15.3280   22.1618 H   0  0  0  0  0  0
  -29.5785  -14.6848   22.9789 H   0  0  0  0  0  0
  1 25  1  0  0  0
  1 30  2  0  0  0
  1 86  1  0  0  0
  2  3  1  0  0  0
  2 25  1  0  0  0
  2 89  1  0  0  0
  2 90  1  0  0  0
  3  4  1  0  0  0
  3 91  1  0  0  0
  3 92  1  0  0  0
  4  5  1  0  0  0
  4 93  1  0  0  0
  4 94  1  0  0  0
  5  6  1  0  0  0
  5 26  1  0  0  0
  5 95  1  0  0  0
  6 25  1  0  0  0
  6 96  1  0  0  0
  6 97  1  0  0  0
  7  8  2  0  0  0
  7 26  1  0  0  0
  7 29  1  0  0  0
  8  9  1  0  0  0
  8 22  1  0  0  0
  9 10  1  0  0  0
  9 27  2  0  0  0
 10 11  2  0  0  0
 10 15  1  0  0  0
 11 12  1  0  0  0
 11 98  1  0  0  0
 12 13  2  0  0  0
 12 99  1  0  0  0
 13 14  1  0  0  0
 13 31  1  0  0  0
 14 15  2  0  0  0
 14100  1  0  0  0
 15101  1  0  0  0
 16 17  2  0  0  0
 16 21  1  0  0  0
 16 31  1  0  0  0
 17 18  1  0  0  0
 17102  1  0  0  0
 18 19  2  0  0  0
 18103  1  0  0  0
 19 20  1  0  0  0
 19 24  1  0  0  0
 20 21  2  0  0  0
 20104  1  0  0  0
 21 23  1  0  0  0
 22 28  1  0  0  0
 22 32  2  0  0  0
 26 27  1  0  0  0
 28105  1  0  0  0
 28106  1  0  0  0
 29107  1  0  0  0
 29108  1  0  0  0
 33 34  1  0  0  0
 33 66  1  0  0  0
 33 70  2  0  0  0
 34 36  1  0  0  0
 34 59  1  0  0  0
 34109  1  0  0  0
 35 44  2  0  0  0
 35 45  1  0  0  0
 35 68  1  0  0  0
 36 56  1  0  0  0
 36110  1  0  0  0
 37 39  1  0  0  0
 37 47  1  0  0  0
 37 66  1  0  0  0
 37111  1  0  0  0
 38 43  2  0  0  0
 38 46  1  0  0  0
 38 47  1  0  0  0
 39 64  1  0  0  0
 39 67  2  0  0  0
 40 52  1  0  0  0
 40 53  2  0  0  0
 40 58  1  0  0  0
 41112  1  0  0  0
 41113  1  0  0  0
 41114  1  0  0  0
 41 48  1  0  0  0
 42 43  1  0  0  0
 42 66  1  0  0  0
 42115  1  0  0  0
 42116  1  0  0  0
 43 44  1  0  0  0
 44117  1  0  0  0
 45 46  2  0  0  0
 45118  1  0  0  0
 46119  1  0  0  0
 47120  1  0  0  0
 47121  1  0  0  0
 48 56  1  0  0  0
 48 65  1  0  0  0
 48122  1  0  0  0
 49 50  1  0  0  0
 49 53  1  0  0  0
 49 64  1  0  0  0
 49123  1  0  0  0
 50 51  1  0  0  0
 50124  1  0  0  0
 50125  1  0  0  0
 51 52  1  0  0  0
 51126  1  0  0  0
 51127  1  0  0  0
 52128  1  0  0  0
 52129  1  0  0  0
 53 54  1  0  0  0
 54 55  2  0  0  0
 54130  1  0  0  0
 55 57  1  0  0  0
 55131  1  0  0  0
 56 69  2  0  0  0
 57 58  2  0  0  0
 57132  1  0  0  0
 58133  1  0  0  0
 59 60  1  0  0  0
 59 61  1  0  0  0
 59 62  1  0  0  0
 60134  1  0  0  0
 60135  1  0  0  0
 60136  1  0  0  0
 61137  1  0  0  0
 61138  1  0  0  0
 61139  1  0  0  0
 62140  1  0  0  0
 62141  1  0  0  0
 62142  1  0  0  0
 63 65  1  0  0  0
 63143  1  0  0  0
 63144  1  0  0  0
 63145  1  0  0  0
 64146  1  0  0  0
 65147  1  0  0  0
 68 83  1  0  0  0
 71 73  2  0  0  0
 71 75  1  0  0  0
 71148  1  0  0  0
 72 74  1  0  0  0
 72 75  2  0  0  0
 72149  1  0  0  0
 73 76  1  0  0  0
 73150  1  0  0  0
 74 76  2  0  0  0
 74151  1  0  0  0
 75 85  1  0  0  0
 76 86  1  0  0  0
 77 78  2  0  0  0
 77 79  1  0  0  0
 77 83  1  0  0  0
 78 80  1  0  0  0
 78 87  1  0  0  0
 79 85  1  0  0  0
 79 88  2  0  0  0
 80 81  1  0  0  0
 80152  1  0  0  0
 80153  1  0  0  0
 81 85  1  0  0  0
 81154  1  0  0  0
 81155  1  0  0  0
 82 84  1  0  0  0
 82156  1  0  0  0
 82157  1  0  0  0
 82158  1  0  0  0
 83159  1  0  0  0
 83160  1  0  0  0
 84 86  1  0  0  0
 84161  1  0  0  0
 84162  1  0  0  0
M  CHG  1  87  -1
M  ISO  4   1 100  68 101  83 101  86 100
M  END
> <chiral flag>
0

> <version>
0

> <s_m_source_file>
/data/baiqing/PycharmProjects/Reinvent-master-3.2/result/LINK_invent/BTK/process_docking_weight1_custom_product_contain_oxygen_bond_distance_aromatic_linkinvent_7_9_3/rearranged_h_0102.sdf

> <i_m_source_file_index>
17

> <r_mmod_Potential_Energy-OPLS-2005>
101.829299926758

> <r_mmod_Stretch_Energy-OPLS-2005>
119.045906066895

> <r_mmod_Bend_Energy-OPLS-2005>
175.979141235352

> <r_mmod_Torsional_Energy-OPLS-2005>
335.721221923828

> <r_mmod_Improper_Torsional_Energy-OPLS-2005>
5.81634855270386

> <r_mmod_Van_der_Waal_Energy-OPLS-2005>
189.391403198242

> <r_mmod_Electrostatic_Energy-OPLS-2005>
-287.258728027344

> <r_mmod_Solvation_Energy-OPLS-2005>
-486.143310546875

> <b_mmod_Minimization_Converged-OPLS-2005>
0

> <r_mmod_RMS_Derivative-OPLS-2005>
4.65238094329834

$$$$
17
                    3D
 Structure written by MMmdl.
157165  0  0  1  0            999 V2000
  -30.6981  -14.6458   20.5788 C   0  0  0  0  0  0
  -30.4267  -12.4212   19.4666 C   0  0  0  0  0  0
  -29.5089  -12.5274   18.2298 C   0  0  0  0  0  0
  -28.0352  -12.3380   18.6328 C   0  0  0  0  0  0
  -27.6455  -13.2144   19.8473 C   0  0  2  0  0  0
  -28.6817  -13.1054   20.9827 C   0  0  0  0  0  0
  -25.2503  -13.8121   20.5657 C   0  0  0  0  0  0
  -24.1794  -13.0392   20.9182 C   0  0  0  0  0  0
  -24.6375  -11.6875   20.8715 C   0  0  0  0  0  0
  -23.9048  -10.4268   21.0399 C   0  0  0  0  0  0
  -24.3600   -9.4192   21.9176 C   0  0  0  0  0  0
  -23.6273   -8.2237   22.0756 C   0  0  0  0  0  0
  -22.4256   -8.0275   21.3548 C   0  0  0  0  0  0
  -21.9891   -9.0253   20.4655 C   0  0  0  0  0  0
  -22.7221  -10.2124   20.3053 C   0  0  0  0  0  0
  -21.6850   -6.0729   22.5278 C   0  0  0  0  0  0
  -21.4010   -6.5631   23.8209 C   0  0  0  0  0  0
  -21.3663   -5.6787   24.9173 C   0  0  0  0  0  0
  -21.6051   -4.3052   24.7223 C   0  0  0  0  0  0
  -21.8820   -3.8143   23.4346 C   0  0  0  0  0  0
  -21.9185   -4.6958   22.3402 C   0  0  0  0  0  0
  -22.7818  -13.5196   21.1866 C   0  0  0  0  0  0
  -22.1656   -4.2147   21.0980 F   0  0  0  0  0  0
  -21.5628   -3.4533   25.7736 F   0  0  0  0  0  0
  -30.0102  -13.4543   20.4431 N   0  0  0  0  0  0
  -26.2928  -12.9312   20.3205 N   0  0  0  0  0  0
  -25.9290  -11.6471   20.5678 N   0  0  0  0  0  0
  -22.0477  -12.8197   22.0440 N   0  0  0  0  0  0
  -25.4138  -15.1835   20.4098 N   0  0  0  0  0  0
  -31.7941  -14.7932   20.0287 O   0  0  0  0  0  0
  -21.6631   -6.8869   21.4239 O   0  0  0  0  0  0
  -22.3503  -14.5503   20.6722 O   0  0  0  0  0  0
  -24.6269  -31.8597   23.2046 C   0  0  0  0  0  0
  -25.9119  -32.4773   23.8377 C   0  0  1  0  0  0
  -27.2290  -27.3185   20.1082 C   0  0  0  0  0  0
  -25.5937  -33.8580   24.2307 N   0  0  0  0  0  0
  -23.4207  -30.4848   21.5453 C   0  0  2  0  0  0
  -24.8691  -28.9435   20.1099 C   0  0  0  0  0  0
  -22.7486  -29.4623   22.4927 C   0  0  0  0  0  0
  -18.0284  -28.1366   22.8474 C   0  0  0  0  0  0
  -24.1493  -36.7293   23.2639 C   0  0  0  0  0  0
  -25.9641  -30.7884   21.3794 C   0  0  0  0  0  0
  -26.0380  -29.4169   20.7189 C   0  0  0  0  0  0
  -27.2189  -28.6151   20.7118 C   0  0  0  0  0  0
  -26.0347  -26.9044   19.4709 C   0  0  0  0  0  0
  -24.8699  -27.6918   19.4782 C   0  0  0  0  0  0
  -23.6373  -29.8233   20.1596 C   0  0  0  0  0  0
  -25.4112  -36.3087   24.0337 C   0  0  1  0  0  0
  -20.5891  -28.3685   23.1267 C   0  0  2  0  0  0
  -20.6775  -26.9408   22.5405 C   0  0  0  0  0  0
  -19.5762  -26.6379   21.5197 C   0  0  0  0  0  0
  -18.1938  -26.7911   22.1612 C   0  0  0  0  0  0
  -19.1536  -28.8843   23.2868 C   0  0  0  0  0  0
  -18.9464  -30.1438   23.8891 C   0  0  0  0  0  0
  -17.6466  -30.6576   24.0552 C   0  0  0  0  0  0
  -25.9039  -34.9448   23.5113 C   0  0  0  0  0  0
  -16.5356  -29.9069   23.6323 C   0  0  0  0  0  0
  -16.7269  -28.6484   23.0348 C   0  0  0  0  0  0
  -26.4505  -31.6580   25.0744 C   0  0  0  0  0  0
  -25.3751  -31.3745   26.1490 C   0  0  0  0  0  0
  -27.0326  -30.2987   24.6221 C   0  0  0  0  0  0
  -27.6082  -32.4299   25.7498 C   0  0  0  0  0  0
  -27.5571  -37.1820   24.8468 C   0  0  0  0  0  0
  -21.4204  -29.3038   22.3669 N   0  0  0  0  0  0
  -26.4301  -37.3765   23.9383 N   0  0  0  0  0  0
  -24.6888  -31.0614   22.0988 N   0  0  0  0  0  0
  -23.4211  -28.8151   23.3003 O   0  0  0  0  0  0
  -28.3443  -26.4623   20.1612 O   0  0  0  0  0  0
  -26.5605  -34.8915   22.4680 O   0  0  0  0  0  0
  -23.5430  -32.1400   23.7368 O   0  0  0  0  0  0
  -30.9459  -19.4283   21.5605 C   0  0  0  0  0  0
  -31.0216  -18.0147   21.6873 C   0  0  0  0  0  0
  -29.2385  -19.1982   19.8985 C   0  0  0  0  0  0
  -29.3242  -17.7652   20.0056 C   0  0  0  0  0  0
  -30.0304  -20.0722   20.6939 C   0  0  0  0  0  0
  -30.1940  -17.1256   20.9475 C   0  0  0  0  0  0
  -29.1848  -23.9810   20.3633 C   0  0  0  0  0  0
  -28.4195  -16.9275   19.1271 C   0  0  0  0  0  0
  -30.0107  -15.4379   22.7484 C   0  0  0  0  0  0
  -28.9824  -22.4315   20.0744 C   0  0  0  0  0  0
  -28.1199  -25.0264   19.8479 C   0  0  0  0  0  0
  -29.9928  -21.5076   20.6842 N   0  0  0  0  0  0
  -30.1426  -15.6873   21.3013 N   0  0  0  0  0  0
  -30.1760  -24.3543   21.0019 O   0  0  0  0  0  0
  -31.4713  -12.5246   19.1698 H   0  0  0  0  0  0
  -30.3459  -11.4290   19.9143 H   0  0  0  0  0  0
  -29.7903  -11.7827   17.4846 H   0  0  0  0  0  0
  -29.6415  -13.5016   17.7552 H   0  0  0  0  0  0
  -27.8888  -11.2841   18.8737 H   0  0  0  0  0  0
  -27.3829  -12.5526   17.7858 H   0  0  0  0  0  0
  -27.6549  -14.2406   19.4903 H   0  0  0  0  0  0
  -28.6979  -12.0952   21.3951 H   0  0  0  0  0  0
  -28.3598  -13.7546   21.7922 H   0  0  0  0  0  0
  -25.2760   -9.5673   22.4720 H   0  0  0  0  0  0
  -24.0000   -7.4624   22.7467 H   0  0  0  0  0  0
  -21.0824   -8.8763   19.8956 H   0  0  0  0  0  0
  -22.3684  -10.9649   19.6148 H   0  0  0  0  0  0
  -21.2003   -7.6138   23.9701 H   0  0  0  0  0  0
  -21.1485   -6.0524   25.9074 H   0  0  0  0  0  0
  -22.0595   -2.7608   23.2844 H   0  0  0  0  0  0
  -22.4087  -11.9847   22.4810 H   0  0  0  0  0  0
  -21.1101  -13.1233   22.2674 H   0  0  0  0  0  0
  -24.6479  -15.8369   20.5298 H   0  0  0  0  0  0
  -26.2691  -15.6250   20.1030 H   0  0  0  0  0  0
  -26.7181  -32.5445   23.1120 H   0  0  0  0  0  0
  -25.0120  -33.9731   25.0477 H   0  0  0  0  0  0
  -22.7141  -31.3057   21.4031 H   0  0  0  0  0  0
  -23.3720  -35.9669   23.3388 H   0  0  0  0  0  0
  -24.3559  -36.8808   22.2034 H   0  0  0  0  0  0
  -23.7321  -37.6559   23.6586 H   0  0  0  0  0  0
  -26.1018  -31.5533   20.6143 H   0  0  0  0  0  0
  -26.8412  -30.8305   22.0131 H   0  0  0  0  0  0
  -28.1132  -28.9732   21.2031 H   0  0  0  0  0  0
  -25.9650  -25.9554   18.9627 H   0  0  0  0  0  0
  -23.9762  -27.3247   18.9918 H   0  0  0  0  0  0
  -23.7585  -30.6002   19.4040 H   0  0  0  0  0  0
  -22.7587  -29.2522   19.8566 H   0  0  0  0  0  0
  -25.1300  -36.1943   25.0834 H   0  0  0  0  0  0
  -20.9976  -28.3253   24.1390 H   0  0  0  0  0  0
  -20.5650  -26.2298   23.3600 H   0  0  0  0  0  0
  -21.6642  -26.7435   22.1210 H   0  0  0  0  0  0
  -19.6929  -25.6286   21.1231 H   0  0  0  0  0  0
  -19.6704  -27.3183   20.6715 H   0  0  0  0  0  0
  -17.4212  -26.6647   21.4010 H   0  0  0  0  0  0
  -18.0359  -26.0055   22.9016 H   0  0  0  0  0  0
  -19.7938  -30.7248   24.2273 H   0  0  0  0  0  0
  -17.5021  -31.6250   24.5154 H   0  0  0  0  0  0
  -15.5352  -30.2972   23.7645 H   0  0  0  0  0  0
  -15.8663  -28.0794   22.7075 H   0  0  0  0  0  0
  -24.5876  -30.7148   25.7833 H   0  0  0  0  0  0
  -24.9008  -32.2927   26.4958 H   0  0  0  0  0  0
  -25.8077  -30.8885   27.0244 H   0  0  0  0  0  0
  -26.2898  -29.6755   24.1227 H   0  0  0  0  0  0
  -27.3972  -29.7234   25.4745 H   0  0  0  0  0  0
  -27.8803  -30.4237   23.9479 H   0  0  0  0  0  0
  -27.2707  -33.3597   26.2091 H   0  0  0  0  0  0
  -28.3875  -32.6859   25.0306 H   0  0  0  0  0  0
  -28.0773  -31.8418   26.5400 H   0  0  0  0  0  0
  -28.2640  -38.0060   24.7404 H   0  0  0  0  0  0
  -28.1006  -36.2582   24.6413 H   0  0  0  0  0  0
  -27.2276  -37.1633   25.8874 H   0  0  0  0  0  0
  -20.9380  -29.8765   21.6885 H   0  0  0  0  0  0
  -26.0187  -38.2858   24.1305 H   0  0  0  0  0  0
  -31.6002  -20.0240   22.1804 H   0  0  0  0  0  0
  -31.7279  -17.6234   22.4034 H   0  0  0  0  0  0
  -28.5376  -19.6309   19.1983 H   0  0  0  0  0  0
  -27.9163  -17.5309   18.3697 H   0  0  0  0  0  0
  -27.6584  -16.4612   19.7464 H   0  0  0  0  0  0
  -28.9885  -16.1530   18.6105 H   0  0  0  0  0  0
  -29.0580  -15.8340   23.1014 H   0  0  0  0  0  0
  -30.8017  -15.9156   23.3246 H   0  0  0  0  0  0
  -30.0525  -14.3840   23.0274 H   0  0  0  0  0  0
  -28.9877  -22.2917   18.9931 H   0  0  0  0  0  0
  -27.9855  -22.1506   20.4167 H   0  0  0  0  0  0
  -27.1688  -24.7076   20.2746 H   0  0  0  0  0  0
  -28.0385  -24.9167   18.7659 H   0  0  0  0  0  0
  -30.6579  -21.9967   21.2815 H   0  0  0  0  0  0
  1 25  1  0  0  0
  1 30  2  0  0  0
  1 83  1  0  0  0
  2  3  1  0  0  0
  2 25  1  0  0  0
  2 85  1  0  0  0
  2 86  1  0  0  0
  3  4  1  0  0  0
  3 87  1  0  0  0
  3 88  1  0  0  0
  4  5  1  0  0  0
  4 89  1  0  0  0
  4 90  1  0  0  0
  5  6  1  0  0  0
  5 26  1  0  0  0
  5 91  1  0  0  0
  6 25  1  0  0  0
  6 92  1  0  0  0
  6 93  1  0  0  0
  7  8  2  0  0  0
  7 26  1  0  0  0
  7 29  1  0  0  0
  8  9  1  0  0  0
  8 22  1  0  0  0
  9 10  1  0  0  0
  9 27  2  0  0  0
 10 11  2  0  0  0
 10 15  1  0  0  0
 11 12  1  0  0  0
 11 94  1  0  0  0
 12 13  2  0  0  0
 12 95  1  0  0  0
 13 14  1  0  0  0
 13 31  1  0  0  0
 14 15  2  0  0  0
 14 96  1  0  0  0
 15 97  1  0  0  0
 16 17  2  0  0  0
 16 21  1  0  0  0
 16 31  1  0  0  0
 17 18  1  0  0  0
 17 98  1  0  0  0
 18 19  2  0  0  0
 18 99  1  0  0  0
 19 20  1  0  0  0
 19 24  1  0  0  0
 20 21  2  0  0  0
 20100  1  0  0  0
 21 23  1  0  0  0
 22 28  1  0  0  0
 22 32  2  0  0  0
 26 27  1  0  0  0
 28101  1  0  0  0
 28102  1  0  0  0
 29103  1  0  0  0
 29104  1  0  0  0
 33 34  1  0  0  0
 33 66  1  0  0  0
 33 70  2  0  0  0
 34 36  1  0  0  0
 34 59  1  0  0  0
 34105  1  0  0  0
 35 44  2  0  0  0
 35 45  1  0  0  0
 35 68  1  0  0  0
 36 56  1  0  0  0
 36106  1  0  0  0
 37 39  1  0  0  0
 37 47  1  0  0  0
 37 66  1  0  0  0
 37107  1  0  0  0
 38 43  2  0  0  0
 38 46  1  0  0  0
 38 47  1  0  0  0
 39 64  1  0  0  0
 39 67  2  0  0  0
 40 52  1  0  0  0
 40 53  2  0  0  0
 40 58  1  0  0  0
 41108  1  0  0  0
 41109  1  0  0  0
 41110  1  0  0  0
 41 48  1  0  0  0
 42 43  1  0  0  0
 42 66  1  0  0  0
 42111  1  0  0  0
 42112  1  0  0  0
 43 44  1  0  0  0
 44113  1  0  0  0
 45 46  2  0  0  0
 45114  1  0  0  0
 46115  1  0  0  0
 47116  1  0  0  0
 47117  1  0  0  0
 48 56  1  0  0  0
 48 65  1  0  0  0
 48118  1  0  0  0
 49 50  1  0  0  0
 49 53  1  0  0  0
 49 64  1  0  0  0
 49119  1  0  0  0
 50 51  1  0  0  0
 50120  1  0  0  0
 50121  1  0  0  0
 51 52  1  0  0  0
 51122  1  0  0  0
 51123  1  0  0  0
 52124  1  0  0  0
 52125  1  0  0  0
 53 54  1  0  0  0
 54 55  2  0  0  0
 54126  1  0  0  0
 55 57  1  0  0  0
 55127  1  0  0  0
 56 69  2  0  0  0
 57 58  2  0  0  0
 57128  1  0  0  0
 58129  1  0  0  0
 59 60  1  0  0  0
 59 61  1  0  0  0
 59 62  1  0  0  0
 60130  1  0  0  0
 60131  1  0  0  0
 60132  1  0  0  0
 61133  1  0  0  0
 61134  1  0  0  0
 61135  1  0  0  0
 62136  1  0  0  0
 62137  1  0  0  0
 62138  1  0  0  0
 63 65  1  0  0  0
 63139  1  0  0  0
 63140  1  0  0  0
 63141  1  0  0  0
 64142  1  0  0  0
 65143  1  0  0  0
 68 81  1  0  0  0
 71 72  2  0  0  0
 71 75  1  0  0  0
 71144  1  0  0  0
 72 76  1  0  0  0
 72145  1  0  0  0
 73 74  1  0  0  0
 73 75  2  0  0  0
 73146  1  0  0  0
 74 76  2  0  0  0
 74 78  1  0  0  0
 75 82  1  0  0  0
 76 83  1  0  0  0
 77 80  1  0  0  0
 77 81  1  0  0  0
 77 84  2  0  0  0
 78147  1  0  0  0
 78148  1  0  0  0
 78149  1  0  0  0
 79 83  1  0  0  0
 79150  1  0  0  0
 79151  1  0  0  0
 79152  1  0  0  0
 80 82  1  0  0  0
 80153  1  0  0  0
 80154  1  0  0  0
 81155  1  0  0  0
 81156  1  0  0  0
 82157  1  0  0  0
M  ISO  4   1 100  68 101  81 101  83 100
M  END
> <chiral flag>
0

> <version>
0

> <s_m_source_file>
/data/baiqing/PycharmProjects/Reinvent-master-3.2/result/LINK_invent/BTK/process_docking_weight1_custom_product_contain_oxygen_bond_distance_aromatic_linkinvent_7_9_3/rearranged_h_0102.sdf

> <i_m_source_file_index>
18

> <r_mmod_Potential_Energy-OPLS-2005>
238.546844482422

> <r_mmod_Stretch_Energy-OPLS-2005>
90.1366729736328

> <r_mmod_Bend_Energy-OPLS-2005>
159.409408569336

> <r_mmod_Torsional_Energy-OPLS-2005>
285.152648925781

> <r_mmod_Improper_Torsional_Energy-OPLS-2005>
4.59082889556885

> <r_mmod_Van_der_Waal_Energy-OPLS-2005>
148.892120361328

> <r_mmod_Electrostatic_Energy-OPLS-2005>
-270.189239501953

> <r_mmod_Solvation_Energy-OPLS-2005>
-229.192596435547

> <b_mmod_Minimization_Converged-OPLS-2005>
0

> <r_mmod_RMS_Derivative-OPLS-2005>
1.92521810531616

$$$$
18
                    3D
 Structure written by MMmdl.
156164  0  0  1  0            999 V2000
  -30.3396  -15.4495   20.4104 C   0  0  0  0  0  0
  -30.4138  -12.9477   19.5629 C   0  0  0  0  0  0
  -29.5356  -12.6476   18.3143 C   0  0  0  0  0  0
  -28.1015  -12.2889   18.7285 C   0  0  0  0  0  0
  -27.5933  -13.2736   19.7993 C   0  0  2  0  0  0
  -28.5912  -13.4953   20.9461 C   0  0  0  0  0  0
  -25.2318  -13.8230   20.5610 C   0  0  0  0  0  0
  -24.1713  -13.0441   20.9164 C   0  0  0  0  0  0
  -24.6384  -11.6926   20.8729 C   0  0  0  0  0  0
  -23.9113  -10.4290   21.0424 C   0  0  0  0  0  0
  -24.3655   -9.4218   21.9216 C   0  0  0  0  0  0
  -23.6319   -8.2267   22.0780 C   0  0  0  0  0  0
  -22.4302   -8.0298   21.3561 C   0  0  0  0  0  0
  -21.9939   -9.0287   20.4674 C   0  0  0  0  0  0
  -22.7293  -10.2139   20.3076 C   0  0  0  0  0  0
  -21.6865   -6.0741   22.5291 C   0  0  0  0  0  0
  -21.4039   -6.5642   23.8226 C   0  0  0  0  0  0
  -21.3644   -5.6785   24.9182 C   0  0  0  0  0  0
  -21.6029   -4.3045   24.7220 C   0  0  0  0  0  0
  -21.8829   -3.8151   23.4337 C   0  0  0  0  0  0
  -21.9197   -4.6972   22.3405 C   0  0  0  0  0  0
  -22.7742  -13.5212   21.1832 C   0  0  0  0  0  0
  -22.1668   -4.2164   21.0989 F   0  0  0  0  0  0
  -21.5591   -3.4524   25.7728 F   0  0  0  0  0  0
  -29.8113  -14.0982   20.3657 N   0  0  0  0  0  0
  -26.2684  -12.9482   20.2984 N   0  0  0  0  0  0
  -25.9293  -11.6598   20.5604 N   0  0  0  0  0  0
  -22.0382  -12.8272   22.0389 N   0  0  0  0  0  0
  -25.4036  -15.1982   20.4113 N   0  0  0  0  0  0
  -31.5405  -15.4311   20.0774 O   0  0  0  0  0  0
  -21.6647   -6.8898   21.4256 O   0  0  0  0  0  0
  -22.3450  -14.5527   20.6650 O   0  0  0  0  0  0
  -24.6727  -31.8153   23.1660 C   0  0  0  0  0  0
  -25.9369  -32.4548   23.8149 C   0  0  1  0  0  0
  -27.2085  -26.8113   20.2258 C   0  0  0  0  0  0
  -25.6020  -33.8370   24.2057 N   0  0  0  0  0  0
  -23.4894  -30.4272   21.5155 C   0  0  2  0  0  0
  -24.9438  -28.7854   20.1306 C   0  0  0  0  0  0
  -22.7700  -29.4417   22.4745 C   0  0  0  0  0  0
  -18.0330  -28.1417   22.8457 C   0  0  0  0  0  0
  -24.1489  -36.7180   23.2633 C   0  0  0  0  0  0
  -26.0650  -30.5876   21.4096 C   0  0  0  0  0  0
  -26.1318  -29.1585   20.7730 C   0  0  0  0  0  0
  -27.2578  -28.1957   20.7946 C   0  0  0  0  0  0
  -25.9911  -26.6226   19.5306 C   0  0  0  0  0  0
  -24.9034  -27.5364   19.4918 C   0  0  0  0  0  0
  -23.7412  -29.7359   20.1465 C   0  0  0  0  0  0
  -25.4128  -36.2931   24.0291 C   0  0  1  0  0  0
  -20.5958  -28.3777   23.1174 C   0  0  2  0  0  0
  -20.6796  -26.9441   22.5415 C   0  0  0  0  0  0
  -19.5776  -26.6374   21.5208 C   0  0  0  0  0  0
  -18.1961  -26.7950   22.1606 C   0  0  0  0  0  0
  -19.1593  -28.8912   23.2801 C   0  0  0  0  0  0
  -18.9490  -30.1495   23.8845 C   0  0  0  0  0  0
  -17.6481  -30.6595   24.0558 C   0  0  0  0  0  0
  -25.9105  -34.9323   23.4995 C   0  0  0  0  0  0
  -16.5373  -29.9094   23.6334 C   0  0  0  0  0  0
  -16.7310  -28.6519   23.0344 C   0  0  0  0  0  0
  -26.4598  -31.6517   25.0702 C   0  0  0  0  0  0
  -25.3720  -31.3844   26.1366 C   0  0  0  0  0  0
  -27.0472  -30.2863   24.6486 C   0  0  0  0  0  0
  -27.6105  -32.4307   25.7505 C   0  0  0  0  0  0
  -27.5556  -37.1745   24.8455 C   0  0  0  0  0  0
  -21.4357  -29.3060   22.3520 N   0  0  0  0  0  0
  -26.4252  -37.3691   23.9420 N   0  0  0  0  0  0
  -24.7647  -30.9724   22.0842 N   0  0  0  0  0  0
  -23.4221  -28.7956   23.2987 O   0  0  0  0  0  0
  -28.1737  -25.6328   20.1940 O   0  0  0  0  0  0
  -26.5682  -34.8881   22.4568 O   0  0  0  0  0  0
  -23.5779  -32.1157   23.6720 O   0  0  0  0  0  0
  -29.0805  -19.7235   20.7667 C   0  0  0  0  0  0
  -29.5029  -19.8496   18.1290 C   0  0  0  0  0  0
  -28.8671  -21.1622   20.1575 C   0  0  0  0  0  0
  -29.6413  -18.5599   18.7331 C   0  0  0  0  0  0
  -29.4925  -18.3359   20.1360 C   0  0  0  0  0  0
  -29.1362  -21.0651   18.7755 C   0  0  0  0  0  0
  -28.2507  -22.6934   20.7375 C   0  0  0  0  0  0
  -27.9617  -24.1880   20.7521 C   0  0  0  0  0  0
  -29.8296  -17.4059   17.7610 C   0  0  0  0  0  0
  -30.0062  -17.3141   23.1487 C   0  0  0  0  0  0
  -29.0586  -16.7512   22.0891 C   0  0  0  0  0  0
  -28.9277  -22.1955   17.9901 N   0  0  0  0  0  0
  -29.6227  -16.7720   20.7278 N   0  0  0  0  0  0
  -31.4242  -13.1832   19.2268 H   0  0  0  0  0  0
  -30.5237  -12.0560   20.1803 H   0  0  0  0  0  0
  -29.9702  -11.8494   17.7132 H   0  0  0  0  0  0
  -29.5124  -13.5356   17.6780 H   0  0  0  0  0  0
  -28.1154  -11.2778   19.1369 H   0  0  0  0  0  0
  -27.4386  -12.2599   17.8624 H   0  0  0  0  0  0
  -27.5016  -14.2275   19.2778 H   0  0  0  0  0  0
  -28.7981  -12.5741   21.4914 H   0  0  0  0  0  0
  -28.0951  -14.1419   21.6550 H   0  0  0  0  0  0
  -25.2770   -9.5688   22.4819 H   0  0  0  0  0  0
  -23.9983   -7.4667   22.7533 H   0  0  0  0  0  0
  -21.0835   -8.8872   19.9013 H   0  0  0  0  0  0
  -22.3788  -10.9702   19.6191 H   0  0  0  0  0  0
  -21.2092   -7.6164   23.9747 H   0  0  0  0  0  0
  -21.1425   -6.0505   25.9083 H   0  0  0  0  0  0
  -22.0620   -2.7614   23.2841 H   0  0  0  0  0  0
  -22.3921  -11.9907   22.4819 H   0  0  0  0  0  0
  -21.1033  -13.1416   22.2591 H   0  0  0  0  0  0
  -24.6367  -15.8473   20.5447 H   0  0  0  0  0  0
  -26.2595  -15.6466   20.1095 H   0  0  0  0  0  0
  -26.7439  -32.5095   23.0856 H   0  0  0  0  0  0
  -25.0214  -33.9454   25.0238 H   0  0  0  0  0  0
  -22.8077  -31.2619   21.3389 H   0  0  0  0  0  0
  -23.3765  -35.9491   23.3229 H   0  0  0  0  0  0
  -24.3571  -36.8878   22.2054 H   0  0  0  0  0  0
  -23.7221  -37.6347   23.6723 H   0  0  0  0  0  0
  -26.2433  -31.3152   20.6155 H   0  0  0  0  0  0
  -26.9268  -30.6675   22.0600 H   0  0  0  0  0  0
  -28.1555  -28.4902   21.3192 H   0  0  0  0  0  0
  -25.8507  -25.6771   19.0261 H   0  0  0  0  0  0
  -24.0022  -27.2420   18.9735 H   0  0  0  0  0  0
  -23.9263  -30.5047   19.3957 H   0  0  0  0  0  0
  -22.8455  -29.2130   19.8064 H   0  0  0  0  0  0
  -25.1318  -36.1699   25.0777 H   0  0  0  0  0  0
  -21.0054  -28.3374   24.1288 H   0  0  0  0  0  0
  -20.5653  -26.2378   23.3657 H   0  0  0  0  0  0
  -21.6661  -26.7389   22.1220 H   0  0  0  0  0  0
  -19.6930  -25.6268   21.1264 H   0  0  0  0  0  0
  -19.6718  -27.3158   20.6716 H   0  0  0  0  0  0
  -17.4226  -26.6687   21.4012 H   0  0  0  0  0  0
  -18.0352  -26.0113   22.9026 H   0  0  0  0  0  0
  -19.7974  -30.7334   24.2181 H   0  0  0  0  0  0
  -17.5038  -31.6264   24.5175 H   0  0  0  0  0  0
  -15.5381  -30.2974   23.7695 H   0  0  0  0  0  0
  -15.8708  -28.0836   22.7057 H   0  0  0  0  0  0
  -24.5965  -30.7077   25.7753 H   0  0  0  0  0  0
  -24.8839  -32.3073   26.4526 H   0  0  0  0  0  0
  -25.7976  -30.9254   27.0304 H   0  0  0  0  0  0
  -26.3148  -29.6550   24.1454 H   0  0  0  0  0  0
  -27.3915  -29.7220   25.5165 H   0  0  0  0  0  0
  -27.9130  -30.3990   23.9966 H   0  0  0  0  0  0
  -27.2702  -33.3688   26.1909 H   0  0  0  0  0  0
  -28.4040  -32.6718   25.0414 H   0  0  0  0  0  0
  -28.0634  -31.8520   26.5569 H   0  0  0  0  0  0
  -28.2539  -38.0076   24.7513 H   0  0  0  0  0  0
  -28.1081  -36.2598   24.6245 H   0  0  0  0  0  0
  -27.2288  -37.1349   25.8864 H   0  0  0  0  0  0
  -20.9617  -29.8805   21.6698 H   0  0  0  0  0  0
  -26.0071  -38.2728   24.1479 H   0  0  0  0  0  0
  -28.8611  -19.6851   21.8244 H   0  0  0  0  0  0
  -29.6298  -19.8948   17.0558 H   0  0  0  0  0  0
  -27.6798  -22.3495   21.5896 H   0  0  0  0  0  0
  -27.3000  -24.3831   21.5841 H   0  0  0  0  0  0
  -29.4119  -17.6598   16.7852 H   0  0  0  0  0  0
  -29.2794  -16.5248   18.0874 H   0  0  0  0  0  0
  -30.8786  -17.1549   17.6091 H   0  0  0  0  0  0
  -29.4829  -17.3501   24.1024 H   0  0  0  0  0  0
  -30.3540  -18.3244   22.9443 H   0  0  0  0  0  0
  -30.8711  -16.6615   23.2698 H   0  0  0  0  0  0
  -28.1156  -17.2961   22.1078 H   0  0  0  0  0  0
  -28.8220  -15.7666   22.4617 H   0  0  0  0  0  0
  -28.7528  -22.0988   16.9947 H   0  0  0  0  0  0
  -28.4168  -22.9582   18.4275 H   0  0  0  0  0  0
  1 25  1  0  0  0
  1 30  2  0  0  0
  1 83  1  0  0  0
  2  3  1  0  0  0
  2 25  1  0  0  0
  2 84  1  0  0  0
  2 85  1  0  0  0
  3  4  1  0  0  0
  3 86  1  0  0  0
  3 87  1  0  0  0
  4  5  1  0  0  0
  4 88  1  0  0  0
  4 89  1  0  0  0
  5  6  1  0  0  0
  5 26  1  0  0  0
  5 90  1  0  0  0
  6 25  1  0  0  0
  6 91  1  0  0  0
  6 92  1  0  0  0
  7  8  2  0  0  0
  7 26  1  0  0  0
  7 29  1  0  0  0
  8  9  1  0  0  0
  8 22  1  0  0  0
  9 10  1  0  0  0
  9 27  2  0  0  0
 10 11  2  0  0  0
 10 15  1  0  0  0
 11 12  1  0  0  0
 11 93  1  0  0  0
 12 13  2  0  0  0
 12 94  1  0  0  0
 13 14  1  0  0  0
 13 31  1  0  0  0
 14 15  2  0  0  0
 14 95  1  0  0  0
 15 96  1  0  0  0
 16 17  2  0  0  0
 16 21  1  0  0  0
 16 31  1  0  0  0
 17 18  1  0  0  0
 17 97  1  0  0  0
 18 19  2  0  0  0
 18 98  1  0  0  0
 19 20  1  0  0  0
 19 24  1  0  0  0
 20 21  2  0  0  0
 20 99  1  0  0  0
 21 23  1  0  0  0
 22 28  1  0  0  0
 22 32  2  0  0  0
 26 27  1  0  0  0
 28100  1  0  0  0
 28101  1  0  0  0
 29102  1  0  0  0
 29103  1  0  0  0
 33 34  1  0  0  0
 33 66  1  0  0  0
 33 70  2  0  0  0
 34 36  1  0  0  0
 34 59  1  0  0  0
 34104  1  0  0  0
 35 44  2  0  0  0
 35 45  1  0  0  0
 35 68  1  0  0  0
 36 56  1  0  0  0
 36105  1  0  0  0
 37 39  1  0  0  0
 37 47  1  0  0  0
 37 66  1  0  0  0
 37106  1  0  0  0
 38 43  2  0  0  0
 38 46  1  0  0  0
 38 47  1  0  0  0
 39 64  1  0  0  0
 39 67  2  0  0  0
 40 52  1  0  0  0
 40 53  2  0  0  0
 40 58  1  0  0  0
 41107  1  0  0  0
 41108  1  0  0  0
 41109  1  0  0  0
 41 48  1  0  0  0
 42 43  1  0  0  0
 42 66  1  0  0  0
 42110  1  0  0  0
 42111  1  0  0  0
 43 44  1  0  0  0
 44112  1  0  0  0
 45 46  2  0  0  0
 45113  1  0  0  0
 46114  1  0  0  0
 47115  1  0  0  0
 47116  1  0  0  0
 48 56  1  0  0  0
 48 65  1  0  0  0
 48117  1  0  0  0
 49 50  1  0  0  0
 49 53  1  0  0  0
 49 64  1  0  0  0
 49118  1  0  0  0
 50 51  1  0  0  0
 50119  1  0  0  0
 50120  1  0  0  0
 51 52  1  0  0  0
 51121  1  0  0  0
 51122  1  0  0  0
 52123  1  0  0  0
 52124  1  0  0  0
 53 54  1  0  0  0
 54 55  2  0  0  0
 54125  1  0  0  0
 55 57  1  0  0  0
 55126  1  0  0  0
 56 69  2  0  0  0
 57 58  2  0  0  0
 57127  1  0  0  0
 58128  1  0  0  0
 59 60  1  0  0  0
 59 61  1  0  0  0
 59 62  1  0  0  0
 60129  1  0  0  0
 60130  1  0  0  0
 60131  1  0  0  0
 61132  1  0  0  0
 61133  1  0  0  0
 61134  1  0  0  0
 62135  1  0  0  0
 62136  1  0  0  0
 62137  1  0  0  0
 63 65  1  0  0  0
 63138  1  0  0  0
 63139  1  0  0  0
 63140  1  0  0  0
 64141  1  0  0  0
 65142  1  0  0  0
 68 78  1  0  0  0
 71 73  2  0  0  0
 71 75  1  0  0  0
 71143  1  0  0  0
 72 74  1  0  0  0
 72 76  2  0  0  0
 72144  1  0  0  0
 73 76  1  0  0  0
 73 77  1  0  0  0
 74 75  2  0  0  0
 74 79  1  0  0  0
 75 83  1  0  0  0
 76 82  1  0  0  0
 77 78  2  0  0  0
 77145  1  0  0  0
 78146  1  0  0  0
 79147  1  0  0  0
 79148  1  0  0  0
 79149  1  0  0  0
 80 81  1  0  0  0
 80150  1  0  0  0
 80151  1  0  0  0
 80152  1  0  0  0
 81 83  1  0  0  0
 81153  1  0  0  0
 81154  1  0  0  0
 82155  1  0  0  0
 82156  1  0  0  0
M  ISO  4   1 100  68 101  78 101  83 100
M  END
> <chiral flag>
0

> <version>
0

> <s_m_source_file>
/data/baiqing/PycharmProjects/Reinvent-master-3.2/result/LINK_invent/BTK/process_docking_weight1_custom_product_contain_oxygen_bond_distance_aromatic_linkinvent_7_9_3/rearranged_h_0102.sdf

> <i_m_source_file_index>
19

> <r_mmod_Potential_Energy-OPLS-2005>
1956.36560058594

> <r_mmod_Stretch_Energy-OPLS-2005>
748.336303710938

> <r_mmod_Bend_Energy-OPLS-2005>
612.535949707031

> <r_mmod_Torsional_Energy-OPLS-2005>
296.820465087891

> <r_mmod_Improper_Torsional_Energy-OPLS-2005>
7.27898406982422

> <r_mmod_Van_der_Waal_Energy-OPLS-2005>
138.959091186523

> <r_mmod_Electrostatic_Energy-OPLS-2005>
-309.276947021484

> <r_mmod_Solvation_Energy-OPLS-2005>
-196.96142578125

> <b_mmod_Minimization_Converged-OPLS-2005>
0

> <r_mmod_RMS_Derivative-OPLS-2005>
5.66873693466187

$$$$
19
                    3D
 Structure written by MMmdl.
160169  0  0  1  0            999 V2000
  -30.6623  -14.6237   20.5868 C   0  0  0  0  0  0
  -30.4315  -12.4080   19.4601 C   0  0  0  0  0  0
  -29.5051  -12.5344   18.2317 C   0  0  0  0  0  0
  -28.0294  -12.3624   18.6397 C   0  0  0  0  0  0
  -27.6556  -13.2196   19.8771 C   0  0  2  0  0  0
  -28.6933  -13.0527   21.0079 C   0  0  0  0  0  0
  -25.2531  -13.8169   20.5647 C   0  0  0  0  0  0
  -24.1805  -13.0432   20.9155 C   0  0  0  0  0  0
  -24.6382  -11.6905   20.8724 C   0  0  0  0  0  0
  -23.9058  -10.4286   21.0389 C   0  0  0  0  0  0
  -24.3613   -9.4208   21.9174 C   0  0  0  0  0  0
  -23.6292   -8.2243   22.0753 C   0  0  0  0  0  0
  -22.4278   -8.0270   21.3540 C   0  0  0  0  0  0
  -21.9904   -9.0240   20.4643 C   0  0  0  0  0  0
  -22.7226  -10.2120   20.3047 C   0  0  0  0  0  0
  -21.6855   -6.0728   22.5279 C   0  0  0  0  0  0
  -21.4014   -6.5635   23.8210 C   0  0  0  0  0  0
  -21.3664   -5.6787   24.9174 C   0  0  0  0  0  0
  -21.6048   -4.3050   24.7223 C   0  0  0  0  0  0
  -21.8819   -3.8141   23.4343 C   0  0  0  0  0  0
  -21.9195   -4.6956   22.3401 C   0  0  0  0  0  0
  -22.7828  -13.5223   21.1826 C   0  0  0  0  0  0
  -22.1664   -4.2141   21.0977 F   0  0  0  0  0  0
  -21.5633   -3.4537   25.7738 F   0  0  0  0  0  0
  -30.0151  -13.4129   20.4642 N   0  0  0  0  0  0
  -26.2991  -12.9369   20.3371 N   0  0  0  0  0  0
  -25.9322  -11.6517   20.5777 N   0  0  0  0  0  0
  -22.0476  -12.8227   22.0393 N   0  0  0  0  0  0
  -25.4192  -15.1887   20.3979 N   0  0  0  0  0  0
  -31.7177  -14.8473   19.9826 O   0  0  0  0  0  0
  -21.6640   -6.8870   21.4240 O   0  0  0  0  0  0
  -22.3515  -14.5541   20.6693 O   0  0  0  0  0  0
  -24.6248  -31.8582   23.2023 C   0  0  0  0  0  0
  -25.9100  -32.4772   23.8359 C   0  0  1  0  0  0
  -27.2284  -27.3145   20.1143 C   0  0  0  0  0  0
  -25.5923  -33.8580   24.2285 N   0  0  0  0  0  0
  -23.4202  -30.4793   21.5431 C   0  0  2  0  0  0
  -24.8679  -28.9317   20.1078 C   0  0  0  0  0  0
  -22.7471  -29.4600   22.4928 C   0  0  0  0  0  0
  -18.0287  -28.1383   22.8483 C   0  0  0  0  0  0
  -24.1483  -36.7286   23.2641 C   0  0  0  0  0  0
  -25.9600  -30.7841   21.3770 C   0  0  0  0  0  0
  -26.0315  -29.4102   20.7208 C   0  0  0  0  0  0
  -27.2087  -28.6079   20.7218 C   0  0  0  0  0  0
  -26.0509  -26.8969   19.4581 C   0  0  0  0  0  0
  -24.8795  -27.6801   19.4697 C   0  0  0  0  0  0
  -23.6355  -29.8117   20.1582 C   0  0  0  0  0  0
  -25.4110  -36.3082   24.0331 C   0  0  1  0  0  0
  -20.5887  -28.3676   23.1290 C   0  0  2  0  0  0
  -20.6768  -26.9401   22.5406 C   0  0  0  0  0  0
  -19.5745  -26.6371   21.5213 C   0  0  0  0  0  0
  -18.1924  -26.7928   22.1623 C   0  0  0  0  0  0
  -19.1538  -28.8849   23.2884 C   0  0  0  0  0  0
  -18.9459  -30.1454   23.8897 C   0  0  0  0  0  0
  -17.6458  -30.6582   24.0562 C   0  0  0  0  0  0
  -25.9046  -34.9451   23.5105 C   0  0  0  0  0  0
  -16.5349  -29.9080   23.6337 C   0  0  0  0  0  0
  -16.7276  -28.6500   23.0353 C   0  0  0  0  0  0
  -26.4499  -31.6601   25.0742 C   0  0  0  0  0  0
  -25.3749  -31.3730   26.1480 C   0  0  0  0  0  0
  -27.0348  -30.3029   24.6208 C   0  0  0  0  0  0
  -27.6052  -32.4356   25.7510 C   0  0  0  0  0  0
  -27.5576  -37.1799   24.8470 C   0  0  0  0  0  0
  -21.4181  -29.3032   22.3682 N   0  0  0  0  0  0
  -26.4287  -37.3776   23.9415 N   0  0  0  0  0  0
  -24.6866  -31.0589   22.0971 N   0  0  0  0  0  0
  -23.4194  -28.8146   23.3011 O   0  0  0  0  0  0
  -28.3677  -26.5016   20.1987 O   0  0  0  0  0  0
  -26.5602  -34.8912   22.4664 O   0  0  0  0  0  0
  -23.5415  -32.1381   23.7350 O   0  0  0  0  0  0
  -30.1127  -17.9408   20.2593 C   0  0  0  0  0  0
  -29.6496  -19.2875   20.0356 C   0  0  0  0  0  0
  -28.1089  -19.0207   21.8364 C   0  0  0  0  0  0
  -29.5809  -17.0751   21.2682 C   0  0  0  0  0  0
  -28.6153  -19.8800   20.8207 C   0  0  0  0  0  0
  -28.5325  -17.6803   22.0408 C   0  0  0  0  0  0
  -26.6264  -21.2436   20.6449 C   0  0  0  0  0  0
  -28.6715  -22.4397   20.5111 C   0  0  0  0  0  0
  -30.1431  -15.6631   21.6343 C   0  0  0  0  0  0
  -25.8797  -22.4836   21.1350 C   0  0  0  0  0  0
  -26.4111  -23.7331   20.4565 C   0  0  0  0  0  0
  -27.9329  -23.8686   20.6035 C   0  0  2  0  0  0
  -28.4480  -25.0990   19.7137 C   0  0  0  0  0  0
  -30.2203  -15.3222   22.8562 N   0  0  0  0  0  0
  -27.9916  -21.2266   20.6237 N   0  0  0  0  0  0
  -27.8461  -16.9982   23.0523 N   0  0  0  0  0  0
  -25.9378  -20.2848   20.2713 O   0  0  0  0  0  0
  -29.8977  -22.4532   20.3570 O   0  0  0  0  0  0
  -31.4739  -12.5277   19.1603 H   0  0  0  0  0  0
  -30.3658  -11.4057   19.8870 H   0  0  0  0  0  0
  -29.7749  -11.7940   17.4775 H   0  0  0  0  0  0
  -29.6444  -13.5120   17.7678 H   0  0  0  0  0  0
  -27.8643  -11.3068   18.8605 H   0  0  0  0  0  0
  -27.3749  -12.6049   17.8014 H   0  0  0  0  0  0
  -27.6853  -14.2616   19.5591 H   0  0  0  0  0  0
  -28.7060  -12.0223   21.3666 H   0  0  0  0  0  0
  -28.4032  -13.6528   21.8688 H   0  0  0  0  0  0
  -25.2752   -9.5694   22.4749 H   0  0  0  0  0  0
  -24.0004   -7.4640   22.7476 H   0  0  0  0  0  0
  -21.0835   -8.8747   19.8951 H   0  0  0  0  0  0
  -22.3673  -10.9658   19.6160 H   0  0  0  0  0  0
  -21.2001   -7.6142   23.9712 H   0  0  0  0  0  0
  -21.1495   -6.0517   25.9078 H   0  0  0  0  0  0
  -22.0595   -2.7604   23.2843 H   0  0  0  0  0  0
  -22.4091  -11.9905   22.4815 H   0  0  0  0  0  0
  -21.1112  -13.1295   22.2621 H   0  0  0  0  0  0
  -26.2752  -15.6383   20.1003 H   0  0  0  0  0  0
  -24.6412  -15.8337   20.4777 H   0  0  0  0  0  0
  -26.7166  -32.5438   23.1108 H   0  0  0  0  0  0
  -25.0118  -33.9737   25.0464 H   0  0  0  0  0  0
  -22.7136  -31.2991   21.3979 H   0  0  0  0  0  0
  -23.3749  -35.9615   23.3306 H   0  0  0  0  0  0
  -24.3576  -36.8904   22.2056 H   0  0  0  0  0  0
  -23.7232  -37.6486   23.6659 H   0  0  0  0  0  0
  -26.0949  -31.5450   20.6065 H   0  0  0  0  0  0
  -26.8395  -30.8323   22.0075 H   0  0  0  0  0  0
  -28.0997  -28.9644   21.2190 H   0  0  0  0  0  0
  -26.0091  -25.9526   18.9405 H   0  0  0  0  0  0
  -23.9904  -27.3115   18.9773 H   0  0  0  0  0  0
  -23.7531  -30.5865   19.3994 H   0  0  0  0  0  0
  -22.7560  -29.2389   19.8585 H   0  0  0  0  0  0
  -25.1291  -36.1927   25.0822 H   0  0  0  0  0  0
  -20.9986  -28.3239   24.1406 H   0  0  0  0  0  0
  -20.5652  -26.2287   23.3602 H   0  0  0  0  0  0
  -21.6631  -26.7413   22.1206 H   0  0  0  0  0  0
  -19.6893  -25.6279   21.1241 H   0  0  0  0  0  0
  -19.6679  -27.3173   20.6738 H   0  0  0  0  0  0
  -17.4197  -26.6691   21.4018 H   0  0  0  0  0  0
  -18.0317  -26.0073   22.9024 H   0  0  0  0  0  0
  -19.7932  -30.7274   24.2266 H   0  0  0  0  0  0
  -17.5007  -31.6262   24.5158 H   0  0  0  0  0  0
  -15.5346  -30.2971   23.7672 H   0  0  0  0  0  0
  -15.8677  -28.0817   22.7075 H   0  0  0  0  0  0
  -24.5917  -30.7081   25.7824 H   0  0  0  0  0  0
  -24.8947  -32.2886   26.4936 H   0  0  0  0  0  0
  -25.8093  -30.8901   27.0241 H   0  0  0  0  0  0
  -26.2923  -29.6777   24.1231 H   0  0  0  0  0  0
  -27.4037  -29.7294   25.4723 H   0  0  0  0  0  0
  -27.8800  -30.4325   23.9444 H   0  0  0  0  0  0
  -27.2652  -33.3657   26.2077 H   0  0  0  0  0  0
  -28.3858  -32.6922   25.0339 H   0  0  0  0  0  0
  -28.0722  -31.8500   26.5436 H   0  0  0  0  0  0
  -28.2596  -38.0092   24.7511 H   0  0  0  0  0  0
  -28.1065  -36.2624   24.6298 H   0  0  0  0  0  0
  -27.2299  -37.1455   25.8875 H   0  0  0  0  0  0
  -20.9359  -29.8767   21.6904 H   0  0  0  0  0  0
  -26.0165  -38.2848   24.1417 H   0  0  0  0  0  0
  -30.9221  -17.5750   19.6439 H   0  0  0  0  0  0
  -30.1015  -19.8620   19.2383 H   0  0  0  0  0  0
  -27.3235  -19.3932   22.4799 H   0  0  0  0  0  0
  -25.9964  -22.5535   22.2176 H   0  0  0  0  0  0
  -24.8109  -22.3765   20.9421 H   0  0  0  0  0  0
  -25.9195  -24.5995   20.8994 H   0  0  0  0  0  0
  -26.1340  -23.7117   19.4014 H   0  0  0  0  0  0
  -28.1259  -24.1602   21.6361 H   0  0  0  0  0  0
  -28.0234  -25.0356   18.7119 H   0  0  0  0  0  0
  -29.5139  -24.9433   19.5458 H   0  0  0  0  0  0
  -29.8436  -16.0701   23.4322 H   0  0  0  0  0  0
  -26.9591  -17.3787   23.3661 H   0  0  0  0  0  0
  -27.8379  -15.9837   23.0278 H   0  0  0  0  0  0
  1 25  1  0  0  0
  1 30  2  0  0  0
  1 79  1  0  0  0
  2  3  1  0  0  0
  2 25  1  0  0  0
  2 89  1  0  0  0
  2 90  1  0  0  0
  3  4  1  0  0  0
  3 91  1  0  0  0
  3 92  1  0  0  0
  4  5  1  0  0  0
  4 93  1  0  0  0
  4 94  1  0  0  0
  5  6  1  0  0  0
  5 26  1  0  0  0
  5 95  1  0  0  0
  6 25  1  0  0  0
  6 96  1  0  0  0
  6 97  1  0  0  0
  7  8  2  0  0  0
  7 26  1  0  0  0
  7 29  1  0  0  0
  8  9  1  0  0  0
  8 22  1  0  0  0
  9 10  1  0  0  0
  9 27  2  0  0  0
 10 11  2  0  0  0
 10 15  1  0  0  0
 11 12  1  0  0  0
 11 98  1  0  0  0
 12 13  2  0  0  0
 12 99  1  0  0  0
 13 14  1  0  0  0
 13 31  1  0  0  0
 14 15  2  0  0  0
 14100  1  0  0  0
 15101  1  0  0  0
 16 17  2  0  0  0
 16 21  1  0  0  0
 16 31  1  0  0  0
 17 18  1  0  0  0
 17102  1  0  0  0
 18 19  2  0  0  0
 18103  1  0  0  0
 19 20  1  0  0  0
 19 24  1  0  0  0
 20 21  2  0  0  0
 20104  1  0  0  0
 21 23  1  0  0  0
 22 28  1  0  0  0
 22 32  2  0  0  0
 26 27  1  0  0  0
 28105  1  0  0  0
 28106  1  0  0  0
 29107  1  0  0  0
 29108  1  0  0  0
 33 34  1  0  0  0
 33 66  1  0  0  0
 33 70  2  0  0  0
 34 36  1  0  0  0
 34 59  1  0  0  0
 34109  1  0  0  0
 35 44  2  0  0  0
 35 45  1  0  0  0
 35 68  1  0  0  0
 36 56  1  0  0  0
 36110  1  0  0  0
 37 39  1  0  0  0
 37 47  1  0  0  0
 37 66  1  0  0  0
 37111  1  0  0  0
 38 43  2  0  0  0
 38 46  1  0  0  0
 38 47  1  0  0  0
 39 64  1  0  0  0
 39 67  2  0  0  0
 40 52  1  0  0  0
 40 53  2  0  0  0
 40 58  1  0  0  0
 41112  1  0  0  0
 41113  1  0  0  0
 41114  1  0  0  0
 41 48  1  0  0  0
 42 43  1  0  0  0
 42 66  1  0  0  0
 42115  1  0  0  0
 42116  1  0  0  0
 43 44  1  0  0  0
 44117  1  0  0  0
 45 46  2  0  0  0
 45118  1  0  0  0
 46119  1  0  0  0
 47120  1  0  0  0
 47121  1  0  0  0
 48 56  1  0  0  0
 48 65  1  0  0  0
 48122  1  0  0  0
 49 50  1  0  0  0
 49 53  1  0  0  0
 49 64  1  0  0  0
 49123  1  0  0  0
 50 51  1  0  0  0
 50124  1  0  0  0
 50125  1  0  0  0
 51 52  1  0  0  0
 51126  1  0  0  0
 51127  1  0  0  0
 52128  1  0  0  0
 52129  1  0  0  0
 53 54  1  0  0  0
 54 55  2  0  0  0
 54130  1  0  0  0
 55 57  1  0  0  0
 55131  1  0  0  0
 56 69  2  0  0  0
 57 58  2  0  0  0
 57132  1  0  0  0
 58133  1  0  0  0
 59 60  1  0  0  0
 59 61  1  0  0  0
 59 62  1  0  0  0
 60134  1  0  0  0
 60135  1  0  0  0
 60136  1  0  0  0
 61137  1  0  0  0
 61138  1  0  0  0
 61139  1  0  0  0
 62140  1  0  0  0
 62141  1  0  0  0
 62142  1  0  0  0
 63 65  1  0  0  0
 63143  1  0  0  0
 63144  1  0  0  0
 63145  1  0  0  0
 64146  1  0  0  0
 65147  1  0  0  0
 68 83  1  0  0  0
 71 72  2  0  0  0
 71 74  1  0  0  0
 71148  1  0  0  0
 72 75  1  0  0  0
 72149  1  0  0  0
 73 75  2  0  0  0
 73 76  1  0  0  0
 73150  1  0  0  0
 74 76  2  0  0  0
 74 79  1  0  0  0
 75 85  1  0  0  0
 76 86  1  0  0  0
 77 80  1  0  0  0
 77 85  1  0  0  0
 77 87  2  0  0  0
 78 82  1  0  0  0
 78 85  1  0  0  0
 78 88  2  0  0  0
 79 84  2  0  0  0
 80 81  1  0  0  0
 80151  1  0  0  0
 80152  1  0  0  0
 81 82  1  0  0  0
 81153  1  0  0  0
 81154  1  0  0  0
 82 83  1  0  0  0
 82155  1  0  0  0
 83156  1  0  0  0
 83157  1  0  0  0
 84158  1  0  0  0
 86159  1  0  0  0
 86160  1  0  0  0
M  ISO  4   1 100  68 101  79 100  83 101
M  END
> <chiral flag>
0

> <version>
0

> <s_m_source_file>
/data/baiqing/PycharmProjects/Reinvent-master-3.2/result/LINK_invent/BTK/process_docking_weight1_custom_product_contain_oxygen_bond_distance_aromatic_linkinvent_7_9_3/rearranged_h_0102.sdf

> <i_m_source_file_index>
20

> <r_mmod_Potential_Energy-OPLS-2005>
399.939666748047

> <r_mmod_Stretch_Energy-OPLS-2005>
116.814483642578

> <r_mmod_Bend_Energy-OPLS-2005>
185.769561767578

> <r_mmod_Torsional_Energy-OPLS-2005>
266.255035400391

> <r_mmod_Improper_Torsional_Energy-OPLS-2005>
7.38940763473511

> <r_mmod_Van_der_Waal_Energy-OPLS-2005>
169.229751586914

> <r_mmod_Electrostatic_Energy-OPLS-2005>
-164.681640625

> <r_mmod_Solvation_Energy-OPLS-2005>
-227.556869506836

> <b_mmod_Minimization_Converged-OPLS-2005>
0

> <r_mmod_RMS_Derivative-OPLS-2005>
1.18923759460449

$$$$
20
                    3D
 Structure written by MMmdl.
163172  0  0  1  0            999 V2000
  -30.7662  -14.3899   20.7080 C   0  0  0  0  0  0
  -30.4246  -12.3114   19.4087 C   0  0  0  0  0  0
  -29.4908  -12.5347   18.2060 C   0  0  0  0  0  0
  -28.0185  -12.3689   18.6254 C   0  0  0  0  0  0
  -27.6671  -13.2044   19.8835 C   0  0  2  0  0  0
  -28.7030  -12.9708   21.0024 C   0  0  0  0  0  0
  -25.2609  -13.8189   20.5686 C   0  0  0  0  0  0
  -24.1849  -13.0442   20.9188 C   0  0  0  0  0  0
  -24.6402  -11.6914   20.8747 C   0  0  0  0  0  0
  -23.9057  -10.4298   21.0399 C   0  0  0  0  0  0
  -24.3618   -9.4225   21.9183 C   0  0  0  0  0  0
  -23.6311   -8.2249   22.0760 C   0  0  0  0  0  0
  -22.4285   -8.0284   21.3555 C   0  0  0  0  0  0
  -21.9902   -9.0245   20.4646 C   0  0  0  0  0  0
  -22.7220  -10.2137   20.3046 C   0  0  0  0  0  0
  -21.6873   -6.0731   22.5290 C   0  0  0  0  0  0
  -21.4021   -6.5625   23.8219 C   0  0  0  0  0  0
  -21.3659   -5.6782   24.9175 C   0  0  0  0  0  0
  -21.6040   -4.3048   24.7223 C   0  0  0  0  0  0
  -21.8815   -3.8135   23.4343 C   0  0  0  0  0  0
  -21.9199   -4.6955   22.3401 C   0  0  0  0  0  0
  -22.7869  -13.5236   21.1850 C   0  0  0  0  0  0
  -22.1662   -4.2132   21.0983 F   0  0  0  0  0  0
  -21.5633   -3.4533   25.7739 F   0  0  0  0  0  0
  -30.0441  -13.2638   20.4673 N   0  0  0  0  0  0
  -26.3052  -12.9344   20.3399 N   0  0  0  0  0  0
  -25.9332  -11.6511   20.5793 N   0  0  0  0  0  0
  -22.0499  -12.8229   22.0413 N   0  0  0  0  0  0
  -25.4349  -15.1909   20.4100 N   0  0  0  0  0  0
  -31.7962  -14.6672   20.0854 O   0  0  0  0  0  0
  -21.6652   -6.8874   21.4254 O   0  0  0  0  0  0
  -22.3526  -14.5535   20.6710 O   0  0  0  0  0  0
  -24.6149  -31.8705   23.2116 C   0  0  0  0  0  0
  -25.9043  -32.4832   23.8405 C   0  0  1  0  0  0
  -27.2434  -27.4427   20.1024 C   0  0  0  0  0  0
  -25.5920  -33.8635   24.2359 N   0  0  0  0  0  0
  -23.4032  -30.4911   21.5539 C   0  0  2  0  0  0
  -24.8526  -28.9547   20.1175 C   0  0  0  0  0  0
  -22.7433  -29.4666   22.5042 C   0  0  0  0  0  0
  -18.0296  -28.1380   22.8548 C   0  0  0  0  0  0
  -24.1491  -36.7297   23.2644 C   0  0  0  0  0  0
  -25.9306  -30.8402   21.3588 C   0  0  0  0  0  0
  -26.0116  -29.4707   20.7139 C   0  0  0  0  0  0
  -27.2119  -28.7231   20.7003 C   0  0  0  0  0  0
  -26.0732  -26.9372   19.5031 C   0  0  0  0  0  0
  -24.8802  -27.6886   19.5052 C   0  0  0  0  0  0
  -23.6102  -29.8198   20.1692 C   0  0  0  0  0  0
  -25.4108  -36.3115   24.0355 C   0  0  1  0  0  0
  -20.5888  -28.3652   23.1383 C   0  0  2  0  0  0
  -20.6791  -26.9404   22.5453 C   0  0  0  0  0  0
  -19.5747  -26.6408   21.5276 C   0  0  0  0  0  0
  -18.1927  -26.7945   22.1668 C   0  0  0  0  0  0
  -19.1534  -28.8835   23.2957 C   0  0  0  0  0  0
  -18.9438  -30.1457   23.8941 C   0  0  0  0  0  0
  -17.6423  -30.6578   24.0575 C   0  0  0  0  0  0
  -25.9038  -34.9486   23.5144 C   0  0  0  0  0  0
  -16.5331  -29.9072   23.6323 C   0  0  0  0  0  0
  -16.7273  -28.6493   23.0353 C   0  0  0  0  0  0
  -26.4469  -31.6580   25.0697 C   0  0  0  0  0  0
  -25.3747  -31.3646   26.1434 C   0  0  0  0  0  0
  -27.0267  -30.3044   24.5986 C   0  0  0  0  0  0
  -27.6068  -32.4272   25.7443 C   0  0  0  0  0  0
  -27.5574  -37.1806   24.8478 C   0  0  0  0  0  0
  -21.4164  -29.2998   22.3775 N   0  0  0  0  0  0
  -26.4296  -37.3789   23.9419 N   0  0  0  0  0  0
  -24.6679  -31.0830   22.0996 N   0  0  0  0  0  0
  -23.4212  -28.8216   23.3074 O   0  0  0  0  0  0
  -28.4125  -26.7218   20.0284 O   0  0  0  0  0  0
  -26.5590  -34.8922   22.4698 O   0  0  0  0  0  0
  -23.5346  -32.1444   23.7530 O   0  0  0  0  0  0
  -30.8825  -18.6972   21.7472 C   0  0  0  0  0  0
  -29.3304  -17.7589   23.3778 C   0  0  0  0  0  0
  -29.3482  -20.1623   22.9441 C   0  0  0  0  0  0
  -30.3915  -17.5791   22.4665 C   0  0  0  0  0  0
  -30.3639  -19.9987   21.9780 C   0  0  0  0  0  0
  -28.8198  -19.0480   23.6212 C   0  0  0  0  0  0
  -28.2231  -23.3037   19.7369 C   0  0  0  0  0  0
  -28.7882  -21.9422   20.2126 C   0  0  0  0  0  0
  -30.1906  -23.5924   21.1290 C   0  0  0  0  0  0
  -29.2002  -24.3866   20.2531 C   0  0  2  0  0  0
  -31.0912  -16.2228   22.3761 C   0  0  0  0  0  0
  -31.0233  -21.2227   21.3242 C   0  0  0  0  0  0
  -28.5427  -25.6214   20.9400 C   0  0  0  0  0  0
  -30.3320  -15.1539   21.7245 N   0  0  0  0  0  0
  -30.1904  -22.2206   20.5799 N   0  3  1  0  0  0
  -27.8448  -19.2230   24.5432 F   0  0  0  0  0  0
  -31.4658  -12.4232   19.0992 H   0  0  0  0  0  0
  -30.3429  -11.2874   19.7797 H   0  0  0  0  0  0
  -29.7305  -11.8372   17.4032 H   0  0  0  0  0  0
  -29.6468  -13.5378   17.8062 H   0  0  0  0  0  0
  -27.8488  -11.3125   18.8330 H   0  0  0  0  0  0
  -27.3590  -12.6314   17.7984 H   0  0  0  0  0  0
  -27.7172  -14.2540   19.5961 H   0  0  0  0  0  0
  -28.6709  -11.9330   21.3368 H   0  0  0  0  0  0
  -28.4433  -13.5644   21.8785 H   0  0  0  0  0  0
  -25.2759   -9.5722   22.4759 H   0  0  0  0  0  0
  -24.0037   -7.4632   22.7475 H   0  0  0  0  0  0
  -21.0822   -8.8738   19.8953 H   0  0  0  0  0  0
  -22.3657  -10.9672   19.6147 H   0  0  0  0  0  0
  -21.2006   -7.6133   23.9726 H   0  0  0  0  0  0
  -21.1502   -6.0509   25.9090 H   0  0  0  0  0  0
  -22.0598   -2.7596   23.2852 H   0  0  0  0  0  0
  -22.4077  -11.9858   22.4785 H   0  0  0  0  0  0
  -21.1125  -13.1286   22.2633 H   0  0  0  0  0  0
  -24.6805  -15.8562   20.5406 H   0  0  0  0  0  0
  -26.2970  -15.6280   20.1058 H   0  0  0  0  0  0
  -26.7126  -32.5547   23.1184 H   0  0  0  0  0  0
  -25.0105  -33.9827   25.0523 H   0  0  0  0  0  0
  -22.6867  -31.3037   21.4178 H   0  0  0  0  0  0
  -23.3752  -35.9627   23.3338 H   0  0  0  0  0  0
  -24.3595  -36.8856   22.2048 H   0  0  0  0  0  0
  -23.7231  -37.6517   23.6618 H   0  0  0  0  0  0
  -26.0337  -31.6017   20.5841 H   0  0  0  0  0  0
  -26.8240  -30.9034   21.9685 H   0  0  0  0  0  0
  -28.1107  -29.1306   21.1406 H   0  0  0  0  0  0
  -26.0875  -25.9710   19.0197 H   0  0  0  0  0  0
  -23.9978  -27.2902   19.0234 H   0  0  0  0  0  0
  -23.7033  -30.5936   19.4062 H   0  0  0  0  0  0
  -22.7344  -29.2349   19.8834 H   0  0  0  0  0  0
  -25.1274  -36.1995   25.0848 H   0  0  0  0  0  0
  -20.9998  -28.3207   24.1495 H   0  0  0  0  0  0
  -20.5798  -26.2243   23.3617 H   0  0  0  0  0  0
  -21.6641  -26.7511   22.1164 H   0  0  0  0  0  0
  -19.6909  -25.6348   21.1242 H   0  0  0  0  0  0
  -19.6668  -27.3276   20.6855 H   0  0  0  0  0  0
  -17.4224  -26.6780   21.4035 H   0  0  0  0  0  0
  -18.0241  -26.0061   22.9013 H   0  0  0  0  0  0
  -19.7886  -30.7308   24.2310 H   0  0  0  0  0  0
  -17.4942  -31.6261   24.5162 H   0  0  0  0  0  0
  -15.5316  -30.2944   23.7632 H   0  0  0  0  0  0
  -15.8697  -28.0814   22.7014 H   0  0  0  0  0  0
  -24.5977  -30.6931   25.7751 H   0  0  0  0  0  0
  -24.8857  -32.2769   26.4860 H   0  0  0  0  0  0
  -25.8106  -30.8837   27.0197 H   0  0  0  0  0  0
  -26.2766  -29.6848   24.1054 H   0  0  0  0  0  0
  -27.4095  -29.7211   25.4366 H   0  0  0  0  0  0
  -27.8575  -30.4384   23.9055 H   0  0  0  0  0  0
  -27.2733  -33.3590   26.2019 H   0  0  0  0  0  0
  -28.3862  -32.6806   25.0246 H   0  0  0  0  0  0
  -28.0747  -31.8388   26.5343 H   0  0  0  0  0  0
  -28.2621  -38.0077   24.7499 H   0  0  0  0  0  0
  -28.1048  -36.2616   24.6332 H   0  0  0  0  0  0
  -27.2308  -37.1456   25.8887 H   0  0  0  0  0  0
  -20.9347  -29.8615   21.6904 H   0  0  0  0  0  0
  -26.0201  -38.2885   24.1367 H   0  0  0  0  0  0
  -31.7187  -18.5610   21.0756 H   0  0  0  0  0  0
  -28.9436  -16.9240   23.9462 H   0  0  0  0  0  0
  -28.9832  -21.1481   23.1966 H   0  0  0  0  0  0
  -27.2055  -23.4489   20.1004 H   0  0  0  0  0  0
  -28.1824  -23.3393   18.6465 H   0  0  0  0  0  0
  -28.7064  -21.1559   19.4605 H   0  0  0  0  0  0
  -28.2184  -21.6254   21.0848 H   0  0  0  0  0  0
  -29.8559  -23.5672   22.1671 H   0  0  0  0  0  0
  -31.1932  -24.0207   21.1085 H   0  0  0  0  0  0
  -29.7785  -24.7527   19.4010 H   0  0  0  0  0  0
  -31.2916  -15.8932   23.3977 H   0  0  0  0  0  0
  -32.0752  -16.3485   21.9265 H   0  0  0  0  0  0
  -31.7792  -20.8658   20.6217 H   0  0  0  0  0  0
  -31.5865  -21.7391   22.1002 H   0  0  0  0  0  0
  -27.5974  -25.3566   21.4180 H   0  0  0  0  0  0
  -29.1895  -25.9731   21.7444 H   0  0  0  0  0  0
  -29.4855  -14.8529   22.1813 H   0  0  0  0  0  0
  -30.6669  -22.3012   19.6957 H   0  0  0  0  0  0
  1 25  1  0  0  0
  1 30  2  0  0  0
  1 84  1  0  0  0
  2  3  1  0  0  0
  2 25  1  0  0  0
  2 87  1  0  0  0
  2 88  1  0  0  0
  3  4  1  0  0  0
  3 89  1  0  0  0
  3 90  1  0  0  0
  4  5  1  0  0  0
  4 91  1  0  0  0
  4 92  1  0  0  0
  5  6  1  0  0  0
  5 26  1  0  0  0
  5 93  1  0  0  0
  6 25  1  0  0  0
  6 94  1  0  0  0
  6 95  1  0  0  0
  7  8  2  0  0  0
  7 26  1  0  0  0
  7 29  1  0  0  0
  8  9  1  0  0  0
  8 22  1  0  0  0
  9 10  1  0  0  0
  9 27  2  0  0  0
 10 11  2  0  0  0
 10 15  1  0  0  0
 11 12  1  0  0  0
 11 96  1  0  0  0
 12 13  2  0  0  0
 12 97  1  0  0  0
 13 14  1  0  0  0
 13 31  1  0  0  0
 14 15  2  0  0  0
 14 98  1  0  0  0
 15 99  1  0  0  0
 16 17  2  0  0  0
 16 21  1  0  0  0
 16 31  1  0  0  0
 17 18  1  0  0  0
 17100  1  0  0  0
 18 19  2  0  0  0
 18101  1  0  0  0
 19 20  1  0  0  0
 19 24  1  0  0  0
 20 21  2  0  0  0
 20102  1  0  0  0
 21 23  1  0  0  0
 22 28  1  0  0  0
 22 32  2  0  0  0
 26 27  1  0  0  0
 28103  1  0  0  0
 28104  1  0  0  0
 29105  1  0  0  0
 29106  1  0  0  0
 33 34  1  0  0  0
 33 66  1  0  0  0
 33 70  2  0  0  0
 34 36  1  0  0  0
 34 59  1  0  0  0
 34107  1  0  0  0
 35 44  2  0  0  0
 35 45  1  0  0  0
 35 68  1  0  0  0
 36 56  1  0  0  0
 36108  1  0  0  0
 37 39  1  0  0  0
 37 47  1  0  0  0
 37 66  1  0  0  0
 37109  1  0  0  0
 38 43  2  0  0  0
 38 46  1  0  0  0
 38 47  1  0  0  0
 39 64  1  0  0  0
 39 67  2  0  0  0
 40 52  1  0  0  0
 40 53  2  0  0  0
 40 58  1  0  0  0
 41110  1  0  0  0
 41111  1  0  0  0
 41112  1  0  0  0
 41 48  1  0  0  0
 42 43  1  0  0  0
 42 66  1  0  0  0
 42113  1  0  0  0
 42114  1  0  0  0
 43 44  1  0  0  0
 44115  1  0  0  0
 45 46  2  0  0  0
 45116  1  0  0  0
 46117  1  0  0  0
 47118  1  0  0  0
 47119  1  0  0  0
 48 56  1  0  0  0
 48 65  1  0  0  0
 48120  1  0  0  0
 49 50  1  0  0  0
 49 53  1  0  0  0
 49 64  1  0  0  0
 49121  1  0  0  0
 50 51  1  0  0  0
 50122  1  0  0  0
 50123  1  0  0  0
 51 52  1  0  0  0
 51124  1  0  0  0
 51125  1  0  0  0
 52126  1  0  0  0
 52127  1  0  0  0
 53 54  1  0  0  0
 54 55  2  0  0  0
 54128  1  0  0  0
 55 57  1  0  0  0
 55129  1  0  0  0
 56 69  2  0  0  0
 57 58  2  0  0  0
 57130  1  0  0  0
 58131  1  0  0  0
 59 60  1  0  0  0
 59 61  1  0  0  0
 59 62  1  0  0  0
 60132  1  0  0  0
 60133  1  0  0  0
 60134  1  0  0  0
 61135  1  0  0  0
 61136  1  0  0  0
 61137  1  0  0  0
 62138  1  0  0  0
 62139  1  0  0  0
 62140  1  0  0  0
 63 65  1  0  0  0
 63141  1  0  0  0
 63142  1  0  0  0
 63143  1  0  0  0
 64144  1  0  0  0
 65145  1  0  0  0
 68 83  1  0  0  0
 71 74  2  0  0  0
 71 75  1  0  0  0
 71146  1  0  0  0
 72 74  1  0  0  0
 72 76  2  0  0  0
 72147  1  0  0  0
 73 75  2  0  0  0
 73 76  1  0  0  0
 73148  1  0  0  0
 74 81  1  0  0  0
 75 82  1  0  0  0
 76 86  1  0  0  0
 77 78  1  0  0  0
 77 80  1  0  0  0
 77149  1  0  0  0
 77150  1  0  0  0
 78 85  1  0  0  0
 78151  1  0  0  0
 78152  1  0  0  0
 79 80  1  0  0  0
 79 85  1  0  0  0
 79153  1  0  0  0
 79154  1  0  0  0
 80 83  1  0  0  0
 80155  1  0  0  0
 81 84  1  0  0  0
 81156  1  0  0  0
 81157  1  0  0  0
 82158  1  0  0  0
 82159  1  0  0  0
 82 85  1  0  0  0
 83160  1  0  0  0
 83161  1  0  0  0
 84162  1  0  0  0
 85163  1  0  0  0
M  CHG  1  85   1
M  ISO  4   1 100  68 101  83 101  84 100
M  END
> <chiral flag>
0

> <version>
0

> <s_m_source_file>
/data/baiqing/PycharmProjects/Reinvent-master-3.2/result/LINK_invent/BTK/process_docking_weight1_custom_product_contain_oxygen_bond_distance_aromatic_linkinvent_7_9_3/rearranged_h_0102.sdf

> <i_m_source_file_index>
21

> <r_mmod_Potential_Energy-OPLS-2005>
-149.201568603516

> <r_mmod_Stretch_Energy-OPLS-2005>
37.0182952880859

> <r_mmod_Bend_Energy-OPLS-2005>
133.207427978516

> <r_mmod_Torsional_Energy-OPLS-2005>
299.320129394531

> <r_mmod_Improper_Torsional_Energy-OPLS-2005>
3.65783524513245

> <r_mmod_Van_der_Waal_Energy-OPLS-2005>
145.068557739258

> <r_mmod_Electrostatic_Energy-OPLS-2005>
-325.285949707031

> <r_mmod_Solvation_Energy-OPLS-2005>
-449.944976806641

> <b_mmod_Minimization_Converged-OPLS-2005>
0

> <r_mmod_RMS_Derivative-OPLS-2005>
3.75363159179688

$$$$
21
                    3D
 Structure written by MMmdl.
164173  0  0  1  0            999 V2000
  -30.6818  -14.5231   20.5760 C   0  0  0  0  0  0
  -30.4311  -12.3289   19.4576 C   0  0  0  0  0  0
  -29.5098  -12.5183   18.2334 C   0  0  0  0  0  0
  -28.0233  -12.3814   18.6234 C   0  0  0  0  0  0
  -27.6665  -13.2066   19.8867 C   0  0  2  0  0  0
  -28.7048  -12.9986   21.0156 C   0  0  0  0  0  0
  -25.2615  -13.8160   20.5686 C   0  0  0  0  0  0
  -24.1860  -13.0438   20.9159 C   0  0  0  0  0  0
  -24.6392  -11.6910   20.8719 C   0  0  0  0  0  0
  -23.9037  -10.4303   21.0400 C   0  0  0  0  0  0
  -24.3618   -9.4219   21.9185 C   0  0  0  0  0  0
  -23.6301   -8.2238   22.0744 C   0  0  0  0  0  0
  -22.4275   -8.0287   21.3537 C   0  0  0  0  0  0
  -21.9895   -9.0244   20.4629 C   0  0  0  0  0  0
  -22.7198  -10.2130   20.3049 C   0  0  0  0  0  0
  -21.6852   -6.0747   22.5271 C   0  0  0  0  0  0
  -21.4012   -6.5650   23.8219 C   0  0  0  0  0  0
  -21.3667   -5.6796   24.9177 C   0  0  0  0  0  0
  -21.6058   -4.3070   24.7219 C   0  0  0  0  0  0
  -21.8818   -3.8152   23.4326 C   0  0  0  0  0  0
  -21.9197   -4.6981   22.3397 C   0  0  0  0  0  0
  -22.7898  -13.5230   21.1841 C   0  0  0  0  0  0
  -22.1653   -4.2170   21.0966 F   0  0  0  0  0  0
  -21.5649   -3.4544   25.7726 F   0  0  0  0  0  0
  -30.0432  -13.3173   20.4823 N   0  0  0  0  0  0
  -26.3048  -12.9319   20.3404 N   0  0  0  0  0  0
  -25.9321  -11.6474   20.5775 N   0  0  0  0  0  0
  -22.0552  -12.8224   22.0399 N   0  0  0  0  0  0
  -25.4369  -15.1893   20.4105 N   0  0  0  0  0  0
  -31.7512  -14.7497   20.0092 O   0  0  0  0  0  0
  -21.6639   -6.8886   21.4234 O   0  0  0  0  0  0
  -22.3574  -14.5548   20.6709 O   0  0  0  0  0  0
  -24.6212  -31.8671   23.2118 C   0  0  0  0  0  0
  -25.9073  -32.4831   23.8415 C   0  0  1  0  0  0
  -27.2141  -27.3765   20.1074 C   0  0  0  0  0  0
  -25.5928  -33.8628   24.2343 N   0  0  0  0  0  0
  -23.4102  -30.4955   21.5540 C   0  0  2  0  0  0
  -24.8534  -28.9671   20.1133 C   0  0  0  0  0  0
  -22.7444  -29.4657   22.4961 C   0  0  0  0  0  0
  -18.0285  -28.1386   22.8490 C   0  0  0  0  0  0
  -24.1491  -36.7313   23.2631 C   0  0  0  0  0  0
  -25.9468  -30.8190   21.3749 C   0  0  0  0  0  0
  -26.0217  -29.4539   20.7119 C   0  0  0  0  0  0
  -27.2083  -28.6705   20.6997 C   0  0  0  0  0  0
  -26.0214  -26.9371   19.4820 C   0  0  0  0  0  0
  -24.8525  -27.7127   19.4915 C   0  0  0  0  0  0
  -23.6214  -29.8413   20.1651 C   0  0  0  0  0  0
  -25.4109  -36.3108   24.0337 C   0  0  1  0  0  0
  -20.5879  -28.3683   23.1298 C   0  0  2  0  0  0
  -20.6773  -26.9415   22.5407 C   0  0  0  0  0  0
  -19.5743  -26.6391   21.5209 C   0  0  0  0  0  0
  -18.1925  -26.7939   22.1622 C   0  0  0  0  0  0
  -19.1535  -28.8846   23.2897 C   0  0  0  0  0  0
  -18.9460  -30.1455   23.8912 C   0  0  0  0  0  0
  -17.6460  -30.6589   24.0566 C   0  0  0  0  0  0
  -25.9046  -34.9478   23.5125 C   0  0  0  0  0  0
  -16.5353  -29.9085   23.6334 C   0  0  0  0  0  0
  -16.7273  -28.6503   23.0351 C   0  0  0  0  0  0
  -26.4487  -31.6614   25.0761 C   0  0  0  0  0  0
  -25.3739  -31.3734   26.1506 C   0  0  0  0  0  0
  -27.0324  -30.3046   24.6169 C   0  0  0  0  0  0
  -27.6073  -32.4330   25.7514 C   0  0  0  0  0  0
  -27.5581  -37.1815   24.8460 C   0  0  0  0  0  0
  -21.4161  -29.3058   22.3702 N   0  0  0  0  0  0
  -26.4291  -37.3795   23.9411 N   0  0  0  0  0  0
  -24.6777  -31.0749   22.1047 N   0  0  0  0  0  0
  -23.4197  -28.8180   23.2999 O   0  0  0  0  0  0
  -28.3376  -26.5515   20.1607 O   0  0  0  0  0  0
  -26.5574  -34.8923   22.4679 O   0  0  0  0  0  0
  -23.5398  -32.1427   23.7492 O   0  0  0  0  0  0
  -31.3942  -18.1241   19.8495 C   0  0  0  0  0  0
  -31.4200  -20.5648   19.9426 C   0  0  0  0  0  0
  -30.2025  -18.0769   20.6020 C   0  0  0  0  0  0
  -29.6514  -19.3176   21.0786 C   0  0  0  0  0  0
  -30.2403  -20.5754   20.7199 C   0  0  0  0  0  0
  -32.0061  -19.3519   19.5277 C   0  0  0  0  0  0
  -29.7955  -24.0887   21.8422 C   0  0  0  0  0  0
  -30.4895  -22.7204   21.9301 C   0  0  0  0  0  0
  -28.9049  -22.6270   20.1731 C   0  0  0  0  0  0
  -29.2540  -24.1311   20.4127 C   0  0  1  0  0  0
  -28.4210  -19.3092   21.9786 C   0  0  0  0  0  0
  -29.4338  -16.7251   20.6977 C   0  0  0  0  0  0
  -28.0647  -25.1157   20.1768 C   0  0  0  0  0  0
  -29.6712  -21.8145   21.1317 N   0  0  0  0  0  0
  -33.1760  -19.3691   18.7660 N   0  0  0  0  0  0
  -30.0265  -15.4870   21.2638 N   0  0  0  0  0  0
  -31.4750  -12.4228   19.1555 H   0  0  0  0  0  0
  -30.3289  -11.3223   19.8623 H   0  0  0  0  0  0
  -29.7580  -11.7942   17.4551 H   0  0  0  0  0  0
  -29.6780  -13.5056   17.8024 H   0  0  0  0  0  0
  -27.8157  -11.3258   18.7977 H   0  0  0  0  0  0
  -27.3895  -12.6786   17.7872 H   0  0  0  0  0  0
  -27.7079  -14.2549   19.5955 H   0  0  0  0  0  0
  -28.6853  -11.9652   21.3672 H   0  0  0  0  0  0
  -28.4446  -13.6017   21.8879 H   0  0  0  0  0  0
  -25.2790   -9.5723   22.4727 H   0  0  0  0  0  0
  -24.0058   -7.4629   22.7431 H   0  0  0  0  0  0
  -21.0855   -8.8723   19.8901 H   0  0  0  0  0  0
  -22.3669  -10.9667   19.6147 H   0  0  0  0  0  0
  -21.1981   -7.6149   23.9712 H   0  0  0  0  0  0
  -21.1503   -6.0530   25.9067 H   0  0  0  0  0  0
  -22.0594   -2.7624   23.2815 H   0  0  0  0  0  0
  -22.4172  -11.9874   22.4785 H   0  0  0  0  0  0
  -21.1167  -13.1227   22.2585 H   0  0  0  0  0  0
  -24.6829  -15.8579   20.5176 H   0  0  0  0  0  0
  -26.2959  -15.6112   20.0811 H   0  0  0  0  0  0
  -26.7139  -32.5522   23.1173 H   0  0  0  0  0  0
  -25.0132  -33.9797   25.0515 H   0  0  0  0  0  0
  -22.7020  -31.3162   21.4194 H   0  0  0  0  0  0
  -23.3758  -35.9641   23.3283 H   0  0  0  0  0  0
  -24.3595  -36.8937   22.2048 H   0  0  0  0  0  0
  -23.7233  -37.6516   23.6648 H   0  0  0  0  0  0
  -26.0697  -31.5923   20.6161 H   0  0  0  0  0  0
  -26.8305  -30.8657   21.9982 H   0  0  0  0  0  0
  -28.1066  -29.0416   21.1739 H   0  0  0  0  0  0
  -25.9501  -25.9876   18.9760 H   0  0  0  0  0  0
  -23.9577  -27.3349   19.0176 H   0  0  0  0  0  0
  -23.7417  -30.6248   19.4157 H   0  0  0  0  0  0
  -22.7419  -29.2726   19.8580 H   0  0  0  0  0  0
  -25.1286  -36.1976   25.0828 H   0  0  0  0  0  0
  -20.9980  -28.3250   24.1413 H   0  0  0  0  0  0
  -20.5687  -26.2288   23.3598 H   0  0  0  0  0  0
  -21.6639  -26.7466   22.1185 H   0  0  0  0  0  0
  -19.6903  -25.6298   21.1239 H   0  0  0  0  0  0
  -19.6685  -27.3198   20.6736 H   0  0  0  0  0  0
  -17.4201  -26.6700   21.4020 H   0  0  0  0  0  0
  -18.0324  -26.0074   22.9010 H   0  0  0  0  0  0
  -19.7939  -30.7264   24.2288 H   0  0  0  0  0  0
  -17.5022  -31.6284   24.5156 H   0  0  0  0  0  0
  -15.5351  -30.2994   23.7667 H   0  0  0  0  0  0
  -15.8674  -28.0837   22.7056 H   0  0  0  0  0  0
  -24.5916  -30.7077   25.7835 H   0  0  0  0  0  0
  -24.8935  -32.2905   26.4939 H   0  0  0  0  0  0
  -25.8097  -30.8913   27.0267 H   0  0  0  0  0  0
  -26.2885  -29.6811   24.1202 H   0  0  0  0  0  0
  -27.4045  -29.7294   25.4653 H   0  0  0  0  0  0
  -27.8744  -30.4347   23.9365 H   0  0  0  0  0  0
  -27.2705  -33.3626   26.2107 H   0  0  0  0  0  0
  -28.3878  -32.6889   25.0337 H   0  0  0  0  0  0
  -28.0739  -31.8438   26.5416 H   0  0  0  0  0  0
  -28.2598  -38.0109   24.7526 H   0  0  0  0  0  0
  -28.1085  -36.2657   24.6273 H   0  0  0  0  0  0
  -27.2312  -37.1440   25.8861 H   0  0  0  0  0  0
  -20.9308  -29.8807   21.6951 H   0  0  0  0  0  0
  -26.0187  -38.2875   24.1419 H   0  0  0  0  0  0
  -31.8204  -17.2057   19.4714 H   0  0  0  0  0  0
  -31.8803  -21.5020   19.6665 H   0  0  0  0  0  0
  -30.4638  -24.9217   22.0653 H   0  0  0  0  0  0
  -28.9657  -24.1233   22.5504 H   0  0  0  0  0  0
  -30.5541  -22.3759   22.9618 H   0  0  0  0  0  0
  -31.5041  -22.7825   21.5366 H   0  0  0  0  0  0
  -29.0838  -22.3347   19.1360 H   0  0  0  0  0  0
  -27.8458  -22.4586   20.3808 H   0  0  0  0  0  0
  -30.0675  -24.4021   19.7374 H   0  0  0  0  0  0
  -28.4941  -18.5150   22.7203 H   0  0  0  0  0  0
  -27.5154  -19.1721   21.3895 H   0  0  0  0  0  0
  -28.3197  -20.2337   22.5468 H   0  0  0  0  0  0
  -29.0970  -16.4849   19.6881 H   0  0  0  0  0  0
  -28.5093  -16.8654   21.2548 H   0  0  0  0  0  0
  -27.3004  -24.9107   20.9301 H   0  0  0  0  0  0
  -27.6371  -24.8242   19.2190 H   0  0  0  0  0  0
  -33.4241  -18.5357   18.2395 H   0  0  0  0  0  0
  -33.3992  -20.2236   18.2628 H   0  0  0  0  0  0
  -29.4077  -15.0757   21.9443 H   0  0  0  0  0  0
  1 25  1  0  0  0
  1 30  2  0  0  0
  1 86  1  0  0  0
  2  3  1  0  0  0
  2 25  1  0  0  0
  2 87  1  0  0  0
  2 88  1  0  0  0
  3  4  1  0  0  0
  3 89  1  0  0  0
  3 90  1  0  0  0
  4  5  1  0  0  0
  4 91  1  0  0  0
  4 92  1  0  0  0
  5  6  1  0  0  0
  5 26  1  0  0  0
  5 93  1  0  0  0
  6 25  1  0  0  0
  6 94  1  0  0  0
  6 95  1  0  0  0
  7  8  2  0  0  0
  7 26  1  0  0  0
  7 29  1  0  0  0
  8  9  1  0  0  0
  8 22  1  0  0  0
  9 10  1  0  0  0
  9 27  2  0  0  0
 10 11  2  0  0  0
 10 15  1  0  0  0
 11 12  1  0  0  0
 11 96  1  0  0  0
 12 13  2  0  0  0
 12 97  1  0  0  0
 13 14  1  0  0  0
 13 31  1  0  0  0
 14 15  2  0  0  0
 14 98  1  0  0  0
 15 99  1  0  0  0
 16 17  2  0  0  0
 16 21  1  0  0  0
 16 31  1  0  0  0
 17 18  1  0  0  0
 17100  1  0  0  0
 18 19  2  0  0  0
 18101  1  0  0  0
 19 20  1  0  0  0
 19 24  1  0  0  0
 20 21  2  0  0  0
 20102  1  0  0  0
 21 23  1  0  0  0
 22 28  1  0  0  0
 22 32  2  0  0  0
 26 27  1  0  0  0
 28103  1  0  0  0
 28104  1  0  0  0
 29105  1  0  0  0
 29106  1  0  0  0
 33 34  1  0  0  0
 33 66  1  0  0  0
 33 70  2  0  0  0
 34 36  1  0  0  0
 34 59  1  0  0  0
 34107  1  0  0  0
 35 44  2  0  0  0
 35 45  1  0  0  0
 35 68  1  0  0  0
 36 56  1  0  0  0
 36108  1  0  0  0
 37 39  1  0  0  0
 37 47  1  0  0  0
 37 66  1  0  0  0
 37109  1  0  0  0
 38 43  2  0  0  0
 38 46  1  0  0  0
 38 47  1  0  0  0
 39 64  1  0  0  0
 39 67  2  0  0  0
 40 52  1  0  0  0
 40 53  2  0  0  0
 40 58  1  0  0  0
 41110  1  0  0  0
 41111  1  0  0  0
 41112  1  0  0  0
 41 48  1  0  0  0
 42 43  1  0  0  0
 42 66  1  0  0  0
 42113  1  0  0  0
 42114  1  0  0  0
 43 44  1  0  0  0
 44115  1  0  0  0
 45 46  2  0  0  0
 45116  1  0  0  0
 46117  1  0  0  0
 47118  1  0  0  0
 47119  1  0  0  0
 48 56  1  0  0  0
 48 65  1  0  0  0
 48120  1  0  0  0
 49 50  1  0  0  0
 49 53  1  0  0  0
 49 64  1  0  0  0
 49121  1  0  0  0
 50 51  1  0  0  0
 50122  1  0  0  0
 50123  1  0  0  0
 51 52  1  0  0  0
 51124  1  0  0  0
 51125  1  0  0  0
 52126  1  0  0  0
 52127  1  0  0  0
 53 54  1  0  0  0
 54 55  2  0  0  0
 54128  1  0  0  0
 55 57  1  0  0  0
 55129  1  0  0  0
 56 69  2  0  0  0
 57 58  2  0  0  0
 57130  1  0  0  0
 58131  1  0  0  0
 59 60  1  0  0  0
 59 61  1  0  0  0
 59 62  1  0  0  0
 60132  1  0  0  0
 60133  1  0  0  0
 60134  1  0  0  0
 61135  1  0  0  0
 61136  1  0  0  0
 61137  1  0  0  0
 62138  1  0  0  0
 62139  1  0  0  0
 62140  1  0  0  0
 63 65  1  0  0  0
 63141  1  0  0  0
 63142  1  0  0  0
 63143  1  0  0  0
 64144  1  0  0  0
 65145  1  0  0  0
 68 83  1  0  0  0
 71 73  2  0  0  0
 71 76  1  0  0  0
 71146  1  0  0  0
 72 75  1  0  0  0
 72 76  2  0  0  0
 72147  1  0  0  0
 73 74  1  0  0  0
 73 82  1  0  0  0
 74 75  2  0  0  0
 74 81  1  0  0  0
 75 84  1  0  0  0
 76 85  1  0  0  0
 77 78  1  0  0  0
 77 80  1  0  0  0
 77148  1  0  0  0
 77149  1  0  0  0
 78 84  1  0  0  0
 78150  1  0  0  0
 78151  1  0  0  0
 79 80  1  0  0  0
 79 84  1  0  0  0
 79152  1  0  0  0
 79153  1  0  0  0
 80 83  1  0  0  0
 80154  1  0  0  0
 81155  1  0  0  0
 81156  1  0  0  0
 81157  1  0  0  0
 82 86  1  0  0  0
 82158  1  0  0  0
 82159  1  0  0  0
 83160  1  0  0  0
 83161  1  0  0  0
 85162  1  0  0  0
 85163  1  0  0  0
 86164  1  0  0  0
M  ISO  4   1 100  68 101  83 101  86 100
M  END
> <chiral flag>
0

> <version>
0

> <s_m_source_file>
/data/baiqing/PycharmProjects/Reinvent-master-3.2/result/LINK_invent/BTK/process_docking_weight1_custom_product_contain_oxygen_bond_distance_aromatic_linkinvent_7_9_3/rearranged_h_0102.sdf

> <i_m_source_file_index>
22

> <r_mmod_Potential_Energy-OPLS-2005>
79.2976455688477

> <r_mmod_Stretch_Energy-OPLS-2005>
55.2818183898926

> <r_mmod_Bend_Energy-OPLS-2005>
153.193832397461

> <r_mmod_Torsional_Energy-OPLS-2005>
328.949462890625

> <r_mmod_Improper_Torsional_Energy-OPLS-2005>
14.8281526565552

> <r_mmod_Van_der_Waal_Energy-OPLS-2005>
150.583572387695

> <r_mmod_Electrostatic_Energy-OPLS-2005>
-409.593170166016

> <r_mmod_Solvation_Energy-OPLS-2005>
-238.485214233398

> <b_mmod_Minimization_Converged-OPLS-2005>
0

> <r_mmod_RMS_Derivative-OPLS-2005>
4.14719820022583

$$$$
23
                    3D
 Structure written by MMmdl.
161170  0  0  1  0            999 V2000
  -30.5214  -14.9455   20.5284 C   0  0  0  0  0  0
  -30.4314  -12.6009   19.5236 C   0  0  0  0  0  0
  -29.5189  -12.5386   18.2763 C   0  0  0  0  0  0
  -28.0564  -12.2945   18.6894 C   0  0  0  0  0  0
  -27.6177  -13.2404   19.8303 C   0  0  2  0  0  0
  -28.6364  -13.2498   20.9816 C   0  0  0  0  0  0
  -25.2376  -13.8228   20.5678 C   0  0  0  0  0  0
  -24.1712  -13.0434   20.9260 C   0  0  0  0  0  0
  -24.6331  -11.6934   20.8755 C   0  0  0  0  0  0
  -23.9023  -10.4298   21.0439 C   0  0  0  0  0  0
  -24.3593   -9.4206   21.9208 C   0  0  0  0  0  0
  -23.6276   -8.2231   22.0749 C   0  0  0  0  0  0
  -22.4245   -8.0264   21.3552 C   0  0  0  0  0  0
  -21.9877   -9.0240   20.4655 C   0  0  0  0  0  0
  -22.7199  -10.2132   20.3078 C   0  0  0  0  0  0
  -21.6827   -6.0739   22.5291 C   0  0  0  0  0  0
  -21.4020   -6.5633   23.8232 C   0  0  0  0  0  0
  -21.3672   -5.6792   24.9187 C   0  0  0  0  0  0
  -21.6042   -4.3056   24.7245 C   0  0  0  0  0  0
  -21.8799   -3.8140   23.4355 C   0  0  0  0  0  0
  -21.9174   -4.6967   22.3401 C   0  0  0  0  0  0
  -22.7739  -13.5216   21.1939 C   0  0  0  0  0  0
  -22.1630   -4.2139   21.0982 F   0  0  0  0  0  0
  -21.5623   -3.4535   25.7744 F   0  0  0  0  0  0
  -29.9340  -13.6769   20.4347 N   0  0  0  0  0  0
  -26.2756  -12.9437   20.3128 N   0  0  0  0  0  0
  -25.9239  -11.6574   20.5686 N   0  0  0  0  0  0
  -22.0358  -12.8247   22.0516 N   0  0  0  0  0  0
  -25.4059  -15.1968   20.4176 N   0  0  0  0  0  0
  -31.6437  -15.0694   20.0187 O   0  0  0  0  0  0
  -21.6607   -6.8860   21.4243 O   0  0  0  0  0  0
  -22.3416  -14.5490   20.6735 O   0  0  0  0  0  0
  -24.6401  -31.8442   23.1883 C   0  0  0  0  0  0
  -25.9215  -32.4670   23.8232 C   0  0  1  0  0  0
  -27.1890  -27.1335   20.1424 C   0  0  0  0  0  0
  -25.6024  -33.8485   24.2204 N   0  0  0  0  0  0
  -23.4429  -30.4667   21.5319 C   0  0  2  0  0  0
  -24.8869  -28.8963   20.0913 C   0  0  0  0  0  0
  -22.7581  -29.4524   22.4818 C   0  0  0  0  0  0
  -18.0332  -28.1413   22.8523 C   0  0  0  0  0  0
  -24.1472  -36.7167   23.2620 C   0  0  0  0  0  0
  -25.9949  -30.7072   21.3949 C   0  0  0  0  0  0
  -26.0581  -29.3209   20.7325 C   0  0  0  0  0  0
  -27.2039  -28.4492   20.7509 C   0  0  0  0  0  0
  -26.0153  -26.8166   19.4310 C   0  0  0  0  0  0
  -24.8817  -27.6629   19.4194 C   0  0  0  0  0  0
  -23.6688  -29.8071   20.1440 C   0  0  0  0  0  0
  -25.4112  -36.3011   24.0312 C   0  0  1  0  0  0
  -20.5951  -28.3710   23.1253 C   0  0  2  0  0  0
  -20.6838  -26.9413   22.5427 C   0  0  0  0  0  0
  -19.5792  -26.6402   21.5255 C   0  0  0  0  0  0
  -18.1969  -26.7973   22.1654 C   0  0  0  0  0  0
  -19.1587  -28.8879   23.2893 C   0  0  0  0  0  0
  -18.9499  -30.1491   23.8927 C   0  0  0  0  0  0
  -17.6488  -30.6619   24.0578 C   0  0  0  0  0  0
  -25.9094  -34.9392   23.5073 C   0  0  0  0  0  0
  -16.5385  -29.9127   23.6329 C   0  0  0  0  0  0
  -16.7313  -28.6532   23.0373 C   0  0  0  0  0  0
  -26.4599  -31.6536   25.0653 C   0  0  0  0  0  0
  -25.3812  -31.3688   26.1361 C   0  0  0  0  0  0
  -27.0470  -30.2961   24.6166 C   0  0  0  0  0  0
  -27.6172  -32.4270   25.7437 C   0  0  0  0  0  0
  -27.5598  -37.1714   24.8481 C   0  0  0  0  0  0
  -21.4279  -29.3024   22.3583 N   0  0  0  0  0  0
  -26.4278  -37.3739   23.9463 N   0  0  0  0  0  0
  -24.7115  -31.0296   22.0930 N   0  0  0  0  0  0
  -23.4262  -28.8096   23.2955 O   0  0  0  0  0  0
  -28.2326  -26.1623   20.3061 O   0  0  0  0  0  0
  -26.5648  -34.8889   22.4618 O   0  0  0  0  0  0
  -23.5538  -32.1371   23.7095 O   0  0  0  0  0  0
  -29.2944  -19.8694   22.0376 C   0  0  0  0  0  0
  -29.6371  -18.4765   22.0933 C   0  0  0  0  0  0
  -28.8219  -19.6800   19.7712 C   0  0  0  0  0  0
  -28.8466  -20.6118   20.8946 C   0  0  0  0  0  0
  -29.6201  -17.5308   21.0105 C   0  0  0  0  0  0
  -29.1909  -18.2419   19.8177 C   0  0  0  0  0  0
  -28.1995  -22.6553   22.2466 C   0  0  0  0  0  0
  -26.9144  -23.4817   22.3007 C   0  0  0  0  0  0
  -26.4346  -23.4604   20.8643 C   0  0  0  0  0  0
  -27.7396  -23.2009   20.1105 C   0  0  2  0  0  0
  -31.3686  -16.0517   23.3534 C   0  0  0  0  0  0
  -28.3613  -24.7265   19.7273 C   0  0  0  0  0  0
  -30.0059  -15.6905   22.7202 C   0  0  0  0  0  0
  -28.4597  -22.1349   21.0169 N   0  0  0  0  0  0
  -29.9203  -16.0132   21.2705 N   0  0  0  0  0  0
  -28.9096  -22.5679   23.2516 O   0  0  0  0  0  0
  -29.0860  -17.5230   18.6741 F   0  0  0  0  0  0
  -31.4673  -12.7654   19.2242 H   0  0  0  0  0  0
  -30.4318  -11.6422   20.0459 H   0  0  0  0  0  0
  -29.8492  -11.7485   17.6008 H   0  0  0  0  0  0
  -29.5963  -13.4754   17.7208 H   0  0  0  0  0  0
  -27.9812  -11.2612   19.0301 H   0  0  0  0  0  0
  -27.3912  -12.3778   17.8296 H   0  0  0  0  0  0
  -27.5909  -14.2397   19.3927 H   0  0  0  0  0  0
  -28.7100  -12.2704   21.4538 H   0  0  0  0  0  0
  -28.2685  -13.9276   21.7494 H   0  0  0  0  0  0
  -25.2726   -9.5668   22.4812 H   0  0  0  0  0  0
  -23.9963   -7.4616   22.7461 H   0  0  0  0  0  0
  -21.0799   -8.8782   19.8977 H   0  0  0  0  0  0
  -22.3651  -10.9685   19.6204 H   0  0  0  0  0  0
  -21.2021   -7.6145   23.9738 H   0  0  0  0  0  0
  -21.1518   -6.0522   25.9105 H   0  0  0  0  0  0
  -22.0563   -2.7588   23.2855 H   0  0  0  0  0  0
  -22.3903  -11.9937   22.5028 H   0  0  0  0  0  0
  -21.0987  -13.1332   22.2690 H   0  0  0  0  0  0
  -24.6385  -15.8478   20.5377 H   0  0  0  0  0  0
  -26.2589  -15.6450   20.1086 H   0  0  0  0  0  0
  -26.7253  -32.5277   23.0907 H   0  0  0  0  0  0
  -25.0288  -33.9577   25.0451 H   0  0  0  0  0  0
  -22.7437  -31.2933   21.3851 H   0  0  0  0  0  0
  -23.3795  -35.9439   23.3252 H   0  0  0  0  0  0
  -24.3573  -36.8821   22.2050 H   0  0  0  0  0  0
  -23.7135  -37.6310   23.6663 H   0  0  0  0  0  0
  -26.1639  -31.4578   20.6234 H   0  0  0  0  0  0
  -26.8667  -30.7497   22.0375 H   0  0  0  0  0  0
  -28.0877  -28.7556   21.2965 H   0  0  0  0  0  0
  -25.9439  -25.8751   18.9069 H   0  0  0  0  0  0
  -23.9979  -27.3522   18.8840 H   0  0  0  0  0  0
  -23.8190  -30.5940   19.4036 H   0  0  0  0  0  0
  -22.7773  -29.2661   19.8154 H   0  0  0  0  0  0
  -25.1267  -36.1839   25.0803 H   0  0  0  0  0  0
  -21.0074  -28.3332   24.1365 H   0  0  0  0  0  0
  -20.5822  -26.2293   23.3628 H   0  0  0  0  0  0
  -21.6680  -26.7507   22.1146 H   0  0  0  0  0  0
  -19.6928  -25.6326   21.1255 H   0  0  0  0  0  0
  -19.6714  -27.3254   20.6825 H   0  0  0  0  0  0
  -17.4251  -26.6758   21.4043 H   0  0  0  0  0  0
  -18.0333  -26.0116   22.9052 H   0  0  0  0  0  0
  -19.7964  -30.7311   24.2309 H   0  0  0  0  0  0
  -17.5039  -31.6309   24.5159 H   0  0  0  0  0  0
  -15.5389  -30.3032   23.7606 H   0  0  0  0  0  0
  -15.8734  -28.0845   22.7065 H   0  0  0  0  0  0
  -24.6028  -30.6979   25.7686 H   0  0  0  0  0  0
  -24.8919  -32.2840   26.4717 H   0  0  0  0  0  0
  -25.8128  -30.8940   27.0179 H   0  0  0  0  0  0
  -26.3055  -29.6652   24.1232 H   0  0  0  0  0  0
  -27.4254  -29.7271   25.4660 H   0  0  0  0  0  0
  -27.8918  -30.4232   23.9379 H   0  0  0  0  0  0
  -27.2838  -33.3601   26.1982 H   0  0  0  0  0  0
  -28.4032  -32.6769   25.0294 H   0  0  0  0  0  0
  -28.0797  -31.8389   26.5369 H   0  0  0  0  0  0
  -28.2557  -38.0075   24.7673 H   0  0  0  0  0  0
  -28.1166  -36.2621   24.6163 H   0  0  0  0  0  0
  -27.2333  -37.1196   25.8881 H   0  0  0  0  0  0
  -20.9485  -29.8637   21.6693 H   0  0  0  0  0  0
  -26.0136  -38.2774   24.1622 H   0  0  0  0  0  0
  -29.3802  -20.3494   22.9943 H   0  0  0  0  0  0
  -29.9164  -18.1666   23.0861 H   0  0  0  0  0  0
  -28.4961  -20.0627   18.8130 H   0  0  0  0  0  0
  -27.1368  -24.4964   22.6294 H   0  0  0  0  0  0
  -26.1725  -23.0558   22.9786 H   0  0  0  0  0  0
  -25.9514  -24.3943   20.5905 H   0  0  0  0  0  0
  -25.7067  -22.6642   20.7014 H   0  0  0  0  0  0
  -27.5078  -22.7028   19.1683 H   0  0  0  0  0  0
  -31.2688  -16.1669   24.4333 H   0  0  0  0  0  0
  -31.8023  -16.9715   22.9590 H   0  0  0  0  0  0
  -32.0958  -15.2559   23.1909 H   0  0  0  0  0  0
  -28.1077  -24.8724   18.6780 H   0  0  0  0  0  0
  -29.4430  -24.5656   19.7129 H   0  0  0  0  0  0
  -29.1856  -16.1758   23.2531 H   0  0  0  0  0  0
  -29.8534  -14.6351   22.9472 H   0  0  0  0  0  0
  1 25  1  0  0  0
  1 30  2  0  0  0
  1 85  1  0  0  0
  2  3  1  0  0  0
  2 25  1  0  0  0
  2 88  1  0  0  0
  2 89  1  0  0  0
  3  4  1  0  0  0
  3 90  1  0  0  0
  3 91  1  0  0  0
  4  5  1  0  0  0
  4 92  1  0  0  0
  4 93  1  0  0  0
  5  6  1  0  0  0
  5 26  1  0  0  0
  5 94  1  0  0  0
  6 25  1  0  0  0
  6 95  1  0  0  0
  6 96  1  0  0  0
  7  8  2  0  0  0
  7 26  1  0  0  0
  7 29  1  0  0  0
  8  9  1  0  0  0
  8 22  1  0  0  0
  9 10  1  0  0  0
  9 27  2  0  0  0
 10 11  2  0  0  0
 10 15  1  0  0  0
 11 12  1  0  0  0
 11 97  1  0  0  0
 12 13  2  0  0  0
 12 98  1  0  0  0
 13 14  1  0  0  0
 13 31  1  0  0  0
 14 15  2  0  0  0
 14 99  1  0  0  0
 15100  1  0  0  0
 16 17  2  0  0  0
 16 21  1  0  0  0
 16 31  1  0  0  0
 17 18  1  0  0  0
 17101  1  0  0  0
 18 19  2  0  0  0
 18102  1  0  0  0
 19 20  1  0  0  0
 19 24  1  0  0  0
 20 21  2  0  0  0
 20103  1  0  0  0
 21 23  1  0  0  0
 22 28  1  0  0  0
 22 32  2  0  0  0
 26 27  1  0  0  0
 28104  1  0  0  0
 28105  1  0  0  0
 29106  1  0  0  0
 29107  1  0  0  0
 33 34  1  0  0  0
 33 66  1  0  0  0
 33 70  2  0  0  0
 34 36  1  0  0  0
 34 59  1  0  0  0
 34108  1  0  0  0
 35 44  2  0  0  0
 35 45  1  0  0  0
 35 68  1  0  0  0
 36 56  1  0  0  0
 36109  1  0  0  0
 37 39  1  0  0  0
 37 47  1  0  0  0
 37 66  1  0  0  0
 37110  1  0  0  0
 38 43  2  0  0  0
 38 46  1  0  0  0
 38 47  1  0  0  0
 39 64  1  0  0  0
 39 67  2  0  0  0
 40 52  1  0  0  0
 40 53  2  0  0  0
 40 58  1  0  0  0
 41111  1  0  0  0
 41112  1  0  0  0
 41113  1  0  0  0
 41 48  1  0  0  0
 42 43  1  0  0  0
 42 66  1  0  0  0
 42114  1  0  0  0
 42115  1  0  0  0
 43 44  1  0  0  0
 44116  1  0  0  0
 45 46  2  0  0  0
 45117  1  0  0  0
 46118  1  0  0  0
 47119  1  0  0  0
 47120  1  0  0  0
 48 56  1  0  0  0
 48 65  1  0  0  0
 48121  1  0  0  0
 49 50  1  0  0  0
 49 53  1  0  0  0
 49 64  1  0  0  0
 49122  1  0  0  0
 50 51  1  0  0  0
 50123  1  0  0  0
 50124  1  0  0  0
 51 52  1  0  0  0
 51125  1  0  0  0
 51126  1  0  0  0
 52127  1  0  0  0
 52128  1  0  0  0
 53 54  1  0  0  0
 54 55  2  0  0  0
 54129  1  0  0  0
 55 57  1  0  0  0
 55130  1  0  0  0
 56 69  2  0  0  0
 57 58  2  0  0  0
 57131  1  0  0  0
 58132  1  0  0  0
 59 60  1  0  0  0
 59 61  1  0  0  0
 59 62  1  0  0  0
 60133  1  0  0  0
 60134  1  0  0  0
 60135  1  0  0  0
 61136  1  0  0  0
 61137  1  0  0  0
 61138  1  0  0  0
 62139  1  0  0  0
 62140  1  0  0  0
 62141  1  0  0  0
 63 65  1  0  0  0
 63142  1  0  0  0
 63143  1  0  0  0
 63144  1  0  0  0
 64145  1  0  0  0
 65146  1  0  0  0
 68 82  1  0  0  0
 71 72  2  0  0  0
 71 74  1  0  0  0
 71147  1  0  0  0
 72 75  1  0  0  0
 72148  1  0  0  0
 73 74  2  0  0  0
 73 76  1  0  0  0
 73149  1  0  0  0
 74 84  1  0  0  0
 75 76  2  0  0  0
 75 85  1  0  0  0
 76 87  1  0  0  0
 77 78  1  0  0  0
 77 84  1  0  0  0
 77 86  2  0  0  0
 78 79  1  0  0  0
 78150  1  0  0  0
 78151  1  0  0  0
 79 80  1  0  0  0
 79152  1  0  0  0
 79153  1  0  0  0
 80 82  1  0  0  0
 80 84  1  0  0  0
 80154  1  0  0  0
 81 83  1  0  0  0
 81155  1  0  0  0
 81156  1  0  0  0
 81157  1  0  0  0
 82158  1  0  0  0
 82159  1  0  0  0
 83 85  1  0  0  0
 83160  1  0  0  0
 83161  1  0  0  0
M  ISO  4   1 100  68 101  82 101  85 100
M  END
> <chiral flag>
0

> <version>
0

> <s_m_source_file>
/data/baiqing/PycharmProjects/Reinvent-master-3.2/result/LINK_invent/BTK/process_docking_weight1_custom_product_contain_oxygen_bond_distance_aromatic_linkinvent_7_9_3/rearranged_h_0102.sdf

> <i_m_source_file_index>
23

> <r_mmod_Potential_Energy-OPLS-2005>
922.313659667969

> <r_mmod_Stretch_Energy-OPLS-2005>
282.219787597656

> <r_mmod_Bend_Energy-OPLS-2005>
406.023895263672

> <r_mmod_Torsional_Energy-OPLS-2005>
360.499603271484

> <r_mmod_Improper_Torsional_Energy-OPLS-2005>
5.56132698059082

> <r_mmod_Van_der_Waal_Energy-OPLS-2005>
154.744445800781

> <r_mmod_Electrostatic_Energy-OPLS-2005>
-288.128082275391

> <r_mmod_Solvation_Energy-OPLS-2005>
-199.828201293945

> <b_mmod_Minimization_Converged-OPLS-2005>
0

> <r_mmod_RMS_Derivative-OPLS-2005>
5.91273307800293

$$$$
24
                    3D
 Structure written by MMmdl.
163172  0  0  1  0            999 V2000
  -30.6313  -14.5746   20.5353 C   0  0  0  0  0  0
  -30.4433  -12.3592   19.4346 C   0  0  0  0  0  0
  -29.5060  -12.5094   18.2152 C   0  0  0  0  0  0
  -28.0276  -12.3535   18.6264 C   0  0  0  0  0  0
  -27.6607  -13.2046   19.8705 C   0  0  2  0  0  0
  -28.7054  -13.0066   20.9933 C   0  0  0  0  0  0
  -25.2594  -13.8143   20.5666 C   0  0  0  0  0  0
  -24.1847  -13.0429   20.9182 C   0  0  0  0  0  0
  -24.6394  -11.6894   20.8733 C   0  0  0  0  0  0
  -23.9053  -10.4287   21.0404 C   0  0  0  0  0  0
  -24.3607   -9.4205   21.9182 C   0  0  0  0  0  0
  -23.6286   -8.2240   22.0753 C   0  0  0  0  0  0
  -22.4267   -8.0276   21.3542 C   0  0  0  0  0  0
  -21.9898   -9.0249   20.4645 C   0  0  0  0  0  0
  -22.7225  -10.2130   20.3056 C   0  0  0  0  0  0
  -21.6854   -6.0730   22.5277 C   0  0  0  0  0  0
  -21.4011   -6.5636   23.8210 C   0  0  0  0  0  0
  -21.3660   -5.6788   24.9172 C   0  0  0  0  0  0
  -21.6046   -4.3052   24.7223 C   0  0  0  0  0  0
  -21.8821   -3.8142   23.4346 C   0  0  0  0  0  0
  -21.9192   -4.6957   22.3401 C   0  0  0  0  0  0
  -22.7871  -13.5235   21.1843 C   0  0  0  0  0  0
  -22.1665   -4.2145   21.0977 F   0  0  0  0  0  0
  -21.5629   -3.4538   25.7739 F   0  0  0  0  0  0
  -30.0286  -13.3509   20.4421 N   0  0  0  0  0  0
  -26.3022  -12.9303   20.3333 N   0  0  0  0  0  0
  -25.9320  -11.6471   20.5755 N   0  0  0  0  0  0
  -22.0506  -12.8236   22.0399 N   0  0  0  0  0  0
  -25.4314  -15.1858   20.4045 N   0  0  0  0  0  0
  -31.7737  -14.7801   20.1133 O   0  0  0  0  0  0
  -21.6637   -6.8871   21.4239 O   0  0  0  0  0  0
  -22.3565  -14.5544   20.6692 O   0  0  0  0  0  0
  -24.6202  -31.8641   23.2051 C   0  0  0  0  0  0
  -25.9066  -32.4804   23.8377 C   0  0  1  0  0  0
  -27.2363  -27.3819   20.1099 C   0  0  0  0  0  0
  -25.5896  -33.8603   24.2308 N   0  0  0  0  0  0
  -23.4134  -30.4848   21.5462 C   0  0  2  0  0  0
  -24.8644  -28.9440   20.1142 C   0  0  0  0  0  0
  -22.7452  -29.4637   22.4959 C   0  0  0  0  0  0
  -18.0283  -28.1388   22.8494 C   0  0  0  0  0  0
  -24.1485  -36.7306   23.2641 C   0  0  0  0  0  0
  -25.9478  -30.8132   21.3678 C   0  0  0  0  0  0
  -26.0283  -29.4432   20.7149 C   0  0  0  0  0  0
  -27.2210  -28.6710   20.7084 C   0  0  0  0  0  0
  -26.0564  -26.9116   19.4995 C   0  0  0  0  0  0
  -24.8760  -27.6794   19.5006 C   0  0  0  0  0  0
  -23.6271  -29.8152   20.1623 C   0  0  0  0  0  0
  -25.4111  -36.3102   24.0334 C   0  0  1  0  0  0
  -20.5879  -28.3683   23.1300 C   0  0  2  0  0  0
  -20.6770  -26.9412   22.5412 C   0  0  0  0  0  0
  -19.5743  -26.6390   21.5213 C   0  0  0  0  0  0
  -18.1924  -26.7935   22.1625 C   0  0  0  0  0  0
  -19.1534  -28.8852   23.2895 C   0  0  0  0  0  0
  -18.9459  -30.1456   23.8909 C   0  0  0  0  0  0
  -17.6458  -30.6590   24.0566 C   0  0  0  0  0  0
  -25.9039  -34.9466   23.5124 C   0  0  0  0  0  0
  -16.5351  -29.9090   23.6326 C   0  0  0  0  0  0
  -16.7270  -28.6506   23.0353 C   0  0  0  0  0  0
  -26.4475  -31.6597   25.0726 C   0  0  0  0  0  0
  -25.3725  -31.3713   26.1465 C   0  0  0  0  0  0
  -27.0310  -30.3031   24.6136 C   0  0  0  0  0  0
  -27.6053  -32.4315   25.7483 C   0  0  0  0  0  0
  -27.5575  -37.1818   24.8473 C   0  0  0  0  0  0
  -21.4171  -29.3038   22.3697 N   0  0  0  0  0  0
  -26.4301  -37.3782   23.9396 N   0  0  0  0  0  0
  -24.6787  -31.0694   22.0975 N   0  0  0  0  0  0
  -23.4196  -28.8186   23.3029 O   0  0  0  0  0  0
  -28.3434  -26.5461   20.1145 O   0  0  0  0  0  0
  -26.5609  -34.8922   22.4691 O   0  0  0  0  0  0
  -23.5376  -32.1413   23.7408 O   0  0  0  0  0  0
  -28.4836  -19.0837   20.9895 C   0  0  0  0  0  0
  -28.5878  -17.6729   21.0434 C   0  0  0  0  0  0
  -30.9544  -17.8163   20.6047 C   0  0  0  0  0  0
  -30.8598  -19.2430   20.5614 C   0  0  0  0  0  0
  -29.6130  -19.9113   20.7667 C   0  0  0  0  0  0
  -29.8200  -17.0037   20.8598 C   0  0  0  0  0  0
  -28.8605  -24.2688   20.9739 C   0  0  0  0  0  0
  -28.3202  -25.5223   21.0543 C   0  0  0  0  0  0
  -29.5957  -23.6525   19.7791 C   0  0  0  0  0  0
  -28.8681  -23.3512   22.1968 C   0  0  0  0  0  0
  -29.3790  -22.1064   19.5970 C   0  0  0  0  0  0
  -28.6138  -21.8569   21.8849 C   0  0  0  0  0  0
  -32.1385  -20.0445   20.3452 C   0  0  0  0  0  0
  -29.5165  -21.3404   20.8497 N   0  0  0  0  0  0
  -29.8159  -15.5615   20.9960 N   0  0  0  0  0  0
  -32.5315  -20.7540   21.5687 N   0  3  0  0  0  0
  -31.4835  -12.4905   19.1310 H   0  0  0  0  0  0
  -30.3781  -11.3522   19.8494 H   0  0  0  0  0  0
  -29.7606  -11.7732   17.4517 H   0  0  0  0  0  0
  -29.6557  -13.4881   17.7564 H   0  0  0  0  0  0
  -27.8525  -11.2977   18.8373 H   0  0  0  0  0  0
  -27.3751  -12.6074   17.7905 H   0  0  0  0  0  0
  -27.6942  -14.2476   19.5557 H   0  0  0  0  0  0
  -28.7060  -11.9696   21.3324 H   0  0  0  0  0  0
  -28.4539  -13.5977   21.8749 H   0  0  0  0  0  0
  -25.2754   -9.5684   22.4751 H   0  0  0  0  0  0
  -23.9998   -7.4634   22.7472 H   0  0  0  0  0  0
  -21.0828   -8.8765   19.8953 H   0  0  0  0  0  0
  -22.3682  -10.9668   19.6164 H   0  0  0  0  0  0
  -21.2003   -7.6144   23.9710 H   0  0  0  0  0  0
  -21.1481   -6.0519   25.9074 H   0  0  0  0  0  0
  -22.0601   -2.7603   23.2849 H   0  0  0  0  0  0
  -22.4114  -11.9896   22.4792 H   0  0  0  0  0  0
  -21.1126  -13.1271   22.2602 H   0  0  0  0  0  0
  -24.6553  -15.8331   20.4903 H   0  0  0  0  0  0
  -26.2613  -15.6138   20.0154 H   0  0  0  0  0  0
  -26.7145  -32.5505   23.1146 H   0  0  0  0  0  0
  -25.0036  -33.9760   25.0447 H   0  0  0  0  0  0
  -22.7042  -31.3024   21.4021 H   0  0  0  0  0  0
  -23.3729  -35.9662   23.3355 H   0  0  0  0  0  0
  -24.3566  -36.8868   22.2045 H   0  0  0  0  0  0
  -23.7263  -37.6536   23.6626 H   0  0  0  0  0  0
  -26.0675  -31.5767   20.5979 H   0  0  0  0  0  0
  -26.8318  -30.8682   21.9912 H   0  0  0  0  0  0
  -28.1185  -29.0467   21.1794 H   0  0  0  0  0  0
  -26.0511  -25.9347   19.0367 H   0  0  0  0  0  0
  -23.9825  -27.2883   19.0339 H   0  0  0  0  0  0
  -23.7398  -30.5891   19.4021 H   0  0  0  0  0  0
  -22.7503  -29.2372   19.8645 H   0  0  0  0  0  0
  -25.1290  -36.1977   25.0827 H   0  0  0  0  0  0
  -20.9974  -28.3260   24.1422 H   0  0  0  0  0  0
  -20.5671  -26.2295   23.3608 H   0  0  0  0  0  0
  -21.6642  -26.7447   22.1206 H   0  0  0  0  0  0
  -19.6903  -25.6303   21.1235 H   0  0  0  0  0  0
  -19.6676  -27.3208   20.6750 H   0  0  0  0  0  0
  -17.4190  -26.6684   21.4031 H   0  0  0  0  0  0
  -18.0325  -26.0077   22.9020 H   0  0  0  0  0  0
  -19.7936  -30.7269   24.2287 H   0  0  0  0  0  0
  -17.5011  -31.6269   24.5167 H   0  0  0  0  0  0
  -15.5350  -30.2990   23.7646 H   0  0  0  0  0  0
  -15.8673  -28.0821   22.7069 H   0  0  0  0  0  0
  -24.5898  -30.7066   25.7796 H   0  0  0  0  0  0
  -24.8915  -32.2869   26.4917 H   0  0  0  0  0  0
  -25.8059  -30.8872   27.0226 H   0  0  0  0  0  0
  -26.2872  -29.6790   24.1170 H   0  0  0  0  0  0
  -27.4045  -29.7274   25.4615 H   0  0  0  0  0  0
  -27.8722  -30.4336   23.9324 H   0  0  0  0  0  0
  -27.2684  -33.3607   26.2091 H   0  0  0  0  0  0
  -28.3844  -32.6886   25.0294 H   0  0  0  0  0  0
  -28.0746  -31.8422   26.5369 H   0  0  0  0  0  0
  -28.2638  -38.0071   24.7465 H   0  0  0  0  0  0
  -28.1023  -36.2601   24.6372 H   0  0  0  0  0  0
  -27.2282  -37.1564   25.8877 H   0  0  0  0  0  0
  -20.9351  -29.8751   21.6898 H   0  0  0  0  0  0
  -26.0192  -38.2870   24.1360 H   0  0  0  0  0  0
  -27.5099  -19.5213   21.1522 H   0  0  0  0  0  0
  -27.6918  -17.1041   21.2461 H   0  0  0  0  0  0
  -31.9190  -17.3484   20.4694 H   0  0  0  0  0  0
  -27.8476  -25.8581   21.9686 H   0  0  0  0  0  0
  -30.6594  -23.8364   19.9324 H   0  0  0  0  0  0
  -29.3243  -24.1847   18.8670 H   0  0  0  0  0  0
  -28.1392  -23.7005   22.9294 H   0  0  0  0  0  0
  -29.8440  -23.4497   22.6727 H   0  0  0  0  0  0
  -30.0645  -21.7269   18.8386 H   0  0  0  0  0  0
  -28.3767  -21.9333   19.2003 H   0  0  0  0  0  0
  -27.5798  -21.7385   21.5560 H   0  0  0  0  0  0
  -28.7193  -21.2720   22.8012 H   0  0  0  0  0  0
  -31.9963  -20.7612   19.5371 H   0  0  0  0  0  0
  -32.9532  -19.3902   20.0329 H   0  0  0  0  0  0
  -28.9424  -15.1849   21.3304 H   0  0  0  0  0  0
  -31.7793  -21.3653   21.8363 H   0  0  0  0  0  0
  -33.3579  -21.2991   21.4034 H   0  0  0  0  0  0
  -32.7107  -20.1026   22.3102 H   0  0  0  0  0  0
  1 25  1  0  0  0
  1 30  2  0  0  0
  1 85  1  0  0  0
  2  3  1  0  0  0
  2 25  1  0  0  0
  2 87  1  0  0  0
  2 88  1  0  0  0
  3  4  1  0  0  0
  3 89  1  0  0  0
  3 90  1  0  0  0
  4  5  1  0  0  0
  4 91  1  0  0  0
  4 92  1  0  0  0
  5  6  1  0  0  0
  5 26  1  0  0  0
  5 93  1  0  0  0
  6 25  1  0  0  0
  6 94  1  0  0  0
  6 95  1  0  0  0
  7  8  2  0  0  0
  7 26  1  0  0  0
  7 29  1  0  0  0
  8  9  1  0  0  0
  8 22  1  0  0  0
  9 10  1  0  0  0
  9 27  2  0  0  0
 10 11  2  0  0  0
 10 15  1  0  0  0
 11 12  1  0  0  0
 11 96  1  0  0  0
 12 13  2  0  0  0
 12 97  1  0  0  0
 13 14  1  0  0  0
 13 31  1  0  0  0
 14 15  2  0  0  0
 14 98  1  0  0  0
 15 99  1  0  0  0
 16 17  2  0  0  0
 16 21  1  0  0  0
 16 31  1  0  0  0
 17 18  1  0  0  0
 17100  1  0  0  0
 18 19  2  0  0  0
 18101  1  0  0  0
 19 20  1  0  0  0
 19 24  1  0  0  0
 20 21  2  0  0  0
 20102  1  0  0  0
 21 23  1  0  0  0
 22 28  1  0  0  0
 22 32  2  0  0  0
 26 27  1  0  0  0
 28103  1  0  0  0
 28104  1  0  0  0
 29105  1  0  0  0
 29106  1  0  0  0
 33 34  1  0  0  0
 33 66  1  0  0  0
 33 70  2  0  0  0
 34 36  1  0  0  0
 34 59  1  0  0  0
 34107  1  0  0  0
 35 44  2  0  0  0
 35 45  1  0  0  0
 35 68  1  0  0  0
 36 56  1  0  0  0
 36108  1  0  0  0
 37 39  1  0  0  0
 37 47  1  0  0  0
 37 66  1  0  0  0
 37109  1  0  0  0
 38 43  2  0  0  0
 38 46  1  0  0  0
 38 47  1  0  0  0
 39 64  1  0  0  0
 39 67  2  0  0  0
 40 52  1  0  0  0
 40 53  2  0  0  0
 40 58  1  0  0  0
 41110  1  0  0  0
 41111  1  0  0  0
 41112  1  0  0  0
 41 48  1  0  0  0
 42 43  1  0  0  0
 42 66  1  0  0  0
 42113  1  0  0  0
 42114  1  0  0  0
 43 44  1  0  0  0
 44115  1  0  0  0
 45 46  2  0  0  0
 45116  1  0  0  0
 46117  1  0  0  0
 47118  1  0  0  0
 47119  1  0  0  0
 48 56  1  0  0  0
 48 65  1  0  0  0
 48120  1  0  0  0
 49 50  1  0  0  0
 49 53  1  0  0  0
 49 64  1  0  0  0
 49121  1  0  0  0
 50 51  1  0  0  0
 50122  1  0  0  0
 50123  1  0  0  0
 51 52  1  0  0  0
 51124  1  0  0  0
 51125  1  0  0  0
 52126  1  0  0  0
 52127  1  0  0  0
 53 54  1  0  0  0
 54 55  2  0  0  0
 54128  1  0  0  0
 55 57  1  0  0  0
 55129  1  0  0  0
 56 69  2  0  0  0
 57 58  2  0  0  0
 57130  1  0  0  0
 58131  1  0  0  0
 59 60  1  0  0  0
 59 61  1  0  0  0
 59 62  1  0  0  0
 60132  1  0  0  0
 60133  1  0  0  0
 60134  1  0  0  0
 61135  1  0  0  0
 61136  1  0  0  0
 61137  1  0  0  0
 62138  1  0  0  0
 62139  1  0  0  0
 62140  1  0  0  0
 63 65  1  0  0  0
 63141  1  0  0  0
 63142  1  0  0  0
 63143  1  0  0  0
 64144  1  0  0  0
 65145  1  0  0  0
 68 78  1  0  0  0
 71 72  2  0  0  0
 71 75  1  0  0  0
 71146  1  0  0  0
 72 76  1  0  0  0
 72147  1  0  0  0
 73 74  1  0  0  0
 73 76  2  0  0  0
 73148  1  0  0  0
 74 75  2  0  0  0
 74 83  1  0  0  0
 75 84  1  0  0  0
 76 85  1  0  0  0
 77 78  2  0  0  0
 77 79  1  0  0  0
 77 80  1  0  0  0
 78149  1  0  0  0
 79 81  1  0  0  0
 79150  1  0  0  0
 79151  1  0  0  0
 80 82  1  0  0  0
 80152  1  0  0  0
 80153  1  0  0  0
 81 84  1  0  0  0
 81154  1  0  0  0
 81155  1  0  0  0
 82 84  1  0  0  0
 82156  1  0  0  0
 82157  1  0  0  0
 83 86  1  0  0  0
 83158  1  0  0  0
 83159  1  0  0  0
 85160  1  0  0  0
 86161  1  0  0  0
 86162  1  0  0  0
 86163  1  0  0  0
M  CHG  1  86   1
M  ISO  4   1 100  68 101  78 101  85 100
M  END
> <chiral flag>
0

> <version>
0

> <s_m_source_file>
/data/baiqing/PycharmProjects/Reinvent-master-3.2/result/LINK_invent/BTK/process_docking_weight1_custom_product_contain_oxygen_bond_distance_aromatic_linkinvent_7_9_3/rearranged_h_0102.sdf

> <i_m_source_file_index>
24

> <r_mmod_Potential_Energy-OPLS-2005>
-288.813232421875

> <r_mmod_Stretch_Energy-OPLS-2005>
55.5411682128906

> <r_mmod_Bend_Energy-OPLS-2005>
125.687088012695

> <r_mmod_Torsional_Energy-OPLS-2005>
251.721893310547

> <r_mmod_Improper_Torsional_Energy-OPLS-2005>
8.80611228942871

> <r_mmod_Van_der_Waal_Energy-OPLS-2005>
147.714248657227

> <r_mmod_Electrostatic_Energy-OPLS-2005>
-449.030975341797

> <r_mmod_Solvation_Energy-OPLS-2005>
-458.023620605469

> <b_mmod_Minimization_Converged-OPLS-2005>
0

> <r_mmod_RMS_Derivative-OPLS-2005>
0.737869739532471

$$$$
25
                    3D
 Structure written by MMmdl.
158167  0  0  1  0            999 V2000
  -30.6637  -14.6337   20.4686 C   0  0  0  0  0  0
  -30.4140  -12.3800   19.4734 C   0  0  0  0  0  0
  -29.5017  -12.4982   18.2340 C   0  0  0  0  0  0
  -28.0246  -12.3461   18.6418 C   0  0  0  0  0  0
  -27.6455  -13.2288   19.8619 C   0  0  2  0  0  0
  -28.6887  -13.1277   20.9988 C   0  0  0  0  0  0
  -25.2508  -13.8193   20.5716 C   0  0  0  0  0  0
  -24.1792  -13.0438   20.9193 C   0  0  0  0  0  0
  -24.6377  -11.6913   20.8736 C   0  0  0  0  0  0
  -23.9059  -10.4286   21.0390 C   0  0  0  0  0  0
  -24.3609   -9.4204   21.9173 C   0  0  0  0  0  0
  -23.6285   -8.2241   22.0748 C   0  0  0  0  0  0
  -22.4272   -8.0271   21.3539 C   0  0  0  0  0  0
  -21.9902   -9.0243   20.4642 C   0  0  0  0  0  0
  -22.7227  -10.2123   20.3044 C   0  0  0  0  0  0
  -21.6854   -6.0722   22.5268 C   0  0  0  0  0  0
  -21.4022   -6.5633   23.8202 C   0  0  0  0  0  0
  -21.3663   -5.6788   24.9167 C   0  0  0  0  0  0
  -21.6049   -4.3049   24.7221 C   0  0  0  0  0  0
  -21.8822   -3.8134   23.4344 C   0  0  0  0  0  0
  -21.9199   -4.6949   22.3397 C   0  0  0  0  0  0
  -22.7818  -13.5216   21.1863 C   0  0  0  0  0  0
  -22.1663   -4.2133   21.0974 F   0  0  0  0  0  0
  -21.5630   -3.4536   25.7736 F   0  0  0  0  0  0
  -30.0018  -13.4353   20.4218 N   0  0  0  0  0  0
  -26.2944  -12.9400   20.3334 N   0  0  0  0  0  0
  -25.9312  -11.6538   20.5772 N   0  0  0  0  0  0
  -22.0479  -12.8190   22.0417 N   0  0  0  0  0  0
  -25.4220  -15.1920   20.4162 N   0  0  0  0  0  0
  -31.8443  -14.7094   20.1198 O   0  0  0  0  0  0
  -21.6649   -6.8862   21.4229 O   0  0  0  0  0  0
  -22.3497  -14.5527   20.6720 O   0  0  0  0  0  0
  -24.6271  -31.8599   23.2036 C   0  0  0  0  0  0
  -25.9124  -32.4770   23.8370 C   0  0  1  0  0  0
  -27.2166  -27.3193   20.1174 C   0  0  0  0  0  0
  -25.5952  -33.8574   24.2292 N   0  0  0  0  0  0
  -23.4191  -30.4851   21.5465 C   0  0  2  0  0  0
  -24.8642  -28.9425   20.1089 C   0  0  0  0  0  0
  -22.7475  -29.4635   22.4946 C   0  0  0  0  0  0
  -18.0282  -28.1364   22.8493 C   0  0  0  0  0  0
  -24.1495  -36.7285   23.2632 C   0  0  0  0  0  0
  -25.9616  -30.7887   21.3765 C   0  0  0  0  0  0
  -26.0336  -29.4180   20.7157 C   0  0  0  0  0  0
  -27.2144  -28.6188   20.7101 C   0  0  0  0  0  0
  -26.0267  -26.8993   19.4806 C   0  0  0  0  0  0
  -24.8627  -27.6888   19.4816 C   0  0  0  0  0  0
  -23.6325  -29.8215   20.1613 C   0  0  0  0  0  0
  -25.4111  -36.3081   24.0335 C   0  0  1  0  0  0
  -20.5882  -28.3680   23.1272 C   0  0  2  0  0  0
  -20.6776  -26.9409   22.5392 C   0  0  0  0  0  0
  -19.5749  -26.6368   21.5202 C   0  0  0  0  0  0
  -18.1927  -26.7906   22.1621 C   0  0  0  0  0  0
  -19.1536  -28.8844   23.2874 C   0  0  0  0  0  0
  -18.9463  -30.1446   23.8893 C   0  0  0  0  0  0
  -17.6463  -30.6577   24.0563 C   0  0  0  0  0  0
  -25.9055  -34.9449   23.5109 C   0  0  0  0  0  0
  -16.5353  -29.9070   23.6335 C   0  0  0  0  0  0
  -16.7270  -28.6483   23.0365 C   0  0  0  0  0  0
  -26.4503  -31.6572   25.0735 C   0  0  0  0  0  0
  -25.3738  -31.3716   26.1472 C   0  0  0  0  0  0
  -27.0325  -30.2988   24.6195 C   0  0  0  0  0  0
  -27.6089  -32.4292   25.7489 C   0  0  0  0  0  0
  -27.5577  -37.1793   24.8466 C   0  0  0  0  0  0
  -21.4191  -29.3049   22.3683 N   0  0  0  0  0  0
  -26.4282  -37.3778   23.9415 N   0  0  0  0  0  0
  -24.6877  -31.0624   22.0981 N   0  0  0  0  0  0
  -23.4209  -28.8163   23.3008 O   0  0  0  0  0  0
  -28.3242  -26.4590   20.1751 O   0  0  0  0  0  0
  -26.5619  -34.8919   22.4672 O   0  0  0  0  0  0
  -23.5437  -32.1395   23.7367 O   0  0  0  0  0  0
  -30.0817  -19.6211   19.5794 C   0  0  0  0  0  0
  -29.6785  -20.9644   19.8519 C   0  0  0  0  0  0
  -28.5877  -20.1767   21.8324 C   0  0  0  0  0  0
  -29.7753  -18.5217   20.4311 C   0  0  0  0  0  0
  -28.9363  -21.3058   21.0136 C   0  0  0  0  0  0
  -28.9949  -18.8355   21.5653 C   0  0  0  0  0  0
  -28.1755  -23.0589   22.6165 C   0  0  0  0  0  0
  -28.7703  -24.3764   23.0863 C   0  0  0  0  0  0
  -29.7818  -24.6756   21.9871 C   0  0  0  0  0  0
  -29.1599  -23.9917   20.7648 C   0  0  2  0  0  0
  -30.4131  -17.1168   20.1161 C   0  0  0  0  0  0
  -28.0657  -24.9954   20.1613 C   0  0  0  0  0  0
  -28.6142  -22.7139   21.3795 N   0  0  0  0  0  0
  -29.9366  -15.7852   20.6398 N   0  0  0  0  0  0
  -27.3543  -22.4558   23.3125 O   0  0  0  0  0  0
  -28.6588  -17.8575   22.4402 F   0  0  0  0  0  0
  -31.4629  -12.4604   19.1816 H   0  0  0  0  0  0
  -30.3098  -11.3963   19.9343 H   0  0  0  0  0  0
  -29.7658  -11.7414   17.4946 H   0  0  0  0  0  0
  -29.6554  -13.4652   17.7522 H   0  0  0  0  0  0
  -27.8573  -11.2947   18.8790 H   0  0  0  0  0  0
  -27.3729  -12.5720   17.7977 H   0  0  0  0  0  0
  -27.6515  -14.2592   19.5034 H   0  0  0  0  0  0
  -28.6913  -12.1271   21.4344 H   0  0  0  0  0  0
  -28.4460  -13.8147   21.8114 H   0  0  0  0  0  0
  -25.2747   -9.5693   22.4754 H   0  0  0  0  0  0
  -23.9998   -7.4636   22.7468 H   0  0  0  0  0  0
  -21.0834   -8.8748   19.8948 H   0  0  0  0  0  0
  -22.3668  -10.9657   19.6159 H   0  0  0  0  0  0
  -21.2014   -7.6144   23.9697 H   0  0  0  0  0  0
  -21.1488   -6.0523   25.9070 H   0  0  0  0  0  0
  -22.0601   -2.7595   23.2848 H   0  0  0  0  0  0
  -22.4111  -11.9843   22.4774 H   0  0  0  0  0  0
  -21.1103  -13.1209   22.2658 H   0  0  0  0  0  0
  -24.6595  -15.8487   20.5376 H   0  0  0  0  0  0
  -26.2804  -15.6344   20.1139 H   0  0  0  0  0  0
  -26.7183  -32.5436   23.1110 H   0  0  0  0  0  0
  -25.0147  -33.9722   25.0476 H   0  0  0  0  0  0
  -22.7132  -31.3066   21.4042 H   0  0  0  0  0  0
  -23.3765  -35.9614   23.3286 H   0  0  0  0  0  0
  -24.3591  -36.8906   22.2050 H   0  0  0  0  0  0
  -23.7225  -37.6472   23.6665 H   0  0  0  0  0  0
  -26.0979  -31.5507   20.6081 H   0  0  0  0  0  0
  -26.8413  -30.8332   22.0075 H   0  0  0  0  0  0
  -28.1098  -28.9779   21.1975 H   0  0  0  0  0  0
  -25.9710  -25.9428   18.9823 H   0  0  0  0  0  0
  -23.9670  -27.3197   18.9998 H   0  0  0  0  0  0
  -23.7508  -30.5995   19.4066 H   0  0  0  0  0  0
  -22.7531  -29.2503   19.8590 H   0  0  0  0  0  0
  -25.1276  -36.1937   25.0819 H   0  0  0  0  0  0
  -20.9966  -28.3239   24.1394 H   0  0  0  0  0  0
  -20.5674  -26.2290   23.3588 H   0  0  0  0  0  0
  -21.6637  -26.7431   22.1183 H   0  0  0  0  0  0
  -19.6917  -25.6280   21.1227 H   0  0  0  0  0  0
  -19.6673  -27.3191   20.6746 H   0  0  0  0  0  0
  -17.4190  -26.6655   21.4034 H   0  0  0  0  0  0
  -18.0355  -26.0034   22.9009 H   0  0  0  0  0  0
  -19.7941  -30.7262   24.2259 H   0  0  0  0  0  0
  -17.5017  -31.6266   24.5151 H   0  0  0  0  0  0
  -15.5357  -30.2976   23.7650 H   0  0  0  0  0  0
  -15.8663  -28.0790   22.7094 H   0  0  0  0  0  0
  -24.5946  -30.7014   25.7815 H   0  0  0  0  0  0
  -24.8892  -32.2880   26.4868 H   0  0  0  0  0  0
  -25.8066  -30.8930   27.0268 H   0  0  0  0  0  0
  -26.2882  -29.6746   24.1235 H   0  0  0  0  0  0
  -27.4016  -29.7245   25.4700 H   0  0  0  0  0  0
  -27.8778  -30.4243   23.9417 H   0  0  0  0  0  0
  -27.2748  -33.3642   26.2005 H   0  0  0  0  0  0
  -28.3939  -32.6746   25.0319 H   0  0  0  0  0  0
  -28.0721  -31.8432   26.5443 H   0  0  0  0  0  0
  -28.2585  -38.0102   24.7537 H   0  0  0  0  0  0
  -28.1075  -36.2635   24.6257 H   0  0  0  0  0  0
  -27.2310  -37.1396   25.8871 H   0  0  0  0  0  0
  -20.9379  -29.8775   21.6896 H   0  0  0  0  0  0
  -26.0167  -38.2846   24.1428 H   0  0  0  0  0  0
  -30.6809  -19.4396   18.6975 H   0  0  0  0  0  0
  -29.9859  -21.7353   19.1594 H   0  0  0  0  0  0
  -28.0208  -20.2962   22.7402 H   0  0  0  0  0  0
  -29.2364  -24.2911   24.0683 H   0  0  0  0  0  0
  -27.9867  -25.1339   23.1342 H   0  0  0  0  0  0
  -30.7397  -24.2096   22.2261 H   0  0  0  0  0  0
  -29.9676  -25.7407   21.8564 H   0  0  0  0  0  0
  -29.9390  -23.7983   20.0263 H   0  0  0  0  0  0
  -31.4631  -17.2231   20.3940 H   0  0  0  0  0  0
  -30.4163  -17.0199   19.0287 H   0  0  0  0  0  0
  -27.1323  -24.8243   20.7009 H   0  0  0  0  0  0
  -27.8687  -24.6921   19.1331 H   0  0  0  0  0  0
  -28.9704  -15.7027   20.9156 H   0  0  0  0  0  0
  1 25  1  0  0  0
  1 30  2  0  0  0
  1 84  1  0  0  0
  2  3  1  0  0  0
  2 25  1  0  0  0
  2 87  1  0  0  0
  2 88  1  0  0  0
  3  4  1  0  0  0
  3 89  1  0  0  0
  3 90  1  0  0  0
  4  5  1  0  0  0
  4 91  1  0  0  0
  4 92  1  0  0  0
  5  6  1  0  0  0
  5 26  1  0  0  0
  5 93  1  0  0  0
  6 25  1  0  0  0
  6 94  1  0  0  0
  6 95  1  0  0  0
  7  8  2  0  0  0
  7 26  1  0  0  0
  7 29  1  0  0  0
  8  9  1  0  0  0
  8 22  1  0  0  0
  9 10  1  0  0  0
  9 27  2  0  0  0
 10 11  2  0  0  0
 10 15  1  0  0  0
 11 12  1  0  0  0
 11 96  1  0  0  0
 12 13  2  0  0  0
 12 97  1  0  0  0
 13 14  1  0  0  0
 13 31  1  0  0  0
 14 15  2  0  0  0
 14 98  1  0  0  0
 15 99  1  0  0  0
 16 17  2  0  0  0
 16 21  1  0  0  0
 16 31  1  0  0  0
 17 18  1  0  0  0
 17100  1  0  0  0
 18 19  2  0  0  0
 18101  1  0  0  0
 19 20  1  0  0  0
 19 24  1  0  0  0
 20 21  2  0  0  0
 20102  1  0  0  0
 21 23  1  0  0  0
 22 28  1  0  0  0
 22 32  2  0  0  0
 26 27  1  0  0  0
 28103  1  0  0  0
 28104  1  0  0  0
 29105  1  0  0  0
 29106  1  0  0  0
 33 34  1  0  0  0
 33 66  1  0  0  0
 33 70  2  0  0  0
 34 36  1  0  0  0
 34 59  1  0  0  0
 34107  1  0  0  0
 35 44  2  0  0  0
 35 45  1  0  0  0
 35 68  1  0  0  0
 36 56  1  0  0  0
 36108  1  0  0  0
 37 39  1  0  0  0
 37 47  1  0  0  0
 37 66  1  0  0  0
 37109  1  0  0  0
 38 43  2  0  0  0
 38 46  1  0  0  0
 38 47  1  0  0  0
 39 64  1  0  0  0
 39 67  2  0  0  0
 40 52  1  0  0  0
 40 53  2  0  0  0
 40 58  1  0  0  0
 41110  1  0  0  0
 41111  1  0  0  0
 41112  1  0  0  0
 41 48  1  0  0  0
 42 43  1  0  0  0
 42 66  1  0  0  0
 42113  1  0  0  0
 42114  1  0  0  0
 43 44  1  0  0  0
 44115  1  0  0  0
 45 46  2  0  0  0
 45116  1  0  0  0
 46117  1  0  0  0
 47118  1  0  0  0
 47119  1  0  0  0
 48 56  1  0  0  0
 48 65  1  0  0  0
 48120  1  0  0  0
 49 50  1  0  0  0
 49 53  1  0  0  0
 49 64  1  0  0  0
 49121  1  0  0  0
 50 51  1  0  0  0
 50122  1  0  0  0
 50123  1  0  0  0
 51 52  1  0  0  0
 51124  1  0  0  0
 51125  1  0  0  0
 52126  1  0  0  0
 52127  1  0  0  0
 53 54  1  0  0  0
 54 55  2  0  0  0
 54128  1  0  0  0
 55 57  1  0  0  0
 55129  1  0  0  0
 56 69  2  0  0  0
 57 58  2  0  0  0
 57130  1  0  0  0
 58131  1  0  0  0
 59 60  1  0  0  0
 59 61  1  0  0  0
 59 62  1  0  0  0
 60132  1  0  0  0
 60133  1  0  0  0
 60134  1  0  0  0
 61135  1  0  0  0
 61136  1  0  0  0
 61137  1  0  0  0
 62138  1  0  0  0
 62139  1  0  0  0
 62140  1  0  0  0
 63 65  1  0  0  0
 63141  1  0  0  0
 63142  1  0  0  0
 63143  1  0  0  0
 64144  1  0  0  0
 65145  1  0  0  0
 68 82  1  0  0  0
 71 72  2  0  0  0
 71 74  1  0  0  0
 71146  1  0  0  0
 72 75  1  0  0  0
 72147  1  0  0  0
 73 75  2  0  0  0
 73 76  1  0  0  0
 73148  1  0  0  0
 74 76  2  0  0  0
 74 81  1  0  0  0
 75 83  1  0  0  0
 76 86  1  0  0  0
 77 78  1  0  0  0
 77 83  1  0  0  0
 77 85  2  0  0  0
 78 79  1  0  0  0
 78149  1  0  0  0
 78150  1  0  0  0
 79 80  1  0  0  0
 79151  1  0  0  0
 79152  1  0  0  0
 80 82  1  0  0  0
 80 83  1  0  0  0
 80153  1  0  0  0
 81 84  1  0  0  0
 81154  1  0  0  0
 81155  1  0  0  0
 82156  1  0  0  0
 82157  1  0  0  0
 84158  1  0  0  0
M  ISO  4   1 100  68 101  82 101  84 100
M  END
> <chiral flag>
0

> <version>
0

> <s_m_source_file>
/data/baiqing/PycharmProjects/Reinvent-master-3.2/result/LINK_invent/BTK/process_docking_weight1_custom_product_contain_oxygen_bond_distance_aromatic_linkinvent_7_9_3/rearranged_h_0102.sdf

> <i_m_source_file_index>
25

> <r_mmod_Potential_Energy-OPLS-2005>
177.890991210938

> <r_mmod_Stretch_Energy-OPLS-2005>
91.2617645263672

> <r_mmod_Bend_Energy-OPLS-2005>
188.735153198242

> <r_mmod_Torsional_Energy-OPLS-2005>
277.281158447266

> <r_mmod_Improper_Torsional_Energy-OPLS-2005>
8.59231472015381

> <r_mmod_Van_der_Waal_Energy-OPLS-2005>
155.857009887695

> <r_mmod_Electrostatic_Energy-OPLS-2005>
-382.813873291016

> <r_mmod_Solvation_Energy-OPLS-2005>
-212.413619995117

> <b_mmod_Minimization_Converged-OPLS-2005>
0

> <r_mmod_RMS_Derivative-OPLS-2005>
1.78259813785553

$$$$
26
                    3D
 Structure written by MMmdl.
161170  0  0  1  0            999 V2000
  -30.6325  -14.6671   20.4442 C   0  0  0  0  0  0
  -30.4248  -12.3965   19.4723 C   0  0  0  0  0  0
  -29.5072  -12.4976   18.2336 C   0  0  0  0  0  0
  -28.0306  -12.3399   18.6442 C   0  0  0  0  0  0
  -27.6474  -13.2269   19.8598 C   0  0  2  0  0  0
  -28.6905  -13.1264   20.9962 C   0  0  0  0  0  0
  -25.2525  -13.8194   20.5703 C   0  0  0  0  0  0
  -24.1808  -13.0444   20.9209 C   0  0  0  0  0  0
  -24.6395  -11.6920   20.8754 C   0  0  0  0  0  0
  -23.9071  -10.4298   21.0409 C   0  0  0  0  0  0
  -24.3620   -9.4207   21.9188 C   0  0  0  0  0  0
  -23.6293   -8.2242   22.0754 C   0  0  0  0  0  0
  -22.4277   -8.0286   21.3543 C   0  0  0  0  0  0
  -21.9914   -9.0257   20.4644 C   0  0  0  0  0  0
  -22.7241  -10.2136   20.3054 C   0  0  0  0  0  0
  -21.6852   -6.0737   22.5279 C   0  0  0  0  0  0
  -21.4013   -6.5639   23.8215 C   0  0  0  0  0  0
  -21.3660   -5.6789   24.9176 C   0  0  0  0  0  0
  -21.6047   -4.3054   24.7223 C   0  0  0  0  0  0
  -21.8818   -3.8147   23.4345 C   0  0  0  0  0  0
  -21.9192   -4.6964   22.3401 C   0  0  0  0  0  0
  -22.7835  -13.5229   21.1873 C   0  0  0  0  0  0
  -22.1662   -4.2152   21.0979 F   0  0  0  0  0  0
  -21.5628   -3.4538   25.7736 F   0  0  0  0  0  0
  -30.0045  -13.4474   20.4247 N   0  0  0  0  0  0
  -26.2960  -12.9393   20.3315 N   0  0  0  0  0  0
  -25.9326  -11.6542   20.5766 N   0  0  0  0  0  0
  -22.0467  -12.8216   22.0420 N   0  0  0  0  0  0
  -25.4221  -15.1917   20.4115 N   0  0  0  0  0  0
  -31.8093  -14.7722   20.0894 O   0  0  0  0  0  0
  -21.6640   -6.8883   21.4244 O   0  0  0  0  0  0
  -22.3524  -14.5533   20.6717 O   0  0  0  0  0  0
  -24.6289  -31.8574   23.2014 C   0  0  0  0  0  0
  -25.9139  -32.4756   23.8351 C   0  0  1  0  0  0
  -27.2270  -27.3106   20.1018 C   0  0  0  0  0  0
  -25.5950  -33.8559   24.2299 N   0  0  0  0  0  0
  -23.4210  -30.4816   21.5433 C   0  0  2  0  0  0
  -24.8641  -28.9283   20.1108 C   0  0  0  0  0  0
  -22.7478  -29.4634   22.4931 C   0  0  0  0  0  0
  -18.0304  -28.1389   22.8486 C   0  0  0  0  0  0
  -24.1499  -36.7279   23.2638 C   0  0  0  0  0  0
  -25.9642  -30.7796   21.3768 C   0  0  0  0  0  0
  -26.0328  -29.4080   20.7147 C   0  0  0  0  0  0
  -27.2129  -28.6092   20.6987 C   0  0  0  0  0  0
  -26.0289  -26.8709   19.4956 C   0  0  0  0  0  0
  -24.8640  -27.6654   19.4968 C   0  0  0  0  0  0
  -23.6346  -29.8145   20.1582 C   0  0  0  0  0  0
  -25.4124  -36.3074   24.0330 C   0  0  1  0  0  0
  -20.5893  -28.3711   23.1284 C   0  0  2  0  0  0
  -20.6794  -26.9428   22.5422 C   0  0  0  0  0  0
  -19.5779  -26.6401   21.5210 C   0  0  0  0  0  0
  -18.1959  -26.7937   22.1619 C   0  0  0  0  0  0
  -19.1545  -28.8866   23.2888 C   0  0  0  0  0  0
  -18.9456  -30.1464   23.8910 C   0  0  0  0  0  0
  -17.6452  -30.6586   24.0574 C   0  0  0  0  0  0
  -25.9057  -34.9434   23.5115 C   0  0  0  0  0  0
  -16.5351  -29.9071   23.6326 C   0  0  0  0  0  0
  -16.7286  -28.6491   23.0337 C   0  0  0  0  0  0
  -26.4520  -31.6551   25.0715 C   0  0  0  0  0  0
  -25.3763  -31.3655   26.1463 C   0  0  0  0  0  0
  -27.0379  -30.2985   24.6146 C   0  0  0  0  0  0
  -27.6085  -32.4284   25.7482 C   0  0  0  0  0  0
  -27.5582  -37.1801   24.8470 C   0  0  0  0  0  0
  -21.4194  -29.3080   22.3687 N   0  0  0  0  0  0
  -26.4303  -37.3760   23.9405 N   0  0  0  0  0  0
  -24.6893  -31.0590   22.0955 N   0  0  0  0  0  0
  -23.4212  -28.8172   23.3006 O   0  0  0  0  0  0
  -28.3818  -26.5125   20.1399 O   0  0  0  0  0  0
  -26.5620  -34.8895   22.4679 O   0  0  0  0  0  0
  -23.5462  -32.1408   23.7339 O   0  0  0  0  0  0
  -28.5590  -19.1460   20.3715 C   0  0  0  0  0  0
  -28.4077  -20.5645   20.5445 C   0  0  0  0  0  0
  -30.7740  -20.8163   20.3000 C   0  0  0  0  0  0
  -29.8219  -18.5189   20.1618 C   0  0  0  0  0  0
  -30.9364  -19.4074   20.1489 C   0  0  0  0  0  0
  -29.5185  -21.4572   20.5167 C   0  0  0  0  0  0
  -30.2597  -23.4665   21.7236 C   0  0  0  0  0  0
  -29.5858  -24.5881   22.4966 C   0  0  0  0  0  0
  -28.1298  -24.4179   22.0828 C   0  0  0  0  0  0
  -28.2588  -23.8607   20.6624 C   0  0  2  0  0  0
  -32.3464  -18.8791   19.9378 C   0  0  0  0  0  0
  -29.9636  -17.0105   19.6925 C   0  0  0  0  0  0
  -28.4508  -25.1060   19.6579 C   0  0  0  0  0  0
  -29.4393  -22.9166   20.7932 N   0  0  0  0  0  0
  -29.8471  -15.7891   20.5748 N   0  0  0  0  0  0
  -31.4265  -23.1498   21.9734 O   0  0  0  0  0  0
  -31.4708  -12.4934   19.1751 H   0  0  0  0  0  0
  -30.3391  -11.4114   19.9337 H   0  0  0  0  0  0
  -29.7733  -11.7326   17.5029 H   0  0  0  0  0  0
  -29.6555  -13.4584   17.7389 H   0  0  0  0  0  0
  -27.8711  -11.2890   18.8907 H   0  0  0  0  0  0
  -27.3761  -12.5548   17.7981 H   0  0  0  0  0  0
  -27.6526  -14.2549   19.4977 H   0  0  0  0  0  0
  -28.6995  -12.1233   21.4245 H   0  0  0  0  0  0
  -28.4412  -13.8046   21.8136 H   0  0  0  0  0  0
  -25.2762   -9.5685   22.4768 H   0  0  0  0  0  0
  -24.0000   -7.4635   22.7469 H   0  0  0  0  0  0
  -21.0849   -8.8781   19.8945 H   0  0  0  0  0  0
  -22.3706  -10.9680   19.6166 H   0  0  0  0  0  0
  -21.2005   -7.6149   23.9720 H   0  0  0  0  0  0
  -21.1485   -6.0520   25.9079 H   0  0  0  0  0  0
  -22.0596   -2.7611   23.2844 H   0  0  0  0  0  0
  -22.4077  -11.9877   22.4816 H   0  0  0  0  0  0
  -21.1086  -13.1245   22.2613 H   0  0  0  0  0  0
  -24.6523  -15.8432   20.5180 H   0  0  0  0  0  0
  -26.2656  -15.6311   20.0671 H   0  0  0  0  0  0
  -26.7189  -32.5403   23.1073 H   0  0  0  0  0  0
  -25.0097  -33.9700   25.0443 H   0  0  0  0  0  0
  -22.7158  -31.3028   21.3997 H   0  0  0  0  0  0
  -23.3761  -35.9611   23.3315 H   0  0  0  0  0  0
  -24.3602  -36.8900   22.2057 H   0  0  0  0  0  0
  -23.7254  -37.6479   23.6660 H   0  0  0  0  0  0
  -26.1151  -31.5431   20.6130 H   0  0  0  0  0  0
  -26.8379  -30.8156   22.0164 H   0  0  0  0  0  0
  -28.1152  -28.9755   21.1690 H   0  0  0  0  0  0
  -25.9597  -25.9005   19.0304 H   0  0  0  0  0  0
  -23.9627  -27.2899   19.0311 H   0  0  0  0  0  0
  -23.7655  -30.5938   19.4053 H   0  0  0  0  0  0
  -22.7510  -29.2514   19.8524 H   0  0  0  0  0  0
  -25.1301  -36.1948   25.0819 H   0  0  0  0  0  0
  -20.9985  -28.3280   24.1402 H   0  0  0  0  0  0
  -20.5716  -26.2296   23.3615 H   0  0  0  0  0  0
  -21.6656  -26.7492   22.1196 H   0  0  0  0  0  0
  -19.6947  -25.6313   21.1228 H   0  0  0  0  0  0
  -19.6703  -27.3218   20.6742 H   0  0  0  0  0  0
  -17.4224  -26.6686   21.4017 H   0  0  0  0  0  0
  -18.0379  -26.0079   22.9013 H   0  0  0  0  0  0
  -19.7925  -30.7288   24.2274 H   0  0  0  0  0  0
  -17.4995  -31.6261   24.5182 H   0  0  0  0  0  0
  -15.5344  -30.2973   23.7627 H   0  0  0  0  0  0
  -15.8694  -28.0809   22.7027 H   0  0  0  0  0  0
  -24.5902  -30.7038   25.7775 H   0  0  0  0  0  0
  -24.8974  -32.2800   26.4967 H   0  0  0  0  0  0
  -25.8098  -30.8775   27.0206 H   0  0  0  0  0  0
  -26.2957  -29.6714   24.1189 H   0  0  0  0  0  0
  -27.4120  -29.7231   25.4622 H   0  0  0  0  0  0
  -27.8805  -30.4307   23.9349 H   0  0  0  0  0  0
  -27.2705  -33.3542   26.2127 H   0  0  0  0  0  0
  -28.3862  -32.6913   25.0297 H   0  0  0  0  0  0
  -28.0814  -31.8377   26.5327 H   0  0  0  0  0  0
  -28.2600  -38.0093   24.7501 H   0  0  0  0  0  0
  -28.1077  -36.2623   24.6314 H   0  0  0  0  0  0
  -27.2310  -37.1484   25.8877 H   0  0  0  0  0  0
  -20.9376  -29.8823   21.6902 H   0  0  0  0  0  0
  -26.0199  -38.2846   24.1381 H   0  0  0  0  0  0
  -27.6686  -18.5324   20.3641 H   0  0  0  0  0  0
  -27.4162  -20.9585   20.7172 H   0  0  0  0  0  0
  -31.6676  -21.4223   20.2520 H   0  0  0  0  0  0
  -29.9942  -25.5467   22.1741 H   0  0  0  0  0  0
  -29.7251  -24.4828   23.5727 H   0  0  0  0  0  0
  -27.5527  -25.3397   22.1528 H   0  0  0  0  0  0
  -27.6423  -23.6855   22.7287 H   0  0  0  0  0  0
  -27.3526  -23.3165   20.3938 H   0  0  0  0  0  0
  -33.0953  -19.6054   20.2558 H   0  0  0  0  0  0
  -32.5215  -18.6581   18.8855 H   0  0  0  0  0  0
  -32.5133  -17.9676   20.5147 H   0  0  0  0  0  0
  -30.8717  -16.9238   19.0953 H   0  0  0  0  0  0
  -29.1804  -16.8814   18.9450 H   0  0  0  0  0  0
  -27.8248  -24.9615   18.7777 H   0  0  0  0  0  0
  -29.4563  -25.0236   19.2437 H   0  0  0  0  0  0
  -28.9249  -15.6228   20.9480 H   0  0  0  0  0  0
  1 25  1  0  0  0
  1 30  2  0  0  0
  1 85  1  0  0  0
  2  3  1  0  0  0
  2 25  1  0  0  0
  2 87  1  0  0  0
  2 88  1  0  0  0
  3  4  1  0  0  0
  3 89  1  0  0  0
  3 90  1  0  0  0
  4  5  1  0  0  0
  4 91  1  0  0  0
  4 92  1  0  0  0
  5  6  1  0  0  0
  5 26  1  0  0  0
  5 93  1  0  0  0
  6 25  1  0  0  0
  6 94  1  0  0  0
  6 95  1  0  0  0
  7  8  2  0  0  0
  7 26  1  0  0  0
  7 29  1  0  0  0
  8  9  1  0  0  0
  8 22  1  0  0  0
  9 10  1  0  0  0
  9 27  2  0  0  0
 10 11  2  0  0  0
 10 15  1  0  0  0
 11 12  1  0  0  0
 11 96  1  0  0  0
 12 13  2  0  0  0
 12 97  1  0  0  0
 13 14  1  0  0  0
 13 31  1  0  0  0
 14 15  2  0  0  0
 14 98  1  0  0  0
 15 99  1  0  0  0
 16 17  2  0  0  0
 16 21  1  0  0  0
 16 31  1  0  0  0
 17 18  1  0  0  0
 17100  1  0  0  0
 18 19  2  0  0  0
 18101  1  0  0  0
 19 20  1  0  0  0
 19 24  1  0  0  0
 20 21  2  0  0  0
 20102  1  0  0  0
 21 23  1  0  0  0
 22 28  1  0  0  0
 22 32  2  0  0  0
 26 27  1  0  0  0
 28103  1  0  0  0
 28104  1  0  0  0
 29105  1  0  0  0
 29106  1  0  0  0
 33 34  1  0  0  0
 33 66  1  0  0  0
 33 70  2  0  0  0
 34 36  1  0  0  0
 34 59  1  0  0  0
 34107  1  0  0  0
 35 44  2  0  0  0
 35 45  1  0  0  0
 35 68  1  0  0  0
 36 56  1  0  0  0
 36108  1  0  0  0
 37 39  1  0  0  0
 37 47  1  0  0  0
 37 66  1  0  0  0
 37109  1  0  0  0
 38 43  2  0  0  0
 38 46  1  0  0  0
 38 47  1  0  0  0
 39 64  1  0  0  0
 39 67  2  0  0  0
 40 52  1  0  0  0
 40 53  2  0  0  0
 40 58  1  0  0  0
 41110  1  0  0  0
 41111  1  0  0  0
 41112  1  0  0  0
 41 48  1  0  0  0
 42 43  1  0  0  0
 42 66  1  0  0  0
 42113  1  0  0  0
 42114  1  0  0  0
 43 44  1  0  0  0
 44115  1  0  0  0
 45 46  2  0  0  0
 45116  1  0  0  0
 46117  1  0  0  0
 47118  1  0  0  0
 47119  1  0  0  0
 48 56  1  0  0  0
 48 65  1  0  0  0
 48120  1  0  0  0
 49 50  1  0  0  0
 49 53  1  0  0  0
 49 64  1  0  0  0
 49121  1  0  0  0
 50 51  1  0  0  0
 50122  1  0  0  0
 50123  1  0  0  0
 51 52  1  0  0  0
 51124  1  0  0  0
 51125  1  0  0  0
 52126  1  0  0  0
 52127  1  0  0  0
 53 54  1  0  0  0
 54 55  2  0  0  0
 54128  1  0  0  0
 55 57  1  0  0  0
 55129  1  0  0  0
 56 69  2  0  0  0
 57 58  2  0  0  0
 57130  1  0  0  0
 58131  1  0  0  0
 59 60  1  0  0  0
 59 61  1  0  0  0
 59 62  1  0  0  0
 60132  1  0  0  0
 60133  1  0  0  0
 60134  1  0  0  0
 61135  1  0  0  0
 61136  1  0  0  0
 61137  1  0  0  0
 62138  1  0  0  0
 62139  1  0  0  0
 62140  1  0  0  0
 63 65  1  0  0  0
 63141  1  0  0  0
 63142  1  0  0  0
 63143  1  0  0  0
 64144  1  0  0  0
 65145  1  0  0  0
 68 83  1  0  0  0
 71 72  2  0  0  0
 71 74  1  0  0  0
 71146  1  0  0  0
 72 76  1  0  0  0
 72147  1  0  0  0
 73 75  1  0  0  0
 73 76  2  0  0  0
 73148  1  0  0  0
 74 75  2  0  0  0
 74 82  1  0  0  0
 75 81  1  0  0  0
 76 84  1  0  0  0
 77 78  1  0  0  0
 77 84  1  0  0  0
 77 86  2  0  0  0
 78 79  1  0  0  0
 78149  1  0  0  0
 78150  1  0  0  0
 79 80  1  0  0  0
 79151  1  0  0  0
 79152  1  0  0  0
 80 83  1  0  0  0
 80 84  1  0  0  0
 80153  1  0  0  0
 81154  1  0  0  0
 81155  1  0  0  0
 81156  1  0  0  0
 82 85  1  0  0  0
 82157  1  0  0  0
 82158  1  0  0  0
 83159  1  0  0  0
 83160  1  0  0  0
 85161  1  0  0  0
M  ISO  4   1 100  68 101  83 101  85 100
M  END
> <chiral flag>
0

> <version>
0

> <s_m_source_file>
/data/baiqing/PycharmProjects/Reinvent-master-3.2/result/LINK_invent/BTK/process_docking_weight1_custom_product_contain_oxygen_bond_distance_aromatic_linkinvent_7_9_3/rearranged_h_0102.sdf

> <i_m_source_file_index>
26

> <r_mmod_Potential_Energy-OPLS-2005>
195.379531860352

> <r_mmod_Stretch_Energy-OPLS-2005>
97.7504272460938

> <r_mmod_Bend_Energy-OPLS-2005>
205.582489013672

> <r_mmod_Torsional_Energy-OPLS-2005>
305.606231689453

> <r_mmod_Improper_Torsional_Energy-OPLS-2005>
12.4355230331421

> <r_mmod_Van_der_Waal_Energy-OPLS-2005>
145.103866577148

> <r_mmod_Electrostatic_Energy-OPLS-2005>
-400.426025390625

> <r_mmod_Solvation_Energy-OPLS-2005>
-224.328140258789

> <b_mmod_Minimization_Converged-OPLS-2005>
0

> <r_mmod_RMS_Derivative-OPLS-2005>
2.30669832229614

$$$$
27
                    3D
 Structure written by MMmdl.
157165  0  0  1  0            999 V2000
  -30.7234  -14.3552   20.7474 C   0  0  0  0  0  0
  -30.4362  -12.3089   19.3759 C   0  0  0  0  0  0
  -29.4900  -12.5368   18.1820 C   0  0  0  0  0  0
  -28.0176  -12.3620   18.6004 C   0  0  0  0  0  0
  -27.6670  -13.1823   19.8693 C   0  0  2  0  0  0
  -28.6986  -12.8812   20.9749 C   0  0  0  0  0  0
  -25.2628  -13.8106   20.5656 C   0  0  0  0  0  0
  -24.1834  -13.0409   20.9159 C   0  0  0  0  0  0
  -24.6357  -11.6865   20.8716 C   0  0  0  0  0  0
  -23.9026  -10.4268   21.0432 C   0  0  0  0  0  0
  -24.3589   -9.4184   21.9200 C   0  0  0  0  0  0
  -23.6271   -8.2227   22.0767 C   0  0  0  0  0  0
  -22.4250   -8.0279   21.3565 C   0  0  0  0  0  0
  -21.9886   -9.0250   20.4665 C   0  0  0  0  0  0
  -22.7217  -10.2130   20.3073 C   0  0  0  0  0  0
  -21.6839   -6.0723   22.5292 C   0  0  0  0  0  0
  -21.3994   -6.5617   23.8226 C   0  0  0  0  0  0
  -21.3665   -5.6774   24.9191 C   0  0  0  0  0  0
  -21.6063   -4.3041   24.7241 C   0  0  0  0  0  0
  -21.8811   -3.8125   23.4361 C   0  0  0  0  0  0
  -21.9174   -4.6950   22.3405 C   0  0  0  0  0  0
  -22.7888  -13.5260   21.1847 C   0  0  0  0  0  0
  -22.1646   -4.2120   21.0999 F   0  0  0  0  0  0
  -21.5654   -3.4532   25.7761 F   0  0  0  0  0  0
  -30.0409  -13.2189   20.4598 N   0  0  0  0  0  0
  -26.3025  -12.9216   20.3300 N   0  0  0  0  0  0
  -25.9257  -11.6408   20.5684 N   0  0  0  0  0  0
  -22.0467  -12.8312   22.0408 N   0  0  0  0  0  0
  -25.4408  -15.1825   20.4144 N   0  0  0  0  0  0
  -31.7476  -14.7105   20.1505 O   0  0  0  0  0  0
  -21.6632   -6.8873   21.4258 O   0  0  0  0  0  0
  -22.3612  -14.5584   20.6707 O   0  0  0  0  0  0
  -24.6126  -31.8702   23.2126 C   0  0  0  0  0  0
  -25.9054  -32.4794   23.8371 C   0  0  1  0  0  0
  -27.2363  -27.4524   20.1021 C   0  0  0  0  0  0
  -25.5944  -33.8590   24.2309 N   0  0  0  0  0  0
  -23.3983  -30.4947   21.5473 C   0  0  2  0  0  0
  -24.8497  -28.9561   20.1160 C   0  0  0  0  0  0
  -22.7391  -29.4686   22.4950 C   0  0  0  0  0  0
  -18.0317  -28.1353   22.8464 C   0  0  0  0  0  0
  -24.1495  -36.7295   23.2620 C   0  0  0  0  0  0
  -25.9262  -30.8359   21.3709 C   0  0  0  0  0  0
  -26.0042  -29.4703   20.7209 C   0  0  0  0  0  0
  -27.2009  -28.7203   20.7231 C   0  0  0  0  0  0
  -26.0746  -26.9479   19.4886 C   0  0  0  0  0  0
  -24.8777  -27.6899   19.5037 C   0  0  0  0  0  0
  -23.6113  -29.8223   20.1620 C   0  0  0  0  0  0
  -25.4116  -36.3091   24.0331 C   0  0  1  0  0  0
  -20.5878  -28.3697   23.1316 C   0  0  2  0  0  0
  -20.6796  -26.9413   22.5430 C   0  0  0  0  0  0
  -19.5796  -26.6397   21.5205 C   0  0  0  0  0  0
  -18.1985  -26.7891   22.1624 C   0  0  0  0  0  0
  -19.1536  -28.8844   23.2873 C   0  0  0  0  0  0
  -18.9423  -30.1453   23.8846 C   0  0  0  0  0  0
  -17.6407  -30.6542   24.0535 C   0  0  0  0  0  0
  -25.9048  -34.9451   23.5105 C   0  0  0  0  0  0
  -16.5330  -29.9013   23.6283 C   0  0  0  0  0  0
  -16.7297  -28.6437   23.0308 C   0  0  0  0  0  0
  -26.4511  -31.6578   25.0688 C   0  0  0  0  0  0
  -25.3795  -31.3717   26.1443 C   0  0  0  0  0  0
  -27.0314  -30.2992   24.6101 C   0  0  0  0  0  0
  -27.6065  -32.4320   25.7483 C   0  0  0  0  0  0
  -27.5589  -37.1813   24.8475 C   0  0  0  0  0  0
  -21.4128  -29.3072   22.3719 N   0  0  0  0  0  0
  -26.4294  -37.3784   23.9420 N   0  0  0  0  0  0
  -24.6618  -31.0821   22.0999 N   0  0  0  0  0  0
  -23.4173  -28.8222   23.2973 O   0  0  0  0  0  0
  -28.3762  -26.6909   20.0475 O   0  0  0  0  0  0
  -26.5579  -34.8914   22.4657 O   0  0  0  0  0  0
  -23.5339  -32.1474   23.7538 O   0  0  0  0  0  0
  -30.1329  -18.4835   23.2976 C   0  0  0  0  0  0
  -29.4239  -17.8335   21.0670 C   0  0  0  0  0  0
  -29.6068  -19.7736   23.0928 C   0  0  0  0  0  0
  -28.9125  -19.1338   20.8527 C   0  0  0  0  0  0
  -30.0734  -17.5081   22.2796 C   0  0  0  0  0  0
  -29.0279  -20.1280   21.8561 C   0  0  0  0  0  0
  -28.5927  -22.2511   20.6091 C   0  0  0  0  0  0
  -30.7592  -16.1609   22.5172 C   0  0  0  0  0  0
  -28.0860  -23.6941   20.7709 C   0  0  0  0  0  0
  -29.2231  -24.6758   21.1331 C   0  0  0  0  0  0
  -28.7982  -26.1521   21.2983 C   0  0  0  0  0  0
  -28.5576  -21.4666   21.7026 N   0  0  0  0  0  0
  -30.2064  -15.0282   21.7847 N   0  0  0  0  0  0
  -29.0039  -21.8767   19.5084 O   0  0  0  0  0  0
  -31.4734  -12.4577   19.0707 H   0  0  0  0  0  0
  -30.3860  -11.2744   19.7210 H   0  0  0  0  0  0
  -29.7358  -11.8497   17.3715 H   0  0  0  0  0  0
  -29.6383  -13.5421   17.7853 H   0  0  0  0  0  0
  -27.8535  -11.3008   18.7949 H   0  0  0  0  0  0
  -27.3537  -12.6293   17.7773 H   0  0  0  0  0  0
  -27.7367  -14.2373   19.6028 H   0  0  0  0  0  0
  -28.6780  -11.8189   21.2260 H   0  0  0  0  0  0
  -28.4194  -13.3872   21.8977 H   0  0  0  0  0  0
  -25.2739   -9.5670   22.4768 H   0  0  0  0  0  0
  -23.9969   -7.4627   22.7494 H   0  0  0  0  0  0
  -21.0805   -8.8789   19.8986 H   0  0  0  0  0  0
  -22.3688  -10.9673   19.6174 H   0  0  0  0  0  0
  -21.1972   -7.6115   23.9729 H   0  0  0  0  0  0
  -21.1513   -6.0502   25.9102 H   0  0  0  0  0  0
  -22.0584   -2.7582   23.2880 H   0  0  0  0  0  0
  -22.3982  -11.9938   22.4816 H   0  0  0  0  0  0
  -21.1121  -13.1462   22.2596 H   0  0  0  0  0  0
  -24.6885  -15.8489   20.5473 H   0  0  0  0  0  0
  -26.3168  -15.6223   20.1556 H   0  0  0  0  0  0
  -26.7118  -32.5517   23.1115 H   0  0  0  0  0  0
  -25.0204  -33.9772   25.0530 H   0  0  0  0  0  0
  -22.6858  -31.3102   21.4064 H   0  0  0  0  0  0
  -23.3738  -35.9651   23.3312 H   0  0  0  0  0  0
  -24.3563  -36.8877   22.2024 H   0  0  0  0  0  0
  -23.7280  -37.6526   23.6614 H   0  0  0  0  0  0
  -26.0551  -31.6073   20.6115 H   0  0  0  0  0  0
  -26.8026  -30.8717   22.0035 H   0  0  0  0  0  0
  -28.0869  -29.1179   21.1963 H   0  0  0  0  0  0
  -26.1014  -25.9808   19.0049 H   0  0  0  0  0  0
  -23.9916  -27.2892   19.0316 H   0  0  0  0  0  0
  -23.7276  -30.5970   19.4016 H   0  0  0  0  0  0
  -22.7342  -29.2436   19.8622 H   0  0  0  0  0  0
  -25.1307  -36.1937   25.0827 H   0  0  0  0  0  0
  -20.9991  -28.3309   24.1424 H   0  0  0  0  0  0
  -20.5667  -26.2303   23.3633 H   0  0  0  0  0  0
  -21.6677  -26.7442   22.1244 H   0  0  0  0  0  0
  -19.6990  -25.6325   21.1216 H   0  0  0  0  0  0
  -19.6702  -27.3201   20.6729 H   0  0  0  0  0  0
  -17.4245  -26.6612   21.4051 H   0  0  0  0  0  0
  -18.0436  -26.0027   22.9026 H   0  0  0  0  0  0
  -19.7867  -30.7304   24.2173 H   0  0  0  0  0  0
  -17.4916  -31.6244   24.5103 H   0  0  0  0  0  0
  -15.5305  -30.2889   23.7549 H   0  0  0  0  0  0
  -15.8732  -28.0761   22.6983 H   0  0  0  0  0  0
  -24.5961  -30.7054   25.7813 H   0  0  0  0  0  0
  -24.9008  -32.2884   26.4882 H   0  0  0  0  0  0
  -25.8178  -30.8919   27.0188 H   0  0  0  0  0  0
  -26.2853  -29.6753   24.1165 H   0  0  0  0  0  0
  -27.4037  -29.7243   25.4588 H   0  0  0  0  0  0
  -27.8722  -30.4235   23.9274 H   0  0  0  0  0  0
  -27.2619  -33.3589   26.2087 H   0  0  0  0  0  0
  -28.3873  -32.6923   25.0323 H   0  0  0  0  0  0
  -28.0711  -31.8418   26.5404 H   0  0  0  0  0  0
  -28.2630  -38.0084   24.7476 H   0  0  0  0  0  0
  -28.1060  -36.2618   24.6354 H   0  0  0  0  0  0
  -27.2296  -37.1524   25.8872 H   0  0  0  0  0  0
  -20.9259  -29.8863   21.7022 H   0  0  0  0  0  0
  -26.0178  -38.2872   24.1377 H   0  0  0  0  0  0
  -30.6021  -18.2517   24.2429 H   0  0  0  0  0  0
  -29.3321  -17.0982   20.2805 H   0  0  0  0  0  0
  -29.6897  -20.4980   23.8920 H   0  0  0  0  0  0
  -28.4398  -19.3571   19.9065 H   0  0  0  0  0  0
  -30.6738  -15.9145   23.5787 H   0  0  0  0  0  0
  -31.8285  -16.2629   22.3285 H   0  0  0  0  0  0
  -27.2964  -23.7278   21.5208 H   0  0  0  0  0  0
  -27.6269  -24.0021   19.8312 H   0  0  0  0  0  0
  -30.0179  -24.6124   20.3903 H   0  0  0  0  0  0
  -29.6622  -24.3516   22.0761 H   0  0  0  0  0  0
  -29.6619  -26.7264   21.6379 H   0  0  0  0  0  0
  -28.0349  -26.2423   22.0758 H   0  0  0  0  0  0
  -28.2985  -21.9371   22.5585 H   0  0  0  0  0  0
  -29.3913  -14.5995   22.1965 H   0  0  0  0  0  0
  1 25  1  0  0  0
  1 30  2  0  0  0
  1 83  1  0  0  0
  2  3  1  0  0  0
  2 25  1  0  0  0
  2 85  1  0  0  0
  2 86  1  0  0  0
  3  4  1  0  0  0
  3 87  1  0  0  0
  3 88  1  0  0  0
  4  5  1  0  0  0
  4 89  1  0  0  0
  4 90  1  0  0  0
  5  6  1  0  0  0
  5 26  1  0  0  0
  5 91  1  0  0  0
  6 25  1  0  0  0
  6 92  1  0  0  0
  6 93  1  0  0  0
  7  8  2  0  0  0
  7 26  1  0  0  0
  7 29  1  0  0  0
  8  9  1  0  0  0
  8 22  1  0  0  0
  9 10  1  0  0  0
  9 27  2  0  0  0
 10 11  2  0  0  0
 10 15  1  0  0  0
 11 12  1  0  0  0
 11 94  1  0  0  0
 12 13  2  0  0  0
 12 95  1  0  0  0
 13 14  1  0  0  0
 13 31  1  0  0  0
 14 15  2  0  0  0
 14 96  1  0  0  0
 15 97  1  0  0  0
 16 17  2  0  0  0
 16 21  1  0  0  0
 16 31  1  0  0  0
 17 18  1  0  0  0
 17 98  1  0  0  0
 18 19  2  0  0  0
 18 99  1  0  0  0
 19 20  1  0  0  0
 19 24  1  0  0  0
 20 21  2  0  0  0
 20100  1  0  0  0
 21 23  1  0  0  0
 22 28  1  0  0  0
 22 32  2  0  0  0
 26 27  1  0  0  0
 28101  1  0  0  0
 28102  1  0  0  0
 29103  1  0  0  0
 29104  1  0  0  0
 33 34  1  0  0  0
 33 66  1  0  0  0
 33 70  2  0  0  0
 34 36  1  0  0  0
 34 59  1  0  0  0
 34105  1  0  0  0
 35 44  2  0  0  0
 35 45  1  0  0  0
 35 68  1  0  0  0
 36 56  1  0  0  0
 36106  1  0  0  0
 37 39  1  0  0  0
 37 47  1  0  0  0
 37 66  1  0  0  0
 37107  1  0  0  0
 38 43  2  0  0  0
 38 46  1  0  0  0
 38 47  1  0  0  0
 39 64  1  0  0  0
 39 67  2  0  0  0
 40 52  1  0  0  0
 40 53  2  0  0  0
 40 58  1  0  0  0
 41108  1  0  0  0
 41109  1  0  0  0
 41110  1  0  0  0
 41 48  1  0  0  0
 42 43  1  0  0  0
 42 66  1  0  0  0
 42111  1  0  0  0
 42112  1  0  0  0
 43 44  1  0  0  0
 44113  1  0  0  0
 45 46  2  0  0  0
 45114  1  0  0  0
 46115  1  0  0  0
 47116  1  0  0  0
 47117  1  0  0  0
 48 56  1  0  0  0
 48 65  1  0  0  0
 48118  1  0  0  0
 49 50  1  0  0  0
 49 53  1  0  0  0
 49 64  1  0  0  0
 49119  1  0  0  0
 50 51  1  0  0  0
 50120  1  0  0  0
 50121  1  0  0  0
 51 52  1  0  0  0
 51122  1  0  0  0
 51123  1  0  0  0
 52124  1  0  0  0
 52125  1  0  0  0
 53 54  1  0  0  0
 54 55  2  0  0  0
 54126  1  0  0  0
 55 57  1  0  0  0
 55127  1  0  0  0
 56 69  2  0  0  0
 57 58  2  0  0  0
 57128  1  0  0  0
 58129  1  0  0  0
 59 60  1  0  0  0
 59 61  1  0  0  0
 59 62  1  0  0  0
 60130  1  0  0  0
 60131  1  0  0  0
 60132  1  0  0  0
 61133  1  0  0  0
 61134  1  0  0  0
 61135  1  0  0  0
 62136  1  0  0  0
 62137  1  0  0  0
 62138  1  0  0  0
 63 65  1  0  0  0
 63139  1  0  0  0
 63140  1  0  0  0
 63141  1  0  0  0
 64142  1  0  0  0
 65143  1  0  0  0
 68 81  1  0  0  0
 71 73  2  0  0  0
 71 75  1  0  0  0
 71144  1  0  0  0
 72 74  1  0  0  0
 72 75  2  0  0  0
 72145  1  0  0  0
 73 76  1  0  0  0
 73146  1  0  0  0
 74 76  2  0  0  0
 74147  1  0  0  0
 75 78  1  0  0  0
 76 82  1  0  0  0
 77 79  1  0  0  0
 77 82  1  0  0  0
 77 84  2  0  0  0
 78 83  1  0  0  0
 78148  1  0  0  0
 78149  1  0  0  0
 79 80  1  0  0  0
 79150  1  0  0  0
 79151  1  0  0  0
 80 81  1  0  0  0
 80152  1  0  0  0
 80153  1  0  0  0
 81154  1  0  0  0
 81155  1  0  0  0
 82156  1  0  0  0
 83157  1  0  0  0
M  ISO  4   1 100  68 101  81 101  83 100
M  END
> <chiral flag>
0

> <version>
0

> <s_m_source_file>
/data/baiqing/PycharmProjects/Reinvent-master-3.2/result/LINK_invent/BTK/process_docking_weight1_custom_product_contain_oxygen_bond_distance_aromatic_linkinvent_7_9_3/rearranged_h_0102.sdf

> <i_m_source_file_index>
27

> <r_mmod_Potential_Energy-OPLS-2005>
-178.949737548828

> <r_mmod_Stretch_Energy-OPLS-2005>
33.0442962646484

> <r_mmod_Bend_Energy-OPLS-2005>
96.9939498901367

> <r_mmod_Torsional_Energy-OPLS-2005>
235.546691894531

> <r_mmod_Improper_Torsional_Energy-OPLS-2005>
2.32430958747864

> <r_mmod_Van_der_Waal_Energy-OPLS-2005>
148.502883911133

> <r_mmod_Electrostatic_Energy-OPLS-2005>
-468.169311523438

> <r_mmod_Solvation_Energy-OPLS-2005>
-237.307281494141

> <b_mmod_Minimization_Converged-OPLS-2005>
0

> <r_mmod_RMS_Derivative-OPLS-2005>
4.44744396209717

$$$$
28
                    3D
 Structure written by MMmdl.
154162  0  0  1  0            999 V2000
  -30.6441  -14.6843   20.5012 C   0  0  0  0  0  0
  -30.4344  -12.4235   19.4555 C   0  0  0  0  0  0
  -29.5068  -12.5043   18.2239 C   0  0  0  0  0  0
  -28.0330  -12.3346   18.6425 C   0  0  0  0  0  0
  -27.6486  -13.2248   19.8533 C   0  0  2  0  0  0
  -28.6959  -13.1252   20.9831 C   0  0  0  0  0  0
  -25.2552  -13.8192   20.5692 C   0  0  0  0  0  0
  -24.1830  -13.0439   20.9208 C   0  0  0  0  0  0
  -24.6427  -11.6919   20.8765 C   0  0  0  0  0  0
  -23.9101  -10.4294   21.0426 C   0  0  0  0  0  0
  -24.3639   -9.4206   21.9204 C   0  0  0  0  0  0
  -23.6305   -8.2245   22.0767 C   0  0  0  0  0  0
  -22.4283   -8.0300   21.3550 C   0  0  0  0  0  0
  -21.9932   -9.0284   20.4655 C   0  0  0  0  0  0
  -22.7276  -10.2157   20.3073 C   0  0  0  0  0  0
  -21.6847   -6.0755   22.5283 C   0  0  0  0  0  0
  -21.4004   -6.5659   23.8216 C   0  0  0  0  0  0
  -21.3657   -5.6808   24.9181 C   0  0  0  0  0  0
  -21.6045   -4.3069   24.7228 C   0  0  0  0  0  0
  -21.8816   -3.8164   23.4344 C   0  0  0  0  0  0
  -21.9187   -4.6983   22.3403 C   0  0  0  0  0  0
  -22.7850  -13.5230   21.1861 C   0  0  0  0  0  0
  -22.1657   -4.2173   21.0979 F   0  0  0  0  0  0
  -21.5634   -3.4555   25.7742 F   0  0  0  0  0  0
  -30.0010  -13.4725   20.4045 N   0  0  0  0  0  0
  -26.2985  -12.9390   20.3305 N   0  0  0  0  0  0
  -25.9354  -11.6541   20.5770 N   0  0  0  0  0  0
  -22.0483  -12.8226   22.0413 N   0  0  0  0  0  0
  -25.4230  -15.1920   20.4112 N   0  0  0  0  0  0
  -31.8251  -14.7938   20.1649 O   0  0  0  0  0  0
  -21.6635   -6.8899   21.4242 O   0  0  0  0  0  0
  -22.3535  -14.5530   20.6705 O   0  0  0  0  0  0
  -24.6315  -31.8561   23.1979 C   0  0  0  0  0  0
  -25.9150  -32.4741   23.8327 C   0  0  1  0  0  0
  -27.2209  -27.2751   20.1184 C   0  0  0  0  0  0
  -25.5935  -33.8537   24.2247 N   0  0  0  0  0  0
  -23.4259  -30.4813   21.5424 C   0  0  2  0  0  0
  -24.8746  -28.9347   20.1086 C   0  0  0  0  0  0
  -22.7507  -29.4622   22.4913 C   0  0  0  0  0  0
  -18.0299  -28.1374   22.8483 C   0  0  0  0  0  0
  -24.1485  -36.7285   23.2633 C   0  0  0  0  0  0
  -25.9732  -30.7723   21.3792 C   0  0  0  0  0  0
  -26.0485  -29.3990   20.7160 C   0  0  0  0  0  0
  -27.2263  -28.5841   20.7073 C   0  0  0  0  0  0
  -26.0222  -26.8839   19.4755 C   0  0  0  0  0  0
  -24.8672  -27.6858   19.4760 C   0  0  0  0  0  0
  -23.6444  -29.8184   20.1589 C   0  0  0  0  0  0
  -25.4104  -36.3045   24.0316 C   0  0  1  0  0  0
  -20.5901  -28.3697   23.1254 C   0  0  2  0  0  0
  -20.6784  -26.9416   22.5395 C   0  0  0  0  0  0
  -19.5757  -26.6374   21.5203 C   0  0  0  0  0  0
  -18.1930  -26.7917   22.1615 C   0  0  0  0  0  0
  -19.1547  -28.8855   23.2857 C   0  0  0  0  0  0
  -18.9475  -30.1446   23.8892 C   0  0  0  0  0  0
  -17.6468  -30.6583   24.0558 C   0  0  0  0  0  0
  -25.9063  -34.9418   23.5088 C   0  0  0  0  0  0
  -16.5360  -29.9075   23.6321 C   0  0  0  0  0  0
  -16.7287  -28.6482   23.0364 C   0  0  0  0  0  0
  -26.4524  -31.6570   25.0719 C   0  0  0  0  0  0
  -25.3745  -31.3728   26.1431 C   0  0  0  0  0  0
  -27.0398  -30.2972   24.6259 C   0  0  0  0  0  0
  -27.6060  -32.4349   25.7499 C   0  0  0  0  0  0
  -27.5577  -37.1770   24.8449 C   0  0  0  0  0  0
  -21.4217  -29.3044   22.3648 N   0  0  0  0  0  0
  -26.4272  -37.3751   23.9413 N   0  0  0  0  0  0
  -24.6956  -31.0541   22.0954 N   0  0  0  0  0  0
  -23.4215  -28.8168   23.3017 O   0  0  0  0  0  0
  -28.3066  -26.3710   20.1691 O   0  0  0  0  0  0
  -26.5664  -34.8901   22.4669 O   0  0  0  0  0  0
  -23.5464  -32.1389   23.7271 O   0  0  0  0  0  0
  -29.6700  -18.3759   18.9575 C   0  0  0  0  0  0
  -29.3114  -19.5014   18.1870 C   0  0  0  0  0  0
  -29.6074  -19.7895   20.9302 C   0  0  0  0  0  0
  -29.8338  -18.4786   20.3493 C   0  0  0  0  0  0
  -29.2238  -20.9676   20.1682 C   0  0  0  0  0  0
  -29.0925  -20.7728   18.7675 C   0  0  0  0  0  0
  -29.1007  -23.8078   20.2942 C   0  0  0  0  0  0
  -28.8030  -22.3430   20.8658 C   0  0  0  0  0  0
  -30.3349  -17.2112   21.1564 C   0  0  0  0  0  0
  -27.9567  -24.9155   20.3187 C   0  0  0  0  0  0
  -28.7255  -21.8112   17.9155 N   0  0  0  0  0  0
  -29.8936  -15.7965   20.8185 N   0  0  0  0  0  0
  -30.2149  -24.0799   19.8322 O   0  0  0  0  0  0
  -31.4757  -12.5410   19.1517 H   0  0  0  0  0  0
  -30.3696  -11.4379   19.9207 H   0  0  0  0  0  0
  -29.7760  -11.7381   17.4962 H   0  0  0  0  0  0
  -29.6409  -13.4645   17.7237 H   0  0  0  0  0  0
  -27.8842  -11.2845   18.8976 H   0  0  0  0  0  0
  -27.3726  -12.5363   17.7978 H   0  0  0  0  0  0
  -27.6556  -14.2520   19.4893 H   0  0  0  0  0  0
  -28.7208  -12.1150   21.3950 H   0  0  0  0  0  0
  -28.4412  -13.7854   21.8133 H   0  0  0  0  0  0
  -25.2777   -9.5674   22.4794 H   0  0  0  0  0  0
  -24.0001   -7.4633   22.7494 H   0  0  0  0  0  0
  -21.0851   -8.8832   19.8961 H   0  0  0  0  0  0
  -22.3748  -10.9717   19.6196 H   0  0  0  0  0  0
  -21.1993   -7.6168   23.9724 H   0  0  0  0  0  0
  -21.1482   -6.0545   25.9085 H   0  0  0  0  0  0
  -22.0596   -2.7631   23.2848 H   0  0  0  0  0  0
  -22.4080  -11.9891   22.4817 H   0  0  0  0  0  0
  -21.1113  -13.1276   22.2624 H   0  0  0  0  0  0
  -24.6507  -15.8413   20.5169 H   0  0  0  0  0  0
  -26.2697  -15.6371   20.0793 H   0  0  0  0  0  0
  -26.7223  -32.5398   23.1079 H   0  0  0  0  0  0
  -25.0013  -33.9685   25.0343 H   0  0  0  0  0  0
  -22.7198  -31.3016   21.3979 H   0  0  0  0  0  0
  -23.3732  -35.9630   23.3261 H   0  0  0  0  0  0
  -24.3573  -36.8971   22.2059 H   0  0  0  0  0  0
  -23.7279  -37.6472   23.6720 H   0  0  0  0  0  0
  -26.1156  -31.5362   20.6137 H   0  0  0  0  0  0
  -26.8479  -30.8147   22.0170 H   0  0  0  0  0  0
  -28.1253  -28.9362   21.1946 H   0  0  0  0  0  0
  -25.9400  -25.9412   18.9594 H   0  0  0  0  0  0
  -23.9705  -27.3292   18.9882 H   0  0  0  0  0  0
  -23.7682  -30.5970   19.4055 H   0  0  0  0  0  0
  -22.7630  -29.2533   19.8533 H   0  0  0  0  0  0
  -25.1282  -36.1858   25.0810 H   0  0  0  0  0  0
  -20.9991  -28.3305   24.1380 H   0  0  0  0  0  0
  -20.5665  -26.2333   23.3617 H   0  0  0  0  0  0
  -21.6652  -26.7447   22.1194 H   0  0  0  0  0  0
  -19.6910  -25.6275   21.1249 H   0  0  0  0  0  0
  -19.6666  -27.3183   20.6722 H   0  0  0  0  0  0
  -17.4194  -26.6664   21.4019 H   0  0  0  0  0  0
  -18.0323  -26.0053   22.9014 H   0  0  0  0  0  0
  -19.7958  -30.7244   24.2278 H   0  0  0  0  0  0
  -17.5036  -31.6273   24.5153 H   0  0  0  0  0  0
  -15.5360  -30.2978   23.7654 H   0  0  0  0  0  0
  -15.8688  -28.0799   22.7104 H   0  0  0  0  0  0
  -24.5908  -30.7110   25.7728 H   0  0  0  0  0  0
  -24.8946  -32.2896   26.4865 H   0  0  0  0  0  0
  -25.8018  -30.8872   27.0212 H   0  0  0  0  0  0
  -26.3009  -29.6661   24.1303 H   0  0  0  0  0  0
  -27.4068  -29.7299   25.4824 H   0  0  0  0  0  0
  -27.8887  -30.4192   23.9528 H   0  0  0  0  0  0
  -27.2660  -33.3666   26.2038 H   0  0  0  0  0  0
  -28.3888  -32.6902   25.0344 H   0  0  0  0  0  0
  -28.0721  -31.8515   26.5452 H   0  0  0  0  0  0
  -28.2533  -38.0123   24.7555 H   0  0  0  0  0  0
  -28.1143  -36.2654   24.6197 H   0  0  0  0  0  0
  -27.2306  -37.1338   25.8854 H   0  0  0  0  0  0
  -20.9405  -29.8775   21.6850 H   0  0  0  0  0  0
  -26.0131  -38.2800   24.1462 H   0  0  0  0  0  0
  -29.8450  -17.4289   18.4660 H   0  0  0  0  0  0
  -29.2014  -19.3745   17.1184 H   0  0  0  0  0  0
  -29.7161  -19.8880   22.0017 H   0  0  0  0  0  0
  -29.2018  -22.3287   21.8806 H   0  0  0  0  0  0
  -27.7219  -22.2918   20.9927 H   0  0  0  0  0  0
  -30.0749  -17.3754   22.2033 H   0  0  0  0  0  0
  -31.4253  -17.2391   21.1339 H   0  0  0  0  0  0
  -27.3865  -24.7888   21.2389 H   0  0  0  0  0  0
  -27.3012  -24.6080   19.5077 H   0  0  0  0  0  0
  -28.8086  -21.6220   16.9215 H   0  0  0  0  0  0
  -29.1208  -22.7186   18.1354 H   0  0  0  0  0  0
  -28.9215  -15.6037   21.0043 H   0  0  0  0  0  0
  1 25  1  0  0  0
  1 30  2  0  0  0
  1 82  1  0  0  0
  2  3  1  0  0  0
  2 25  1  0  0  0
  2 84  1  0  0  0
  2 85  1  0  0  0
  3  4  1  0  0  0
  3 86  1  0  0  0
  3 87  1  0  0  0
  4  5  1  0  0  0
  4 88  1  0  0  0
  4 89  1  0  0  0
  5  6  1  0  0  0
  5 26  1  0  0  0
  5 90  1  0  0  0
  6 25  1  0  0  0
  6 91  1  0  0  0
  6 92  1  0  0  0
  7  8  2  0  0  0
  7 26  1  0  0  0
  7 29  1  0  0  0
  8  9  1  0  0  0
  8 22  1  0  0  0
  9 10  1  0  0  0
  9 27  2  0  0  0
 10 11  2  0  0  0
 10 15  1  0  0  0
 11 12  1  0  0  0
 11 93  1  0  0  0
 12 13  2  0  0  0
 12 94  1  0  0  0
 13 14  1  0  0  0
 13 31  1  0  0  0
 14 15  2  0  0  0
 14 95  1  0  0  0
 15 96  1  0  0  0
 16 17  2  0  0  0
 16 21  1  0  0  0
 16 31  1  0  0  0
 17 18  1  0  0  0
 17 97  1  0  0  0
 18 19  2  0  0  0
 18 98  1  0  0  0
 19 20  1  0  0  0
 19 24  1  0  0  0
 20 21  2  0  0  0
 20 99  1  0  0  0
 21 23  1  0  0  0
 22 28  1  0  0  0
 22 32  2  0  0  0
 26 27  1  0  0  0
 28100  1  0  0  0
 28101  1  0  0  0
 29102  1  0  0  0
 29103  1  0  0  0
 33 34  1  0  0  0
 33 66  1  0  0  0
 33 70  2  0  0  0
 34 36  1  0  0  0
 34 59  1  0  0  0
 34104  1  0  0  0
 35 44  2  0  0  0
 35 45  1  0  0  0
 35 68  1  0  0  0
 36 56  1  0  0  0
 36105  1  0  0  0
 37 39  1  0  0  0
 37 47  1  0  0  0
 37 66  1  0  0  0
 37106  1  0  0  0
 38 43  2  0  0  0
 38 46  1  0  0  0
 38 47  1  0  0  0
 39 64  1  0  0  0
 39 67  2  0  0  0
 40 52  1  0  0  0
 40 53  2  0  0  0
 40 58  1  0  0  0
 41107  1  0  0  0
 41108  1  0  0  0
 41109  1  0  0  0
 41 48  1  0  0  0
 42 43  1  0  0  0
 42 66  1  0  0  0
 42110  1  0  0  0
 42111  1  0  0  0
 43 44  1  0  0  0
 44112  1  0  0  0
 45 46  2  0  0  0
 45113  1  0  0  0
 46114  1  0  0  0
 47115  1  0  0  0
 47116  1  0  0  0
 48 56  1  0  0  0
 48 65  1  0  0  0
 48117  1  0  0  0
 49 50  1  0  0  0
 49 53  1  0  0  0
 49 64  1  0  0  0
 49118  1  0  0  0
 50 51  1  0  0  0
 50119  1  0  0  0
 50120  1  0  0  0
 51 52  1  0  0  0
 51121  1  0  0  0
 51122  1  0  0  0
 52123  1  0  0  0
 52124  1  0  0  0
 53 54  1  0  0  0
 54 55  2  0  0  0
 54125  1  0  0  0
 55 57  1  0  0  0
 55126  1  0  0  0
 56 69  2  0  0  0
 57 58  2  0  0  0
 57127  1  0  0  0
 58128  1  0  0  0
 59 60  1  0  0  0
 59 61  1  0  0  0
 59 62  1  0  0  0
 60129  1  0  0  0
 60130  1  0  0  0
 60131  1  0  0  0
 61132  1  0  0  0
 61133  1  0  0  0
 61134  1  0  0  0
 62135  1  0  0  0
 62136  1  0  0  0
 62137  1  0  0  0
 63 65  1  0  0  0
 63138  1  0  0  0
 63139  1  0  0  0
 63140  1  0  0  0
 64141  1  0  0  0
 65142  1  0  0  0
 68 80  1  0  0  0
 71 72  2  0  0  0
 71 74  1  0  0  0
 71143  1  0  0  0
 72 76  1  0  0  0
 72144  1  0  0  0
 73 74  2  0  0  0
 73 75  1  0  0  0
 73145  1  0  0  0
 74 79  1  0  0  0
 75 76  2  0  0  0
 75 78  1  0  0  0
 76 81  1  0  0  0
 77 78  1  0  0  0
 77 80  1  0  0  0
 77 83  2  0  0  0
 78146  1  0  0  0
 78147  1  0  0  0
 79 82  1  0  0  0
 79148  1  0  0  0
 79149  1  0  0  0
 80150  1  0  0  0
 80151  1  0  0  0
 81152  1  0  0  0
 81153  1  0  0  0
 82154  1  0  0  0
M  ISO  4   1 100  68 101  80 101  82 100
M  END
> <chiral flag>
0

> <version>
0

> <s_m_source_file>
/data/baiqing/PycharmProjects/Reinvent-master-3.2/result/LINK_invent/BTK/process_docking_weight1_custom_product_contain_oxygen_bond_distance_aromatic_linkinvent_7_9_3/rearranged_h_0102.sdf

> <i_m_source_file_index>
28

> <r_mmod_Potential_Energy-OPLS-2005>
17.238260269165

> <r_mmod_Stretch_Energy-OPLS-2005>
109.801338195801

> <r_mmod_Bend_Energy-OPLS-2005>
157.986877441406

> <r_mmod_Torsional_Energy-OPLS-2005>
217.101196289062

> <r_mmod_Improper_Torsional_Energy-OPLS-2005>
9.26324558258057

> <r_mmod_Van_der_Waal_Energy-OPLS-2005>
141.51318359375

> <r_mmod_Electrostatic_Energy-OPLS-2005>
-449.041320800781

> <r_mmod_Solvation_Energy-OPLS-2005>
-238.914016723633

> <b_mmod_Minimization_Converged-OPLS-2005>
0

> <r_mmod_RMS_Derivative-OPLS-2005>
2.55804681777954

$$$$
29
                    3D
 Structure written by MMmdl.
161170  0  0  1  0            999 V2000
  -30.7066  -14.4886   20.5333 C   0  0  0  0  0  0
  -30.4172  -12.3060   19.4285 C   0  0  0  0  0  0
  -29.4950  -12.5035   18.2079 C   0  0  0  0  0  0
  -28.0159  -12.3672   18.6184 C   0  0  0  0  0  0
  -27.6595  -13.2128   19.8708 C   0  0  2  0  0  0
  -28.7027  -13.0152   20.9956 C   0  0  0  0  0  0
  -25.2584  -13.8172   20.5674 C   0  0  0  0  0  0
  -24.1837  -13.0441   20.9171 C   0  0  0  0  0  0
  -24.6391  -11.6906   20.8732 C   0  0  0  0  0  0
  -23.9053  -10.4289   21.0397 C   0  0  0  0  0  0
  -24.3609   -9.4209   21.9176 C   0  0  0  0  0  0
  -23.6288   -8.2238   22.0748 C   0  0  0  0  0  0
  -22.4271   -8.0277   21.3537 C   0  0  0  0  0  0
  -21.9904   -9.0244   20.4643 C   0  0  0  0  0  0
  -22.7223  -10.2126   20.3051 C   0  0  0  0  0  0
  -21.6851   -6.0730   22.5273 C   0  0  0  0  0  0
  -21.4014   -6.5642   23.8208 C   0  0  0  0  0  0
  -21.3663   -5.6791   24.9175 C   0  0  0  0  0  0
  -21.6048   -4.3053   24.7228 C   0  0  0  0  0  0
  -21.8821   -3.8140   23.4349 C   0  0  0  0  0  0
  -21.9195   -4.6955   22.3398 C   0  0  0  0  0  0
  -22.7860  -13.5239   21.1841 C   0  0  0  0  0  0
  -22.1663   -4.2139   21.0974 F   0  0  0  0  0  0
  -21.5631   -3.4530   25.7734 F   0  0  0  0  0  0
  -30.0353  -13.3070   20.4386 N   0  0  0  0  0  0
  -26.3015  -12.9351   20.3343 N   0  0  0  0  0  0
  -25.9323  -11.6501   20.5760 N   0  0  0  0  0  0
  -22.0501  -12.8234   22.0393 N   0  0  0  0  0  0
  -25.4318  -15.1882   20.4062 N   0  0  0  0  0  0
  -31.8539  -14.6228   20.1004 O   0  0  0  0  0  0
  -21.6640   -6.8870   21.4230 O   0  0  0  0  0  0
  -22.3554  -14.5552   20.6696 O   0  0  0  0  0  0
  -24.6156  -31.8653   23.2088 C   0  0  0  0  0  0
  -25.9047  -32.4808   23.8398 C   0  0  1  0  0  0
  -27.2388  -27.4208   20.1148 C   0  0  0  0  0  0
  -25.5896  -33.8614   24.2333 N   0  0  0  0  0  0
  -23.4063  -30.4866   21.5468 C   0  0  2  0  0  0
  -24.8591  -28.9574   20.1071 C   0  0  0  0  0  0
  -22.7420  -29.4649   22.4975 C   0  0  0  0  0  0
  -18.0266  -28.1385   22.8501 C   0  0  0  0  0  0
  -24.1489  -36.7319   23.2641 C   0  0  0  0  0  0
  -25.9359  -30.8285   21.3650 C   0  0  0  0  0  0
  -26.0183  -29.4635   20.7114 C   0  0  0  0  0  0
  -27.2128  -28.7028   20.7125 C   0  0  0  0  0  0
  -26.0690  -26.9402   19.4873 C   0  0  0  0  0  0
  -24.8821  -27.6969   19.4864 C   0  0  0  0  0  0
  -23.6176  -29.8191   20.1610 C   0  0  0  0  0  0
  -25.4107  -36.3108   24.0337 C   0  0  1  0  0  0
  -20.5859  -28.3664   23.1319 C   0  0  2  0  0  0
  -20.6770  -26.9402   22.5427 C   0  0  0  0  0  0
  -19.5750  -26.6381   21.5232 C   0  0  0  0  0  0
  -18.1918  -26.7936   22.1621 C   0  0  0  0  0  0
  -19.1516  -28.8842   23.2905 C   0  0  0  0  0  0
  -18.9451  -30.1447   23.8913 C   0  0  0  0  0  0
  -17.6457  -30.6596   24.0571 C   0  0  0  0  0  0
  -25.9021  -34.9471   23.5127 C   0  0  0  0  0  0
  -16.5346  -29.9104   23.6333 C   0  0  0  0  0  0
  -16.7252  -28.6519   23.0354 C   0  0  0  0  0  0
  -26.4471  -31.6583   25.0727 C   0  0  0  0  0  0
  -25.3729  -31.3745   26.1479 C   0  0  0  0  0  0
  -27.0282  -30.3010   24.6123 C   0  0  0  0  0  0
  -27.6060  -32.4292   25.7468 C   0  0  0  0  0  0
  -27.5581  -37.1801   24.8457 C   0  0  0  0  0  0
  -21.4146  -29.3025   22.3720 N   0  0  0  0  0  0
  -26.4294  -37.3789   23.9406 N   0  0  0  0  0  0
  -24.6699  -31.0757   22.0978 N   0  0  0  0  0  0
  -23.4188  -28.8194   23.3019 O   0  0  0  0  0  0
  -28.3521  -26.6049   20.1883 O   0  0  0  0  0  0
  -26.5598  -34.8926   22.4699 O   0  0  0  0  0  0
  -23.5346  -32.1419   23.7475 O   0  0  0  0  0  0
  -31.3859  -18.9108   19.9169 C   0  0  0  0  0  0
  -29.0371  -19.1380   20.4592 C   0  0  0  0  0  0
  -31.3446  -17.5463   20.2821 C   0  0  0  0  0  0
  -28.9920  -17.7681   20.8165 C   0  0  0  0  0  0
  -30.2292  -19.7207   19.9756 C   0  0  0  0  0  0
  -30.1323  -16.9371   20.7008 C   0  0  0  0  0  0
  -31.4926  -22.5713   20.9761 C   0  0  0  0  0  0
  -31.5910  -23.8233   21.8669 C   0  0  0  0  0  0
  -30.6373  -24.9641   21.4756 C   0  0  0  0  0  0
  -29.2626  -23.3169   20.1474 C   0  0  0  0  0  0
  -29.2315  -24.4114   21.2437 C   0  0  2  0  0  0
  -30.2420  -21.1463   19.3894 C   0  0  0  0  0  0
  -28.1284  -25.4990   21.0904 C   0  0  0  0  0  0
  -30.3396  -22.3063   20.3079 N   0  0  0  0  0  0
  -29.9853  -15.5344   20.9955 N   0  0  0  0  0  0
  -32.4791  -21.8316   20.9211 O   0  0  0  0  0  0
  -31.4645  -12.3860   19.1310 H   0  0  0  0  0  0
  -30.3043  -11.3005   19.8344 H   0  0  0  0  0  0
  -29.7354  -11.7763   17.4319 H   0  0  0  0  0  0
  -29.6670  -13.4878   17.7685 H   0  0  0  0  0  0
  -27.8232  -11.3121   18.8140 H   0  0  0  0  0  0
  -27.3672  -12.6412   17.7850 H   0  0  0  0  0  0
  -27.6970  -14.2583   19.5642 H   0  0  0  0  0  0
  -28.6747  -11.9892   21.3631 H   0  0  0  0  0  0
  -28.4673  -13.6403   21.8583 H   0  0  0  0  0  0
  -25.2747   -9.5695   22.4749 H   0  0  0  0  0  0
  -23.9999   -7.4638   22.7468 H   0  0  0  0  0  0
  -21.0828   -8.8753   19.8955 H   0  0  0  0  0  0
  -22.3666  -10.9661   19.6162 H   0  0  0  0  0  0
  -21.2003   -7.6153   23.9715 H   0  0  0  0  0  0
  -21.1486   -6.0520   25.9079 H   0  0  0  0  0  0
  -22.0599   -2.7602   23.2843 H   0  0  0  0  0  0
  -22.4102  -11.9889   22.4780 H   0  0  0  0  0  0
  -21.1119  -13.1265   22.2609 H   0  0  0  0  0  0
  -24.6626  -15.8427   20.5015 H   0  0  0  0  0  0
  -26.2784  -15.6176   20.0550 H   0  0  0  0  0  0
  -26.7117  -32.5519   23.1160 H   0  0  0  0  0  0
  -25.0031  -33.9789   25.0471 H   0  0  0  0  0  0
  -22.6949  -31.3012   21.4045 H   0  0  0  0  0  0
  -23.3755  -35.9645   23.3286 H   0  0  0  0  0  0
  -24.3598  -36.8954   22.2064 H   0  0  0  0  0  0
  -23.7232  -37.6517   23.6667 H   0  0  0  0  0  0
  -26.0500  -31.5959   20.5982 H   0  0  0  0  0  0
  -26.8231  -30.8833   21.9842 H   0  0  0  0  0  0
  -28.1007  -29.0805   21.2008 H   0  0  0  0  0  0
  -26.0717  -25.9663   19.0175 H   0  0  0  0  0  0
  -23.9935  -27.3009   19.0125 H   0  0  0  0  0  0
  -23.7177  -30.5927   19.3991 H   0  0  0  0  0  0
  -22.7445  -29.2340   19.8656 H   0  0  0  0  0  0
  -25.1283  -36.1961   25.0822 H   0  0  0  0  0  0
  -20.9930  -28.3231   24.1449 H   0  0  0  0  0  0
  -20.5691  -26.2283   23.3625 H   0  0  0  0  0  0
  -21.6639  -26.7465   22.1203 H   0  0  0  0  0  0
  -19.6925  -25.6297   21.1253 H   0  0  0  0  0  0
  -19.6697  -27.3210   20.6785 H   0  0  0  0  0  0
  -17.4200  -26.6690   21.4016 H   0  0  0  0  0  0
  -18.0301  -26.0086   22.9013 H   0  0  0  0  0  0
  -19.7927  -30.7250   24.2297 H   0  0  0  0  0  0
  -17.5015  -31.6283   24.5167 H   0  0  0  0  0  0
  -15.5346  -30.3014   23.7658 H   0  0  0  0  0  0
  -15.8652  -28.0846   22.7059 H   0  0  0  0  0  0
  -24.5845  -30.7154   25.7817 H   0  0  0  0  0  0
  -24.8999  -32.2948   26.4924 H   0  0  0  0  0  0
  -25.8060  -30.8890   27.0232 H   0  0  0  0  0  0
  -26.2824  -29.6775   24.1176 H   0  0  0  0  0  0
  -27.4033  -29.7242   25.4584 H   0  0  0  0  0  0
  -27.8672  -30.4314   23.9287 H   0  0  0  0  0  0
  -27.2707  -33.3631   26.1997 H   0  0  0  0  0  0
  -28.3883  -32.6774   25.0282 H   0  0  0  0  0  0
  -28.0702  -31.8424   26.5407 H   0  0  0  0  0  0
  -28.2582  -38.0107   24.7489 H   0  0  0  0  0  0
  -28.1084  -36.2635   24.6284 H   0  0  0  0  0  0
  -27.2313  -37.1426   25.8861 H   0  0  0  0  0  0
  -20.9303  -29.8755   21.6957 H   0  0  0  0  0  0
  -26.0186  -38.2869   24.1405 H   0  0  0  0  0  0
  -32.3149  -19.3260   19.5511 H   0  0  0  0  0  0
  -28.1335  -19.7299   20.5084 H   0  0  0  0  0  0
  -32.2615  -16.9821   20.1999 H   0  0  0  0  0  0
  -28.0507  -17.3508   21.1471 H   0  0  0  0  0  0
  -32.6181  -24.1896   21.8657 H   0  0  0  0  0  0
  -31.3835  -23.5106   22.8908 H   0  0  0  0  0  0
  -30.9982  -25.4727   20.5800 H   0  0  0  0  0  0
  -30.6232  -25.7095   22.2722 H   0  0  0  0  0  0
  -29.3837  -23.7890   19.1708 H   0  0  0  0  0  0
  -28.2968  -22.8091   20.1244 H   0  0  0  0  0  0
  -28.9580  -23.8820   22.1590 H   0  0  0  0  0  0
  -29.3468  -21.2429   18.7744 H   0  0  0  0  0  0
  -31.0622  -21.2155   18.6720 H   0  0  0  0  0  0
  -27.9613  -25.9284   22.0805 H   0  0  0  0  0  0
  -27.2004  -24.9837   20.8404 H   0  0  0  0  0  0
  -29.0842  -15.2641   21.3602 H   0  0  0  0  0  0
  1 25  1  0  0  0
  1 30  2  0  0  0
  1 85  1  0  0  0
  2  3  1  0  0  0
  2 25  1  0  0  0
  2 87  1  0  0  0
  2 88  1  0  0  0
  3  4  1  0  0  0
  3 89  1  0  0  0
  3 90  1  0  0  0
  4  5  1  0  0  0
  4 91  1  0  0  0
  4 92  1  0  0  0
  5  6  1  0  0  0
  5 26  1  0  0  0
  5 93  1  0  0  0
  6 25  1  0  0  0
  6 94  1  0  0  0
  6 95  1  0  0  0
  7  8  2  0  0  0
  7 26  1  0  0  0
  7 29  1  0  0  0
  8  9  1  0  0  0
  8 22  1  0  0  0
  9 10  1  0  0  0
  9 27  2  0  0  0
 10 11  2  0  0  0
 10 15  1  0  0  0
 11 12  1  0  0  0
 11 96  1  0  0  0
 12 13  2  0  0  0
 12 97  1  0  0  0
 13 14  1  0  0  0
 13 31  1  0  0  0
 14 15  2  0  0  0
 14 98  1  0  0  0
 15 99  1  0  0  0
 16 17  2  0  0  0
 16 21  1  0  0  0
 16 31  1  0  0  0
 17 18  1  0  0  0
 17100  1  0  0  0
 18 19  2  0  0  0
 18101  1  0  0  0
 19 20  1  0  0  0
 19 24  1  0  0  0
 20 21  2  0  0  0
 20102  1  0  0  0
 21 23  1  0  0  0
 22 28  1  0  0  0
 22 32  2  0  0  0
 26 27  1  0  0  0
 28103  1  0  0  0
 28104  1  0  0  0
 29105  1  0  0  0
 29106  1  0  0  0
 33 34  1  0  0  0
 33 66  1  0  0  0
 33 70  2  0  0  0
 34 36  1  0  0  0
 34 59  1  0  0  0
 34107  1  0  0  0
 35 44  2  0  0  0
 35 45  1  0  0  0
 35 68  1  0  0  0
 36 56  1  0  0  0
 36108  1  0  0  0
 37 39  1  0  0  0
 37 47  1  0  0  0
 37 66  1  0  0  0
 37109  1  0  0  0
 38 43  2  0  0  0
 38 46  1  0  0  0
 38 47  1  0  0  0
 39 64  1  0  0  0
 39 67  2  0  0  0
 40 52  1  0  0  0
 40 53  2  0  0  0
 40 58  1  0  0  0
 41110  1  0  0  0
 41111  1  0  0  0
 41112  1  0  0  0
 41 48  1  0  0  0
 42 43  1  0  0  0
 42 66  1  0  0  0
 42113  1  0  0  0
 42114  1  0  0  0
 43 44  1  0  0  0
 44115  1  0  0  0
 45 46  2  0  0  0
 45116  1  0  0  0
 46117  1  0  0  0
 47118  1  0  0  0
 47119  1  0  0  0
 48 56  1  0  0  0
 48 65  1  0  0  0
 48120  1  0  0  0
 49 50  1  0  0  0
 49 53  1  0  0  0
 49 64  1  0  0  0
 49121  1  0  0  0
 50 51  1  0  0  0
 50122  1  0  0  0
 50123  1  0  0  0
 51 52  1  0  0  0
 51124  1  0  0  0
 51125  1  0  0  0
 52126  1  0  0  0
 52127  1  0  0  0
 53 54  1  0  0  0
 54 55  2  0  0  0
 54128  1  0  0  0
 55 57  1  0  0  0
 55129  1  0  0  0
 56 69  2  0  0  0
 57 58  2  0  0  0
 57130  1  0  0  0
 58131  1  0  0  0
 59 60  1  0  0  0
 59 61  1  0  0  0
 59 62  1  0  0  0
 60132  1  0  0  0
 60133  1  0  0  0
 60134  1  0  0  0
 61135  1  0  0  0
 61136  1  0  0  0
 61137  1  0  0  0
 62138  1  0  0  0
 62139  1  0  0  0
 62140  1  0  0  0
 63 65  1  0  0  0
 63141  1  0  0  0
 63142  1  0  0  0
 63143  1  0  0  0
 64144  1  0  0  0
 65145  1  0  0  0
 68 83  1  0  0  0
 71 73  2  0  0  0
 71 75  1  0  0  0
 71146  1  0  0  0
 72 74  1  0  0  0
 72 75  2  0  0  0
 72147  1  0  0  0
 73 76  1  0  0  0
 73148  1  0  0  0
 74 76  2  0  0  0
 74149  1  0  0  0
 75 82  1  0  0  0
 76 85  1  0  0  0
 77 78  1  0  0  0
 77 84  1  0  0  0
 77 86  2  0  0  0
 78 79  1  0  0  0
 78150  1  0  0  0
 78151  1  0  0  0
 79 81  1  0  0  0
 79152  1  0  0  0
 79153  1  0  0  0
 80 81  1  0  0  0
 80 84  1  0  0  0
 80154  1  0  0  0
 80155  1  0  0  0
 81 83  1  0  0  0
 81156  1  0  0  0
 82 84  1  0  0  0
 82157  1  0  0  0
 82158  1  0  0  0
 83159  1  0  0  0
 83160  1  0  0  0
 85161  1  0  0  0
M  ISO  4   1 100  68 101  83 101  85 100
M  END
> <chiral flag>
0

> <version>
0

> <s_m_source_file>
/data/baiqing/PycharmProjects/Reinvent-master-3.2/result/LINK_invent/BTK/process_docking_weight1_custom_product_contain_oxygen_bond_distance_aromatic_linkinvent_7_9_3/rearranged_h_0102.sdf

> <i_m_source_file_index>
29

> <r_mmod_Potential_Energy-OPLS-2005>
8.91904640197754

> <r_mmod_Stretch_Energy-OPLS-2005>
45.5532341003418

> <r_mmod_Bend_Energy-OPLS-2005>
114.481170654297

> <r_mmod_Torsional_Energy-OPLS-2005>
268.151947021484

> <r_mmod_Improper_Torsional_Energy-OPLS-2005>
5.7864294052124

> <r_mmod_Van_der_Waal_Energy-OPLS-2005>
158.874740600586

> <r_mmod_Electrostatic_Energy-OPLS-2005>
-373.426940917969

> <r_mmod_Solvation_Energy-OPLS-2005>
-229.86701965332

> <b_mmod_Minimization_Converged-OPLS-2005>
0

> <r_mmod_RMS_Derivative-OPLS-2005>
2.41134667396545

$$$$
30
                    3D
 Structure written by MMmdl.
158167  0  0  1  0            999 V2000
  -30.6789  -14.4732   20.5973 C   0  0  0  0  0  0
  -30.4327  -12.3144   19.4214 C   0  0  0  0  0  0
  -29.4987  -12.4991   18.2058 C   0  0  0  0  0  0
  -28.0176  -12.3682   18.6146 C   0  0  0  0  0  0
  -27.6650  -13.2014   19.8767 C   0  0  2  0  0  0
  -28.7033  -12.9554   20.9944 C   0  0  0  0  0  0
  -25.2585  -13.8145   20.5666 C   0  0  0  0  0  0
  -24.1844  -13.0444   20.9188 C   0  0  0  0  0  0
  -24.6394  -11.6908   20.8774 C   0  0  0  0  0  0
  -23.9065  -10.4306   21.0438 C   0  0  0  0  0  0
  -24.3623   -9.4212   21.9187 C   0  0  0  0  0  0
  -23.6313   -8.2244   22.0739 C   0  0  0  0  0  0
  -22.4288   -8.0291   21.3552 C   0  0  0  0  0  0
  -21.9922   -9.0265   20.4647 C   0  0  0  0  0  0
  -22.7246  -10.2149   20.3070 C   0  0  0  0  0  0
  -21.6841   -6.0752   22.5295 C   0  0  0  0  0  0
  -21.4013   -6.5648   23.8234 C   0  0  0  0  0  0
  -21.3663   -5.6789   24.9187 C   0  0  0  0  0  0
  -21.6032   -4.3053   24.7226 C   0  0  0  0  0  0
  -21.8823   -3.8160   23.4347 C   0  0  0  0  0  0
  -21.9190   -4.6981   22.3411 C   0  0  0  0  0  0
  -22.7866  -13.5259   21.1840 C   0  0  0  0  0  0
  -22.1655   -4.2167   21.0987 F   0  0  0  0  0  0
  -21.5623   -3.4538   25.7739 F   0  0  0  0  0  0
  -30.0365  -13.2802   20.4584 N   0  0  0  0  0  0
  -26.3021  -12.9315   20.3357 N   0  0  0  0  0  0
  -25.9308  -11.6479   20.5792 N   0  0  0  0  0  0
  -22.0500  -12.8294   22.0416 N   0  0  0  0  0  0
  -25.4287  -15.1861   20.4047 N   0  0  0  0  0  0
  -31.7785  -14.6871   20.0813 O   0  0  0  0  0  0
  -21.6631   -6.8908   21.4265 O   0  0  0  0  0  0
  -22.3572  -14.5563   20.6650 O   0  0  0  0  0  0
  -24.6168  -31.8659   23.2068 C   0  0  0  0  0  0
  -25.9051  -32.4817   23.8373 C   0  0  1  0  0  0
  -27.2316  -27.4134   20.1201 C   0  0  0  0  0  0
  -25.5905  -33.8613   24.2306 N   0  0  0  0  0  0
  -23.4062  -30.4886   21.5441 C   0  0  2  0  0  0
  -24.8551  -28.9444   20.1173 C   0  0  0  0  0  0
  -22.7414  -29.4669   22.4961 C   0  0  0  0  0  0
  -18.0276  -28.1383   22.8494 C   0  0  0  0  0  0
  -24.1486  -36.7304   23.2642 C   0  0  0  0  0  0
  -25.9357  -30.8227   21.3645 C   0  0  0  0  0  0
  -26.0132  -29.4533   20.7197 C   0  0  0  0  0  0
  -27.2070  -28.6937   20.7213 C   0  0  0  0  0  0
  -26.0641  -26.9214   19.5062 C   0  0  0  0  0  0
  -24.8751  -27.6767   19.5068 C   0  0  0  0  0  0
  -23.6190  -29.8149   20.1610 C   0  0  0  0  0  0
  -25.4111  -36.3102   24.0342 C   0  0  1  0  0  0
  -20.5872  -28.3680   23.1314 C   0  0  2  0  0  0
  -20.6772  -26.9416   22.5421 C   0  0  0  0  0  0
  -19.5754  -26.6397   21.5211 C   0  0  0  0  0  0
  -18.1931  -26.7933   22.1619 C   0  0  0  0  0  0
  -19.1526  -28.8849   23.2903 C   0  0  0  0  0  0
  -18.9459  -30.1457   23.8916 C   0  0  0  0  0  0
  -17.6468  -30.6592   24.0574 C   0  0  0  0  0  0
  -25.9036  -34.9471   23.5113 C   0  0  0  0  0  0
  -16.5359  -29.9095   23.6335 C   0  0  0  0  0  0
  -16.7270  -28.6512   23.0352 C   0  0  0  0  0  0
  -26.4481  -31.6598   25.0707 C   0  0  0  0  0  0
  -25.3766  -31.3715   26.1471 C   0  0  0  0  0  0
  -27.0307  -30.3037   24.6083 C   0  0  0  0  0  0
  -27.6046  -32.4333   25.7487 C   0  0  0  0  0  0
  -27.5575  -37.1810   24.8467 C   0  0  0  0  0  0
  -21.4144  -29.3040   22.3708 N   0  0  0  0  0  0
  -26.4289  -37.3793   23.9413 N   0  0  0  0  0  0
  -24.6704  -31.0754   22.0965 N   0  0  0  0  0  0
  -23.4174  -28.8224   23.3025 O   0  0  0  0  0  0
  -28.3742  -26.6425   20.1039 O   0  0  0  0  0  0
  -26.5602  -34.8937   22.4674 O   0  0  0  0  0  0
  -23.5353  -32.1418   23.7448 O   0  0  0  0  0  0
  -28.6594  -18.8714   20.5575 C   0  0  0  0  0  0
  -28.7251  -17.4888   20.8628 C   0  0  0  0  0  0
  -31.0821  -18.9779   20.6062 C   0  0  0  0  0  0
  -29.8436  -19.6331   20.4054 C   0  0  0  0  0  0
  -29.9695  -16.8279   21.0137 C   0  0  0  0  0  0
  -31.1508  -17.6064   20.9355 C   0  0  0  0  0  0
  -29.8411  -21.0650   19.8997 C   0  0  0  0  0  0
  -28.0483  -23.3760   22.1871 C   0  0  0  0  0  0
  -28.2960  -21.9288   21.7194 C   0  0  0  0  0  0
  -29.1512  -23.4486   20.0711 C   0  0  0  0  0  0
  -28.1491  -24.2456   20.9278 C   0  0  2  0  0  0
  -28.5165  -25.7358   21.2141 C   0  0  0  0  0  0
  -29.1029  -22.0370   20.5038 N   0  0  0  0  0  0
  -29.9758  -15.4156   21.2635 N   0  0  0  0  0  0
  -30.5678  -21.3270   18.9373 O   0  0  0  0  0  0
  -32.3622  -17.0596   21.1901 F   0  0  0  0  0  0
  -31.4735  -12.4295   19.1170 H   0  0  0  0  0  0
  -30.3531  -11.2988   19.8111 H   0  0  0  0  0  0
  -29.7368  -11.7613   17.4380 H   0  0  0  0  0  0
  -29.6672  -13.4772   17.7547 H   0  0  0  0  0  0
  -27.8210  -11.3135   18.8053 H   0  0  0  0  0  0
  -27.3709  -12.6467   17.7819 H   0  0  0  0  0  0
  -27.7219  -14.2548   19.5970 H   0  0  0  0  0  0
  -28.6794  -11.9079   21.2966 H   0  0  0  0  0  0
  -28.4497  -13.5162   21.8962 H   0  0  0  0  0  0
  -25.2782   -9.5677   22.4740 H   0  0  0  0  0  0
  -24.0017   -7.4638   22.7448 H   0  0  0  0  0  0
  -21.0842   -8.8804   19.8977 H   0  0  0  0  0  0
  -22.3719  -10.9679   19.6175 H   0  0  0  0  0  0
  -21.2011   -7.6156   23.9758 H   0  0  0  0  0  0
  -21.1466   -6.0506   25.9090 H   0  0  0  0  0  0
  -22.0597   -2.7623   23.2841 H   0  0  0  0  0  0
  -22.4096  -11.9984   22.4862 H   0  0  0  0  0  0
  -21.1110  -13.1322   22.2591 H   0  0  0  0  0  0
  -24.6548  -15.8333   20.5063 H   0  0  0  0  0  0
  -26.2607  -15.6185   20.0262 H   0  0  0  0  0  0
  -26.7118  -32.5521   23.1131 H   0  0  0  0  0  0
  -25.0097  -33.9769   25.0477 H   0  0  0  0  0  0
  -22.6965  -31.3065   21.3990 H   0  0  0  0  0  0
  -23.3742  -35.9643   23.3332 H   0  0  0  0  0  0
  -24.3580  -36.8876   22.2048 H   0  0  0  0  0  0
  -23.7251  -37.6525   23.6633 H   0  0  0  0  0  0
  -26.0539  -31.5824   20.5906 H   0  0  0  0  0  0
  -26.8225  -30.8787   21.9840 H   0  0  0  0  0  0
  -28.1036  -29.0789   21.1873 H   0  0  0  0  0  0
  -26.0749  -25.9490   19.0349 H   0  0  0  0  0  0
  -23.9859  -27.2767   19.0389 H   0  0  0  0  0  0
  -23.7337  -30.5845   19.3982 H   0  0  0  0  0  0
  -22.7436  -29.2358   19.8626 H   0  0  0  0  0  0
  -25.1288  -36.1959   25.0838 H   0  0  0  0  0  0
  -20.9985  -28.3244   24.1418 H   0  0  0  0  0  0
  -20.5664  -26.2283   23.3609 H   0  0  0  0  0  0
  -21.6644  -26.7440   22.1217 H   0  0  0  0  0  0
  -19.6911  -25.6305   21.1228 H   0  0  0  0  0  0
  -19.6689  -27.3218   20.6757 H   0  0  0  0  0  0
  -17.4199  -26.6692   21.4016 H   0  0  0  0  0  0
  -18.0320  -26.0067   22.9009 H   0  0  0  0  0  0
  -19.7943  -30.7265   24.2274 H   0  0  0  0  0  0
  -17.5028  -31.6267   24.5171 H   0  0  0  0  0  0
  -15.5360  -30.3000   23.7660 H   0  0  0  0  0  0
  -15.8670  -28.0845   22.7045 H   0  0  0  0  0  0
  -24.5934  -30.7049   25.7828 H   0  0  0  0  0  0
  -24.8979  -32.2874   26.4940 H   0  0  0  0  0  0
  -25.8159  -30.8887   27.0204 H   0  0  0  0  0  0
  -26.2828  -29.6821   24.1133 H   0  0  0  0  0  0
  -27.4057  -29.7267   25.4541 H   0  0  0  0  0  0
  -27.8687  -30.4355   23.9238 H   0  0  0  0  0  0
  -27.2626  -33.3603   26.2114 H   0  0  0  0  0  0
  -28.3850  -32.6945   25.0321 H   0  0  0  0  0  0
  -28.0721  -31.8428   26.5373 H   0  0  0  0  0  0
  -28.2611  -38.0091   24.7506 H   0  0  0  0  0  0
  -28.1056  -36.2623   24.6300 H   0  0  0  0  0  0
  -27.2302  -37.1468   25.8875 H   0  0  0  0  0  0
  -20.9300  -29.8765   21.6937 H   0  0  0  0  0  0
  -26.0174  -38.2869   24.1402 H   0  0  0  0  0  0
  -27.6942  -19.3272   20.3800 H   0  0  0  0  0  0
  -27.8024  -16.9300   20.9455 H   0  0  0  0  0  0
  -32.0033  -19.5308   20.4937 H   0  0  0  0  0  0
  -28.8242  -23.6655   22.8988 H   0  0  0  0  0  0
  -27.0889  -23.4902   22.6929 H   0  0  0  0  0  0
  -27.3498  -21.4419   21.4777 H   0  0  0  0  0  0
  -28.7929  -21.3327   22.4887 H   0  0  0  0  0  0
  -30.1643  -23.8214   20.2266 H   0  0  0  0  0  0
  -28.9229  -23.5419   19.0074 H   0  0  0  0  0  0
  -27.1767  -24.2126   20.4358 H   0  0  0  0  0  0
  -29.5525  -25.7874   21.5504 H   0  0  0  0  0  0
  -27.9267  -26.0931   22.0609 H   0  0  0  0  0  0
  -29.1325  -15.0483   21.6741 H   0  0  0  0  0  0
  1 25  1  0  0  0
  1 30  2  0  0  0
  1 84  1  0  0  0
  2  3  1  0  0  0
  2 25  1  0  0  0
  2 87  1  0  0  0
  2 88  1  0  0  0
  3  4  1  0  0  0
  3 89  1  0  0  0
  3 90  1  0  0  0
  4  5  1  0  0  0
  4 91  1  0  0  0
  4 92  1  0  0  0
  5  6  1  0  0  0
  5 26  1  0  0  0
  5 93  1  0  0  0
  6 25  1  0  0  0
  6 94  1  0  0  0
  6 95  1  0  0  0
  7  8  2  0  0  0
  7 26  1  0  0  0
  7 29  1  0  0  0
  8  9  1  0  0  0
  8 22  1  0  0  0
  9 10  1  0  0  0
  9 27  2  0  0  0
 10 11  2  0  0  0
 10 15  1  0  0  0
 11 12  1  0  0  0
 11 96  1  0  0  0
 12 13  2  0  0  0
 12 97  1  0  0  0
 13 14  1  0  0  0
 13 31  1  0  0  0
 14 15  2  0  0  0
 14 98  1  0  0  0
 15 99  1  0  0  0
 16 17  2  0  0  0
 16 21  1  0  0  0
 16 31  1  0  0  0
 17 18  1  0  0  0
 17100  1  0  0  0
 18 19  2  0  0  0
 18101  1  0  0  0
 19 20  1  0  0  0
 19 24  1  0  0  0
 20 21  2  0  0  0
 20102  1  0  0  0
 21 23  1  0  0  0
 22 28  1  0  0  0
 22 32  2  0  0  0
 26 27  1  0  0  0
 28103  1  0  0  0
 28104  1  0  0  0
 29105  1  0  0  0
 29106  1  0  0  0
 33 34  1  0  0  0
 33 66  1  0  0  0
 33 70  2  0  0  0
 34 36  1  0  0  0
 34 59  1  0  0  0
 34107  1  0  0  0
 35 44  2  0  0  0
 35 45  1  0  0  0
 35 68  1  0  0  0
 36 56  1  0  0  0
 36108  1  0  0  0
 37 39  1  0  0  0
 37 47  1  0  0  0
 37 66  1  0  0  0
 37109  1  0  0  0
 38 43  2  0  0  0
 38 46  1  0  0  0
 38 47  1  0  0  0
 39 64  1  0  0  0
 39 67  2  0  0  0
 40 52  1  0  0  0
 40 53  2  0  0  0
 40 58  1  0  0  0
 41110  1  0  0  0
 41111  1  0  0  0
 41112  1  0  0  0
 41 48  1  0  0  0
 42 43  1  0  0  0
 42 66  1  0  0  0
 42113  1  0  0  0
 42114  1  0  0  0
 43 44  1  0  0  0
 44115  1  0  0  0
 45 46  2  0  0  0
 45116  1  0  0  0
 46117  1  0  0  0
 47118  1  0  0  0
 47119  1  0  0  0
 48 56  1  0  0  0
 48 65  1  0  0  0
 48120  1  0  0  0
 49 50  1  0  0  0
 49 53  1  0  0  0
 49 64  1  0  0  0
 49121  1  0  0  0
 50 51  1  0  0  0
 50122  1  0  0  0
 50123  1  0  0  0
 51 52  1  0  0  0
 51124  1  0  0  0
 51125  1  0  0  0
 52126  1  0  0  0
 52127  1  0  0  0
 53 54  1  0  0  0
 54 55  2  0  0  0
 54128  1  0  0  0
 55 57  1  0  0  0
 55129  1  0  0  0
 56 69  2  0  0  0
 57 58  2  0  0  0
 57130  1  0  0  0
 58131  1  0  0  0
 59 60  1  0  0  0
 59 61  1  0  0  0
 59 62  1  0  0  0
 60132  1  0  0  0
 60133  1  0  0  0
 60134  1  0  0  0
 61135  1  0  0  0
 61136  1  0  0  0
 61137  1  0  0  0
 62138  1  0  0  0
 62139  1  0  0  0
 62140  1  0  0  0
 63 65  1  0  0  0
 63141  1  0  0  0
 63142  1  0  0  0
 63143  1  0  0  0
 64144  1  0  0  0
 65145  1  0  0  0
 68 82  1  0  0  0
 71 72  2  0  0  0
 71 74  1  0  0  0
 71146  1  0  0  0
 72 75  1  0  0  0
 72147  1  0  0  0
 73 74  2  0  0  0
 73 76  1  0  0  0
 73148  1  0  0  0
 74 77  1  0  0  0
 75 76  2  0  0  0
 75 84  1  0  0  0
 76 86  1  0  0  0
 77 83  1  0  0  0
 77 85  2  0  0  0
 78 79  1  0  0  0
 78 81  1  0  0  0
 78149  1  0  0  0
 78150  1  0  0  0
 79 83  1  0  0  0
 79151  1  0  0  0
 79152  1  0  0  0
 80 81  1  0  0  0
 80 83  1  0  0  0
 80153  1  0  0  0
 80154  1  0  0  0
 81 82  1  0  0  0
 81155  1  0  0  0
 82156  1  0  0  0
 82157  1  0  0  0
 84158  1  0  0  0
M  ISO  4   1 100  68 101  82 101  84 100
M  END
> <chiral flag>
0

> <version>
0

> <s_m_source_file>
/data/baiqing/PycharmProjects/Reinvent-master-3.2/result/LINK_invent/BTK/process_docking_weight1_custom_product_contain_oxygen_bond_distance_aromatic_linkinvent_7_9_3/rearranged_h_0102.sdf

> <i_m_source_file_index>
30

> <r_mmod_Potential_Energy-OPLS-2005>
61.5994758605957

> <r_mmod_Stretch_Energy-OPLS-2005>
42.0884399414062

> <r_mmod_Bend_Energy-OPLS-2005>
121.888999938965

> <r_mmod_Torsional_Energy-OPLS-2005>
345.329681396484

> <r_mmod_Improper_Torsional_Energy-OPLS-2005>
5.24740695953369

> <r_mmod_Van_der_Waal_Energy-OPLS-2005>
143.141616821289

> <r_mmod_Electrostatic_Energy-OPLS-2005>
-371.111633300781

> <r_mmod_Solvation_Energy-OPLS-2005>
-238.52311706543

> <b_mmod_Minimization_Converged-OPLS-2005>
0

> <r_mmod_RMS_Derivative-OPLS-2005>
3.09271645545959

$$$$
31
                    3D
 Structure written by MMmdl.
140147  0  0  1  0            999 V2000
  -30.4550  -15.3076   20.3475 C   0  0  0  0  0  0
  -30.4258  -12.8306   19.5499 C   0  0  0  0  0  0
  -29.5392  -12.5854   18.3027 C   0  0  0  0  0  0
  -28.0879  -12.3024   18.7219 C   0  0  0  0  0  0
  -27.6036  -13.2878   19.8137 C   0  0  2  0  0  0
  -28.6259  -13.5044   20.9483 C   0  0  0  0  0  0
  -25.2361  -13.8278   20.5753 C   0  0  0  0  0  0
  -24.1725  -13.0448   20.9250 C   0  0  0  0  0  0
  -24.6395  -11.6948   20.8747 C   0  0  0  0  0  0
  -23.9098  -10.4299   21.0397 C   0  0  0  0  0  0
  -24.3642   -9.4214   21.9178 C   0  0  0  0  0  0
  -23.6309   -8.2251   22.0753 C   0  0  0  0  0  0
  -22.4290   -8.0287   21.3545 C   0  0  0  0  0  0
  -21.9930   -9.0261   20.4645 C   0  0  0  0  0  0
  -22.7266  -10.2136   20.3050 C   0  0  0  0  0  0
  -21.6860   -6.0739   22.5279 C   0  0  0  0  0  0
  -21.4019   -6.5642   23.8212 C   0  0  0  0  0  0
  -21.3661   -5.6794   24.9174 C   0  0  0  0  0  0
  -21.6044   -4.3056   24.7224 C   0  0  0  0  0  0
  -21.8819   -3.8148   23.4345 C   0  0  0  0  0  0
  -21.9194   -4.6966   22.3401 C   0  0  0  0  0  0
  -22.7743  -13.5189   21.1906 C   0  0  0  0  0  0
  -22.1662   -4.2151   21.0979 F   0  0  0  0  0  0
  -21.5627   -3.4539   25.7736 F   0  0  0  0  0  0
  -29.8664  -14.0025   20.3325 N   0  0  0  0  0  0
  -26.2779  -12.9571   20.3175 N   0  0  0  0  0  0
  -25.9331  -11.6663   20.5686 N   0  0  0  0  0  0
  -22.0411  -12.8163   22.0462 N   0  0  0  0  0  0
  -25.4017  -15.2017   20.4243 N   0  0  0  0  0  0
  -31.6765  -15.2292   20.1413 O   0  0  0  0  0  0
  -21.6650   -6.8886   21.4242 O   0  0  0  0  0  0
  -22.3415  -14.5488   20.6750 O   0  0  0  0  0  0
  -24.6653  -31.8205   23.1680 C   0  0  0  0  0  0
  -25.9323  -32.4571   23.8156 C   0  0  1  0  0  0
  -27.2157  -26.8998   20.1903 C   0  0  0  0  0  0
  -25.5978  -33.8388   24.2057 N   0  0  0  0  0  0
  -23.4813  -30.4310   21.5178 C   0  0  2  0  0  0
  -24.9350  -28.8121   20.1124 C   0  0  0  0  0  0
  -22.7678  -29.4424   22.4773 C   0  0  0  0  0  0
  -18.0324  -28.1408   22.8465 C   0  0  0  0  0  0
  -24.1495  -36.7201   23.2649 C   0  0  0  0  0  0
  -26.0519  -30.6183   21.4023 C   0  0  0  0  0  0
  -26.1195  -29.2050   20.7478 C   0  0  0  0  0  0
  -27.2542  -28.2707   20.7604 C   0  0  0  0  0  0
  -26.0031  -26.6662   19.5036 C   0  0  0  0  0  0
  -24.9039  -27.5643   19.4689 C   0  0  0  0  0  0
  -23.7227  -29.7439   20.1451 C   0  0  0  0  0  0
  -25.4137  -36.2958   24.0297 C   0  0  1  0  0  0
  -20.5950  -28.3756   23.1182 C   0  0  2  0  0  0
  -20.6799  -26.9434   22.5403 C   0  0  0  0  0  0
  -19.5773  -26.6375   21.5214 C   0  0  0  0  0  0
  -18.1956  -26.7941   22.1622 C   0  0  0  0  0  0
  -19.1586  -28.8903   23.2810 C   0  0  0  0  0  0
  -18.9496  -30.1492   23.8847 C   0  0  0  0  0  0
  -17.6488  -30.6597   24.0553 C   0  0  0  0  0  0
  -25.9104  -34.9341   23.5001 C   0  0  0  0  0  0
  -16.5378  -29.9083   23.6344 C   0  0  0  0  0  0
  -16.7305  -28.6504   23.0363 C   0  0  0  0  0  0
  -26.4564  -31.6530   25.0698 C   0  0  0  0  0  0
  -25.3681  -31.3787   26.1347 C   0  0  0  0  0  0
  -27.0470  -30.2893   24.6456 C   0  0  0  0  0  0
  -27.6046  -32.4350   25.7505 C   0  0  0  0  0  0
  -27.5570  -37.1759   24.8467 C   0  0  0  0  0  0
  -21.4344  -29.3040   22.3526 N   0  0  0  0  0  0
  -26.4280  -37.3697   23.9407 N   0  0  0  0  0  0
  -24.7545  -30.9844   22.0828 N   0  0  0  0  0  0
  -23.4214  -28.7999   23.3028 O   0  0  0  0  0  0
  -28.2040  -25.7750   20.2744 O   0  0  0  0  0  0
  -26.5720  -34.8882   22.4602 O   0  0  0  0  0  0
  -23.5718  -32.1187   23.6759 O   0  0  0  0  0  0
  -29.8172  -16.8544   20.4113 C   0  0  0  0  0  0
  -29.5803  -18.1412   20.4159 C   0  0  0  0  0  0
  -28.9692  -22.7703   20.4228 C   0  0  0  0  0  0
  -29.6776  -19.8152   20.5554 C   0  0  0  0  0  0
  -27.9101  -24.1447   20.0961 C   0  0  0  0  0  0
  -30.0776  -23.0894   20.8589 O   0  0  0  0  0  0
  -28.6934  -21.1008   20.2327 O   0  0  0  0  0  0
  -31.4517  -13.0063   19.2248 H   0  0  0  0  0  0
  -30.4732  -11.9350   20.1716 H   0  0  0  0  0  0
  -29.9299  -11.7551   17.7130 H   0  0  0  0  0  0
  -29.5706  -13.4646   17.6573 H   0  0  0  0  0  0
  -28.0497  -11.2824   19.1063 H   0  0  0  0  0  0
  -27.4251  -12.3293   17.8562 H   0  0  0  0  0  0
  -27.5081  -14.2447   19.2989 H   0  0  0  0  0  0
  -28.7918  -12.5890   21.5183 H   0  0  0  0  0  0
  -28.2519  -14.2465   21.6553 H   0  0  0  0  0  0
  -25.2783   -9.5690   22.4758 H   0  0  0  0  0  0
  -24.0014   -7.4645   22.7477 H   0  0  0  0  0  0
  -21.0859   -8.8783   19.8952 H   0  0  0  0  0  0
  -22.3721  -10.9674   19.6160 H   0  0  0  0  0  0
  -21.2015   -7.6151   23.9716 H   0  0  0  0  0  0
  -21.1483   -6.0524   25.9076 H   0  0  0  0  0  0
  -22.0596   -2.7610   23.2845 H   0  0  0  0  0  0
  -22.4054  -11.9836   22.4850 H   0  0  0  0  0  0
  -21.1021  -13.1161   22.2671 H   0  0  0  0  0  0
  -24.6382  -15.8569   20.5530 H   0  0  0  0  0  0
  -26.2585  -15.6473   20.1206 H   0  0  0  0  0  0
  -26.7393  -32.5100   23.0870 H   0  0  0  0  0  0
  -25.0062  -33.9461   25.0165 H   0  0  0  0  0  0
  -22.7961  -31.2634   21.3447 H   0  0  0  0  0  0
  -23.3768  -35.9519   23.3278 H   0  0  0  0  0  0
  -24.3569  -36.8883   22.2069 H   0  0  0  0  0  0
  -23.7242  -37.6374   23.6729 H   0  0  0  0  0  0
  -26.2351  -31.3575   20.6214 H   0  0  0  0  0  0
  -26.9108  -30.6764   22.0590 H   0  0  0  0  0  0
  -28.1493  -28.5692   21.2878 H   0  0  0  0  0  0
  -25.8695  -25.7125   19.0139 H   0  0  0  0  0  0
  -24.0046  -27.2574   18.9527 H   0  0  0  0  0  0
  -23.8809  -30.5110   19.3863 H   0  0  0  0  0  0
  -22.8315  -29.2000   19.8269 H   0  0  0  0  0  0
  -25.1338  -36.1749   25.0788 H   0  0  0  0  0  0
  -21.0038  -28.3364   24.1305 H   0  0  0  0  0  0
  -20.5674  -26.2375   23.3646 H   0  0  0  0  0  0
  -21.6662  -26.7403   22.1213 H   0  0  0  0  0  0
  -19.6932  -25.6272   21.1277 H   0  0  0  0  0  0
  -19.6712  -27.3156   20.6721 H   0  0  0  0  0  0
  -17.4225  -26.6682   21.4026 H   0  0  0  0  0  0
  -18.0350  -26.0095   22.9030 H   0  0  0  0  0  0
  -19.7971  -30.7322   24.2193 H   0  0  0  0  0  0
  -17.5039  -31.6272   24.5165 H   0  0  0  0  0  0
  -15.5376  -30.2968   23.7696 H   0  0  0  0  0  0
  -15.8706  -28.0804   22.7108 H   0  0  0  0  0  0
  -24.5885  -30.7112   25.7657 H   0  0  0  0  0  0
  -24.8845  -32.2989   26.4635 H   0  0  0  0  0  0
  -25.7905  -30.9048   27.0216 H   0  0  0  0  0  0
  -26.3146  -29.6557   24.1443 H   0  0  0  0  0  0
  -27.3968  -29.7273   25.5127 H   0  0  0  0  0  0
  -27.9099  -30.4069   23.9899 H   0  0  0  0  0  0
  -27.2605  -33.3696   26.1947 H   0  0  0  0  0  0
  -28.3927  -32.6841   25.0385 H   0  0  0  0  0  0
  -28.0638  -31.8570   26.5534 H   0  0  0  0  0  0
  -28.2568  -38.0072   24.7511 H   0  0  0  0  0  0
  -28.1084  -36.2597   24.6298 H   0  0  0  0  0  0
  -27.2285  -37.1404   25.8869 H   0  0  0  0  0  0
  -20.9605  -29.8723   21.6644 H   0  0  0  0  0  0
  -26.0125  -38.2754   24.1411 H   0  0  0  0  0  0
  -30.5937  -20.0473   20.0122 H   0  0  0  0  0  0
  -29.9488  -19.9528   21.6021 H   0  0  0  0  0  0
  -27.0104  -23.9484   20.6790 H   0  0  0  0  0  0
  -27.5999  -24.0178   19.0591 H   0  0  0  0  0  0
  1 25  1  0  0  0
  1 30  2  0  0  0
  1 71  1  0  0  0
  2  3  1  0  0  0
  2 25  1  0  0  0
  2 78  1  0  0  0
  2 79  1  0  0  0
  3  4  1  0  0  0
  3 80  1  0  0  0
  3 81  1  0  0  0
  4  5  1  0  0  0
  4 82  1  0  0  0
  4 83  1  0  0  0
  5  6  1  0  0  0
  5 26  1  0  0  0
  5 84  1  0  0  0
  6 25  1  0  0  0
  6 85  1  0  0  0
  6 86  1  0  0  0
  7  8  2  0  0  0
  7 26  1  0  0  0
  7 29  1  0  0  0
  8  9  1  0  0  0
  8 22  1  0  0  0
  9 10  1  0  0  0
  9 27  2  0  0  0
 10 11  2  0  0  0
 10 15  1  0  0  0
 11 12  1  0  0  0
 11 87  1  0  0  0
 12 13  2  0  0  0
 12 88  1  0  0  0
 13 14  1  0  0  0
 13 31  1  0  0  0
 14 15  2  0  0  0
 14 89  1  0  0  0
 15 90  1  0  0  0
 16 17  2  0  0  0
 16 21  1  0  0  0
 16 31  1  0  0  0
 17 18  1  0  0  0
 17 91  1  0  0  0
 18 19  2  0  0  0
 18 92  1  0  0  0
 19 20  1  0  0  0
 19 24  1  0  0  0
 20 21  2  0  0  0
 20 93  1  0  0  0
 21 23  1  0  0  0
 22 28  1  0  0  0
 22 32  2  0  0  0
 26 27  1  0  0  0
 28 94  1  0  0  0
 28 95  1  0  0  0
 29 96  1  0  0  0
 29 97  1  0  0  0
 33 34  1  0  0  0
 33 66  1  0  0  0
 33 70  2  0  0  0
 34 36  1  0  0  0
 34 59  1  0  0  0
 34 98  1  0  0  0
 35 44  2  0  0  0
 35 45  1  0  0  0
 35 68  1  0  0  0
 36 56  1  0  0  0
 36 99  1  0  0  0
 37 39  1  0  0  0
 37 47  1  0  0  0
 37 66  1  0  0  0
 37100  1  0  0  0
 38 43  2  0  0  0
 38 46  1  0  0  0
 38 47  1  0  0  0
 39 64  1  0  0  0
 39 67  2  0  0  0
 40 52  1  0  0  0
 40 53  2  0  0  0
 40 58  1  0  0  0
 41101  1  0  0  0
 41102  1  0  0  0
 41103  1  0  0  0
 41 48  1  0  0  0
 42 43  1  0  0  0
 42 66  1  0  0  0
 42104  1  0  0  0
 42105  1  0  0  0
 43 44  1  0  0  0
 44106  1  0  0  0
 45 46  2  0  0  0
 45107  1  0  0  0
 46108  1  0  0  0
 47109  1  0  0  0
 47110  1  0  0  0
 48 56  1  0  0  0
 48 65  1  0  0  0
 48111  1  0  0  0
 49 50  1  0  0  0
 49 53  1  0  0  0
 49 64  1  0  0  0
 49112  1  0  0  0
 50 51  1  0  0  0
 50113  1  0  0  0
 50114  1  0  0  0
 51 52  1  0  0  0
 51115  1  0  0  0
 51116  1  0  0  0
 52117  1  0  0  0
 52118  1  0  0  0
 53 54  1  0  0  0
 54 55  2  0  0  0
 54119  1  0  0  0
 55 57  1  0  0  0
 55120  1  0  0  0
 56 69  2  0  0  0
 57 58  2  0  0  0
 57121  1  0  0  0
 58122  1  0  0  0
 59 60  1  0  0  0
 59 61  1  0  0  0
 59 62  1  0  0  0
 60123  1  0  0  0
 60124  1  0  0  0
 60125  1  0  0  0
 61126  1  0  0  0
 61127  1  0  0  0
 61128  1  0  0  0
 62129  1  0  0  0
 62130  1  0  0  0
 62131  1  0  0  0
 63 65  1  0  0  0
 63132  1  0  0  0
 63133  1  0  0  0
 63134  1  0  0  0
 64135  1  0  0  0
 65136  1  0  0  0
 68 75  1  0  0  0
 71 72  3  0  0  0
 72 74  1  0  0  0
 73 75  1  0  0  0
 73 76  2  0  0  0
 73 77  1  0  0  0
 74 77  1  0  0  0
 74137  1  0  0  0
 74138  1  0  0  0
 75139  1  0  0  0
 75140  1  0  0  0
M  ISO  4   1 100  68 101  71 100  75 101
M  END
> <chiral flag>
0

> <version>
0

> <s_m_source_file>
/data/baiqing/PycharmProjects/Reinvent-master-3.2/result/LINK_invent/BTK/process_docking_weight1_custom_product_contain_oxygen_bond_distance_aromatic_linkinvent_7_9_3/rearranged_h_0102.sdf

> <i_m_source_file_index>
31

> <r_mmod_Potential_Energy-OPLS-2005>
1366.66467285156

> <r_mmod_Stretch_Energy-OPLS-2005>
679.039611816406

> <r_mmod_Bend_Energy-OPLS-2005>
422.537933349609

> <r_mmod_Torsional_Energy-OPLS-2005>
180.858291625977

> <r_mmod_Improper_Torsional_Energy-OPLS-2005>
3.20105266571045

> <r_mmod_Van_der_Waal_Energy-OPLS-2005>
111.514404296875

> <r_mmod_Electrostatic_Energy-OPLS-2005>
-311.994140625

> <r_mmod_Solvation_Energy-OPLS-2005>
-217.703140258789

> <b_mmod_Minimization_Converged-OPLS-2005>
0

> <r_mmod_RMS_Derivative-OPLS-2005>
0.141102641820908

$$$$
32
                    3D
 Structure written by MMmdl.
162171  0  0  1  0            999 V2000
  -30.6843  -14.5836   20.4501 C   0  0  0  0  0  0
  -30.4186  -12.3482   19.4410 C   0  0  0  0  0  0
  -29.4975  -12.4716   18.2113 C   0  0  0  0  0  0
  -28.0217  -12.3283   18.6293 C   0  0  0  0  0  0
  -27.6455  -13.2176   19.8483 C   0  0  2  0  0  0
  -28.6952  -13.1033   20.9751 C   0  0  0  0  0  0
  -25.2554  -13.8177   20.5679 C   0  0  0  0  0  0
  -24.1836  -13.0448   20.9204 C   0  0  0  0  0  0
  -24.6414  -11.6915   20.8757 C   0  0  0  0  0  0
  -23.9099  -10.4283   21.0380 C   0  0  0  0  0  0
  -24.3659   -9.4206   21.9155 C   0  0  0  0  0  0
  -23.6323   -8.2244   22.0741 C   0  0  0  0  0  0
  -22.4297   -8.0285   21.3532 C   0  0  0  0  0  0
  -21.9937   -9.0261   20.4639 C   0  0  0  0  0  0
  -22.7273  -10.2139   20.3044 C   0  0  0  0  0  0
  -21.6870   -6.0742   22.5264 C   0  0  0  0  0  0
  -21.4011   -6.5644   23.8204 C   0  0  0  0  0  0
  -21.3660   -5.6791   24.9176 C   0  0  0  0  0  0
  -21.6048   -4.3061   24.7209 C   0  0  0  0  0  0
  -21.8821   -3.8145   23.4338 C   0  0  0  0  0  0
  -21.9207   -4.6966   22.3385 C   0  0  0  0  0  0
  -22.7870  -13.5247   21.1847 C   0  0  0  0  0  0
  -22.1650   -4.2156   21.0955 F   0  0  0  0  0  0
  -21.5644   -3.4544   25.7720 F   0  0  0  0  0  0
  -30.0039  -13.4014   20.3854 N   0  0  0  0  0  0
  -26.2956  -12.9364   20.3290 N   0  0  0  0  0  0
  -25.9332  -11.6524   20.5781 N   0  0  0  0  0  0
  -22.0501  -12.8247   22.0413 N   0  0  0  0  0  0
  -25.4269  -15.1916   20.4062 N   0  0  0  0  0  0
  -31.9022  -14.6134   20.2534 O   0  0  0  0  0  0
  -21.6662   -6.8881   21.4238 O   0  0  0  0  0  0
  -22.3551  -14.5521   20.6668 O   0  0  0  0  0  0
  -24.6272  -31.8666   23.2150 C   0  0  0  0  0  0
  -25.9141  -32.4808   23.8435 C   0  0  1  0  0  0
  -27.1840  -27.3450   20.0547 C   0  0  0  0  0  0
  -25.5972  -33.8623   24.2350 N   0  0  0  0  0  0
  -23.4144  -30.5068   21.5590 C   0  0  2  0  0  0
  -24.8455  -28.9848   20.1126 C   0  0  0  0  0  0
  -22.7468  -29.4698   22.4941 C   0  0  0  0  0  0
  -18.0285  -28.1388   22.8470 C   0  0  0  0  0  0
  -24.1486  -36.7294   23.2620 C   0  0  0  0  0  0
  -25.9629  -30.8002   21.3882 C   0  0  0  0  0  0
  -26.0276  -29.4400   20.7108 C   0  0  0  0  0  0
  -27.2056  -28.6325   20.6746 C   0  0  0  0  0  0
  -25.9565  -26.9480   19.4590 C   0  0  0  0  0  0
  -24.8087  -27.7405   19.4868 C   0  0  0  0  0  0
  -23.6243  -29.8715   20.1661 C   0  0  0  0  0  0
  -25.4103  -36.3096   24.0330 C   0  0  1  0  0  0
  -20.5888  -28.3694   23.1265 C   0  0  2  0  0  0
  -20.6782  -26.9418   22.5388 C   0  0  0  0  0  0
  -19.5761  -26.6382   21.5194 C   0  0  0  0  0  0
  -18.1937  -26.7928   22.1600 C   0  0  0  0  0  0
  -19.1533  -28.8854   23.2877 C   0  0  0  0  0  0
  -18.9462  -30.1449   23.8908 C   0  0  0  0  0  0
  -17.6458  -30.6577   24.0572 C   0  0  0  0  0  0
  -25.9063  -34.9478   23.5127 C   0  0  0  0  0  0
  -16.5351  -29.9079   23.6328 C   0  0  0  0  0  0
  -16.7275  -28.6501   23.0347 C   0  0  0  0  0  0
  -26.4526  -31.6603   25.0791 C   0  0  0  0  0  0
  -25.3771  -31.3772   26.1532 C   0  0  0  0  0  0
  -27.0329  -30.3007   24.6257 C   0  0  0  0  0  0
  -27.6109  -32.4325   25.7538 C   0  0  0  0  0  0
  -27.5599  -37.1776   24.8434 C   0  0  0  0  0  0
  -21.4180  -29.3065   22.3666 N   0  0  0  0  0  0
  -26.4263  -37.3807   23.9447 N   0  0  0  0  0  0
  -24.6880  -31.0707   22.1104 N   0  0  0  0  0  0
  -23.4211  -28.8171   23.2955 O   0  0  0  0  0  0
  -28.2882  -26.4750   20.0379 O   0  0  0  0  0  0
  -26.5584  -34.8920   22.4667 O   0  0  0  0  0  0
  -23.5443  -32.1458   23.7491 O   0  0  0  0  0  0
  -30.5572  -19.5118   22.8675 C   0  0  0  0  0  0
  -30.1735  -18.2184   22.4605 C   0  0  0  0  0  0
  -30.3571  -20.6174   22.0230 C   0  0  0  0  0  0
  -29.3952  -19.1370   20.3412 C   0  0  0  0  0  0
  -29.5817  -18.0008   21.1980 C   0  0  0  0  0  0
  -29.7749  -20.4580   20.7507 C   0  0  0  0  0  0
  -28.9021  -22.7448   20.1900 C   0  0  0  0  0  0
  -29.0114  -23.9649   19.5820 C   0  0  0  0  0  0
  -30.0035  -24.1015   18.4863 C   0  0  0  0  0  0
  -30.7597  -22.8390   18.0495 C   0  0  0  0  0  0
  -30.9440  -21.8521   19.2175 C   0  0  0  0  0  0
  -30.4058  -16.3548   18.8079 C   0  0  0  0  0  0
  -29.0980  -16.5556   20.8699 C   0  0  0  0  0  0
  -27.9488  -25.0792   19.7041 C   0  0  0  0  0  0
  -29.6806  -21.6030   19.9140 N   0  0  0  0  0  0
  -29.9745  -15.6852   20.0428 N   0  0  0  0  0  0
  -30.2101  -25.1568   17.8782 O   0  0  0  0  0  0
  -31.4622  -12.4396   19.1370 H   0  0  0  0  0  0
  -30.3282  -11.3630   19.9001 H   0  0  0  0  0  0
  -29.7502  -11.7087   17.4751 H   0  0  0  0  0  0
  -29.6520  -13.4366   17.7223 H   0  0  0  0  0  0
  -27.8537  -11.2791   18.8697 H   0  0  0  0  0  0
  -27.3699  -12.5489   17.7817 H   0  0  0  0  0  0
  -27.6508  -14.2447   19.4851 H   0  0  0  0  0  0
  -28.6967  -12.0962   21.3928 H   0  0  0  0  0  0
  -28.4680  -13.7826   21.7975 H   0  0  0  0  0  0
  -25.2788   -9.5699   22.4761 H   0  0  0  0  0  0
  -24.0022   -7.4653   22.7487 H   0  0  0  0  0  0
  -21.0851   -8.8805   19.8968 H   0  0  0  0  0  0
  -22.3702  -10.9701   19.6193 H   0  0  0  0  0  0
  -21.1960   -7.6150   23.9711 H   0  0  0  0  0  0
  -21.1488   -6.0520   25.9089 H   0  0  0  0  0  0
  -22.0596   -2.7616   23.2831 H   0  0  0  0  0  0
  -22.4128  -11.9917   22.4794 H   0  0  0  0  0  0
  -21.1121  -13.1272   22.2590 H   0  0  0  0  0  0
  -24.6669  -15.8535   20.5163 H   0  0  0  0  0  0
  -26.2785  -15.6203   20.0691 H   0  0  0  0  0  0
  -26.7194  -32.5460   23.1170 H   0  0  0  0  0  0
  -25.0190  -33.9795   25.0531 H   0  0  0  0  0  0
  -22.7081  -31.3300   21.4326 H   0  0  0  0  0  0
  -23.3787  -35.9580   23.3218 H   0  0  0  0  0  0
  -24.3604  -36.8981   22.2050 H   0  0  0  0  0  0
  -23.7175  -37.6454   23.6680 H   0  0  0  0  0  0
  -26.1098  -31.5776   20.6366 H   0  0  0  0  0  0
  -26.8389  -30.8252   22.0255 H   0  0  0  0  0  0
  -28.1186  -28.9813   21.1371 H   0  0  0  0  0  0
  -25.7976  -26.0153   18.9458 H   0  0  0  0  0  0
  -23.8986  -27.3875   19.0205 H   0  0  0  0  0  0
  -23.7614  -30.6636   19.4295 H   0  0  0  0  0  0
  -22.7368  -29.3221   19.8445 H   0  0  0  0  0  0
  -25.1275  -36.1947   25.0813 H   0  0  0  0  0  0
  -20.9996  -28.3264   24.1387 H   0  0  0  0  0  0
  -20.5674  -26.2311   23.3594 H   0  0  0  0  0  0
  -21.6659  -26.7444   22.1192 H   0  0  0  0  0  0
  -19.6928  -25.6294   21.1231 H   0  0  0  0  0  0
  -19.6712  -27.3193   20.6726 H   0  0  0  0  0  0
  -17.4219  -26.6686   21.4000 H   0  0  0  0  0  0
  -18.0338  -26.0064   22.8984 H   0  0  0  0  0  0
  -19.7952  -30.7253   24.2296 H   0  0  0  0  0  0
  -17.5027  -31.6270   24.5157 H   0  0  0  0  0  0
  -15.5363  -30.2988   23.7657 H   0  0  0  0  0  0
  -15.8675  -28.0823   22.7059 H   0  0  0  0  0  0
  -24.5954  -30.7096   25.7903 H   0  0  0  0  0  0
  -24.8965  -32.2946   26.4940 H   0  0  0  0  0  0
  -25.8113  -30.8993   27.0325 H   0  0  0  0  0  0
  -26.2895  -29.6780   24.1261 H   0  0  0  0  0  0
  -27.3966  -29.7249   25.4780 H   0  0  0  0  0  0
  -27.8818  -30.4255   23.9527 H   0  0  0  0  0  0
  -27.2738  -33.3610   26.2161 H   0  0  0  0  0  0
  -28.3902  -32.6901   25.0353 H   0  0  0  0  0  0
  -28.0804  -31.8424   26.5420 H   0  0  0  0  0  0
  -28.2527  -38.0158   24.7629 H   0  0  0  0  0  0
  -28.1182  -36.2714   24.6061 H   0  0  0  0  0  0
  -27.2359  -37.1184   25.8832 H   0  0  0  0  0  0
  -20.9327  -29.8844   21.6950 H   0  0  0  0  0  0
  -26.0148  -38.2854   24.1568 H   0  0  0  0  0  0
  -31.0143  -19.6589   23.8356 H   0  0  0  0  0  0
  -30.3214  -17.3909   23.1409 H   0  0  0  0  0  0
  -30.6773  -21.5967   22.3494 H   0  0  0  0  0  0
  -28.9408  -19.0035   19.3670 H   0  0  0  0  0  0
  -28.1049  -22.5531   20.8958 H   0  0  0  0  0  0
  -31.7279  -23.1194   17.6349 H   0  0  0  0  0  0
  -30.2006  -22.3559   17.2483 H   0  0  0  0  0  0
  -31.6453  -22.2942   19.9283 H   0  0  0  0  0  0
  -31.3999  -20.9236   18.8694 H   0  0  0  0  0  0
  -29.5760  -16.8795   18.3368 H   0  0  0  0  0  0
  -30.7881  -15.6474   18.0689 H   0  0  0  0  0  0
  -31.1925  -17.0774   19.0219 H   0  0  0  0  0  0
  -28.1381  -16.6364   20.3596 H   0  0  0  0  0  0
  -28.8749  -16.0487   21.8103 H   0  0  0  0  0  0
  -27.1866  -24.7300   20.4047 H   0  0  0  0  0  0
  -27.5187  -25.0446   18.7040 H   0  0  0  0  0  0
  1 25  1  0  0  0
  1 30  2  0  0  0
  1 86  1  0  0  0
  2  3  1  0  0  0
  2 25  1  0  0  0
  2 88  1  0  0  0
  2 89  1  0  0  0
  3  4  1  0  0  0
  3 90  1  0  0  0
  3 91  1  0  0  0
  4  5  1  0  0  0
  4 92  1  0  0  0
  4 93  1  0  0  0
  5  6  1  0  0  0
  5 26  1  0  0  0
  5 94  1  0  0  0
  6 25  1  0  0  0
  6 95  1  0  0  0
  6 96  1  0  0  0
  7  8  2  0  0  0
  7 26  1  0  0  0
  7 29  1  0  0  0
  8  9  1  0  0  0
  8 22  1  0  0  0
  9 10  1  0  0  0
  9 27  2  0  0  0
 10 11  2  0  0  0
 10 15  1  0  0  0
 11 12  1  0  0  0
 11 97  1  0  0  0
 12 13  2  0  0  0
 12 98  1  0  0  0
 13 14  1  0  0  0
 13 31  1  0  0  0
 14 15  2  0  0  0
 14 99  1  0  0  0
 15100  1  0  0  0
 16 17  2  0  0  0
 16 21  1  0  0  0
 16 31  1  0  0  0
 17 18  1  0  0  0
 17101  1  0  0  0
 18 19  2  0  0  0
 18102  1  0  0  0
 19 20  1  0  0  0
 19 24  1  0  0  0
 20 21  2  0  0  0
 20103  1  0  0  0
 21 23  1  0  0  0
 22 28  1  0  0  0
 22 32  2  0  0  0
 26 27  1  0  0  0
 28104  1  0  0  0
 28105  1  0  0  0
 29106  1  0  0  0
 29107  1  0  0  0
 33 34  1  0  0  0
 33 66  1  0  0  0
 33 70  2  0  0  0
 34 36  1  0  0  0
 34 59  1  0  0  0
 34108  1  0  0  0
 35 44  2  0  0  0
 35 45  1  0  0  0
 35 68  1  0  0  0
 36 56  1  0  0  0
 36109  1  0  0  0
 37 39  1  0  0  0
 37 47  1  0  0  0
 37 66  1  0  0  0
 37110  1  0  0  0
 38 43  2  0  0  0
 38 46  1  0  0  0
 38 47  1  0  0  0
 39 64  1  0  0  0
 39 67  2  0  0  0
 40 52  1  0  0  0
 40 53  2  0  0  0
 40 58  1  0  0  0
 41111  1  0  0  0
 41112  1  0  0  0
 41113  1  0  0  0
 41 48  1  0  0  0
 42 43  1  0  0  0
 42 66  1  0  0  0
 42114  1  0  0  0
 42115  1  0  0  0
 43 44  1  0  0  0
 44116  1  0  0  0
 45 46  2  0  0  0
 45117  1  0  0  0
 46118  1  0  0  0
 47119  1  0  0  0
 47120  1  0  0  0
 48 56  1  0  0  0
 48 65  1  0  0  0
 48121  1  0  0  0
 49 50  1  0  0  0
 49 53  1  0  0  0
 49 64  1  0  0  0
 49122  1  0  0  0
 50 51  1  0  0  0
 50123  1  0  0  0
 50124  1  0  0  0
 51 52  1  0  0  0
 51125  1  0  0  0
 51126  1  0  0  0
 52127  1  0  0  0
 52128  1  0  0  0
 53 54  1  0  0  0
 54 55  2  0  0  0
 54129  1  0  0  0
 55 57  1  0  0  0
 55130  1  0  0  0
 56 69  2  0  0  0
 57 58  2  0  0  0
 57131  1  0  0  0
 58132  1  0  0  0
 59 60  1  0  0  0
 59 61  1  0  0  0
 59 62  1  0  0  0
 60133  1  0  0  0
 60134  1  0  0  0
 60135  1  0  0  0
 61136  1  0  0  0
 61137  1  0  0  0
 61138  1  0  0  0
 62139  1  0  0  0
 62140  1  0  0  0
 62141  1  0  0  0
 63 65  1  0  0  0
 63142  1  0  0  0
 63143  1  0  0  0
 63144  1  0  0  0
 64145  1  0  0  0
 65146  1  0  0  0
 68 84  1  0  0  0
 71 72  2  0  0  0
 71 73  1  0  0  0
 71147  1  0  0  0
 72 75  1  0  0  0
 72148  1  0  0  0
 73 76  2  0  0  0
 73149  1  0  0  0
 74 75  2  0  0  0
 74 76  1  0  0  0
 74150  1  0  0  0
 75 83  1  0  0  0
 76 85  1  0  0  0
 77 78  2  0  0  0
 77 85  1  0  0  0
 77151  1  0  0  0
 78 79  1  0  0  0
 78 84  1  0  0  0
 79 80  1  0  0  0
 79 87  2  0  0  0
 80 81  1  0  0  0
 80152  1  0  0  0
 80153  1  0  0  0
 81 85  1  0  0  0
 81154  1  0  0  0
 81155  1  0  0  0
 82 86  1  0  0  0
 82156  1  0  0  0
 82157  1  0  0  0
 82158  1  0  0  0
 83 86  1  0  0  0
 83159  1  0  0  0
 83160  1  0  0  0
 84161  1  0  0  0
 84162  1  0  0  0
M  ISO  4   1 100  68 101  84 101  86 100
M  END
> <chiral flag>
0

> <version>
0

> <s_m_source_file>
/data/baiqing/PycharmProjects/Reinvent-master-3.2/result/LINK_invent/BTK/process_docking_weight1_custom_product_contain_oxygen_bond_distance_aromatic_linkinvent_7_9_3/rearranged_h_0102.sdf

> <i_m_source_file_index>
32

> <r_mmod_Potential_Energy-OPLS-2005>
218.373275756836

> <r_mmod_Stretch_Energy-OPLS-2005>
64.1817016601562

> <r_mmod_Bend_Energy-OPLS-2005>
129.625518798828

> <r_mmod_Torsional_Energy-OPLS-2005>
290.427673339844

> <r_mmod_Improper_Torsional_Energy-OPLS-2005>
30.6681289672852

> <r_mmod_Van_der_Waal_Energy-OPLS-2005>
169.774688720703

> <r_mmod_Electrostatic_Energy-OPLS-2005>
-298.885162353516

> <r_mmod_Solvation_Energy-OPLS-2005>
-217.7041015625

> <b_mmod_Minimization_Converged-OPLS-2005>
0

> <r_mmod_RMS_Derivative-OPLS-2005>
3.95810604095459

$$$$
33
                    3D
 Structure written by MMmdl.
164173  0  0  1  0            999 V2000
  -30.6827  -14.4712   20.4905 C   0  0  0  0  0  0
  -30.4258  -12.2778   19.4379 C   0  0  0  0  0  0
  -29.5026  -12.4761   18.2152 C   0  0  0  0  0  0
  -28.0205  -12.3486   18.6258 C   0  0  0  0  0  0
  -27.6624  -13.2011   19.8731 C   0  0  2  0  0  0
  -28.7065  -13.0013   21.0001 C   0  0  0  0  0  0
  -25.2598  -13.8137   20.5716 C   0  0  0  0  0  0
  -24.1839  -13.0415   20.9201 C   0  0  0  0  0  0
  -24.6385  -11.6890   20.8739 C   0  0  0  0  0  0
  -23.9064  -10.4270   21.0402 C   0  0  0  0  0  0
  -24.3608   -9.4191   21.9183 C   0  0  0  0  0  0
  -23.6281   -8.2222   22.0740 C   0  0  0  0  0  0
  -22.4270   -8.0258   21.3532 C   0  0  0  0  0  0
  -21.9914   -9.0236   20.4646 C   0  0  0  0  0  0
  -22.7231  -10.2113   20.3056 C   0  0  0  0  0  0
  -21.6844   -6.0727   22.5287 C   0  0  0  0  0  0
  -21.4017   -6.5638   23.8214 C   0  0  0  0  0  0
  -21.3668   -5.6784   24.9180 C   0  0  0  0  0  0
  -21.6048   -4.3055   24.7239 C   0  0  0  0  0  0
  -21.8823   -3.8143   23.4360 C   0  0  0  0  0  0
  -21.9195   -4.6954   22.3414 C   0  0  0  0  0  0
  -22.7863  -13.5222   21.1864 C   0  0  0  0  0  0
  -22.1648   -4.2145   21.0983 F   0  0  0  0  0  0
  -21.5642   -3.4540   25.7749 F   0  0  0  0  0  0
  -30.0408  -13.2766   20.4439 N   0  0  0  0  0  0
  -26.3028  -12.9304   20.3366 N   0  0  0  0  0  0
  -25.9316  -11.6479   20.5776 N   0  0  0  0  0  0
  -22.0498  -12.8200   22.0415 N   0  0  0  0  0  0
  -25.4306  -15.1847   20.4146 N   0  0  0  0  0  0
  -31.8469  -14.6355   20.1174 O   0  0  0  0  0  0
  -21.6621   -6.8858   21.4238 O   0  0  0  0  0  0
  -22.3554  -14.5537   20.6733 O   0  0  0  0  0  0
  -24.6124  -31.8703   23.2129 C   0  0  0  0  0  0
  -25.9005  -32.4854   23.8426 C   0  0  1  0  0  0
  -27.2433  -27.4632   20.0843 C   0  0  0  0  0  0
  -25.5855  -33.8652   24.2353 N   0  0  0  0  0  0
  -23.4002  -30.4951   21.5530 C   0  0  2  0  0  0
  -24.8472  -28.9674   20.1146 C   0  0  0  0  0  0
  -22.7400  -29.4670   22.4996 C   0  0  0  0  0  0
  -18.0263  -28.1381   22.8498 C   0  0  0  0  0  0
  -24.1480  -36.7339   23.2641 C   0  0  0  0  0  0
  -25.9271  -30.8455   21.3606 C   0  0  0  0  0  0
  -26.0062  -29.4821   20.7079 C   0  0  0  0  0  0
  -27.2050  -28.7381   20.6889 C   0  0  0  0  0  0
  -26.0627  -26.9603   19.4840 C   0  0  0  0  0  0
  -24.8690  -27.7040   19.5012 C   0  0  0  0  0  0
  -23.6074  -29.8307   20.1662 C   0  0  0  0  0  0
  -25.4097  -36.3154   24.0354 C   0  0  1  0  0  0
  -20.5859  -28.3661   23.1317 C   0  0  2  0  0  0
  -20.6754  -26.9401   22.5414 C   0  0  0  0  0  0
  -19.5735  -26.6392   21.5212 C   0  0  0  0  0  0
  -18.1911  -26.7926   22.1626 C   0  0  0  0  0  0
  -19.1515  -28.8836   23.2908 C   0  0  0  0  0  0
  -18.9445  -30.1439   23.8929 C   0  0  0  0  0  0
  -17.6450  -30.6586   24.0571 C   0  0  0  0  0  0
  -25.9019  -34.9507   23.5161 C   0  0  0  0  0  0
  -16.5341  -29.9099   23.6319 C   0  0  0  0  0  0
  -16.7253  -28.6513   23.0347 C   0  0  0  0  0  0
  -26.4432  -31.6622   25.0741 C   0  0  0  0  0  0
  -25.3693  -31.3722   26.1486 C   0  0  0  0  0  0
  -27.0251  -30.3076   24.6078 C   0  0  0  0  0  0
  -27.6030  -32.4328   25.7475 C   0  0  0  0  0  0
  -27.5591  -37.1813   24.8456 C   0  0  0  0  0  0
  -21.4130  -29.3032   22.3723 N   0  0  0  0  0  0
  -26.4293  -37.3826   23.9424 N   0  0  0  0  0  0
  -24.6656  -31.0831   22.1020 N   0  0  0  0  0  0
  -23.4177  -28.8187   23.3013 O   0  0  0  0  0  0
  -28.4342  -26.7671   20.1038 O   0  0  0  0  0  0
  -26.5599  -34.8944   22.4734 O   0  0  0  0  0  0
  -23.5308  -32.1446   23.7512 O   0  0  0  0  0  0
  -30.9782  -18.4893   20.7454 C   0  0  0  0  0  0
  -31.1877  -19.8799   20.8887 C   0  0  0  0  0  0
  -29.2305  -20.3116   19.5196 C   0  0  0  0  0  0
  -29.9157  -18.0081   19.9489 C   0  0  0  0  0  0
  -30.3521  -20.8163   20.2217 C   0  0  0  0  0  0
  -29.0178  -18.9325   19.3773 C   0  0  0  0  0  0
  -31.8784  -22.7386   20.0810 C   0  0  0  0  0  0
  -32.1157  -24.2569   20.1039 C   0  0  0  0  0  0
  -30.8996  -25.0995   19.7007 C   0  0  0  0  0  0
  -29.4362  -23.1201   20.0382 C   0  0  0  0  0  0
  -29.6141  -24.6134   20.3842 C   0  0  1  0  0  0
  -29.6758  -24.7861   21.9176 C   0  0  0  0  0  0
  -29.8081  -16.5399   19.5540 C   0  0  0  0  0  0
  -28.3835  -25.3696   19.8278 C   0  0  0  0  0  0
  -30.6128  -22.2392   20.2163 N   0  0  0  0  0  0
  -29.8553  -15.5205   20.6093 N   0  0  0  0  0  0
  -32.8837  -22.0316   19.9578 O   0  0  0  0  0  0
  -27.9680  -18.5076   18.6335 F   0  0  0  0  0  0
  -31.4741  -12.3623   19.1450 H   0  0  0  0  0  0
  -30.3111  -11.2728   19.8463 H   0  0  0  0  0  0
  -29.7381  -11.7427   17.4427 H   0  0  0  0  0  0
  -29.6790  -13.4539   17.7636 H   0  0  0  0  0  0
  -27.8259  -11.2962   18.8347 H   0  0  0  0  0  0
  -27.3770  -12.6129   17.7868 H   0  0  0  0  0  0
  -27.6946  -14.2409   19.5503 H   0  0  0  0  0  0
  -28.6705  -11.9758   21.3722 H   0  0  0  0  0  0
  -28.4892  -13.6411   21.8581 H   0  0  0  0  0  0
  -25.2754   -9.5660   22.4771 H   0  0  0  0  0  0
  -24.0001   -7.4613   22.7445 H   0  0  0  0  0  0
  -21.0851   -8.8746   19.8944 H   0  0  0  0  0  0
  -22.3684  -10.9648   19.6174 H   0  0  0  0  0  0
  -21.1980   -7.6140   23.9730 H   0  0  0  0  0  0
  -21.1498   -6.0508   25.9087 H   0  0  0  0  0  0
  -22.0591   -2.7611   23.2860 H   0  0  0  0  0  0
  -22.4105  -11.9853   22.4795 H   0  0  0  0  0  0
  -21.1115  -13.1217   22.2628 H   0  0  0  0  0  0
  -24.6634  -15.8355   20.5440 H   0  0  0  0  0  0
  -26.2759  -15.6346   20.0885 H   0  0  0  0  0  0
  -26.7084  -32.5577   23.1200 H   0  0  0  0  0  0
  -24.9967  -33.9819   25.0471 H   0  0  0  0  0  0
  -22.6892  -31.3128   21.4162 H   0  0  0  0  0  0
  -23.3753  -35.9659   23.3294 H   0  0  0  0  0  0
  -24.3586  -36.8955   22.2061 H   0  0  0  0  0  0
  -23.7202  -37.6532   23.6645 H   0  0  0  0  0  0
  -26.0271  -31.6094   20.5880 H   0  0  0  0  0  0
  -26.8213  -30.9070   21.9703 H   0  0  0  0  0  0
  -28.1028  -29.1357   21.1412 H   0  0  0  0  0  0
  -26.0429  -26.0002   18.9903 H   0  0  0  0  0  0
  -23.9786  -27.3030   19.0369 H   0  0  0  0  0  0
  -23.7153  -30.6092   19.4098 H   0  0  0  0  0  0
  -22.7334  -29.2498   19.8675 H   0  0  0  0  0  0
  -25.1262  -36.2048   25.0846 H   0  0  0  0  0  0
  -20.9954  -28.3231   24.1439 H   0  0  0  0  0  0
  -20.5663  -26.2272   23.3599 H   0  0  0  0  0  0
  -21.6625  -26.7449   22.1204 H   0  0  0  0  0  0
  -19.6892  -25.6310   21.1225 H   0  0  0  0  0  0
  -19.6667  -27.3220   20.6757 H   0  0  0  0  0  0
  -17.4175  -26.6677   21.4026 H   0  0  0  0  0  0
  -18.0311  -26.0066   22.9024 H   0  0  0  0  0  0
  -19.7922  -30.7241   24.2324 H   0  0  0  0  0  0
  -17.5007  -31.6272   24.5167 H   0  0  0  0  0  0
  -15.5342  -30.3018   23.7624 H   0  0  0  0  0  0
  -15.8647  -28.0844   22.7050 H   0  0  0  0  0  0
  -24.5853  -30.7087   25.7804 H   0  0  0  0  0  0
  -24.8886  -32.2879   26.4947 H   0  0  0  0  0  0
  -25.8030  -30.8867   27.0238 H   0  0  0  0  0  0
  -26.2792  -29.6864   24.1104 H   0  0  0  0  0  0
  -27.4011  -29.7279   25.4516 H   0  0  0  0  0  0
  -27.8625  -30.4417   23.9227 H   0  0  0  0  0  0
  -27.2671  -33.3616   26.2093 H   0  0  0  0  0  0
  -28.3792  -32.6905   25.0258 H   0  0  0  0  0  0
  -28.0742  -31.8426   26.5341 H   0  0  0  0  0  0
  -28.2596  -38.0128   24.7567 H   0  0  0  0  0  0
  -28.1105  -36.2672   24.6204 H   0  0  0  0  0  0
  -27.2325  -37.1375   25.8859 H   0  0  0  0  0  0
  -20.9279  -29.8770   21.6962 H   0  0  0  0  0  0
  -26.0203  -38.2909   24.1437 H   0  0  0  0  0  0
  -31.6767  -17.7957   21.1919 H   0  0  0  0  0  0
  -32.0299  -20.2160   21.4798 H   0  0  0  0  0  0
  -28.5340  -20.9586   19.0104 H   0  0  0  0  0  0
  -32.9542  -24.4943   19.4468 H   0  0  0  0  0  0
  -32.4370  -24.5273   21.1100 H   0  0  0  0  0  0
  -30.7858  -25.0530   18.6171 H   0  0  0  0  0  0
  -31.0809  -26.1489   19.9385 H   0  0  0  0  0  0
  -29.1360  -23.0513   18.9912 H   0  0  0  0  0  0
  -28.6031  -22.7265   20.6236 H   0  0  0  0  0  0
  -30.3929  -24.1072   22.3782 H   0  0  0  0  0  0
  -28.7087  -24.5784   22.3780 H   0  0  0  0  0  0
  -29.9553  -25.8033   22.1947 H   0  0  0  0  0  0
  -30.5749  -16.3716   18.7945 H   0  0  0  0  0  0
  -28.8704  -16.3812   19.0217 H   0  0  0  0  0  0
  -27.4954  -24.9263   20.2815 H   0  0  0  0  0  0
  -28.2991  -25.2296   18.7481 H   0  0  0  0  0  0
  -28.9522  -15.2852   20.9922 H   0  0  0  0  0  0
  1 25  1  0  0  0
  1 30  2  0  0  0
  1 86  1  0  0  0
  2  3  1  0  0  0
  2 25  1  0  0  0
  2 89  1  0  0  0
  2 90  1  0  0  0
  3  4  1  0  0  0
  3 91  1  0  0  0
  3 92  1  0  0  0
  4  5  1  0  0  0
  4 93  1  0  0  0
  4 94  1  0  0  0
  5  6  1  0  0  0
  5 26  1  0  0  0
  5 95  1  0  0  0
  6 25  1  0  0  0
  6 96  1  0  0  0
  6 97  1  0  0  0
  7  8  2  0  0  0
  7 26  1  0  0  0
  7 29  1  0  0  0
  8  9  1  0  0  0
  8 22  1  0  0  0
  9 10  1  0  0  0
  9 27  2  0  0  0
 10 11  2  0  0  0
 10 15  1  0  0  0
 11 12  1  0  0  0
 11 98  1  0  0  0
 12 13  2  0  0  0
 12 99  1  0  0  0
 13 14  1  0  0  0
 13 31  1  0  0  0
 14 15  2  0  0  0
 14100  1  0  0  0
 15101  1  0  0  0
 16 17  2  0  0  0
 16 21  1  0  0  0
 16 31  1  0  0  0
 17 18  1  0  0  0
 17102  1  0  0  0
 18 19  2  0  0  0
 18103  1  0  0  0
 19 20  1  0  0  0
 19 24  1  0  0  0
 20 21  2  0  0  0
 20104  1  0  0  0
 21 23  1  0  0  0
 22 28  1  0  0  0
 22 32  2  0  0  0
 26 27  1  0  0  0
 28105  1  0  0  0
 28106  1  0  0  0
 29107  1  0  0  0
 29108  1  0  0  0
 33 34  1  0  0  0
 33 66  1  0  0  0
 33 70  2  0  0  0
 34 36  1  0  0  0
 34 59  1  0  0  0
 34109  1  0  0  0
 35 44  2  0  0  0
 35 45  1  0  0  0
 35 68  1  0  0  0
 36 56  1  0  0  0
 36110  1  0  0  0
 37 39  1  0  0  0
 37 47  1  0  0  0
 37 66  1  0  0  0
 37111  1  0  0  0
 38 43  2  0  0  0
 38 46  1  0  0  0
 38 47  1  0  0  0
 39 64  1  0  0  0
 39 67  2  0  0  0
 40 52  1  0  0  0
 40 53  2  0  0  0
 40 58  1  0  0  0
 41112  1  0  0  0
 41113  1  0  0  0
 41114  1  0  0  0
 41 48  1  0  0  0
 42 43  1  0  0  0
 42 66  1  0  0  0
 42115  1  0  0  0
 42116  1  0  0  0
 43 44  1  0  0  0
 44117  1  0  0  0
 45 46  2  0  0  0
 45118  1  0  0  0
 46119  1  0  0  0
 47120  1  0  0  0
 47121  1  0  0  0
 48 56  1  0  0  0
 48 65  1  0  0  0
 48122  1  0  0  0
 49 50  1  0  0  0
 49 53  1  0  0  0
 49 64  1  0  0  0
 49123  1  0  0  0
 50 51  1  0  0  0
 50124  1  0  0  0
 50125  1  0  0  0
 51 52  1  0  0  0
 51126  1  0  0  0
 51127  1  0  0  0
 52128  1  0  0  0
 52129  1  0  0  0
 53 54  1  0  0  0
 54 55  2  0  0  0
 54130  1  0  0  0
 55 57  1  0  0  0
 55131  1  0  0  0
 56 69  2  0  0  0
 57 58  2  0  0  0
 57132  1  0  0  0
 58133  1  0  0  0
 59 60  1  0  0  0
 59 61  1  0  0  0
 59 62  1  0  0  0
 60134  1  0  0  0
 60135  1  0  0  0
 60136  1  0  0  0
 61137  1  0  0  0
 61138  1  0  0  0
 61139  1  0  0  0
 62140  1  0  0  0
 62141  1  0  0  0
 62142  1  0  0  0
 63 65  1  0  0  0
 63143  1  0  0  0
 63144  1  0  0  0
 63145  1  0  0  0
 64146  1  0  0  0
 65147  1  0  0  0
 68 84  1  0  0  0
 71 72  2  0  0  0
 71 74  1  0  0  0
 71148  1  0  0  0
 72 75  1  0  0  0
 72149  1  0  0  0
 73 75  2  0  0  0
 73 76  1  0  0  0
 73150  1  0  0  0
 74 76  2  0  0  0
 74 83  1  0  0  0
 75 85  1  0  0  0
 76 88  1  0  0  0
 77 78  1  0  0  0
 77 85  1  0  0  0
 77 87  2  0  0  0
 78 79  1  0  0  0
 78151  1  0  0  0
 78152  1  0  0  0
 79 81  1  0  0  0
 79153  1  0  0  0
 79154  1  0  0  0
 80 81  1  0  0  0
 80 85  1  0  0  0
 80155  1  0  0  0
 80156  1  0  0  0
 81 82  1  0  0  0
 81 84  1  0  0  0
 82157  1  0  0  0
 82158  1  0  0  0
 82159  1  0  0  0
 83 86  1  0  0  0
 83160  1  0  0  0
 83161  1  0  0  0
 84162  1  0  0  0
 84163  1  0  0  0
 86164  1  0  0  0
M  ISO  4   1 100  68 101  84 101  86 100
M  END
> <chiral flag>
0

> <version>
0

> <s_m_source_file>
/data/baiqing/PycharmProjects/Reinvent-master-3.2/result/LINK_invent/BTK/process_docking_weight1_custom_product_contain_oxygen_bond_distance_aromatic_linkinvent_7_9_3/rearranged_h_0102.sdf

> <i_m_source_file_index>
33

> <r_mmod_Potential_Energy-OPLS-2005>
59.7943420410156

> <r_mmod_Stretch_Energy-OPLS-2005>
39.9432411193848

> <r_mmod_Bend_Energy-OPLS-2005>
111.982124328613

> <r_mmod_Torsional_Energy-OPLS-2005>
296.381378173828

> <r_mmod_Improper_Torsional_Energy-OPLS-2005>
14.9090738296509

> <r_mmod_Van_der_Waal_Energy-OPLS-2005>
182.909133911133

> <r_mmod_Electrostatic_Energy-OPLS-2005>
-384.267761230469

> <r_mmod_Solvation_Energy-OPLS-2005>
-217.122940063477

> <b_mmod_Minimization_Converged-OPLS-2005>
0

> <r_mmod_RMS_Derivative-OPLS-2005>
2.85164666175842

$$$$
34
                    3D
 Structure written by MMmdl.
161170  0  0  1  0            999 V2000
  -30.5754  -14.9343   20.4938 C   0  0  0  0  0  0
  -30.4443  -12.5892   19.5063 C   0  0  0  0  0  0
  -29.5245  -12.5508   18.2617 C   0  0  0  0  0  0
  -28.0564  -12.3205   18.6664 C   0  0  0  0  0  0
  -27.6324  -13.2294   19.8450 C   0  0  2  0  0  0
  -28.6741  -13.2219   20.9817 C   0  0  0  0  0  0
  -25.2422  -13.8039   20.5699 C   0  0  0  0  0  0
  -24.1731  -13.0314   20.9217 C   0  0  0  0  0  0
  -24.6351  -11.6814   20.8751 C   0  0  0  0  0  0
  -23.9038  -10.4214   21.0433 C   0  0  0  0  0  0
  -24.3590   -9.4135   21.9211 C   0  0  0  0  0  0
  -23.6256   -8.2173   22.0769 C   0  0  0  0  0  0
  -22.4236   -8.0227   21.3559 C   0  0  0  0  0  0
  -21.9878   -9.0199   20.4658 C   0  0  0  0  0  0
  -22.7220  -10.2066   20.3070 C   0  0  0  0  0  0
  -21.6819   -6.0691   22.5275 C   0  0  0  0  0  0
  -21.3996   -6.5596   23.8205 C   0  0  0  0  0  0
  -21.3681   -5.6756   24.9167 C   0  0  0  0  0  0
  -21.6055   -4.3021   24.7211 C   0  0  0  0  0  0
  -21.8814   -3.8113   23.4335 C   0  0  0  0  0  0
  -21.9182   -4.6935   22.3394 C   0  0  0  0  0  0
  -22.7779  -13.5149   21.1868 C   0  0  0  0  0  0
  -22.1654   -4.2119   21.0975 F   0  0  0  0  0  0
  -21.5650   -3.4512   25.7736 F   0  0  0  0  0  0
  -29.9626  -13.6723   20.4185 N   0  0  0  0  0  0
  -26.2873  -12.9297   20.3254 N   0  0  0  0  0  0
  -25.9280  -11.6435   20.5713 N   0  0  0  0  0  0
  -22.0405  -12.8194   22.0438 N   0  0  0  0  0  0
  -25.3978  -15.1727   20.4132 N   0  0  0  0  0  0
  -31.7240  -15.0207   20.0424 O   0  0  0  0  0  0
  -21.6591   -6.8838   21.4240 O   0  0  0  0  0  0
  -22.3484  -14.5470   20.6711 O   0  0  0  0  0  0
  -24.6411  -31.8442   23.1897 C   0  0  0  0  0  0
  -25.9189  -32.4702   23.8276 C   0  0  1  0  0  0
  -27.2381  -27.1677   20.1484 C   0  0  0  0  0  0
  -25.5944  -33.8509   24.2207 N   0  0  0  0  0  0
  -23.4455  -30.4616   21.5338 C   0  0  2  0  0  0
  -24.8986  -28.8883   20.1162 C   0  0  0  0  0  0
  -22.7550  -29.4546   22.4873 C   0  0  0  0  0  0
  -18.0297  -28.1391   22.8478 C   0  0  0  0  0  0
  -24.1494  -36.7253   23.2642 C   0  0  0  0  0  0
  -25.9985  -30.7281   21.3840 C   0  0  0  0  0  0
  -26.0735  -29.3409   20.7288 C   0  0  0  0  0  0
  -27.2438  -28.4973   20.7258 C   0  0  0  0  0  0
  -26.0318  -26.8031   19.5083 C   0  0  0  0  0  0
  -24.8881  -27.6315   19.4931 C   0  0  0  0  0  0
  -23.6732  -29.7874   20.1548 C   0  0  0  0  0  0
  -25.4120  -36.3037   24.0321 C   0  0  1  0  0  0
  -20.5905  -28.3721   23.1246 C   0  0  2  0  0  0
  -20.6787  -26.9428   22.5416 C   0  0  0  0  0  0
  -19.5766  -26.6379   21.5216 C   0  0  0  0  0  0
  -18.1937  -26.7927   22.1618 C   0  0  0  0  0  0
  -19.1552  -28.8872   23.2850 C   0  0  0  0  0  0
  -18.9469  -30.1463   23.8876 C   0  0  0  0  0  0
  -17.6471  -30.6591   24.0557 C   0  0  0  0  0  0
  -25.9062  -34.9413   23.5071 C   0  0  0  0  0  0
  -16.5361  -29.9087   23.6338 C   0  0  0  0  0  0
  -16.7282  -28.6506   23.0358 C   0  0  0  0  0  0
  -26.4521  -31.6561   25.0709 C   0  0  0  0  0  0
  -25.3716  -31.3753   26.1417 C   0  0  0  0  0  0
  -27.0371  -30.2957   24.6269 C   0  0  0  0  0  0
  -27.6052  -32.4322   25.7494 C   0  0  0  0  0  0
  -27.5577  -37.1776   24.8450 C   0  0  0  0  0  0
  -21.4243  -29.3041   22.3615 N   0  0  0  0  0  0
  -26.4274  -37.3756   23.9415 N   0  0  0  0  0  0
  -24.7144  -31.0319   22.0913 N   0  0  0  0  0  0
  -23.4201  -28.8090   23.3013 O   0  0  0  0  0  0
  -28.3212  -26.2242   20.2002 O   0  0  0  0  0  0
  -26.5646  -34.8902   22.4649 O   0  0  0  0  0  0
  -23.5534  -32.1308   23.7126 O   0  0  0  0  0  0
  -30.5230  -20.0106   21.0400 C   0  0  0  0  0  0
  -30.7653  -18.5753   21.0700 C   0  0  0  0  0  0
  -28.4515  -19.6378   19.9845 C   0  0  0  0  0  0
  -28.6977  -18.2056   19.9971 C   0  0  0  0  0  0
  -29.3205  -20.6284   20.5437 C   0  0  0  0  0  0
  -29.8516  -17.5719   20.5892 C   0  0  0  0  0  0
  -28.6089  -22.1843   22.2163 C   0  0  0  0  0  0
  -29.2109  -23.4544   22.8008 C   0  0  0  0  0  0
  -30.0293  -23.9945   21.6327 C   0  0  0  0  0  0
  -29.2420  -23.4984   20.4186 C   0  0  2  0  0  0
  -27.5920  -17.3533   19.4303 C   0  0  0  0  0  0
  -29.5266  -15.9681   22.4241 C   0  0  0  0  0  0
  -28.0841  -24.6934   20.1701 C   0  0  0  0  0  0
  -28.8546  -22.0475   20.8967 N   0  0  0  0  0  0
  -29.9041  -16.0896   21.0075 N   0  0  0  0  0  0
  -27.9990  -21.3761   22.9242 O   0  0  0  0  0  0
  -31.4786  -12.7434   19.1967 H   0  0  0  0  0  0
  -30.4375  -11.6265   20.0194 H   0  0  0  0  0  0
  -29.8485  -11.7707   17.5724 H   0  0  0  0  0  0
  -29.6078  -13.4929   17.7189 H   0  0  0  0  0  0
  -27.9487  -11.2739   18.9531 H   0  0  0  0  0  0
  -27.3985  -12.4708   17.8095 H   0  0  0  0  0  0
  -27.6018  -14.2348   19.4368 H   0  0  0  0  0  0
  -28.7707  -12.2241   21.4134 H   0  0  0  0  0  0
  -28.3205  -13.8525   21.7900 H   0  0  0  0  0  0
  -25.2725   -9.5587   22.4793 H   0  0  0  0  0  0
  -23.9953   -7.4543   22.7460 H   0  0  0  0  0  0
  -21.0821   -8.8701   19.8960 H   0  0  0  0  0  0
  -22.3687  -10.9592   19.6167 H   0  0  0  0  0  0
  -21.1974   -7.6096   23.9694 H   0  0  0  0  0  0
  -21.1535   -6.0488   25.9070 H   0  0  0  0  0  0
  -22.0590   -2.7577   23.2820 H   0  0  0  0  0  0
  -22.3994  -11.9846   22.4823 H   0  0  0  0  0  0
  -21.1057  -13.1290   22.2663 H   0  0  0  0  0  0
  -24.6179  -15.8151   20.5094 H   0  0  0  0  0  0
  -26.2489  -15.6166   20.1006 H   0  0  0  0  0  0
  -26.7255  -32.5327   23.1005 H   0  0  0  0  0  0
  -25.0088  -33.9626   25.0354 H   0  0  0  0  0  0
  -22.7483  -31.2866   21.3767 H   0  0  0  0  0  0
  -23.3773  -35.9563   23.3270 H   0  0  0  0  0  0
  -24.3598  -36.8921   22.2064 H   0  0  0  0  0  0
  -23.7229  -37.6432   23.6700 H   0  0  0  0  0  0
  -26.1473  -31.4833   20.6110 H   0  0  0  0  0  0
  -26.8705  -30.7819   22.0243 H   0  0  0  0  0  0
  -28.1410  -28.8398   21.2214 H   0  0  0  0  0  0
  -25.9444  -25.8416   19.0252 H   0  0  0  0  0  0
  -23.9903  -27.2796   19.0047 H   0  0  0  0  0  0
  -23.8107  -30.5582   19.3952 H   0  0  0  0  0  0
  -22.7910  -29.2244   19.8468 H   0  0  0  0  0  0
  -25.1305  -36.1865   25.0810 H   0  0  0  0  0  0
  -20.9986  -28.3310   24.1370 H   0  0  0  0  0  0
  -20.5690  -26.2322   23.3625 H   0  0  0  0  0  0
  -21.6656  -26.7439   22.1217 H   0  0  0  0  0  0
  -19.6936  -25.6285   21.1256 H   0  0  0  0  0  0
  -19.6709  -27.3173   20.6731 H   0  0  0  0  0  0
  -17.4218  -26.6676   21.4008 H   0  0  0  0  0  0
  -18.0325  -26.0064   22.9010 H   0  0  0  0  0  0
  -19.7951  -30.7269   24.2239 H   0  0  0  0  0  0
  -17.5038  -31.6270   24.5163 H   0  0  0  0  0  0
  -15.5364  -30.2989   23.7669 H   0  0  0  0  0  0
  -15.8678  -28.0813   22.7095 H   0  0  0  0  0  0
  -24.5883  -30.7111   25.7753 H   0  0  0  0  0  0
  -24.8918  -32.2936   26.4810 H   0  0  0  0  0  0
  -25.8009  -30.8952   27.0218 H   0  0  0  0  0  0
  -26.2971  -29.6694   24.1273 H   0  0  0  0  0  0
  -27.3984  -29.7247   25.4831 H   0  0  0  0  0  0
  -27.8885  -30.4196   23.9573 H   0  0  0  0  0  0
  -27.2641  -33.3629   26.2041 H   0  0  0  0  0  0
  -28.3880  -32.6873   25.0338 H   0  0  0  0  0  0
  -28.0701  -31.8469   26.5438 H   0  0  0  0  0  0
  -28.2560  -38.0110   24.7550 H   0  0  0  0  0  0
  -28.1104  -36.2639   24.6199 H   0  0  0  0  0  0
  -27.2302  -37.1344   25.8854 H   0  0  0  0  0  0
  -20.9448  -29.8746   21.6792 H   0  0  0  0  0  0
  -26.0137  -38.2812   24.1463 H   0  0  0  0  0  0
  -31.2549  -20.6463   21.5188 H   0  0  0  0  0  0
  -31.6627  -18.2385   21.5704 H   0  0  0  0  0  0
  -27.4951  -19.9788   19.6108 H   0  0  0  0  0  0
  -29.8312  -23.2394   23.6722 H   0  0  0  0  0  0
  -28.4140  -24.1386   23.0918 H   0  0  0  0  0  0
  -31.0300  -23.5596   21.6372 H   0  0  0  0  0  0
  -30.1464  -25.0783   21.6670 H   0  0  0  0  0  0
  -29.8985  -23.4401   19.5497 H   0  0  0  0  0  0
  -27.2066  -17.7799   18.5035 H   0  0  0  0  0  0
  -26.7814  -17.3152   20.1548 H   0  0  0  0  0  0
  -27.9438  -16.3508   19.2079 H   0  0  0  0  0  0
  -29.9310  -16.7924   23.0131 H   0  0  0  0  0  0
  -29.8803  -15.0525   22.9047 H   0  0  0  0  0  0
  -28.4414  -16.0094   22.5262 H   0  0  0  0  0  0
  -27.2934  -24.5257   20.9028 H   0  0  0  0  0  0
  -27.6242  -24.4591   19.2111 H   0  0  0  0  0  0
  1 25  1  0  0  0
  1 30  2  0  0  0
  1 85  1  0  0  0
  2  3  1  0  0  0
  2 25  1  0  0  0
  2 87  1  0  0  0
  2 88  1  0  0  0
  3  4  1  0  0  0
  3 89  1  0  0  0
  3 90  1  0  0  0
  4  5  1  0  0  0
  4 91  1  0  0  0
  4 92  1  0  0  0
  5  6  1  0  0  0
  5 26  1  0  0  0
  5 93  1  0  0  0
  6 25  1  0  0  0
  6 94  1  0  0  0
  6 95  1  0  0  0
  7  8  2  0  0  0
  7 26  1  0  0  0
  7 29  1  0  0  0
  8  9  1  0  0  0
  8 22  1  0  0  0
  9 10  1  0  0  0
  9 27  2  0  0  0
 10 11  2  0  0  0
 10 15  1  0  0  0
 11 12  1  0  0  0
 11 96  1  0  0  0
 12 13  2  0  0  0
 12 97  1  0  0  0
 13 14  1  0  0  0
 13 31  1  0  0  0
 14 15  2  0  0  0
 14 98  1  0  0  0
 15 99  1  0  0  0
 16 17  2  0  0  0
 16 21  1  0  0  0
 16 31  1  0  0  0
 17 18  1  0  0  0
 17100  1  0  0  0
 18 19  2  0  0  0
 18101  1  0  0  0
 19 20  1  0  0  0
 19 24  1  0  0  0
 20 21  2  0  0  0
 20102  1  0  0  0
 21 23  1  0  0  0
 22 28  1  0  0  0
 22 32  2  0  0  0
 26 27  1  0  0  0
 28103  1  0  0  0
 28104  1  0  0  0
 29105  1  0  0  0
 29106  1  0  0  0
 33 34  1  0  0  0
 33 66  1  0  0  0
 33 70  2  0  0  0
 34 36  1  0  0  0
 34 59  1  0  0  0
 34107  1  0  0  0
 35 44  2  0  0  0
 35 45  1  0  0  0
 35 68  1  0  0  0
 36 56  1  0  0  0
 36108  1  0  0  0
 37 39  1  0  0  0
 37 47  1  0  0  0
 37 66  1  0  0  0
 37109  1  0  0  0
 38 43  2  0  0  0
 38 46  1  0  0  0
 38 47  1  0  0  0
 39 64  1  0  0  0
 39 67  2  0  0  0
 40 52  1  0  0  0
 40 53  2  0  0  0
 40 58  1  0  0  0
 41110  1  0  0  0
 41111  1  0  0  0
 41112  1  0  0  0
 41 48  1  0  0  0
 42 43  1  0  0  0
 42 66  1  0  0  0
 42113  1  0  0  0
 42114  1  0  0  0
 43 44  1  0  0  0
 44115  1  0  0  0
 45 46  2  0  0  0
 45116  1  0  0  0
 46117  1  0  0  0
 47118  1  0  0  0
 47119  1  0  0  0
 48 56  1  0  0  0
 48 65  1  0  0  0
 48120  1  0  0  0
 49 50  1  0  0  0
 49 53  1  0  0  0
 49 64  1  0  0  0
 49121  1  0  0  0
 50 51  1  0  0  0
 50122  1  0  0  0
 50123  1  0  0  0
 51 52  1  0  0  0
 51124  1  0  0  0
 51125  1  0  0  0
 52126  1  0  0  0
 52127  1  0  0  0
 53 54  1  0  0  0
 54 55  2  0  0  0
 54128  1  0  0  0
 55 57  1  0  0  0
 55129  1  0  0  0
 56 69  2  0  0  0
 57 58  2  0  0  0
 57130  1  0  0  0
 58131  1  0  0  0
 59 60  1  0  0  0
 59 61  1  0  0  0
 59 62  1  0  0  0
 60132  1  0  0  0
 60133  1  0  0  0
 60134  1  0  0  0
 61135  1  0  0  0
 61136  1  0  0  0
 61137  1  0  0  0
 62138  1  0  0  0
 62139  1  0  0  0
 62140  1  0  0  0
 63 65  1  0  0  0
 63141  1  0  0  0
 63142  1  0  0  0
 63143  1  0  0  0
 64144  1  0  0  0
 65145  1  0  0  0
 68 83  1  0  0  0
 71 72  2  0  0  0
 71 75  1  0  0  0
 71146  1  0  0  0
 72 76  1  0  0  0
 72147  1  0  0  0
 73 74  1  0  0  0
 73 75  2  0  0  0
 73148  1  0  0  0
 74 76  2  0  0  0
 74 81  1  0  0  0
 75 84  1  0  0  0
 76 85  1  0  0  0
 77 78  1  0  0  0
 77 84  1  0  0  0
 77 86  2  0  0  0
 78 79  1  0  0  0
 78149  1  0  0  0
 78150  1  0  0  0
 79 80  1  0  0  0
 79151  1  0  0  0
 79152  1  0  0  0
 80 83  1  0  0  0
 80 84  1  0  0  0
 80153  1  0  0  0
 81154  1  0  0  0
 81155  1  0  0  0
 81156  1  0  0  0
 82 85  1  0  0  0
 82157  1  0  0  0
 82158  1  0  0  0
 82159  1  0  0  0
 83160  1  0  0  0
 83161  1  0  0  0
M  ISO  4   1 100  68 101  83 101  85 100
M  END
> <chiral flag>
0

> <version>
0

> <s_m_source_file>
/data/baiqing/PycharmProjects/Reinvent-master-3.2/result/LINK_invent/BTK/process_docking_weight1_custom_product_contain_oxygen_bond_distance_aromatic_linkinvent_7_9_3/rearranged_h_0102.sdf

> <i_m_source_file_index>
34

> <r_mmod_Potential_Energy-OPLS-2005>
779.841430664062

> <r_mmod_Stretch_Energy-OPLS-2005>
234.997924804688

> <r_mmod_Bend_Energy-OPLS-2005>
297.80859375

> <r_mmod_Torsional_Energy-OPLS-2005>
430.051574707031

> <r_mmod_Improper_Torsional_Energy-OPLS-2005>
11.7962160110474

> <r_mmod_Van_der_Waal_Energy-OPLS-2005>
136.781631469727

> <r_mmod_Electrostatic_Energy-OPLS-2005>
-290.699920654297

> <r_mmod_Solvation_Energy-OPLS-2005>
-206.929412841797

> <b_mmod_Minimization_Converged-OPLS-2005>
0

> <r_mmod_RMS_Derivative-OPLS-2005>
2.42579865455627

$$$$
35
                    3D
 Structure written by MMmdl.
166174  0  0  1  0            999 V2000
  -30.7092  -14.4422   20.6059 C   0  0  0  0  0  0
  -30.4380  -12.3029   19.4162 C   0  0  0  0  0  0
  -29.5048  -12.5154   18.2062 C   0  0  0  0  0  0
  -28.0266  -12.3731   18.6166 C   0  0  0  0  0  0
  -27.6726  -13.2028   19.8804 C   0  0  2  0  0  0
  -28.7100  -12.9517   20.9976 C   0  0  0  0  0  0
  -25.2638  -13.8168   20.5653 C   0  0  0  0  0  0
  -24.1892  -13.0441   20.9170 C   0  0  0  0  0  0
  -24.6458  -11.6913   20.8714 C   0  0  0  0  0  0
  -23.9119  -10.4306   21.0389 C   0  0  0  0  0  0
  -24.3654   -9.4221   21.9170 C   0  0  0  0  0  0
  -23.6330   -8.2252   22.0741 C   0  0  0  0  0  0
  -22.4280   -8.0312   21.3557 C   0  0  0  0  0  0
  -21.9936   -9.0282   20.4637 C   0  0  0  0  0  0
  -22.7289  -10.2148   20.3048 C   0  0  0  0  0  0
  -21.6861   -6.0764   22.5291 C   0  0  0  0  0  0
  -21.4022   -6.5654   23.8237 C   0  0  0  0  0  0
  -21.3661   -5.6785   24.9176 C   0  0  0  0  0  0
  -21.6059   -4.3062   24.7209 C   0  0  0  0  0  0
  -21.8837   -3.8159   23.4330 C   0  0  0  0  0  0
  -21.9206   -4.6991   22.3397 C   0  0  0  0  0  0
  -22.7925  -13.5224   21.1863 C   0  0  0  0  0  0
  -22.1672   -4.2180   21.0966 F   0  0  0  0  0  0
  -21.5618   -3.4552   25.7730 F   0  0  0  0  0  0
  -30.0533  -13.2573   20.4670 N   0  0  0  0  0  0
  -26.3096  -12.9339   20.3371 N   0  0  0  0  0  0
  -25.9374  -11.6503   20.5727 N   0  0  0  0  0  0
  -22.0607  -12.8166   22.0435 N   0  0  0  0  0  0
  -25.4337  -15.1888   20.4012 N   0  0  0  0  0  0
  -31.7838  -14.6899   20.0500 O   0  0  0  0  0  0
  -21.6636   -6.8915   21.4258 O   0  0  0  0  0  0
  -22.3581  -14.5514   20.6712 O   0  0  0  0  0  0
  -24.6129  -31.8690   23.2115 C   0  0  0  0  0  0
  -25.9021  -32.4833   23.8416 C   0  0  1  0  0  0
  -27.2445  -27.4506   20.1090 C   0  0  0  0  0  0
  -25.5875  -33.8631   24.2336 N   0  0  0  0  0  0
  -23.4018  -30.4903   21.5501 C   0  0  2  0  0  0
  -24.8526  -28.9532   20.1203 C   0  0  0  0  0  0
  -22.7408  -29.4652   22.5000 C   0  0  0  0  0  0
  -18.0260  -28.1392   22.8498 C   0  0  0  0  0  0
  -24.1479  -36.7333   23.2647 C   0  0  0  0  0  0
  -25.9265  -30.8417   21.3593 C   0  0  0  0  0  0
  -26.0103  -29.4739   20.7140 C   0  0  0  0  0  0
  -27.2114  -28.7299   20.7057 C   0  0  0  0  0  0
  -26.0730  -26.9350   19.5174 C   0  0  0  0  0  0
  -24.8776  -27.6806   19.5207 C   0  0  0  0  0  0
  -23.6125  -29.8187   20.1666 C   0  0  0  0  0  0
  -25.4095  -36.3116   24.0344 C   0  0  1  0  0  0
  -20.5844  -28.3664   23.1332 C   0  0  2  0  0  0
  -20.6730  -26.9407   22.5426 C   0  0  0  0  0  0
  -19.5711  -26.6395   21.5219 C   0  0  0  0  0  0
  -18.1893  -26.7937   22.1628 C   0  0  0  0  0  0
  -19.1507  -28.8840   23.2909 C   0  0  0  0  0  0
  -18.9436  -30.1444   23.8924 C   0  0  0  0  0  0
  -17.6442  -30.6597   24.0567 C   0  0  0  0  0  0
  -25.9027  -34.9480   23.5138 C   0  0  0  0  0  0
  -16.5331  -29.9110   23.6325 C   0  0  0  0  0  0
  -16.7250  -28.6522   23.0347 C   0  0  0  0  0  0
  -26.4470  -31.6611   25.0736 C   0  0  0  0  0  0
  -25.3761  -31.3675   26.1497 C   0  0  0  0  0  0
  -27.0315  -30.3062   24.6084 C   0  0  0  0  0  0
  -27.6031  -32.4354   25.7509 C   0  0  0  0  0  0
  -27.5576  -37.1812   24.8467 C   0  0  0  0  0  0
  -21.4130  -29.3045   22.3759 N   0  0  0  0  0  0
  -26.4281  -37.3799   23.9425 N   0  0  0  0  0  0
  -24.6653  -31.0807   22.1001 N   0  0  0  0  0  0
  -23.4182  -28.8208   23.3052 O   0  0  0  0  0  0
  -28.4038  -26.7146   20.0763 O   0  0  0  0  0  0
  -26.5602  -34.8936   22.4709 O   0  0  0  0  0  0
  -23.5325  -32.1437   23.7507 O   0  0  0  0  0  0
  -29.2355  -16.9043   19.6333 C   0  0  0  0  0  0
  -28.7683  -18.1775   19.2667 C   0  0  0  0  0  0
  -29.8471  -17.7747   21.8255 C   0  0  0  0  0  0
  -29.3870  -19.0737   21.4619 C   0  0  0  0  0  0
  -29.7618  -16.6850   20.9241 C   0  0  0  0  0  0
  -28.8212  -19.2550   20.1760 C   0  0  0  0  0  0
  -28.4927  -25.6560   20.9507 C   0  0  0  0  0  0
  -29.2875  -24.5907   20.7210 C   0  0  0  0  0  0
  -29.3725  -23.5018   21.7018 C   0  0  0  0  0  0
  -28.2662  -19.2102   24.4728 C   0  0  0  0  0  0
  -26.9926  -20.5233   19.3928 C   0  0  0  0  0  0
  -29.5207  -19.9056   23.9265 C   0  0  0  0  0  0
  -30.5534  -21.3065   22.0589 C   0  0  0  0  0  0
  -29.4390  -20.2807   22.4263 C   0  0  1  0  0  0
  -30.0842  -15.3646   21.3582 N   0  0  0  0  0  0
  -30.1001  -22.4604   21.2665 N   0  0  0  0  0  0
  -28.8711  -23.5201   22.8283 O   0  0  0  0  0  0
  -30.0109  -24.5413   19.5901 O   0  0  0  0  0  0
  -28.3477  -20.4932   19.8173 O   0  0  0  0  0  0
  -31.4793  -12.4192   19.1071 H   0  0  0  0  0  0
  -30.3548  -11.2838   19.7921 H   0  0  0  0  0  0
  -29.7410  -11.7952   17.4216 H   0  0  0  0  0  0
  -29.6754  -13.5037   17.7736 H   0  0  0  0  0  0
  -27.8333  -11.3154   18.7978 H   0  0  0  0  0  0
  -27.3823  -12.6590   17.7853 H   0  0  0  0  0  0
  -27.7245  -14.2570   19.6070 H   0  0  0  0  0  0
  -28.6784  -11.9079   21.3116 H   0  0  0  0  0  0
  -28.4559  -13.5261   21.8884 H   0  0  0  0  0  0
  -25.2824   -9.5688   22.4723 H   0  0  0  0  0  0
  -24.0099   -7.4638   22.7418 H   0  0  0  0  0  0
  -21.0902   -8.8818   19.8897 H   0  0  0  0  0  0
  -22.3816  -10.9694   19.6126 H   0  0  0  0  0  0
  -21.2027   -7.6166   23.9760 H   0  0  0  0  0  0
  -21.1451   -6.0500   25.9090 H   0  0  0  0  0  0
  -22.0622   -2.7618   23.2836 H   0  0  0  0  0  0
  -22.4258  -11.9781   22.4712 H   0  0  0  0  0  0
  -21.1205  -13.1111   22.2641 H   0  0  0  0  0  0
  -24.6656  -15.8458   20.4776 H   0  0  0  0  0  0
  -26.2888  -15.6229   20.0764 H   0  0  0  0  0  0
  -26.7108  -32.5567   23.1211 H   0  0  0  0  0  0
  -24.9980  -33.9809   25.0440 H   0  0  0  0  0  0
  -22.6888  -31.3046   21.4074 H   0  0  0  0  0  0
  -23.3739  -35.9671   23.3308 H   0  0  0  0  0  0
  -24.3566  -36.8951   22.2060 H   0  0  0  0  0  0
  -23.7236  -37.6537   23.6673 H   0  0  0  0  0  0
  -26.0235  -31.6029   20.5840 H   0  0  0  0  0  0
  -26.8191  -30.9072   21.9702 H   0  0  0  0  0  0
  -28.1096  -29.1294   21.1545 H   0  0  0  0  0  0
  -26.0910  -25.9565   19.0574 H   0  0  0  0  0  0
  -23.9859  -27.2682   19.0677 H   0  0  0  0  0  0
  -23.7273  -30.5931   19.4085 H   0  0  0  0  0  0
  -22.7368  -29.2399   19.8670 H   0  0  0  0  0  0
  -25.1262  -36.1986   25.0834 H   0  0  0  0  0  0
  -20.9904  -28.3229   24.1460 H   0  0  0  0  0  0
  -20.5594  -26.2294   23.3619 H   0  0  0  0  0  0
  -21.6610  -26.7426   22.1237 H   0  0  0  0  0  0
  -19.6866  -25.6309   21.1239 H   0  0  0  0  0  0
  -19.6647  -27.3217   20.6759 H   0  0  0  0  0  0
  -17.4151  -26.6696   21.4042 H   0  0  0  0  0  0
  -18.0283  -26.0082   22.9020 H   0  0  0  0  0  0
  -19.7915  -30.7248   24.2327 H   0  0  0  0  0  0
  -17.5004  -31.6282   24.5188 H   0  0  0  0  0  0
  -15.5339  -30.3018   23.7649 H   0  0  0  0  0  0
  -15.8642  -28.0863   22.7040 H   0  0  0  0  0  0
  -24.5958  -30.6985   25.7860 H   0  0  0  0  0  0
  -24.8918  -32.2797   26.4983 H   0  0  0  0  0  0
  -25.8140  -30.8850   27.0243 H   0  0  0  0  0  0
  -26.2839  -29.6809   24.1176 H   0  0  0  0  0  0
  -27.4147  -29.7308   25.4531 H   0  0  0  0  0  0
  -27.8656  -30.4411   23.9187 H   0  0  0  0  0  0
  -27.2628  -33.3651   26.2095 H   0  0  0  0  0  0
  -28.3838  -32.6924   25.0336 H   0  0  0  0  0  0
  -28.0716  -31.8483   26.5423 H   0  0  0  0  0  0
  -28.2578  -38.0125   24.7514 H   0  0  0  0  0  0
  -28.1076  -36.2641   24.6273 H   0  0  0  0  0  0
  -27.2297  -37.1445   25.8874 H   0  0  0  0  0  0
  -20.9297  -29.8851   21.7043 H   0  0  0  0  0  0
  -26.0171  -38.2879   24.1436 H   0  0  0  0  0  0
  -29.1531  -16.0967   18.9186 H   0  0  0  0  0  0
  -28.3616  -18.3203   18.2755 H   0  0  0  0  0  0
  -30.2479  -17.5888   22.8110 H   0  0  0  0  0  0
  -27.8738  -25.7754   21.8324 H   0  0  0  0  0  0
  -28.3547  -19.0552   25.5485 H   0  0  0  0  0  0
  -28.1010  -18.2375   24.0124 H   0  0  0  0  0  0
  -27.3788  -19.8217   24.3003 H   0  0  0  0  0  0
  -26.6911  -21.5593   19.2358 H   0  0  0  0  0  0
  -26.3371  -20.0962   20.1545 H   0  0  0  0  0  0
  -26.8347  -19.9913   18.4554 H   0  0  0  0  0  0
  -30.4123  -19.3140   24.1315 H   0  0  0  0  0  0
  -29.6461  -20.8205   24.5061 H   0  0  0  0  0  0
  -31.3693  -20.8046   21.5378 H   0  0  0  0  0  0
  -31.0074  -21.7154   22.9635 H   0  0  0  0  0  0
  -28.4778  -20.7860   22.3228 H   0  0  0  0  0  0
  -29.4217  -14.9694   22.0086 H   0  0  0  0  0  0
  -30.4424  -22.5452   20.3171 H   0  0  0  0  0  0
  -29.8447  -25.3540   19.1291 H   0  0  0  0  0  0
  1 25  1  0  0  0
  1 30  2  0  0  0
  1 85  1  0  0  0
  2  3  1  0  0  0
  2 25  1  0  0  0
  2 90  1  0  0  0
  2 91  1  0  0  0
  3  4  1  0  0  0
  3 92  1  0  0  0
  3 93  1  0  0  0
  4  5  1  0  0  0
  4 94  1  0  0  0
  4 95  1  0  0  0
  5  6  1  0  0  0
  5 26  1  0  0  0
  5 96  1  0  0  0
  6 25  1  0  0  0
  6 97  1  0  0  0
  6 98  1  0  0  0
  7  8  2  0  0  0
  7 26  1  0  0  0
  7 29  1  0  0  0
  8  9  1  0  0  0
  8 22  1  0  0  0
  9 10  1  0  0  0
  9 27  2  0  0  0
 10 11  2  0  0  0
 10 15  1  0  0  0
 11 12  1  0  0  0
 11 99  1  0  0  0
 12 13  2  0  0  0
 12100  1  0  0  0
 13 14  1  0  0  0
 13 31  1  0  0  0
 14 15  2  0  0  0
 14101  1  0  0  0
 15102  1  0  0  0
 16 17  2  0  0  0
 16 21  1  0  0  0
 16 31  1  0  0  0
 17 18  1  0  0  0
 17103  1  0  0  0
 18 19  2  0  0  0
 18104  1  0  0  0
 19 20  1  0  0  0
 19 24  1  0  0  0
 20 21  2  0  0  0
 20105  1  0  0  0
 21 23  1  0  0  0
 22 28  1  0  0  0
 22 32  2  0  0  0
 26 27  1  0  0  0
 28106  1  0  0  0
 28107  1  0  0  0
 29108  1  0  0  0
 29109  1  0  0  0
 33 34  1  0  0  0
 33 66  1  0  0  0
 33 70  2  0  0  0
 34 36  1  0  0  0
 34 59  1  0  0  0
 34110  1  0  0  0
 35 44  2  0  0  0
 35 45  1  0  0  0
 35 68  1  0  0  0
 36 56  1  0  0  0
 36111  1  0  0  0
 37 39  1  0  0  0
 37 47  1  0  0  0
 37 66  1  0  0  0
 37112  1  0  0  0
 38 43  2  0  0  0
 38 46  1  0  0  0
 38 47  1  0  0  0
 39 64  1  0  0  0
 39 67  2  0  0  0
 40 52  1  0  0  0
 40 53  2  0  0  0
 40 58  1  0  0  0
 41113  1  0  0  0
 41114  1  0  0  0
 41115  1  0  0  0
 41 48  1  0  0  0
 42 43  1  0  0  0
 42 66  1  0  0  0
 42116  1  0  0  0
 42117  1  0  0  0
 43 44  1  0  0  0
 44118  1  0  0  0
 45 46  2  0  0  0
 45119  1  0  0  0
 46120  1  0  0  0
 47121  1  0  0  0
 47122  1  0  0  0
 48 56  1  0  0  0
 48 65  1  0  0  0
 48123  1  0  0  0
 49 50  1  0  0  0
 49 53  1  0  0  0
 49 64  1  0  0  0
 49124  1  0  0  0
 50 51  1  0  0  0
 50125  1  0  0  0
 50126  1  0  0  0
 51 52  1  0  0  0
 51127  1  0  0  0
 51128  1  0  0  0
 52129  1  0  0  0
 52130  1  0  0  0
 53 54  1  0  0  0
 54 55  2  0  0  0
 54131  1  0  0  0
 55 57  1  0  0  0
 55132  1  0  0  0
 56 69  2  0  0  0
 57 58  2  0  0  0
 57133  1  0  0  0
 58134  1  0  0  0
 59 60  1  0  0  0
 59 61  1  0  0  0
 59 62  1  0  0  0
 60135  1  0  0  0
 60136  1  0  0  0
 60137  1  0  0  0
 61138  1  0  0  0
 61139  1  0  0  0
 61140  1  0  0  0
 62141  1  0  0  0
 62142  1  0  0  0
 62143  1  0  0  0
 63 65  1  0  0  0
 63144  1  0  0  0
 63145  1  0  0  0
 63146  1  0  0  0
 64147  1  0  0  0
 65148  1  0  0  0
 68 77  1  0  0  0
 71 72  2  0  0  0
 71 75  1  0  0  0
 71149  1  0  0  0
 72 76  1  0  0  0
 72150  1  0  0  0
 73 74  1  0  0  0
 73 75  2  0  0  0
 73151  1  0  0  0
 74 76  2  0  0  0
 74 84  1  0  0  0
 75 85  1  0  0  0
 76 89  1  0  0  0
 77 78  2  0  0  0
 77152  1  0  0  0
 78 79  1  0  0  0
 78 88  1  0  0  0
 79 86  1  0  0  0
 79 87  2  0  0  0
 80 82  1  0  0  0
 80153  1  0  0  0
 80154  1  0  0  0
 80155  1  0  0  0
 81 89  1  0  0  0
 81156  1  0  0  0
 81157  1  0  0  0
 81158  1  0  0  0
 82159  1  0  0  0
 82160  1  0  0  0
 82 84  1  0  0  0
 83 84  1  0  0  0
 83 86  1  0  0  0
 83161  1  0  0  0
 83162  1  0  0  0
 84163  1  0  0  0
 85164  1  0  0  0
 86165  1  0  0  0
 88166  1  0  0  0
M  ISO  4   1 100  68 101  77 101  85 100
M  END
> <chiral flag>
0

> <version>
0

> <s_m_source_file>
/data/baiqing/PycharmProjects/Reinvent-master-3.2/result/LINK_invent/BTK/process_docking_weight1_custom_product_contain_oxygen_bond_distance_aromatic_linkinvent_7_9_3/rearranged_h_0102.sdf

> <i_m_source_file_index>
35

> <r_mmod_Potential_Energy-OPLS-2005>
-110.421531677246

> <r_mmod_Stretch_Energy-OPLS-2005>
39.3710403442383

> <r_mmod_Bend_Energy-OPLS-2005>
98.8357543945312

> <r_mmod_Torsional_Energy-OPLS-2005>
286.343444824219

> <r_mmod_Improper_Torsional_Energy-OPLS-2005>
5.42519187927246

> <r_mmod_Van_der_Waal_Energy-OPLS-2005>
151.313171386719

> <r_mmod_Electrostatic_Energy-OPLS-2005>
-476.303466796875

> <r_mmod_Solvation_Energy-OPLS-2005>
-224.144973754883

> <b_mmod_Minimization_Converged-OPLS-2005>
0

> <r_mmod_RMS_Derivative-OPLS-2005>
2.79989290237427

$$$$
36
                    3D
 Structure written by MMmdl.
160168  0  0  1  0            999 V2000
  -30.6675  -14.7679   20.4652 C   0  0  0  0  0  0
  -30.4052  -12.4774   19.4881 C   0  0  0  0  0  0
  -29.4986  -12.5127   18.2417 C   0  0  0  0  0  0
  -28.0305  -12.3278   18.6588 C   0  0  0  0  0  0
  -27.6304  -13.2454   19.8445 C   0  0  2  0  0  0
  -28.6723  -13.2371   20.9851 C   0  0  0  0  0  0
  -25.2453  -13.8228   20.5724 C   0  0  0  0  0  0
  -24.1768  -13.0450   20.9225 C   0  0  0  0  0  0
  -24.6379  -11.6932   20.8757 C   0  0  0  0  0  0
  -23.9069  -10.4298   21.0409 C   0  0  0  0  0  0
  -24.3622   -9.4213   21.9184 C   0  0  0  0  0  0
  -23.6298   -8.2247   22.0753 C   0  0  0  0  0  0
  -22.4279   -8.0283   21.3544 C   0  0  0  0  0  0
  -21.9917   -9.0255   20.4644 C   0  0  0  0  0  0
  -22.7245  -10.2134   20.3054 C   0  0  0  0  0  0
  -21.6855   -6.0737   22.5279 C   0  0  0  0  0  0
  -21.4016   -6.5642   23.8212 C   0  0  0  0  0  0
  -21.3659   -5.6795   24.9175 C   0  0  0  0  0  0
  -21.6043   -4.3057   24.7226 C   0  0  0  0  0  0
  -21.8818   -3.8147   23.4348 C   0  0  0  0  0  0
  -21.9194   -4.6964   22.3404 C   0  0  0  0  0  0
  -22.7789  -13.5215   21.1880 C   0  0  0  0  0  0
  -22.1662   -4.2149   21.0981 F   0  0  0  0  0  0
  -21.5628   -3.4540   25.7739 F   0  0  0  0  0  0
  -29.9721  -13.5741   20.3965 N   0  0  0  0  0  0
  -26.2880  -12.9462   20.3284 N   0  0  0  0  0  0
  -25.9312  -11.6590   20.5765 N   0  0  0  0  0  0
  -22.0443  -12.8194   22.0431 N   0  0  0  0  0  0
  -25.4126  -15.1955   20.4153 N   0  0  0  0  0  0
  -31.8384  -14.7682   20.0704 O   0  0  0  0  0  0
  -21.6643   -6.8878   21.4241 O   0  0  0  0  0  0
  -22.3469  -14.5519   20.6726 O   0  0  0  0  0  0
  -24.6316  -31.8522   23.1939 C   0  0  0  0  0  0
  -25.9137  -32.4735   23.8303 C   0  0  1  0  0  0
  -27.2238  -27.2448   20.1323 C   0  0  0  0  0  0
  -25.5922  -33.8537   24.2230 N   0  0  0  0  0  0
  -23.4299  -30.4706   21.5362 C   0  0  2  0  0  0
  -24.8782  -28.9087   20.1046 C   0  0  0  0  0  0
  -22.7505  -29.4580   22.4892 C   0  0  0  0  0  0
  -18.0290  -28.1382   22.8484 C   0  0  0  0  0  0
  -24.1483  -36.7276   23.2643 C   0  0  0  0  0  0
  -25.9736  -30.7592   21.3746 C   0  0  0  0  0  0
  -26.0453  -29.3783   20.7186 C   0  0  0  0  0  0
  -27.2158  -28.5555   20.7240 C   0  0  0  0  0  0
  -26.0371  -26.8391   19.4875 C   0  0  0  0  0  0
  -24.8800  -27.6496   19.4783 C   0  0  0  0  0  0
  -23.6484  -29.7972   20.1535 C   0  0  0  0  0  0
  -25.4114  -36.3057   24.0322 C   0  0  1  0  0  0
  -20.5892  -28.3699   23.1263 C   0  0  2  0  0  0
  -20.6767  -26.9411   22.5409 C   0  0  0  0  0  0
  -19.5749  -26.6380   21.5204 C   0  0  0  0  0  0
  -18.1929  -26.7927   22.1618 C   0  0  0  0  0  0
  -19.1543  -28.8856   23.2871 C   0  0  0  0  0  0
  -18.9467  -30.1450   23.8898 C   0  0  0  0  0  0
  -17.6469  -30.6586   24.0557 C   0  0  0  0  0  0
  -25.9057  -34.9429   23.5084 C   0  0  0  0  0  0
  -16.5359  -29.9084   23.6325 C   0  0  0  0  0  0
  -16.7277  -28.6496   23.0357 C   0  0  0  0  0  0
  -26.4505  -31.6580   25.0712 C   0  0  0  0  0  0
  -25.3715  -31.3730   26.1425 C   0  0  0  0  0  0
  -27.0373  -30.3000   24.6219 C   0  0  0  0  0  0
  -27.6051  -32.4336   25.7489 C   0  0  0  0  0  0
  -27.5577  -37.1794   24.8466 C   0  0  0  0  0  0
  -21.4209  -29.3043   22.3648 N   0  0  0  0  0  0
  -26.4286  -37.3763   23.9410 N   0  0  0  0  0  0
  -24.6974  -31.0466   22.0916 N   0  0  0  0  0  0
  -23.4199  -28.8130   23.3005 O   0  0  0  0  0  0
  -28.3306  -26.3729   20.2489 O   0  0  0  0  0  0
  -26.5645  -34.8914   22.4663 O   0  0  0  0  0  0
  -23.5464  -32.1352   23.7231 O   0  0  0  0  0  0
  -28.9760  -19.6745   20.6149 C   0  0  0  0  0  0
  -29.8254  -19.7444   17.9885 C   0  0  0  0  0  0
  -29.0187  -20.9862   19.9568 C   0  0  0  0  0  0
  -29.3217  -18.3976   19.9854 C   0  0  0  0  0  0
  -29.7703  -18.4946   18.6457 C   0  0  0  0  0  0
  -29.4620  -20.9627   18.6046 C   0  0  0  0  0  0
  -28.7407  -22.3531   20.6943 C   0  0  0  0  0  0
  -30.1747  -17.2580   17.8587 C   0  0  0  0  0  0
  -31.0916  -16.6654   21.9106 C   0  0  0  0  0  0
  -29.0622  -16.9285   20.6028 C   0  0  0  0  0  0
  -27.8750  -23.5779   20.0996 C   0  0  0  0  0  0
  -28.4695  -25.0149   19.6068 C   0  0  0  0  0  0
  -29.5969  -22.1117   17.8182 N   0  0  0  0  0  0
  -30.1608  -15.9481   21.0316 N   0  0  0  0  0  0
  -29.1363  -22.4947   21.8558 O   0  0  0  0  0  0
  -31.4502  -12.5586   19.1859 H   0  0  0  0  0  0
  -30.3247  -11.5140   19.9939 H   0  0  0  0  0  0
  -29.7884  -11.7314   17.5375 H   0  0  0  0  0  0
  -29.6202  -13.4620   17.7174 H   0  0  0  0  0  0
  -27.9009  -11.2820   18.9412 H   0  0  0  0  0  0
  -27.3690  -12.4958   17.8082 H   0  0  0  0  0  0
  -27.6068  -14.2544   19.4349 H   0  0  0  0  0  0
  -28.7121  -12.2626   21.4735 H   0  0  0  0  0  0
  -28.3993  -13.9603   21.7554 H   0  0  0  0  0  0
  -25.2763   -9.5693   22.4764 H   0  0  0  0  0  0
  -24.0005   -7.4640   22.7475 H   0  0  0  0  0  0
  -21.0850   -8.8773   19.8950 H   0  0  0  0  0  0
  -22.3699  -10.9674   19.6165 H   0  0  0  0  0  0
  -21.2008   -7.6149   23.9715 H   0  0  0  0  0  0
  -21.1482   -6.0525   25.9078 H   0  0  0  0  0  0
  -22.0597   -2.7609   23.2849 H   0  0  0  0  0  0
  -22.4073  -11.9855   22.4811 H   0  0  0  0  0  0
  -21.1057  -13.1203   22.2642 H   0  0  0  0  0  0
  -24.6433  -15.8467   20.5268 H   0  0  0  0  0  0
  -26.2606  -15.6377   20.0873 H   0  0  0  0  0  0
  -26.7201  -32.5381   23.1040 H   0  0  0  0  0  0
  -25.0031  -33.9659   25.0351 H   0  0  0  0  0  0
  -22.7274  -31.2932   21.3861 H   0  0  0  0  0  0
  -23.3745  -35.9608   23.3299 H   0  0  0  0  0  0
  -24.3569  -36.8916   22.2059 H   0  0  0  0  0  0
  -23.7235  -37.6471   23.6680 H   0  0  0  0  0  0
  -26.1119  -31.5169   20.6021 H   0  0  0  0  0  0
  -26.8508  -30.8119   22.0081 H   0  0  0  0  0  0
  -28.1075  -28.9053   21.2253 H   0  0  0  0  0  0
  -25.9771  -25.8656   19.0229 H   0  0  0  0  0  0
  -23.9834  -27.2841   18.9971 H   0  0  0  0  0  0
  -23.7723  -30.5702   19.3942 H   0  0  0  0  0  0
  -22.7665  -29.2294   19.8516 H   0  0  0  0  0  0
  -25.1296  -36.1900   25.0814 H   0  0  0  0  0  0
  -20.9988  -28.3277   24.1381 H   0  0  0  0  0  0
  -20.5635  -26.2313   23.3620 H   0  0  0  0  0  0
  -21.6636  -26.7410   22.1225 H   0  0  0  0  0  0
  -19.6903  -25.6288   21.1241 H   0  0  0  0  0  0
  -19.6680  -27.3177   20.6724 H   0  0  0  0  0  0
  -17.4195  -26.6674   21.4022 H   0  0  0  0  0  0
  -18.0328  -26.0068   22.9010 H   0  0  0  0  0  0
  -19.7944  -30.7256   24.2281 H   0  0  0  0  0  0
  -17.5025  -31.6267   24.5157 H   0  0  0  0  0  0
  -15.5357  -30.2988   23.7649 H   0  0  0  0  0  0
  -15.8677  -28.0808   22.7089 H   0  0  0  0  0  0
  -24.5891  -30.7086   25.7738 H   0  0  0  0  0  0
  -24.8899  -32.2896   26.4842 H   0  0  0  0  0  0
  -25.8019  -30.8906   27.0210 H   0  0  0  0  0  0
  -26.2970  -29.6724   24.1240 H   0  0  0  0  0  0
  -27.4050  -29.7292   25.4758 H   0  0  0  0  0  0
  -27.8844  -30.4280   23.9474 H   0  0  0  0  0  0
  -27.2655  -33.3645   26.2043 H   0  0  0  0  0  0
  -28.3871  -32.6887   25.0323 H   0  0  0  0  0  0
  -28.0710  -31.8479   26.5425 H   0  0  0  0  0  0
  -28.2589  -38.0095   24.7517 H   0  0  0  0  0  0
  -28.1079  -36.2626   24.6287 H   0  0  0  0  0  0
  -27.2296  -37.1435   25.8870 H   0  0  0  0  0  0
  -20.9397  -29.8779   21.6862 H   0  0  0  0  0  0
  -26.0162  -38.2836   24.1413 H   0  0  0  0  0  0
  -28.6342  -19.6507   21.6400 H   0  0  0  0  0  0
  -30.1624  -19.7645   16.9607 H   0  0  0  0  0  0
  -30.4369  -17.5054   16.8294 H   0  0  0  0  0  0
  -29.3657  -16.5292   17.8181 H   0  0  0  0  0  0
  -31.0496  -16.7914   18.3099 H   0  0  0  0  0  0
  -30.5671  -17.3414   22.5871 H   0  0  0  0  0  0
  -31.7943  -17.2569   21.3217 H   0  0  0  0  0  0
  -31.6681  -15.9784   22.5334 H   0  0  0  0  0  0
  -28.4130  -16.4006   19.9061 H   0  0  0  0  0  0
  -28.4310  -17.0738   21.4805 H   0  0  0  0  0  0
  -27.0886  -23.7798   20.8259 H   0  0  0  0  0  0
  -27.3461  -23.1500   19.2485 H   0  0  0  0  0  0
  -28.1586  -25.1431   18.5697 H   0  0  0  0  0  0
  -29.5476  -24.8737   19.5276 H   0  0  0  0  0  0
  -30.0797  -22.0237   16.9287 H   0  0  0  0  0  0
  -29.7760  -23.0069   18.2565 H   0  0  0  0  0  0
  1 25  1  0  0  0
  1 30  2  0  0  0
  1 84  1  0  0  0
  2  3  1  0  0  0
  2 25  1  0  0  0
  2 86  1  0  0  0
  2 87  1  0  0  0
  3  4  1  0  0  0
  3 88  1  0  0  0
  3 89  1  0  0  0
  4  5  1  0  0  0
  4 90  1  0  0  0
  4 91  1  0  0  0
  5  6  1  0  0  0
  5 26  1  0  0  0
  5 92  1  0  0  0
  6 25  1  0  0  0
  6 93  1  0  0  0
  6 94  1  0  0  0
  7  8  2  0  0  0
  7 26  1  0  0  0
  7 29  1  0  0  0
  8  9  1  0  0  0
  8 22  1  0  0  0
  9 10  1  0  0  0
  9 27  2  0  0  0
 10 11  2  0  0  0
 10 15  1  0  0  0
 11 12  1  0  0  0
 11 95  1  0  0  0
 12 13  2  0  0  0
 12 96  1  0  0  0
 13 14  1  0  0  0
 13 31  1  0  0  0
 14 15  2  0  0  0
 14 97  1  0  0  0
 15 98  1  0  0  0
 16 17  2  0  0  0
 16 21  1  0  0  0
 16 31  1  0  0  0
 17 18  1  0  0  0
 17 99  1  0  0  0
 18 19  2  0  0  0
 18100  1  0  0  0
 19 20  1  0  0  0
 19 24  1  0  0  0
 20 21  2  0  0  0
 20101  1  0  0  0
 21 23  1  0  0  0
 22 28  1  0  0  0
 22 32  2  0  0  0
 26 27  1  0  0  0
 28102  1  0  0  0
 28103  1  0  0  0
 29104  1  0  0  0
 29105  1  0  0  0
 33 34  1  0  0  0
 33 66  1  0  0  0
 33 70  2  0  0  0
 34 36  1  0  0  0
 34 59  1  0  0  0
 34106  1  0  0  0
 35 44  2  0  0  0
 35 45  1  0  0  0
 35 68  1  0  0  0
 36 56  1  0  0  0
 36107  1  0  0  0
 37 39  1  0  0  0
 37 47  1  0  0  0
 37 66  1  0  0  0
 37108  1  0  0  0
 38 43  2  0  0  0
 38 46  1  0  0  0
 38 47  1  0  0  0
 39 64  1  0  0  0
 39 67  2  0  0  0
 40 52  1  0  0  0
 40 53  2  0  0  0
 40 58  1  0  0  0
 41109  1  0  0  0
 41110  1  0  0  0
 41111  1  0  0  0
 41 48  1  0  0  0
 42 43  1  0  0  0
 42 66  1  0  0  0
 42112  1  0  0  0
 42113  1  0  0  0
 43 44  1  0  0  0
 44114  1  0  0  0
 45 46  2  0  0  0
 45115  1  0  0  0
 46116  1  0  0  0
 47117  1  0  0  0
 47118  1  0  0  0
 48 56  1  0  0  0
 48 65  1  0  0  0
 48119  1  0  0  0
 49 50  1  0  0  0
 49 53  1  0  0  0
 49 64  1  0  0  0
 49120  1  0  0  0
 50 51  1  0  0  0
 50121  1  0  0  0
 50122  1  0  0  0
 51 52  1  0  0  0
 51123  1  0  0  0
 51124  1  0  0  0
 52125  1  0  0  0
 52126  1  0  0  0
 53 54  1  0  0  0
 54 55  2  0  0  0
 54127  1  0  0  0
 55 57  1  0  0  0
 55128  1  0  0  0
 56 69  2  0  0  0
 57 58  2  0  0  0
 57129  1  0  0  0
 58130  1  0  0  0
 59 60  1  0  0  0
 59 61  1  0  0  0
 59 62  1  0  0  0
 60131  1  0  0  0
 60132  1  0  0  0
 60133  1  0  0  0
 61134  1  0  0  0
 61135  1  0  0  0
 61136  1  0  0  0
 62137  1  0  0  0
 62138  1  0  0  0
 62139  1  0  0  0
 63 65  1  0  0  0
 63140  1  0  0  0
 63141  1  0  0  0
 63142  1  0  0  0
 64143  1  0  0  0
 65144  1  0  0  0
 68 82  1  0  0  0
 71 73  2  0  0  0
 71 74  1  0  0  0
 71145  1  0  0  0
 72 75  1  0  0  0
 72 76  2  0  0  0
 72146  1  0  0  0
 73 76  1  0  0  0
 73 77  1  0  0  0
 74 75  2  0  0  0
 74 80  1  0  0  0
 75 78  1  0  0  0
 76 83  1  0  0  0
 77 81  1  0  0  0
 77 85  2  0  0  0
 78147  1  0  0  0
 78148  1  0  0  0
 78149  1  0  0  0
 79 84  1  0  0  0
 79150  1  0  0  0
 79151  1  0  0  0
 79152  1  0  0  0
 80 84  1  0  0  0
 80153  1  0  0  0
 80154  1  0  0  0
 81 82  1  0  0  0
 81155  1  0  0  0
 81156  1  0  0  0
 82157  1  0  0  0
 82158  1  0  0  0
 83159  1  0  0  0
 83160  1  0  0  0
M  ISO  4   1 100  68 101  82 101  84 100
M  END
> <chiral flag>
0

> <version>
0

> <s_m_source_file>
/data/baiqing/PycharmProjects/Reinvent-master-3.2/result/LINK_invent/BTK/process_docking_weight1_custom_product_contain_oxygen_bond_distance_aromatic_linkinvent_7_9_3/rearranged_h_0102.sdf

> <i_m_source_file_index>
36

> <r_mmod_Potential_Energy-OPLS-2005>
447.207244873047

> <r_mmod_Stretch_Energy-OPLS-2005>
150.48876953125

> <r_mmod_Bend_Energy-OPLS-2005>
246.821044921875

> <r_mmod_Torsional_Energy-OPLS-2005>
301.080902099609

> <r_mmod_Improper_Torsional_Energy-OPLS-2005>
8.53469085693359

> <r_mmod_Van_der_Waal_Energy-OPLS-2005>
131.542953491211

> <r_mmod_Electrostatic_Energy-OPLS-2005>
-268.116058349609

> <r_mmod_Solvation_Energy-OPLS-2005>
-220.511856079102

> <b_mmod_Minimization_Converged-OPLS-2005>
0

> <r_mmod_RMS_Derivative-OPLS-2005>
0.698994219303131

$$$$
37
                    3D
 Structure written by MMmdl.
160168  0  0  1  0            999 V2000
  -30.7184  -14.4721   20.6154 C   0  0  0  0  0  0
  -30.4231  -12.3303   19.4097 C   0  0  0  0  0  0
  -29.4900  -12.5193   18.1981 C   0  0  0  0  0  0
  -28.0135  -12.3729   18.6151 C   0  0  0  0  0  0
  -27.6608  -13.2089   19.8743 C   0  0  2  0  0  0
  -28.7038  -12.9908   20.9918 C   0  0  0  0  0  0
  -25.2591  -13.8163   20.5697 C   0  0  0  0  0  0
  -24.1837  -13.0434   20.9160 C   0  0  0  0  0  0
  -24.6390  -11.6901   20.8708 C   0  0  0  0  0  0
  -23.9055  -10.4293   21.0388 C   0  0  0  0  0  0
  -24.3606   -9.4215   21.9170 C   0  0  0  0  0  0
  -23.6289   -8.2249   22.0749 C   0  0  0  0  0  0
  -22.4271   -8.0280   21.3540 C   0  0  0  0  0  0
  -21.9897   -9.0253   20.4642 C   0  0  0  0  0  0
  -22.7220  -10.2139   20.3050 C   0  0  0  0  0  0
  -21.6861   -6.0732   22.5272 C   0  0  0  0  0  0
  -21.4020   -6.5635   23.8204 C   0  0  0  0  0  0
  -21.3662   -5.6791   24.9167 C   0  0  0  0  0  0
  -21.6045   -4.3052   24.7219 C   0  0  0  0  0  0
  -21.8821   -3.8143   23.4340 C   0  0  0  0  0  0
  -21.9199   -4.6961   22.3397 C   0  0  0  0  0  0
  -22.7863  -13.5238   21.1836 C   0  0  0  0  0  0
  -22.1664   -4.2144   21.0972 F   0  0  0  0  0  0
  -21.5631   -3.4535   25.7733 F   0  0  0  0  0  0
  -30.0312  -13.3097   20.4374 N   0  0  0  0  0  0
  -26.3021  -12.9336   20.3361 N   0  0  0  0  0  0
  -25.9320  -11.6493   20.5747 N   0  0  0  0  0  0
  -22.0498  -12.8246   22.0400 N   0  0  0  0  0  0
  -25.4328  -15.1889   20.4173 N   0  0  0  0  0  0
  -31.8125  -14.6758   20.0822 O   0  0  0  0  0  0
  -21.6644   -6.8871   21.4231 O   0  0  0  0  0  0
  -22.3553  -14.5547   20.6693 O   0  0  0  0  0  0
  -24.6178  -31.8667   23.2085 C   0  0  0  0  0  0
  -25.9070  -32.4807   23.8374 C   0  0  1  0  0  0
  -27.2235  -27.4051   20.1019 C   0  0  0  0  0  0
  -25.5924  -33.8610   24.2315 N   0  0  0  0  0  0
  -23.4042  -30.4911   21.5518 C   0  0  2  0  0  0
  -24.8476  -28.9527   20.1154 C   0  0  0  0  0  0
  -22.7419  -29.4659   22.4996 C   0  0  0  0  0  0
  -18.0288  -28.1376   22.8477 C   0  0  0  0  0  0
  -24.1491  -36.7315   23.2633 C   0  0  0  0  0  0
  -25.9358  -30.8232   21.3642 C   0  0  0  0  0  0
  -26.0112  -29.4555   20.7118 C   0  0  0  0  0  0
  -27.2039  -28.6907   20.6980 C   0  0  0  0  0  0
  -26.0452  -26.9336   19.4816 C   0  0  0  0  0  0
  -24.8612  -27.6917   19.4965 C   0  0  0  0  0  0
  -23.6122  -29.8234   20.1667 C   0  0  0  0  0  0
  -25.4110  -36.3106   24.0340 C   0  0  1  0  0  0
  -20.5876  -28.3666   23.1324 C   0  0  2  0  0  0
  -20.6768  -26.9402   22.5403 C   0  0  0  0  0  0
  -19.5754  -26.6398   21.5189 C   0  0  0  0  0  0
  -18.1935  -26.7934   22.1594 C   0  0  0  0  0  0
  -19.1531  -28.8838   23.2901 C   0  0  0  0  0  0
  -18.9443  -30.1444   23.8908 C   0  0  0  0  0  0
  -17.6444  -30.6576   24.0558 C   0  0  0  0  0  0
  -25.9042  -34.9471   23.5123 C   0  0  0  0  0  0
  -16.5346  -29.9066   23.6312 C   0  0  0  0  0  0
  -16.7278  -28.6491   23.0327 C   0  0  0  0  0  0
  -26.4488  -31.6579   25.0699 C   0  0  0  0  0  0
  -25.3749  -31.3688   26.1436 C   0  0  0  0  0  0
  -27.0320  -30.3020   24.6082 C   0  0  0  0  0  0
  -27.6069  -32.4289   25.7464 C   0  0  0  0  0  0
  -27.5587  -37.1808   24.8469 C   0  0  0  0  0  0
  -21.4141  -29.3047   22.3737 N   0  0  0  0  0  0
  -26.4299  -37.3787   23.9410 N   0  0  0  0  0  0
  -24.6710  -31.0749   22.0999 N   0  0  0  0  0  0
  -23.4186  -28.8202   23.3048 O   0  0  0  0  0  0
  -28.3716  -26.6314   20.1120 O   0  0  0  0  0  0
  -26.5594  -34.8932   22.4684 O   0  0  0  0  0  0
  -23.5373  -32.1442   23.7483 O   0  0  0  0  0  0
  -30.6148  -18.6867   20.5486 C   0  0  0  0  0  0
  -28.7464  -20.0056   22.1538 C   0  0  0  0  0  0
  -30.0537  -17.9792   21.6403 C   0  0  0  0  0  0
  -29.0583  -18.6467   22.4072 C   0  0  0  0  0  0
  -29.3807  -20.7397   21.1263 C   0  0  0  0  0  0
  -30.2946  -20.0433   20.2936 C   0  0  0  0  0  0
  -32.1772  -16.6586   22.2038 C   0  0  0  0  0  0
  -29.0453  -24.2610   19.6352 C   0  0  0  0  0  0
  -28.7171  -22.7402   19.7687 C   0  0  0  0  0  0
  -28.2189  -25.2429   20.5093 C   0  0  0  0  0  0
  -30.6399  -16.6048   22.0629 C   0  0  2  0  0  0
  -28.3889  -18.0094   23.4540 N   0  0  0  0  0  0
  -29.1351  -22.1349   21.0383 N   0  0  0  0  0  0
  -30.1089  -15.3967   21.3881 N   0  0  0  0  0  0
  -30.9355  -20.6895   19.2891 F   0  0  0  0  0  0
  -31.4643  -12.4388   19.1026 H   0  0  0  0  0  0
  -30.3361  -11.3182   19.8073 H   0  0  0  0  0  0
  -29.7324  -11.7932   17.4204 H   0  0  0  0  0  0
  -29.6534  -13.5048   17.7589 H   0  0  0  0  0  0
  -27.8278  -11.3159   18.8088 H   0  0  0  0  0  0
  -27.3593  -12.6487   17.7868 H   0  0  0  0  0  0
  -27.7048  -14.2575   19.5790 H   0  0  0  0  0  0
  -28.6878  -11.9529   21.3301 H   0  0  0  0  0  0
  -28.4514  -13.5821   21.8724 H   0  0  0  0  0  0
  -25.2754   -9.5710   22.4738 H   0  0  0  0  0  0
  -24.0005   -7.4650   22.7479 H   0  0  0  0  0  0
  -21.0825   -8.8775   19.8957 H   0  0  0  0  0  0
  -22.3668  -10.9678   19.6167 H   0  0  0  0  0  0
  -21.2013   -7.6147   23.9707 H   0  0  0  0  0  0
  -21.1480   -6.0516   25.9069 H   0  0  0  0  0  0
  -22.0599   -2.7606   23.2839 H   0  0  0  0  0  0
  -22.4115  -11.9916   22.4810 H   0  0  0  0  0  0
  -21.1119  -13.1289   22.2594 H   0  0  0  0  0  0
  -24.6745  -15.8479   20.5552 H   0  0  0  0  0  0
  -26.2987  -15.6348   20.1398 H   0  0  0  0  0  0
  -26.7130  -32.5503   23.1124 H   0  0  0  0  0  0
  -25.0081  -33.9758   25.0465 H   0  0  0  0  0  0
  -22.6940  -31.3095   21.4127 H   0  0  0  0  0  0
  -23.3752  -35.9648   23.3299 H   0  0  0  0  0  0
  -24.3582  -36.8918   22.2044 H   0  0  0  0  0  0
  -23.7250  -37.6527   23.6640 H   0  0  0  0  0  0
  -26.0494  -31.5859   20.5927 H   0  0  0  0  0  0
  -26.8246  -30.8766   21.9808 H   0  0  0  0  0  0
  -28.1008  -29.0735   21.1635 H   0  0  0  0  0  0
  -26.0348  -25.9753   18.9819 H   0  0  0  0  0  0
  -23.9695  -27.3006   19.0261 H   0  0  0  0  0  0
  -23.7248  -30.5982   19.4074 H   0  0  0  0  0  0
  -22.7327  -29.2481   19.8710 H   0  0  0  0  0  0
  -25.1288  -36.1963   25.0834 H   0  0  0  0  0  0
  -20.9986  -28.3226   24.1441 H   0  0  0  0  0  0
  -20.5671  -26.2257   23.3574 H   0  0  0  0  0  0
  -21.6639  -26.7455   22.1196 H   0  0  0  0  0  0
  -19.6912  -25.6319   21.1190 H   0  0  0  0  0  0
  -19.6682  -27.3245   20.6748 H   0  0  0  0  0  0
  -17.4220  -26.6728   21.3972 H   0  0  0  0  0  0
  -18.0309  -26.0042   22.8952 H   0  0  0  0  0  0
  -19.7912  -30.7260   24.2296 H   0  0  0  0  0  0
  -17.4995  -31.6246   24.5177 H   0  0  0  0  0  0
  -15.5346  -30.2968   23.7624 H   0  0  0  0  0  0
  -15.8684  -28.0804   22.7033 H   0  0  0  0  0  0
  -24.5943  -30.7012   25.7765 H   0  0  0  0  0  0
  -24.8918  -32.2841   26.4865 H   0  0  0  0  0  0
  -25.8092  -30.8866   27.0201 H   0  0  0  0  0  0
  -26.2860  -29.6763   24.1163 H   0  0  0  0  0  0
  -27.4121  -29.7268   25.4535 H   0  0  0  0  0  0
  -27.8681  -30.4339   23.9211 H   0  0  0  0  0  0
  -27.2701  -33.3593   26.2057 H   0  0  0  0  0  0
  -28.3868  -32.6833   25.0272 H   0  0  0  0  0  0
  -28.0742  -31.8389   26.5359 H   0  0  0  0  0  0
  -28.2610  -38.0100   24.7508 H   0  0  0  0  0  0
  -28.1076  -36.2629   24.6300 H   0  0  0  0  0  0
  -27.2304  -37.1468   25.8872 H   0  0  0  0  0  0
  -20.9296  -29.8775   21.6969 H   0  0  0  0  0  0
  -26.0189  -38.2870   24.1393 H   0  0  0  0  0  0
  -31.3627  -18.2104   19.9333 H   0  0  0  0  0  0
  -28.0297  -20.5070   22.7890 H   0  0  0  0  0  0
  -32.4716  -17.4373   22.9083 H   0  0  0  0  0  0
  -32.6754  -16.8718   21.2578 H   0  0  0  0  0  0
  -32.5781  -15.7195   22.5866 H   0  0  0  0  0  0
  -28.8636  -24.5305   18.5940 H   0  0  0  0  0  0
  -30.1113  -24.4269   19.7970 H   0  0  0  0  0  0
  -27.6424  -22.5928   19.6522 H   0  0  0  0  0  0
  -29.1782  -22.2119   18.9339 H   0  0  0  0  0  0
  -28.5572  -25.1607   21.5422 H   0  0  0  0  0  0
  -27.1805  -24.9131   20.5301 H   0  0  0  0  0  0
  -30.3179  -16.4407   23.0906 H   0  0  0  0  0  0
  -27.5132  -18.4079   23.7777 H   0  0  0  0  0  0
  -28.3823  -16.9960   23.4874 H   0  0  0  0  0  0
  -28.6263  -22.5008   21.8372 H   0  0  0  0  0  0
  -29.1832  -15.1289   21.6865 H   0  0  0  0  0  0
  1 25  1  0  0  0
  1 30  2  0  0  0
  1 84  1  0  0  0
  2  3  1  0  0  0
  2 25  1  0  0  0
  2 86  1  0  0  0
  2 87  1  0  0  0
  3  4  1  0  0  0
  3 88  1  0  0  0
  3 89  1  0  0  0
  4  5  1  0  0  0
  4 90  1  0  0  0
  4 91  1  0  0  0
  5  6  1  0  0  0
  5 26  1  0  0  0
  5 92  1  0  0  0
  6 25  1  0  0  0
  6 93  1  0  0  0
  6 94  1  0  0  0
  7  8  2  0  0  0
  7 26  1  0  0  0
  7 29  1  0  0  0
  8  9  1  0  0  0
  8 22  1  0  0  0
  9 10  1  0  0  0
  9 27  2  0  0  0
 10 11  2  0  0  0
 10 15  1  0  0  0
 11 12  1  0  0  0
 11 95  1  0  0  0
 12 13  2  0  0  0
 12 96  1  0  0  0
 13 14  1  0  0  0
 13 31  1  0  0  0
 14 15  2  0  0  0
 14 97  1  0  0  0
 15 98  1  0  0  0
 16 17  2  0  0  0
 16 21  1  0  0  0
 16 31  1  0  0  0
 17 18  1  0  0  0
 17 99  1  0  0  0
 18 19  2  0  0  0
 18100  1  0  0  0
 19 20  1  0  0  0
 19 24  1  0  0  0
 20 21  2  0  0  0
 20101  1  0  0  0
 21 23  1  0  0  0
 22 28  1  0  0  0
 22 32  2  0  0  0
 26 27  1  0  0  0
 28102  1  0  0  0
 28103  1  0  0  0
 29104  1  0  0  0
 29105  1  0  0  0
 33 34  1  0  0  0
 33 66  1  0  0  0
 33 70  2  0  0  0
 34 36  1  0  0  0
 34 59  1  0  0  0
 34106  1  0  0  0
 35 44  2  0  0  0
 35 45  1  0  0  0
 35 68  1  0  0  0
 36 56  1  0  0  0
 36107  1  0  0  0
 37 39  1  0  0  0
 37 47  1  0  0  0
 37 66  1  0  0  0
 37108  1  0  0  0
 38 43  2  0  0  0
 38 46  1  0  0  0
 38 47  1  0  0  0
 39 64  1  0  0  0
 39 67  2  0  0  0
 40 52  1  0  0  0
 40 53  2  0  0  0
 40 58  1  0  0  0
 41109  1  0  0  0
 41110  1  0  0  0
 41111  1  0  0  0
 41 48  1  0  0  0
 42 43  1  0  0  0
 42 66  1  0  0  0
 42112  1  0  0  0
 42113  1  0  0  0
 43 44  1  0  0  0
 44114  1  0  0  0
 45 46  2  0  0  0
 45115  1  0  0  0
 46116  1  0  0  0
 47117  1  0  0  0
 47118  1  0  0  0
 48 56  1  0  0  0
 48 65  1  0  0  0
 48119  1  0  0  0
 49 50  1  0  0  0
 49 53  1  0  0  0
 49 64  1  0  0  0
 49120  1  0  0  0
 50 51  1  0  0  0
 50121  1  0  0  0
 50122  1  0  0  0
 51 52  1  0  0  0
 51123  1  0  0  0
 51124  1  0  0  0
 52125  1  0  0  0
 52126  1  0  0  0
 53 54  1  0  0  0
 54 55  2  0  0  0
 54127  1  0  0  0
 55 57  1  0  0  0
 55128  1  0  0  0
 56 69  2  0  0  0
 57 58  2  0  0  0
 57129  1  0  0  0
 58130  1  0  0  0
 59 60  1  0  0  0
 59 61  1  0  0  0
 59 62  1  0  0  0
 60131  1  0  0  0
 60132  1  0  0  0
 60133  1  0  0  0
 61134  1  0  0  0
 61135  1  0  0  0
 61136  1  0  0  0
 62137  1  0  0  0
 62138  1  0  0  0
 62139  1  0  0  0
 63 65  1  0  0  0
 63140  1  0  0  0
 63141  1  0  0  0
 63142  1  0  0  0
 64143  1  0  0  0
 65144  1  0  0  0
 68 80  1  0  0  0
 71 73  2  0  0  0
 71 76  1  0  0  0
 71145  1  0  0  0
 72 74  2  0  0  0
 72 75  1  0  0  0
 72146  1  0  0  0
 73 74  1  0  0  0
 73 81  1  0  0  0
 74 82  1  0  0  0
 75 76  2  0  0  0
 75 83  1  0  0  0
 76 85  1  0  0  0
 77147  1  0  0  0
 77148  1  0  0  0
 77149  1  0  0  0
 77 81  1  0  0  0
 78 79  1  0  0  0
 78 80  1  0  0  0
 78150  1  0  0  0
 78151  1  0  0  0
 79 83  1  0  0  0
 79152  1  0  0  0
 79153  1  0  0  0
 80154  1  0  0  0
 80155  1  0  0  0
 81 84  1  0  0  0
 81156  1  0  0  0
 82157  1  0  0  0
 82158  1  0  0  0
 83159  1  0  0  0
 84160  1  0  0  0
M  ISO  4   1 100  68 101  80 101  84 100
M  END
> <chiral flag>
0

> <version>
0

> <s_m_source_file>
/data/baiqing/PycharmProjects/Reinvent-master-3.2/result/LINK_invent/BTK/process_docking_weight1_custom_product_contain_oxygen_bond_distance_aromatic_linkinvent_7_9_3/rearranged_h_0102.sdf

> <i_m_source_file_index>
37

> <r_mmod_Potential_Energy-OPLS-2005>
37.1193656921387

> <r_mmod_Stretch_Energy-OPLS-2005>
45.3611221313477

> <r_mmod_Bend_Energy-OPLS-2005>
121.083862304688

> <r_mmod_Torsional_Energy-OPLS-2005>
233.807556152344

> <r_mmod_Improper_Torsional_Energy-OPLS-2005>
9.9338436126709

> <r_mmod_Van_der_Waal_Energy-OPLS-2005>
156.017013549805

> <r_mmod_Electrostatic_Energy-OPLS-2005>
-319.407073974609

> <r_mmod_Solvation_Energy-OPLS-2005>
-224.193771362305

> <b_mmod_Minimization_Converged-OPLS-2005>
0

> <r_mmod_RMS_Derivative-OPLS-2005>
1.74430990219116

$$$$
38
                    3D
 Structure written by MMmdl.
150158  0  0  1  0            999 V2000
  -30.6278  -14.6444   20.4929 C   0  0  0  0  0  0
  -30.4402  -12.3951   19.4501 C   0  0  0  0  0  0
  -29.5073  -12.5029   18.2235 C   0  0  0  0  0  0
  -28.0309  -12.3406   18.6381 C   0  0  0  0  0  0
  -27.6525  -13.2176   19.8613 C   0  0  2  0  0  0
  -28.6997  -13.0817   20.9903 C   0  0  0  0  0  0
  -25.2554  -13.8171   20.5690 C   0  0  0  0  0  0
  -24.1818  -13.0430   20.9166 C   0  0  0  0  0  0
  -24.6393  -11.6905   20.8724 C   0  0  0  0  0  0
  -23.9064  -10.4288   21.0395 C   0  0  0  0  0  0
  -24.3613   -9.4206   21.9176 C   0  0  0  0  0  0
  -23.6286   -8.2246   22.0755 C   0  0  0  0  0  0
  -22.4268   -8.0281   21.3547 C   0  0  0  0  0  0
  -21.9901   -9.0255   20.4651 C   0  0  0  0  0  0
  -22.7233  -10.2131   20.3052 C   0  0  0  0  0  0
  -21.6855   -6.0730   22.5276 C   0  0  0  0  0  0
  -21.4016   -6.5634   23.8209 C   0  0  0  0  0  0
  -21.3661   -5.6789   24.9173 C   0  0  0  0  0  0
  -21.6042   -4.3052   24.7226 C   0  0  0  0  0  0
  -21.8820   -3.8142   23.4348 C   0  0  0  0  0  0
  -21.9194   -4.6958   22.3402 C   0  0  0  0  0  0
  -22.7843  -13.5227   21.1838 C   0  0  0  0  0  0
  -22.1662   -4.2142   21.0979 F   0  0  0  0  0  0
  -21.5628   -3.4537   25.7741 F   0  0  0  0  0  0
  -30.0146  -13.4207   20.4227 N   0  0  0  0  0  0
  -26.2991  -12.9358   20.3328 N   0  0  0  0  0  0
  -25.9325  -11.6509   20.5757 N   0  0  0  0  0  0
  -22.0489  -12.8230   22.0409 N   0  0  0  0  0  0
  -25.4226  -15.1900   20.4170 N   0  0  0  0  0  0
  -31.7993  -14.7944   20.1341 O   0  0  0  0  0  0
  -21.6637   -6.8875   21.4240 O   0  0  0  0  0  0
  -22.3524  -14.5534   20.6693 O   0  0  0  0  0  0
  -24.6269  -31.8606   23.2043 C   0  0  0  0  0  0
  -25.9118  -32.4782   23.8366 C   0  0  1  0  0  0
  -27.2188  -27.3161   20.1078 C   0  0  0  0  0  0
  -25.5931  -33.8581   24.2287 N   0  0  0  0  0  0
  -23.4198  -30.4874   21.5480 C   0  0  2  0  0  0
  -24.8639  -28.9473   20.1112 C   0  0  0  0  0  0
  -22.7478  -29.4633   22.4936 C   0  0  0  0  0  0
  -18.0290  -28.1387   22.8490 C   0  0  0  0  0  0
  -24.1490  -36.7297   23.2636 C   0  0  0  0  0  0
  -25.9631  -30.7898   21.3775 C   0  0  0  0  0  0
  -26.0356  -29.4185   20.7168 C   0  0  0  0  0  0
  -27.2154  -28.6146   20.7077 C   0  0  0  0  0  0
  -26.0188  -26.9049   19.4768 C   0  0  0  0  0  0
  -24.8575  -27.6951   19.4842 C   0  0  0  0  0  0
  -23.6338  -29.8288   20.1616 C   0  0  0  0  0  0
  -25.4110  -36.3084   24.0330 C   0  0  1  0  0  0
  -20.5891  -28.3690   23.1282 C   0  0  2  0  0  0
  -20.6779  -26.9413   22.5405 C   0  0  0  0  0  0
  -19.5748  -26.6385   21.5213 C   0  0  0  0  0  0
  -18.1931  -26.7930   22.1631 C   0  0  0  0  0  0
  -19.1542  -28.8856   23.2883 C   0  0  0  0  0  0
  -18.9463  -30.1460   23.8894 C   0  0  0  0  0  0
  -17.6461  -30.6588   24.0566 C   0  0  0  0  0  0
  -25.9051  -34.9453   23.5108 C   0  0  0  0  0  0
  -16.5353  -29.9085   23.6332 C   0  0  0  0  0  0
  -16.7277  -28.6505   23.0351 C   0  0  0  0  0  0
  -26.4496  -31.6590   25.0737 C   0  0  0  0  0  0
  -25.3731  -31.3736   26.1469 C   0  0  0  0  0  0
  -27.0336  -30.3011   24.6197 C   0  0  0  0  0  0
  -27.6060  -32.4323   25.7503 C   0  0  0  0  0  0
  -27.5581  -37.1799   24.8461 C   0  0  0  0  0  0
  -21.4191  -29.3047   22.3680 N   0  0  0  0  0  0
  -26.4286  -37.3781   23.9415 N   0  0  0  0  0  0
  -24.6890  -31.0619   22.0999 N   0  0  0  0  0  0
  -23.4203  -28.8163   23.3008 O   0  0  0  0  0  0
  -28.3298  -26.4525   20.1578 O   0  0  0  0  0  0
  -26.5617  -34.8919   22.4672 O   0  0  0  0  0  0
  -23.5431  -32.1408   23.7366 O   0  0  0  0  0  0
  -31.2222  -19.2776   20.5365 C   0  0  0  0  0  0
  -31.1856  -17.8533   20.6066 C   0  0  0  0  0  0
  -28.8240  -19.3811   20.5644 C   0  0  0  0  0  0
  -30.0513  -20.0955   20.5180 C   0  0  0  0  0  0
  -29.9564  -17.1508   20.6669 C   0  0  0  0  0  0
  -28.7831  -17.9542   20.6436 C   0  0  0  0  0  0
  -29.0473  -22.6063   20.2761 C   0  0  0  0  0  0
  -29.2056  -23.9713   20.1485 C   0  0  0  0  0  0
  -30.2000  -21.6357   20.4582 C   0  0  0  0  0  0
  -28.0809  -25.0177   19.8826 C   0  0  0  0  0  0
  -29.8086  -15.7001   20.7892 N   0  0  0  0  0  0
  -31.3377  -22.1087   20.5516 O   0  0  0  0  0  0
  -27.5798  -17.3336   20.6977 F   0  0  0  0  0  0
  -31.4805  -12.5211   19.1452 H   0  0  0  0  0  0
  -30.3782  -11.4018   19.8972 H   0  0  0  0  0  0
  -29.7712  -11.7477   17.4820 H   0  0  0  0  0  0
  -29.6479  -13.4700   17.7379 H   0  0  0  0  0  0
  -27.8710  -11.2882   18.8769 H   0  0  0  0  0  0
  -27.3750  -12.5626   17.7957 H   0  0  0  0  0  0
  -27.6656  -14.2504   19.5121 H   0  0  0  0  0  0
  -28.7123  -12.0637   21.3823 H   0  0  0  0  0  0
  -28.4477  -13.7231   21.8363 H   0  0  0  0  0  0
  -25.2758   -9.5685   22.4749 H   0  0  0  0  0  0
  -23.9997   -7.4639   22.7473 H   0  0  0  0  0  0
  -21.0832   -8.8776   19.8959 H   0  0  0  0  0  0
  -22.3690  -10.9669   19.6162 H   0  0  0  0  0  0
  -21.2009   -7.6143   23.9713 H   0  0  0  0  0  0
  -21.1480   -6.0517   25.9075 H   0  0  0  0  0  0
  -22.0597   -2.7604   23.2850 H   0  0  0  0  0  0
  -22.4104  -11.9896   22.4805 H   0  0  0  0  0  0
  -21.1112  -13.1266   22.2621 H   0  0  0  0  0  0
  -24.6566  -15.8382   20.5595 H   0  0  0  0  0  0
  -26.2883  -15.6608   20.1819 H   0  0  0  0  0  0
  -26.7186  -32.5448   23.1113 H   0  0  0  0  0  0
  -25.0076  -33.9728   25.0430 H   0  0  0  0  0  0
  -22.7135  -31.3084   21.4084 H   0  0  0  0  0  0
  -23.3752  -35.9629   23.3286 H   0  0  0  0  0  0
  -24.3588  -36.8929   22.2053 H   0  0  0  0  0  0
  -23.7242  -37.6496   23.6663 H   0  0  0  0  0  0
  -26.0972  -31.5541   20.6107 H   0  0  0  0  0  0
  -26.8426  -30.8350   22.0078 H   0  0  0  0  0  0
  -28.1125  -28.9704   21.1948 H   0  0  0  0  0  0
  -25.9338  -25.9532   18.9757 H   0  0  0  0  0  0
  -23.9598  -27.3282   19.0060 H   0  0  0  0  0  0
  -23.7556  -30.6087   19.4090 H   0  0  0  0  0  0
  -22.7523  -29.2625   19.8560 H   0  0  0  0  0  0
  -25.1286  -36.1934   25.0822 H   0  0  0  0  0  0
  -20.9985  -28.3261   24.1403 H   0  0  0  0  0  0
  -20.5688  -26.2296   23.3602 H   0  0  0  0  0  0
  -21.6647  -26.7447   22.1191 H   0  0  0  0  0  0
  -19.6906  -25.6295   21.1243 H   0  0  0  0  0  0
  -19.6680  -27.3196   20.6744 H   0  0  0  0  0  0
  -17.4196  -26.6676   21.4040 H   0  0  0  0  0  0
  -18.0336  -26.0074   22.9030 H   0  0  0  0  0  0
  -19.7938  -30.7284   24.2255 H   0  0  0  0  0  0
  -17.5015  -31.6268   24.5166 H   0  0  0  0  0  0
  -15.5354  -30.2983   23.7659 H   0  0  0  0  0  0
  -15.8679  -28.0824   22.7060 H   0  0  0  0  0  0
  -24.5885  -30.7109   25.7799 H   0  0  0  0  0  0
  -24.8949  -32.2909   26.4915 H   0  0  0  0  0  0
  -25.8053  -30.8891   27.0234 H   0  0  0  0  0  0
  -26.2911  -29.6763   24.1219 H   0  0  0  0  0  0
  -27.4025  -29.7267   25.4706 H   0  0  0  0  0  0
  -27.8787  -30.4291   23.9430 H   0  0  0  0  0  0
  -27.2676  -33.3625   26.2077 H   0  0  0  0  0  0
  -28.3870  -32.6877   25.0329 H   0  0  0  0  0  0
  -28.0727  -31.8449   26.5421 H   0  0  0  0  0  0
  -28.2583  -38.0111   24.7532 H   0  0  0  0  0  0
  -28.1093  -36.2645   24.6252 H   0  0  0  0  0  0
  -27.2307  -37.1411   25.8866 H   0  0  0  0  0  0
  -20.9360  -29.8781   21.6905 H   0  0  0  0  0  0
  -26.0166  -38.2852   24.1429 H   0  0  0  0  0  0
  -32.1947  -19.7495   20.5019 H   0  0  0  0  0  0
  -32.1206  -17.3125   20.6296 H   0  0  0  0  0  0
  -27.8882  -19.9193   20.5556 H   0  0  0  0  0  0
  -28.0552  -22.1854   20.2267 H   0  0  0  0  0  0
  -30.2026  -24.3861   20.1927 H   0  0  0  0  0  0
  -27.2007  -24.6799   20.4325 H   0  0  0  0  0  0
  -27.8525  -24.9230   18.8201 H   0  0  0  0  0  0
  -28.8645  -15.4164   21.0025 H   0  0  0  0  0  0
  1 25  1  0  0  0
  1 30  2  0  0  0
  1 81  1  0  0  0
  2  3  1  0  0  0
  2 25  1  0  0  0
  2 84  1  0  0  0
  2 85  1  0  0  0
  3  4  1  0  0  0
  3 86  1  0  0  0
  3 87  1  0  0  0
  4  5  1  0  0  0
  4 88  1  0  0  0
  4 89  1  0  0  0
  5  6  1  0  0  0
  5 26  1  0  0  0
  5 90  1  0  0  0
  6 25  1  0  0  0
  6 91  1  0  0  0
  6 92  1  0  0  0
  7  8  2  0  0  0
  7 26  1  0  0  0
  7 29  1  0  0  0
  8  9  1  0  0  0
  8 22  1  0  0  0
  9 10  1  0  0  0
  9 27  2  0  0  0
 10 11  2  0  0  0
 10 15  1  0  0  0
 11 12  1  0  0  0
 11 93  1  0  0  0
 12 13  2  0  0  0
 12 94  1  0  0  0
 13 14  1  0  0  0
 13 31  1  0  0  0
 14 15  2  0  0  0
 14 95  1  0  0  0
 15 96  1  0  0  0
 16 17  2  0  0  0
 16 21  1  0  0  0
 16 31  1  0  0  0
 17 18  1  0  0  0
 17 97  1  0  0  0
 18 19  2  0  0  0
 18 98  1  0  0  0
 19 20  1  0  0  0
 19 24  1  0  0  0
 20 21  2  0  0  0
 20 99  1  0  0  0
 21 23  1  0  0  0
 22 28  1  0  0  0
 22 32  2  0  0  0
 26 27  1  0  0  0
 28100  1  0  0  0
 28101  1  0  0  0
 29102  1  0  0  0
 29103  1  0  0  0
 33 34  1  0  0  0
 33 66  1  0  0  0
 33 70  2  0  0  0
 34 36  1  0  0  0
 34 59  1  0  0  0
 34104  1  0  0  0
 35 44  2  0  0  0
 35 45  1  0  0  0
 35 68  1  0  0  0
 36 56  1  0  0  0
 36105  1  0  0  0
 37 39  1  0  0  0
 37 47  1  0  0  0
 37 66  1  0  0  0
 37106  1  0  0  0
 38 43  2  0  0  0
 38 46  1  0  0  0
 38 47  1  0  0  0
 39 64  1  0  0  0
 39 67  2  0  0  0
 40 52  1  0  0  0
 40 53  2  0  0  0
 40 58  1  0  0  0
 41107  1  0  0  0
 41108  1  0  0  0
 41109  1  0  0  0
 41 48  1  0  0  0
 42 43  1  0  0  0
 42 66  1  0  0  0
 42110  1  0  0  0
 42111  1  0  0  0
 43 44  1  0  0  0
 44112  1  0  0  0
 45 46  2  0  0  0
 45113  1  0  0  0
 46114  1  0  0  0
 47115  1  0  0  0
 47116  1  0  0  0
 48 56  1  0  0  0
 48 65  1  0  0  0
 48117  1  0  0  0
 49 50  1  0  0  0
 49 53  1  0  0  0
 49 64  1  0  0  0
 49118  1  0  0  0
 50 51  1  0  0  0
 50119  1  0  0  0
 50120  1  0  0  0
 51 52  1  0  0  0
 51121  1  0  0  0
 51122  1  0  0  0
 52123  1  0  0  0
 52124  1  0  0  0
 53 54  1  0  0  0
 54 55  2  0  0  0
 54125  1  0  0  0
 55 57  1  0  0  0
 55126  1  0  0  0
 56 69  2  0  0  0
 57 58  2  0  0  0
 57127  1  0  0  0
 58128  1  0  0  0
 59 60  1  0  0  0
 59 61  1  0  0  0
 59 62  1  0  0  0
 60129  1  0  0  0
 60130  1  0  0  0
 60131  1  0  0  0
 61132  1  0  0  0
 61133  1  0  0  0
 61134  1  0  0  0
 62135  1  0  0  0
 62136  1  0  0  0
 62137  1  0  0  0
 63 65  1  0  0  0
 63138  1  0  0  0
 63139  1  0  0  0
 63140  1  0  0  0
 64141  1  0  0  0
 65142  1  0  0  0
 68 80  1  0  0  0
 71 72  2  0  0  0
 71 74  1  0  0  0
 71143  1  0  0  0
 72 75  1  0  0  0
 72144  1  0  0  0
 73 74  2  0  0  0
 73 76  1  0  0  0
 73145  1  0  0  0
 74 79  1  0  0  0
 75 76  2  0  0  0
 75 81  1  0  0  0
 76 83  1  0  0  0
 77 78  2  0  0  0
 77 79  1  0  0  0
 77146  1  0  0  0
 78 80  1  0  0  0
 78147  1  0  0  0
 79 82  2  0  0  0
 80148  1  0  0  0
 80149  1  0  0  0
 81150  1  0  0  0
M  ISO  4   1 100  68 101  80 101  81 100
M  END
> <chiral flag>
0

> <version>
0

> <s_m_source_file>
/data/baiqing/PycharmProjects/Reinvent-master-3.2/result/LINK_invent/BTK/process_docking_weight1_custom_product_contain_oxygen_bond_distance_aromatic_linkinvent_7_9_3/rearranged_h_0102.sdf

> <i_m_source_file_index>
38

> <r_mmod_Potential_Energy-OPLS-2005>
-6.24345064163208

> <r_mmod_Stretch_Energy-OPLS-2005>
78.939582824707

> <r_mmod_Bend_Energy-OPLS-2005>
136.489440917969

> <r_mmod_Torsional_Energy-OPLS-2005>
204.016693115234

> <r_mmod_Improper_Torsional_Energy-OPLS-2005>
4.82679414749146

> <r_mmod_Van_der_Waal_Energy-OPLS-2005>
152.991897583008

> <r_mmod_Electrostatic_Energy-OPLS-2005>
-425.01806640625

> <r_mmod_Solvation_Energy-OPLS-2005>
-209.731887817383

> <b_mmod_Minimization_Converged-OPLS-2005>
0

> <r_mmod_RMS_Derivative-OPLS-2005>
0.612598180770874

$$$$
39
                    3D
 Structure written by MMmdl.
154162  0  0  1  0            999 V2000
  -30.7279  -14.4575   20.6163 C   0  0  0  0  0  0
  -30.4198  -12.3216   19.4070 C   0  0  0  0  0  0
  -29.4853  -12.5120   18.1962 C   0  0  0  0  0  0
  -28.0103  -12.3655   18.6163 C   0  0  0  0  0  0
  -27.6593  -13.2076   19.8714 C   0  0  2  0  0  0
  -28.7026  -12.9910   20.9890 C   0  0  0  0  0  0
  -25.2583  -13.8169   20.5675 C   0  0  0  0  0  0
  -24.1832  -13.0441   20.9177 C   0  0  0  0  0  0
  -24.6390  -11.6909   20.8738 C   0  0  0  0  0  0
  -23.9061  -10.4297   21.0411 C   0  0  0  0  0  0
  -24.3619   -9.4213   21.9188 C   0  0  0  0  0  0
  -23.6302   -8.2243   22.0752 C   0  0  0  0  0  0
  -22.4279   -8.0285   21.3549 C   0  0  0  0  0  0
  -21.9917   -9.0254   20.4643 C   0  0  0  0  0  0
  -22.7242  -10.2135   20.3057 C   0  0  0  0  0  0
  -21.6854   -6.0740   22.5284 C   0  0  0  0  0  0
  -21.4004   -6.5636   23.8217 C   0  0  0  0  0  0
  -21.3654   -5.6789   24.9176 C   0  0  0  0  0  0
  -21.6043   -4.3057   24.7228 C   0  0  0  0  0  0
  -21.8818   -3.8148   23.4349 C   0  0  0  0  0  0
  -21.9192   -4.6967   22.3405 C   0  0  0  0  0  0
  -22.7856  -13.5241   21.1852 C   0  0  0  0  0  0
  -22.1661   -4.2154   21.0982 F   0  0  0  0  0  0
  -21.5636   -3.4546   25.7740 F   0  0  0  0  0  0
  -30.0314  -13.3015   20.4335 N   0  0  0  0  0  0
  -26.3012  -12.9334   20.3362 N   0  0  0  0  0  0
  -25.9315  -11.6494   20.5772 N   0  0  0  0  0  0
  -22.0490  -12.8230   22.0400 N   0  0  0  0  0  0
  -25.4327  -15.1877   20.4061 N   0  0  0  0  0  0
  -31.8311  -14.6608   20.1024 O   0  0  0  0  0  0
  -21.6641   -6.8881   21.4243 O   0  0  0  0  0  0
  -22.3553  -14.5559   20.6715 O   0  0  0  0  0  0
  -24.6181  -31.8684   23.2122 C   0  0  0  0  0  0
  -25.9073  -32.4823   23.8408 C   0  0  1  0  0  0
  -27.2200  -27.4117   20.0809 C   0  0  0  0  0  0
  -25.5933  -33.8620   24.2343 N   0  0  0  0  0  0
  -23.4042  -30.4969   21.5553 C   0  0  2  0  0  0
  -24.8447  -28.9690   20.1137 C   0  0  0  0  0  0
  -22.7416  -29.4670   22.4998 C   0  0  0  0  0  0
  -18.0271  -28.1371   22.8500 C   0  0  0  0  0  0
  -24.1482  -36.7287   23.2625 C   0  0  0  0  0  0
  -25.9395  -30.8252   21.3707 C   0  0  0  0  0  0
  -26.0118  -29.4622   20.7099 C   0  0  0  0  0  0
  -27.2026  -28.6928   20.6895 C   0  0  0  0  0  0
  -26.0243  -26.9481   19.4762 C   0  0  0  0  0  0
  -24.8474  -27.7122   19.4944 C   0  0  0  0  0  0
  -23.6100  -29.8390   20.1676 C   0  0  0  0  0  0
  -25.4096  -36.3098   24.0343 C   0  0  1  0  0  0
  -20.5865  -28.3658   23.1319 C   0  0  2  0  0  0
  -20.6762  -26.9388   22.5416 C   0  0  0  0  0  0
  -19.5736  -26.6373   21.5217 C   0  0  0  0  0  0
  -18.1911  -26.7925   22.1614 C   0  0  0  0  0  0
  -19.1521  -28.8834   23.2907 C   0  0  0  0  0  0
  -18.9451  -30.1443   23.8917 C   0  0  0  0  0  0
  -17.6453  -30.6581   24.0569 C   0  0  0  0  0  0
  -25.9049  -34.9476   23.5138 C   0  0  0  0  0  0
  -16.5343  -29.9085   23.6335 C   0  0  0  0  0  0
  -16.7262  -28.6498   23.0364 C   0  0  0  0  0  0
  -26.4481  -31.6599   25.0742 C   0  0  0  0  0  0
  -25.3751  -31.3747   26.1511 C   0  0  0  0  0  0
  -27.0264  -30.3015   24.6134 C   0  0  0  0  0  0
  -27.6099  -32.4293   25.7466 C   0  0  0  0  0  0
  -27.5621  -37.1740   24.8425 C   0  0  0  0  0  0
  -21.4140  -29.3041   22.3736 N   0  0  0  0  0  0
  -26.4256  -37.3819   23.9483 N   0  0  0  0  0  0
  -24.6727  -31.0767   22.1041 N   0  0  0  0  0  0
  -23.4182  -28.8185   23.3025 O   0  0  0  0  0  0
  -28.3735  -26.6397   20.0947 O   0  0  0  0  0  0
  -26.5599  -34.8932   22.4697 O   0  0  0  0  0  0
  -23.5370  -32.1453   23.7505 O   0  0  0  0  0  0
  -29.3490  -18.5034   21.1553 C   0  0  0  0  0  0
  -29.2294  -19.8476   20.7176 C   0  0  0  0  0  0
  -31.7679  -18.6972   21.0707 C   0  0  0  0  0  0
  -30.6224  -17.9218   21.3575 C   0  0  0  0  0  0
  -30.3826  -20.6345   20.4720 C   0  0  0  0  0  0
  -31.6515  -20.0331   20.6352 C   0  0  0  0  0  0
  -29.3915  -24.3401   20.1112 C   0  0  0  0  0  0
  -30.7994  -16.5387   21.9981 C   0  0  0  0  0  0
  -29.1293  -22.8153   20.1919 C   0  0  0  0  0  0
  -28.1691  -25.2315   19.8286 C   0  0  0  0  0  0
  -30.3400  -21.9904   20.0825 N   0  0  0  0  0  0
  -30.1272  -15.3932   21.3716 N   0  0  0  0  0  0
  -30.5305  -24.8040   20.2485 O   0  0  0  0  0  0
  -32.7731  -20.7581   20.3978 F   0  0  0  0  0  0
  -31.4612  -12.4272   19.0990 H   0  0  0  0  0  0
  -30.3312  -11.3100   19.8058 H   0  0  0  0  0  0
  -29.7238  -11.7851   17.4188 H   0  0  0  0  0  0
  -29.6464  -13.4972   17.7548 H   0  0  0  0  0  0
  -27.8270  -11.3091   18.8169 H   0  0  0  0  0  0
  -27.3540  -12.6351   17.7874 H   0  0  0  0  0  0
  -27.7034  -14.2555   19.5733 H   0  0  0  0  0  0
  -28.6842  -11.9535   21.3260 H   0  0  0  0  0  0
  -28.4550  -13.5841   21.8698 H   0  0  0  0  0  0
  -25.2760   -9.5688   22.4765 H   0  0  0  0  0  0
  -24.0014   -7.4632   22.7464 H   0  0  0  0  0  0
  -21.0849   -8.8772   19.8943 H   0  0  0  0  0  0
  -22.3708  -10.9676   19.6164 H   0  0  0  0  0  0
  -21.1984   -7.6142   23.9721 H   0  0  0  0  0  0
  -21.1476   -6.0518   25.9075 H   0  0  0  0  0  0
  -22.0598   -2.7611   23.2854 H   0  0  0  0  0  0
  -22.4097  -11.9876   22.4761 H   0  0  0  0  0  0
  -21.1113  -13.1267   22.2618 H   0  0  0  0  0  0
  -24.6701  -15.8486   20.5053 H   0  0  0  0  0  0
  -26.2888  -15.6188   20.0799 H   0  0  0  0  0  0
  -26.7143  -32.5510   23.1166 H   0  0  0  0  0  0
  -25.0136  -33.9782   25.0527 H   0  0  0  0  0  0
  -22.6943  -31.3159   21.4206 H   0  0  0  0  0  0
  -23.3812  -35.9541   23.3142 H   0  0  0  0  0  0
  -24.3633  -36.9048   22.2074 H   0  0  0  0  0  0
  -23.7122  -37.6397   23.6733 H   0  0  0  0  0  0
  -26.0608  -31.5943   20.6069 H   0  0  0  0  0  0
  -26.8253  -30.8695   21.9928 H   0  0  0  0  0  0
  -28.1032  -29.0697   21.1536 H   0  0  0  0  0  0
  -25.9615  -25.9932   18.9764 H   0  0  0  0  0  0
  -23.9496  -27.3287   19.0285 H   0  0  0  0  0  0
  -23.7178  -30.6189   19.4131 H   0  0  0  0  0  0
  -22.7309  -29.2644   19.8681 H   0  0  0  0  0  0
  -25.1241  -36.1938   25.0825 H   0  0  0  0  0  0
  -20.9962  -28.3214   24.1435 H   0  0  0  0  0  0
  -20.5654  -26.2258   23.3601 H   0  0  0  0  0  0
  -21.6631  -26.7419   22.1212 H   0  0  0  0  0  0
  -19.6896  -25.6285   21.1229 H   0  0  0  0  0  0
  -19.6687  -27.3199   20.6759 H   0  0  0  0  0  0
  -17.4185  -26.6704   21.4006 H   0  0  0  0  0  0
  -18.0290  -26.0039   22.8982 H   0  0  0  0  0  0
  -19.7923  -30.7259   24.2285 H   0  0  0  0  0  0
  -17.5001  -31.6265   24.5162 H   0  0  0  0  0  0
  -15.5347  -30.2990   23.7657 H   0  0  0  0  0  0
  -15.8654  -28.0823   22.7087 H   0  0  0  0  0  0
  -24.5888  -30.7127   25.7864 H   0  0  0  0  0  0
  -24.9000  -32.2926   26.4986 H   0  0  0  0  0  0
  -25.8104  -30.8883   27.0249 H   0  0  0  0  0  0
  -26.2778  -29.6793   24.1214 H   0  0  0  0  0  0
  -27.4022  -29.7248   25.4592 H   0  0  0  0  0  0
  -27.8635  -30.4286   23.9269 H   0  0  0  0  0  0
  -27.2799  -33.3649   26.1988 H   0  0  0  0  0  0
  -28.3932  -32.6744   25.0282 H   0  0  0  0  0  0
  -28.0719  -31.8424   26.5411 H   0  0  0  0  0  0
  -28.2459  -38.0209   24.7773 H   0  0  0  0  0  0
  -28.1297  -36.2786   24.5855 H   0  0  0  0  0  0
  -27.2407  -37.0907   25.8819 H   0  0  0  0  0  0
  -20.9293  -29.8800   21.6994 H   0  0  0  0  0  0
  -26.0126  -38.2840   24.1696 H   0  0  0  0  0  0
  -28.4546  -17.9363   21.3760 H   0  0  0  0  0  0
  -28.2408  -20.2662   20.5959 H   0  0  0  0  0  0
  -32.7551  -18.2841   21.2189 H   0  0  0  0  0  0
  -30.4205  -16.6066   23.0189 H   0  0  0  0  0  0
  -31.8643  -16.3239   22.1112 H   0  0  0  0  0  0
  -28.4383  -22.5466   19.3913 H   0  0  0  0  0  0
  -28.6209  -22.6080   21.1342 H   0  0  0  0  0  0
  -27.3456  -24.8574   20.4378 H   0  0  0  0  0  0
  -27.8983  -25.0898   18.7820 H   0  0  0  0  0  0
  -31.2226  -22.4980   20.0801 H   0  0  0  0  0  0
  -29.2016  -15.1713   21.7049 H   0  0  0  0  0  0
  1 25  1  0  0  0
  1 30  2  0  0  0
  1 82  1  0  0  0
  2  3  1  0  0  0
  2 25  1  0  0  0
  2 85  1  0  0  0
  2 86  1  0  0  0
  3  4  1  0  0  0
  3 87  1  0  0  0
  3 88  1  0  0  0
  4  5  1  0  0  0
  4 89  1  0  0  0
  4 90  1  0  0  0
  5  6  1  0  0  0
  5 26  1  0  0  0
  5 91  1  0  0  0
  6 25  1  0  0  0
  6 92  1  0  0  0
  6 93  1  0  0  0
  7  8  2  0  0  0
  7 26  1  0  0  0
  7 29  1  0  0  0
  8  9  1  0  0  0
  8 22  1  0  0  0
  9 10  1  0  0  0
  9 27  2  0  0  0
 10 11  2  0  0  0
 10 15  1  0  0  0
 11 12  1  0  0  0
 11 94  1  0  0  0
 12 13  2  0  0  0
 12 95  1  0  0  0
 13 14  1  0  0  0
 13 31  1  0  0  0
 14 15  2  0  0  0
 14 96  1  0  0  0
 15 97  1  0  0  0
 16 17  2  0  0  0
 16 21  1  0  0  0
 16 31  1  0  0  0
 17 18  1  0  0  0
 17 98  1  0  0  0
 18 19  2  0  0  0
 18 99  1  0  0  0
 19 20  1  0  0  0
 19 24  1  0  0  0
 20 21  2  0  0  0
 20100  1  0  0  0
 21 23  1  0  0  0
 22 28  1  0  0  0
 22 32  2  0  0  0
 26 27  1  0  0  0
 28101  1  0  0  0
 28102  1  0  0  0
 29103  1  0  0  0
 29104  1  0  0  0
 33 34  1  0  0  0
 33 66  1  0  0  0
 33 70  2  0  0  0
 34 36  1  0  0  0
 34 59  1  0  0  0
 34105  1  0  0  0
 35 44  2  0  0  0
 35 45  1  0  0  0
 35 68  1  0  0  0
 36 56  1  0  0  0
 36106  1  0  0  0
 37 39  1  0  0  0
 37 47  1  0  0  0
 37 66  1  0  0  0
 37107  1  0  0  0
 38 43  2  0  0  0
 38 46  1  0  0  0
 38 47  1  0  0  0
 39 64  1  0  0  0
 39 67  2  0  0  0
 40 52  1  0  0  0
 40 53  2  0  0  0
 40 58  1  0  0  0
 41108  1  0  0  0
 41109  1  0  0  0
 41110  1  0  0  0
 41 48  1  0  0  0
 42 43  1  0  0  0
 42 66  1  0  0  0
 42111  1  0  0  0
 42112  1  0  0  0
 43 44  1  0  0  0
 44113  1  0  0  0
 45 46  2  0  0  0
 45114  1  0  0  0
 46115  1  0  0  0
 47116  1  0  0  0
 47117  1  0  0  0
 48 56  1  0  0  0
 48 65  1  0  0  0
 48118  1  0  0  0
 49 50  1  0  0  0
 49 53  1  0  0  0
 49 64  1  0  0  0
 49119  1  0  0  0
 50 51  1  0  0  0
 50120  1  0  0  0
 50121  1  0  0  0
 51 52  1  0  0  0
 51122  1  0  0  0
 51123  1  0  0  0
 52124  1  0  0  0
 52125  1  0  0  0
 53 54  1  0  0  0
 54 55  2  0  0  0
 54126  1  0  0  0
 55 57  1  0  0  0
 55127  1  0  0  0
 56 69  2  0  0  0
 57 58  2  0  0  0
 57128  1  0  0  0
 58129  1  0  0  0
 59 60  1  0  0  0
 59 61  1  0  0  0
 59 62  1  0  0  0
 60130  1  0  0  0
 60131  1  0  0  0
 60132  1  0  0  0
 61133  1  0  0  0
 61134  1  0  0  0
 61135  1  0  0  0
 62136  1  0  0  0
 62137  1  0  0  0
 62138  1  0  0  0
 63 65  1  0  0  0
 63139  1  0  0  0
 63140  1  0  0  0
 63141  1  0  0  0
 64142  1  0  0  0
 65143  1  0  0  0
 68 80  1  0  0  0
 71 72  2  0  0  0
 71 74  1  0  0  0
 71144  1  0  0  0
 72 75  1  0  0  0
 72145  1  0  0  0
 73 74  2  0  0  0
 73 76  1  0  0  0
 73146  1  0  0  0
 74 78  1  0  0  0
 75 76  2  0  0  0
 75 81  1  0  0  0
 76 84  1  0  0  0
 77 79  1  0  0  0
 77 80  1  0  0  0
 77 83  2  0  0  0
 78 82  1  0  0  0
 78147  1  0  0  0
 78148  1  0  0  0
 79 81  1  0  0  0
 79149  1  0  0  0
 79150  1  0  0  0
 80151  1  0  0  0
 80152  1  0  0  0
 81153  1  0  0  0
 82154  1  0  0  0
M  ISO  4   1 100  68 101  80 101  82 100
M  END
> <chiral flag>
0

> <version>
0

> <s_m_source_file>
/data/baiqing/PycharmProjects/Reinvent-master-3.2/result/LINK_invent/BTK/process_docking_weight1_custom_product_contain_oxygen_bond_distance_aromatic_linkinvent_7_9_3/rearranged_h_0102.sdf

> <i_m_source_file_index>
39

> <r_mmod_Potential_Energy-OPLS-2005>
-71.4511642456055

> <r_mmod_Stretch_Energy-OPLS-2005>
40.0690383911133

> <r_mmod_Bend_Energy-OPLS-2005>
106.167816162109

> <r_mmod_Torsional_Energy-OPLS-2005>
187.044082641602

> <r_mmod_Improper_Torsional_Energy-OPLS-2005>
4.14821338653564

> <r_mmod_Van_der_Waal_Energy-OPLS-2005>
158.068939208984

> <r_mmod_Electrostatic_Energy-OPLS-2005>
-338.195892333984

> <r_mmod_Solvation_Energy-OPLS-2005>
-243.188369750977

> <b_mmod_Minimization_Converged-OPLS-2005>
0

> <r_mmod_RMS_Derivative-OPLS-2005>
1.34071671962738

$$$$
40
                    3D
 Structure written by MMmdl.
158166  0  0  1  0            999 V2000
  -30.6880  -14.4438   20.6359 C   0  0  0  0  0  0
  -30.4298  -12.3077   19.4124 C   0  0  0  0  0  0
  -29.4947  -12.5208   18.2032 C   0  0  0  0  0  0
  -28.0131  -12.3809   18.6092 C   0  0  0  0  0  0
  -27.6659  -13.1999   19.8801 C   0  0  2  0  0  0
  -28.7007  -12.9323   20.9942 C   0  0  0  0  0  0
  -25.2610  -13.8158   20.5658 C   0  0  0  0  0  0
  -24.1853  -13.0446   20.9150 C   0  0  0  0  0  0
  -24.6399  -11.6910   20.8717 C   0  0  0  0  0  0
  -23.9062  -10.4300   21.0403 C   0  0  0  0  0  0
  -24.3610   -9.4220   21.9186 C   0  0  0  0  0  0
  -23.6284   -8.2258   22.0766 C   0  0  0  0  0  0
  -22.4274   -8.0293   21.3548 C   0  0  0  0  0  0
  -21.9908   -9.0273   20.4654 C   0  0  0  0  0  0
  -22.7233  -10.2150   20.3059 C   0  0  0  0  0  0
  -21.6857   -6.0741   22.5276 C   0  0  0  0  0  0
  -21.4020   -6.5644   23.8206 C   0  0  0  0  0  0
  -21.3648   -5.6801   24.9174 C   0  0  0  0  0  0
  -21.6036   -4.3064   24.7219 C   0  0  0  0  0  0
  -21.8820   -3.8151   23.4349 C   0  0  0  0  0  0
  -21.9192   -4.6969   22.3405 C   0  0  0  0  0  0
  -22.7878  -13.5244   21.1813 C   0  0  0  0  0  0
  -22.1656   -4.2149   21.0983 F   0  0  0  0  0  0
  -21.5628   -3.4546   25.7732 F   0  0  0  0  0  0
  -30.0397  -13.2590   20.4640 N   0  0  0  0  0  0
  -26.3039  -12.9308   20.3358 N   0  0  0  0  0  0
  -25.9317  -11.6473   20.5740 N   0  0  0  0  0  0
  -22.0515  -12.8230   22.0362 N   0  0  0  0  0  0
  -25.4371  -15.1870   20.4079 N   0  0  0  0  0  0
  -31.7645  -14.7086   20.0888 O   0  0  0  0  0  0
  -21.6649   -6.8882   21.4237 O   0  0  0  0  0  0
  -22.3564  -14.5558   20.6671 O   0  0  0  0  0  0
  -24.6136  -31.8685   23.2099 C   0  0  0  0  0  0
  -25.9028  -32.4825   23.8395 C   0  0  1  0  0  0
  -27.2433  -27.4501   20.0988 C   0  0  0  0  0  0
  -25.5885  -33.8622   24.2331 N   0  0  0  0  0  0
  -23.4028  -30.4905   21.5503 C   0  0  2  0  0  0
  -24.8518  -28.9528   20.1200 C   0  0  0  0  0  0
  -22.7409  -29.4664   22.4994 C   0  0  0  0  0  0
  -18.0279  -28.1375   22.8496 C   0  0  0  0  0  0
  -24.1475  -36.7315   23.2635 C   0  0  0  0  0  0
  -25.9282  -30.8393   21.3593 C   0  0  0  0  0  0
  -26.0099  -29.4710   20.7148 C   0  0  0  0  0  0
  -27.2111  -28.7270   20.7006 C   0  0  0  0  0  0
  -26.0717  -26.9371   19.5061 C   0  0  0  0  0  0
  -24.8759  -27.6834   19.5140 C   0  0  0  0  0  0
  -23.6127  -29.8195   20.1661 C   0  0  0  0  0  0
  -25.4098  -36.3112   24.0336 C   0  0  1  0  0  0
  -20.5867  -28.3668   23.1317 C   0  0  2  0  0  0
  -20.6770  -26.9405   22.5417 C   0  0  0  0  0  0
  -19.5755  -26.6398   21.5209 C   0  0  0  0  0  0
  -18.1936  -26.7922   22.1629 C   0  0  0  0  0  0
  -19.1525  -28.8839   23.2910 C   0  0  0  0  0  0
  -18.9454  -30.1439   23.8927 C   0  0  0  0  0  0
  -17.6454  -30.6581   24.0576 C   0  0  0  0  0  0
  -25.9030  -34.9473   23.5133 C   0  0  0  0  0  0
  -16.5349  -29.9090   23.6311 C   0  0  0  0  0  0
  -16.7270  -28.6508   23.0336 C   0  0  0  0  0  0
  -26.4463  -31.6586   25.0706 C   0  0  0  0  0  0
  -25.3741  -31.3688   26.1461 C   0  0  0  0  0  0
  -27.0291  -30.3038   24.6043 C   0  0  0  0  0  0
  -27.6051  -32.4285   25.7463 C   0  0  0  0  0  0
  -27.5574  -37.1815   24.8461 C   0  0  0  0  0  0
  -21.4139  -29.3030   22.3719 N   0  0  0  0  0  0
  -26.4287  -37.3794   23.9404 N   0  0  0  0  0  0
  -24.6669  -31.0794   22.0995 N   0  0  0  0  0  0
  -23.4174  -28.8217   23.3056 O   0  0  0  0  0  0
  -28.4054  -26.7161   20.0534 O   0  0  0  0  0  0
  -26.5597  -34.8928   22.4697 O   0  0  0  0  0  0
  -23.5328  -32.1423   23.7499 O   0  0  0  0  0  0
  -29.9836  -18.7347   22.9441 C   0  0  0  0  0  0
  -30.2448  -18.9569   20.5420 C   0  0  0  0  0  0
  -29.9949  -17.3263   22.8273 C   0  0  0  0  0  0
  -30.1001  -19.5651   21.8104 C   0  0  0  0  0  0
  -30.1544  -16.7179   21.5586 C   0  0  0  0  0  0
  -30.2671  -17.5481   20.4131 C   0  0  0  0  0  0
  -29.8086  -16.4823   24.0783 C   0  0  0  0  0  0
  -29.3791  -23.2898   21.4891 C   0  0  0  0  0  0
  -29.1222  -24.3830   20.4241 C   0  0  0  0  0  0
  -29.7983  -21.9106   20.9267 C   0  0  0  0  0  0
  -28.4869  -25.6624   21.0183 C   0  0  0  0  0  0
  -30.0651  -15.2950   21.4702 N   0  0  0  0  0  0
  -30.0541  -20.9586   22.0078 N   0  0  0  0  0  0
  -30.3363  -17.0074   19.1723 F   0  0  0  0  0  0
  -31.4724  -12.4275   19.1137 H   0  0  0  0  0  0
  -30.3476  -11.2858   19.7855 H   0  0  0  0  0  0
  -29.7320  -11.8032   17.4169 H   0  0  0  0  0  0
  -29.6649  -13.5102   17.7766 H   0  0  0  0  0  0
  -27.8132  -11.3223   18.7816 H   0  0  0  0  0  0
  -27.3690  -12.6818   17.7821 H   0  0  0  0  0  0
  -27.7247  -14.2559   19.6135 H   0  0  0  0  0  0
  -28.6747  -11.8805   21.2825 H   0  0  0  0  0  0
  -28.4385  -13.4773   21.9011 H   0  0  0  0  0  0
  -25.2763   -9.5687   22.4753 H   0  0  0  0  0  0
  -23.9984   -7.4649   22.7495 H   0  0  0  0  0  0
  -21.0844   -8.8796   19.8953 H   0  0  0  0  0  0
  -22.3704  -10.9694   19.6170 H   0  0  0  0  0  0
  -21.2023   -7.6159   23.9703 H   0  0  0  0  0  0
  -21.1462   -6.0544   25.9069 H   0  0  0  0  0  0
  -22.0608   -2.7617   23.2851 H   0  0  0  0  0  0
  -22.4120  -11.9869   22.4709 H   0  0  0  0  0  0
  -21.1142  -13.1267   22.2570 H   0  0  0  0  0  0
  -24.6775  -15.8495   20.5198 H   0  0  0  0  0  0
  -26.2995  -15.6225   20.1037 H   0  0  0  0  0  0
  -26.7106  -32.5551   23.1176 H   0  0  0  0  0  0
  -25.0028  -33.9781   25.0472 H   0  0  0  0  0  0
  -22.6915  -31.3070   21.4099 H   0  0  0  0  0  0
  -23.3714  -35.9673   23.3332 H   0  0  0  0  0  0
  -24.3553  -36.8884   22.2038 H   0  0  0  0  0  0
  -23.7252  -37.6549   23.6611 H   0  0  0  0  0  0
  -26.0288  -31.6010   20.5845 H   0  0  0  0  0  0
  -26.8201  -30.9022   21.9705 H   0  0  0  0  0  0
  -28.1101  -29.1288   21.1473 H   0  0  0  0  0  0
  -26.0898  -25.9647   19.0338 H   0  0  0  0  0  0
  -23.9869  -27.2779   19.0508 H   0  0  0  0  0  0
  -23.7216  -30.5947   19.4066 H   0  0  0  0  0  0
  -22.7376  -29.2384   19.8689 H   0  0  0  0  0  0
  -25.1271  -36.1985   25.0829 H   0  0  0  0  0  0
  -20.9963  -28.3232   24.1435 H   0  0  0  0  0  0
  -20.5676  -26.2278   23.3606 H   0  0  0  0  0  0
  -21.6640  -26.7449   22.1209 H   0  0  0  0  0  0
  -19.6924  -25.6319   21.1216 H   0  0  0  0  0  0
  -19.6700  -27.3227   20.6753 H   0  0  0  0  0  0
  -17.4206  -26.6659   21.4032 H   0  0  0  0  0  0
  -18.0357  -26.0055   22.9022 H   0  0  0  0  0  0
  -19.7929  -30.7242   24.2317 H   0  0  0  0  0  0
  -17.5012  -31.6253   24.5192 H   0  0  0  0  0  0
  -15.5352  -30.3012   23.7613 H   0  0  0  0  0  0
  -15.8671  -28.0842   22.7023 H   0  0  0  0  0  0
  -24.5898  -30.7062   25.7784 H   0  0  0  0  0  0
  -24.8960  -32.2851   26.4935 H   0  0  0  0  0  0
  -25.8094  -30.8823   27.0201 H   0  0  0  0  0  0
  -26.2831  -29.6808   24.1097 H   0  0  0  0  0  0
  -27.4089  -29.7250   25.4472 H   0  0  0  0  0  0
  -27.8645  -30.4378   23.9166 H   0  0  0  0  0  0
  -27.2691  -33.3582   26.2064 H   0  0  0  0  0  0
  -28.3856  -32.6841   25.0285 H   0  0  0  0  0  0
  -28.0723  -31.8384   26.5357 H   0  0  0  0  0  0
  -28.2604  -38.0100   24.7471 H   0  0  0  0  0  0
  -28.1052  -36.2621   24.6319 H   0  0  0  0  0  0
  -27.2285  -37.1506   25.8865 H   0  0  0  0  0  0
  -20.9307  -29.8730   21.6912 H   0  0  0  0  0  0
  -26.0171  -38.2875   24.1388 H   0  0  0  0  0  0
  -29.8604  -19.1811   23.9215 H   0  0  0  0  0  0
  -30.3243  -19.5573   19.6487 H   0  0  0  0  0  0
  -29.8347  -17.0917   24.9816 H   0  0  0  0  0  0
  -30.5946  -15.7310   24.1610 H   0  0  0  0  0  0
  -28.8444  -15.9743   24.0491 H   0  0  0  0  0  0
  -28.4761  -23.1651   22.0889 H   0  0  0  0  0  0
  -30.1466  -23.6537   22.1749 H   0  0  0  0  0  0
  -28.4686  -23.9907   19.6443 H   0  0  0  0  0  0
  -30.0648  -24.6347   19.9362 H   0  0  0  0  0  0
  -30.6982  -22.0110   20.3166 H   0  0  0  0  0  0
  -29.0092  -21.5273   20.2770 H   0  0  0  0  0  0
  -29.0914  -26.0253   21.8505 H   0  0  0  0  0  0
  -27.5074  -25.4180   21.4340 H   0  0  0  0  0  0
  -29.3291  -14.8766   22.0168 H   0  0  0  0  0  0
  -29.9436  -21.2999   22.9597 H   0  0  0  0  0  0
  1 25  1  0  0  0
  1 30  2  0  0  0
  1 82  1  0  0  0
  2  3  1  0  0  0
  2 25  1  0  0  0
  2 85  1  0  0  0
  2 86  1  0  0  0
  3  4  1  0  0  0
  3 87  1  0  0  0
  3 88  1  0  0  0
  4  5  1  0  0  0
  4 89  1  0  0  0
  4 90  1  0  0  0
  5  6  1  0  0  0
  5 26  1  0  0  0
  5 91  1  0  0  0
  6 25  1  0  0  0
  6 92  1  0  0  0
  6 93  1  0  0  0
  7  8  2  0  0  0
  7 26  1  0  0  0
  7 29  1  0  0  0
  8  9  1  0  0  0
  8 22  1  0  0  0
  9 10  1  0  0  0
  9 27  2  0  0  0
 10 11  2  0  0  0
 10 15  1  0  0  0
 11 12  1  0  0  0
 11 94  1  0  0  0
 12 13  2  0  0  0
 12 95  1  0  0  0
 13 14  1  0  0  0
 13 31  1  0  0  0
 14 15  2  0  0  0
 14 96  1  0  0  0
 15 97  1  0  0  0
 16 17  2  0  0  0
 16 21  1  0  0  0
 16 31  1  0  0  0
 17 18  1  0  0  0
 17 98  1  0  0  0
 18 19  2  0  0  0
 18 99  1  0  0  0
 19 20  1  0  0  0
 19 24  1  0  0  0
 20 21  2  0  0  0
 20100  1  0  0  0
 21 23  1  0  0  0
 22 28  1  0  0  0
 22 32  2  0  0  0
 26 27  1  0  0  0
 28101  1  0  0  0
 28102  1  0  0  0
 29103  1  0  0  0
 29104  1  0  0  0
 33 34  1  0  0  0
 33 66  1  0  0  0
 33 70  2  0  0  0
 34 36  1  0  0  0
 34 59  1  0  0  0
 34105  1  0  0  0
 35 44  2  0  0  0
 35 45  1  0  0  0
 35 68  1  0  0  0
 36 56  1  0  0  0
 36106  1  0  0  0
 37 39  1  0  0  0
 37 47  1  0  0  0
 37 66  1  0  0  0
 37107  1  0  0  0
 38 43  2  0  0  0
 38 46  1  0  0  0
 38 47  1  0  0  0
 39 64  1  0  0  0
 39 67  2  0  0  0
 40 52  1  0  0  0
 40 53  2  0  0  0
 40 58  1  0  0  0
 41108  1  0  0  0
 41109  1  0  0  0
 41110  1  0  0  0
 41 48  1  0  0  0
 42 43  1  0  0  0
 42 66  1  0  0  0
 42111  1  0  0  0
 42112  1  0  0  0
 43 44  1  0  0  0
 44113  1  0  0  0
 45 46  2  0  0  0
 45114  1  0  0  0
 46115  1  0  0  0
 47116  1  0  0  0
 47117  1  0  0  0
 48 56  1  0  0  0
 48 65  1  0  0  0
 48118  1  0  0  0
 49 50  1  0  0  0
 49 53  1  0  0  0
 49 64  1  0  0  0
 49119  1  0  0  0
 50 51  1  0  0  0
 50120  1  0  0  0
 50121  1  0  0  0
 51 52  1  0  0  0
 51122  1  0  0  0
 51123  1  0  0  0
 52124  1  0  0  0
 52125  1  0  0  0
 53 54  1  0  0  0
 54 55  2  0  0  0
 54126  1  0  0  0
 55 57  1  0  0  0
 55127  1  0  0  0
 56 69  2  0  0  0
 57 58  2  0  0  0
 57128  1  0  0  0
 58129  1  0  0  0
 59 60  1  0  0  0
 59 61  1  0  0  0
 59 62  1  0  0  0
 60130  1  0  0  0
 60131  1  0  0  0
 60132  1  0  0  0
 61133  1  0  0  0
 61134  1  0  0  0
 61135  1  0  0  0
 62136  1  0  0  0
 62137  1  0  0  0
 62138  1  0  0  0
 63 65  1  0  0  0
 63139  1  0  0  0
 63140  1  0  0  0
 63141  1  0  0  0
 64142  1  0  0  0
 65143  1  0  0  0
 68 81  1  0  0  0
 71 73  2  0  0  0
 71 74  1  0  0  0
 71144  1  0  0  0
 72 74  2  0  0  0
 72 76  1  0  0  0
 72145  1  0  0  0
 73 75  1  0  0  0
 73 77  1  0  0  0
 74 83  1  0  0  0
 75 76  2  0  0  0
 75 82  1  0  0  0
 76 84  1  0  0  0
 77146  1  0  0  0
 77147  1  0  0  0
 77148  1  0  0  0
 78 79  1  0  0  0
 78 80  1  0  0  0
 78149  1  0  0  0
 78150  1  0  0  0
 79 81  1  0  0  0
 79151  1  0  0  0
 79152  1  0  0  0
 80 83  1  0  0  0
 80153  1  0  0  0
 80154  1  0  0  0
 81155  1  0  0  0
 81156  1  0  0  0
 82157  1  0  0  0
 83158  1  0  0  0
M  ISO  4   1 100  68 101  81 101  82 100
M  END
> <chiral flag>
0

> <version>
0

> <s_m_source_file>
/data/baiqing/PycharmProjects/Reinvent-master-3.2/result/LINK_invent/BTK/process_docking_weight1_custom_product_contain_oxygen_bond_distance_aromatic_linkinvent_7_9_3/rearranged_h_0102.sdf

> <i_m_source_file_index>
40

> <r_mmod_Potential_Energy-OPLS-2005>
-92.6994171142578

> <r_mmod_Stretch_Energy-OPLS-2005>
35.7930564880371

> <r_mmod_Bend_Energy-OPLS-2005>
102.931694030762

> <r_mmod_Torsional_Energy-OPLS-2005>
236.443878173828

> <r_mmod_Improper_Torsional_Energy-OPLS-2005>
3.44106245040894

> <r_mmod_Van_der_Waal_Energy-OPLS-2005>
150.702178955078

> <r_mmod_Electrostatic_Energy-OPLS-2005>
-414.596130371094

> <r_mmod_Solvation_Energy-OPLS-2005>
-216.319961547852

> <b_mmod_Minimization_Converged-OPLS-2005>
0

> <r_mmod_RMS_Derivative-OPLS-2005>
1.82125687599182

$$$$
41
                    3D
 Structure written by MMmdl.
150159  0  0  1  0            999 V2000
  -30.5619  -14.8271   20.4305 C   0  0  0  0  0  0
  -30.4428  -12.4947   19.4955 C   0  0  0  0  0  0
  -29.5233  -12.5170   18.2513 C   0  0  0  0  0  0
  -28.0480  -12.3294   18.6569 C   0  0  0  0  0  0
  -27.6408  -13.2383   19.8462 C   0  0  2  0  0  0
  -28.6822  -13.1974   20.9837 C   0  0  0  0  0  0
  -25.2513  -13.8205   20.5698 C   0  0  0  0  0  0
  -24.1806  -13.0443   20.9202 C   0  0  0  0  0  0
  -24.6404  -11.6922   20.8735 C   0  0  0  0  0  0
  -23.9080  -10.4296   21.0399 C   0  0  0  0  0  0
  -24.3628   -9.4211   21.9180 C   0  0  0  0  0  0
  -23.6299   -8.2248   22.0754 C   0  0  0  0  0  0
  -22.4280   -8.0284   21.3545 C   0  0  0  0  0  0
  -21.9917   -9.0259   20.4647 C   0  0  0  0  0  0
  -22.7250  -10.2136   20.3052 C   0  0  0  0  0  0
  -21.6856   -6.0738   22.5279 C   0  0  0  0  0  0
  -21.4016   -6.5641   23.8212 C   0  0  0  0  0  0
  -21.3660   -5.6793   24.9174 C   0  0  0  0  0  0
  -21.6044   -4.3056   24.7225 C   0  0  0  0  0  0
  -21.8819   -3.8148   23.4346 C   0  0  0  0  0  0
  -21.9194   -4.6965   22.3402 C   0  0  0  0  0  0
  -22.7827  -13.5220   21.1867 C   0  0  0  0  0  0
  -22.1661   -4.2150   21.0980 F   0  0  0  0  0  0
  -21.5628   -3.4539   25.7737 F   0  0  0  0  0  0
  -29.9842  -13.5671   20.4156 N   0  0  0  0  0  0
  -26.2938  -12.9421   20.3254 N   0  0  0  0  0  0
  -25.9337  -11.6558   20.5727 N   0  0  0  0  0  0
  -22.0478  -12.8206   22.0424 N   0  0  0  0  0  0
  -25.4210  -15.1932   20.4145 N   0  0  0  0  0  0
  -31.7579  -14.8960   20.1227 O   0  0  0  0  0  0
  -21.6643   -6.8882   21.4241 O   0  0  0  0  0  0
  -22.3507  -14.5526   20.6718 O   0  0  0  0  0  0
  -24.6379  -31.8505   23.1950 C   0  0  0  0  0  0
  -25.9179  -32.4729   23.8312 C   0  0  1  0  0  0
  -27.2178  -27.2022   20.1190 C   0  0  0  0  0  0
  -25.5952  -33.8533   24.2229 N   0  0  0  0  0  0
  -23.4370  -30.4748   21.5398 C   0  0  2  0  0  0
  -24.8834  -28.9191   20.1066 C   0  0  0  0  0  0
  -22.7538  -29.4584   22.4881 C   0  0  0  0  0  0
  -18.0300  -28.1393   22.8480 C   0  0  0  0  0  0
  -24.1491  -36.7268   23.2641 C   0  0  0  0  0  0
  -25.9900  -30.7437   21.3854 C   0  0  0  0  0  0
  -26.0595  -29.3635   20.7217 C   0  0  0  0  0  0
  -27.2240  -28.5175   20.7199 C   0  0  0  0  0  0
  -26.0035  -26.8414   19.4862 C   0  0  0  0  0  0
  -24.8645  -27.6678   19.4795 C   0  0  0  0  0  0
  -23.6581  -29.8131   20.1553 C   0  0  0  0  0  0
  -25.4120  -36.3051   24.0322 C   0  0  1  0  0  0
  -20.5910  -28.3713   23.1247 C   0  0  2  0  0  0
  -20.6786  -26.9423   22.5401 C   0  0  0  0  0  0
  -19.5759  -26.6383   21.5210 C   0  0  0  0  0  0
  -18.1941  -26.7933   22.1624 C   0  0  0  0  0  0
  -19.1556  -28.8870   23.2858 C   0  0  0  0  0  0
  -18.9474  -30.1468   23.8882 C   0  0  0  0  0  0
  -17.6472  -30.6592   24.0561 C   0  0  0  0  0  0
  -25.9067  -34.9425   23.5078 C   0  0  0  0  0  0
  -16.5363  -29.9087   23.6335 C   0  0  0  0  0  0
  -16.7285  -28.6504   23.0357 C   0  0  0  0  0  0
  -26.4519  -31.6576   25.0729 C   0  0  0  0  0  0
  -25.3718  -31.3750   26.1434 C   0  0  0  0  0  0
  -27.0379  -30.2981   24.6271 C   0  0  0  0  0  0
  -27.6059  -32.4333   25.7509 C   0  0  0  0  0  0
  -27.5575  -37.1793   24.8467 C   0  0  0  0  0  0
  -21.4237  -29.3052   22.3628 N   0  0  0  0  0  0
  -26.4289  -37.3758   23.9408 N   0  0  0  0  0  0
  -24.7079  -31.0422   22.0954 N   0  0  0  0  0  0
  -23.4212  -28.8118   23.2996 O   0  0  0  0  0  0
  -28.2934  -26.2620   20.2201 O   0  0  0  0  0  0
  -26.5643  -34.8911   22.4651 O   0  0  0  0  0  0
  -23.5513  -32.1355   23.7208 O   0  0  0  0  0  0
  -28.0919  -22.3037   19.7492 C   0  0  0  0  0  0
  -28.8096  -21.0819   20.1525 C   0  0  0  0  0  0
  -29.9653  -21.3709   20.7536 C   0  0  0  0  0  0
  -28.7231  -23.5387   20.0269 C   0  0  0  0  0  0
  -30.4307  -17.6047   20.8818 C   0  0  0  0  0  0
  -28.6993  -19.5263   20.0740 C   0  0  0  0  0  0
  -30.7475  -20.1276   21.1292 C   0  0  0  0  0  0
  -28.3625  -24.9783   19.4046 C   0  0  0  0  0  0
  -29.6787  -16.2057   20.5566 C   0  0  0  0  0  0
  -29.9527  -18.9232   20.6826 N   0  0  0  0  0  0
  -31.5355  -17.5004   21.4255 O   0  0  0  0  0  0
  -30.2445  -23.1278   20.8677 S   0  0  0  0  0  0
  -31.4831  -12.6249   19.1937 H   0  0  0  0  0  0
  -30.3981  -11.5235   19.9909 H   0  0  0  0  0  0
  -29.8197  -11.7375   17.5483 H   0  0  0  0  0  0
  -29.6415  -13.4655   17.7249 H   0  0  0  0  0  0
  -27.9142  -11.2823   18.9312 H   0  0  0  0  0  0
  -27.3932  -12.5056   17.8027 H   0  0  0  0  0  0
  -27.6268  -14.2552   19.4543 H   0  0  0  0  0  0
  -28.7283  -12.2035   21.4314 H   0  0  0  0  0  0
  -28.4019  -13.8778   21.7883 H   0  0  0  0  0  0
  -25.2772   -9.5686   22.4755 H   0  0  0  0  0  0
  -24.0006   -7.4640   22.7474 H   0  0  0  0  0  0
  -21.0848   -8.8779   19.8953 H   0  0  0  0  0  0
  -22.3708  -10.9674   19.6161 H   0  0  0  0  0  0
  -21.2009   -7.6150   23.9716 H   0  0  0  0  0  0
  -21.1482   -6.0524   25.9077 H   0  0  0  0  0  0
  -22.0597   -2.7610   23.2846 H   0  0  0  0  0  0
  -22.4100  -11.9868   22.4807 H   0  0  0  0  0  0
  -21.1094  -13.1225   22.2636 H   0  0  0  0  0  0
  -24.6548  -15.8477   20.5296 H   0  0  0  0  0  0
  -26.2731  -15.6344   20.0936 H   0  0  0  0  0  0
  -26.7243  -32.5350   23.1043 H   0  0  0  0  0  0
  -25.0094  -33.9661   25.0371 H   0  0  0  0  0  0
  -22.7365  -31.2996   21.3931 H   0  0  0  0  0  0
  -23.3756  -35.9596   23.3300 H   0  0  0  0  0  0
  -24.3577  -36.8898   22.2056 H   0  0  0  0  0  0
  -23.7241  -37.6465   23.6674 H   0  0  0  0  0  0
  -26.1413  -31.5040   20.6180 H   0  0  0  0  0  0
  -26.8627  -30.7875   22.0254 H   0  0  0  0  0  0
  -28.1191  -28.8520   21.2254 H   0  0  0  0  0  0
  -25.8524  -25.8804   19.0270 H   0  0  0  0  0  0
  -23.9599  -27.3152   19.0030 H   0  0  0  0  0  0
  -23.7893  -30.5918   19.4032 H   0  0  0  0  0  0
  -22.7739  -29.2535   19.8451 H   0  0  0  0  0  0
  -25.1305  -36.1889   25.0814 H   0  0  0  0  0  0
  -21.0003  -28.3296   24.1368 H   0  0  0  0  0  0
  -20.5682  -26.2326   23.3614 H   0  0  0  0  0  0
  -21.6653  -26.7437   22.1196 H   0  0  0  0  0  0
  -19.6922  -25.6289   21.1250 H   0  0  0  0  0  0
  -19.6694  -27.3185   20.6733 H   0  0  0  0  0  0
  -17.4208  -26.6675   21.4029 H   0  0  0  0  0  0
  -18.0344  -26.0079   22.9026 H   0  0  0  0  0  0
  -19.7950  -30.7287   24.2244 H   0  0  0  0  0  0
  -17.5027  -31.6271   24.5165 H   0  0  0  0  0  0
  -15.5363  -30.2985   23.7670 H   0  0  0  0  0  0
  -15.8684  -28.0819   22.7082 H   0  0  0  0  0  0
  -24.5905  -30.7086   25.7759 H   0  0  0  0  0  0
  -24.8897  -32.2926   26.4815 H   0  0  0  0  0  0
  -25.8015  -30.8956   27.0239 H   0  0  0  0  0  0
  -26.2985  -29.6713   24.1271 H   0  0  0  0  0  0
  -27.4006  -29.7266   25.4824 H   0  0  0  0  0  0
  -27.8887  -30.4235   23.9571 H   0  0  0  0  0  0
  -27.2660  -33.3652   26.2040 H   0  0  0  0  0  0
  -28.3895  -32.6861   25.0354 H   0  0  0  0  0  0
  -28.0698  -31.8486   26.5463 H   0  0  0  0  0  0
  -28.2592  -38.0091   24.7509 H   0  0  0  0  0  0
  -28.1071  -36.2619   24.6300 H   0  0  0  0  0  0
  -27.2292  -37.1448   25.8870 H   0  0  0  0  0  0
  -20.9432  -29.8780   21.6831 H   0  0  0  0  0  0
  -26.0159  -38.2828   24.1409 H   0  0  0  0  0  0
  -27.1641  -22.2303   19.1986 H   0  0  0  0  0  0
  -28.6009  -19.1923   19.0407 H   0  0  0  0  0  0
  -27.8243  -19.1680   20.6172 H   0  0  0  0  0  0
  -30.9104  -20.0914   22.2073 H   0  0  0  0  0  0
  -31.7252  -20.1333   20.6452 H   0  0  0  0  0  0
  -27.5092  -24.8362   18.7524 H   0  0  0  0  0  0
  -29.1546  -25.1918   18.6868 H   0  0  0  0  0  0
  -29.1361  -16.3335   19.6210 H   0  0  0  0  0  0
  -28.9244  -16.0667   21.3290 H   0  0  0  0  0  0
  1 25  1  0  0  0
  1 30  2  0  0  0
  1 79  1  0  0  0
  2  3  1  0  0  0
  2 25  1  0  0  0
  2 83  1  0  0  0
  2 84  1  0  0  0
  3  4  1  0  0  0
  3 85  1  0  0  0
  3 86  1  0  0  0
  4  5  1  0  0  0
  4 87  1  0  0  0
  4 88  1  0  0  0
  5  6  1  0  0  0
  5 26  1  0  0  0
  5 89  1  0  0  0
  6 25  1  0  0  0
  6 90  1  0  0  0
  6 91  1  0  0  0
  7  8  2  0  0  0
  7 26  1  0  0  0
  7 29  1  0  0  0
  8  9  1  0  0  0
  8 22  1  0  0  0
  9 10  1  0  0  0
  9 27  2  0  0  0
 10 11  2  0  0  0
 10 15  1  0  0  0
 11 12  1  0  0  0
 11 92  1  0  0  0
 12 13  2  0  0  0
 12 93  1  0  0  0
 13 14  1  0  0  0
 13 31  1  0  0  0
 14 15  2  0  0  0
 14 94  1  0  0  0
 15 95  1  0  0  0
 16 17  2  0  0  0
 16 21  1  0  0  0
 16 31  1  0  0  0
 17 18  1  0  0  0
 17 96  1  0  0  0
 18 19  2  0  0  0
 18 97  1  0  0  0
 19 20  1  0  0  0
 19 24  1  0  0  0
 20 21  2  0  0  0
 20 98  1  0  0  0
 21 23  1  0  0  0
 22 28  1  0  0  0
 22 32  2  0  0  0
 26 27  1  0  0  0
 28 99  1  0  0  0
 28100  1  0  0  0
 29101  1  0  0  0
 29102  1  0  0  0
 33 34  1  0  0  0
 33 66  1  0  0  0
 33 70  2  0  0  0
 34 36  1  0  0  0
 34 59  1  0  0  0
 34103  1  0  0  0
 35 44  2  0  0  0
 35 45  1  0  0  0
 35 68  1  0  0  0
 36 56  1  0  0  0
 36104  1  0  0  0
 37 39  1  0  0  0
 37 47  1  0  0  0
 37 66  1  0  0  0
 37105  1  0  0  0
 38 43  2  0  0  0
 38 46  1  0  0  0
 38 47  1  0  0  0
 39 64  1  0  0  0
 39 67  2  0  0  0
 40 52  1  0  0  0
 40 53  2  0  0  0
 40 58  1  0  0  0
 41106  1  0  0  0
 41107  1  0  0  0
 41108  1  0  0  0
 41 48  1  0  0  0
 42 43  1  0  0  0
 42 66  1  0  0  0
 42109  1  0  0  0
 42110  1  0  0  0
 43 44  1  0  0  0
 44111  1  0  0  0
 45 46  2  0  0  0
 45112  1  0  0  0
 46113  1  0  0  0
 47114  1  0  0  0
 47115  1  0  0  0
 48 56  1  0  0  0
 48 65  1  0  0  0
 48116  1  0  0  0
 49 50  1  0  0  0
 49 53  1  0  0  0
 49 64  1  0  0  0
 49117  1  0  0  0
 50 51  1  0  0  0
 50118  1  0  0  0
 50119  1  0  0  0
 51 52  1  0  0  0
 51120  1  0  0  0
 51121  1  0  0  0
 52122  1  0  0  0
 52123  1  0  0  0
 53 54  1  0  0  0
 54 55  2  0  0  0
 54124  1  0  0  0
 55 57  1  0  0  0
 55125  1  0  0  0
 56 69  2  0  0  0
 57 58  2  0  0  0
 57126  1  0  0  0
 58127  1  0  0  0
 59 60  1  0  0  0
 59 61  1  0  0  0
 59 62  1  0  0  0
 60128  1  0  0  0
 60129  1  0  0  0
 60130  1  0  0  0
 61131  1  0  0  0
 61132  1  0  0  0
 61133  1  0  0  0
 62134  1  0  0  0
 62135  1  0  0  0
 62136  1  0  0  0
 63 65  1  0  0  0
 63137  1  0  0  0
 63138  1  0  0  0
 63139  1  0  0  0
 64140  1  0  0  0
 65141  1  0  0  0
 68 78  1  0  0  0
 71 72  1  0  0  0
 71 74  2  0  0  0
 71142  1  0  0  0
 72 73  2  0  0  0
 72 76  1  0  0  0
 73 77  1  0  0  0
 73 82  1  0  0  0
 74 78  1  0  0  0
 74 82  1  0  0  0
 75 79  1  0  0  0
 75 80  1  0  0  0
 75 81  2  0  0  0
 76 80  1  0  0  0
 76143  1  0  0  0
 76144  1  0  0  0
 77 80  1  0  0  0
 77145  1  0  0  0
 77146  1  0  0  0
 78147  1  0  0  0
 78148  1  0  0  0
 79149  1  0  0  0
 79150  1  0  0  0
M  ISO  4   1 100  68 101  78 101  79 100
M  END
> <chiral flag>
0

> <version>
0

> <s_m_source_file>
/data/baiqing/PycharmProjects/Reinvent-master-3.2/result/LINK_invent/BTK/process_docking_weight1_custom_product_contain_oxygen_bond_distance_aromatic_linkinvent_7_9_3/rearranged_h_0102.sdf

> <i_m_source_file_index>
41

> <r_mmod_Potential_Energy-OPLS-2005>
360.477355957031

> <r_mmod_Stretch_Energy-OPLS-2005>
166.345062255859

> <r_mmod_Bend_Energy-OPLS-2005>
302.090179443359

> <r_mmod_Torsional_Energy-OPLS-2005>
198.369216918945

> <r_mmod_Improper_Torsional_Energy-OPLS-2005>
8.45063781738281

> <r_mmod_Van_der_Waal_Energy-OPLS-2005>
118.255249023438

> <r_mmod_Electrostatic_Energy-OPLS-2005>
-308.224609375

> <r_mmod_Solvation_Energy-OPLS-2005>
-249.479827880859

> <b_mmod_Minimization_Converged-OPLS-2005>
0

> <r_mmod_RMS_Derivative-OPLS-2005>
0.193555474281311

$$$$
42
                    3D
 Structure written by MMmdl.
163172  0  0  1  0            999 V2000
  -30.6552  -14.6880   20.3423 C   0  0  0  0  0  0
  -30.4351  -12.3986   19.4228 C   0  0  0  0  0  0
  -29.4800  -12.4020   18.2072 C   0  0  0  0  0  0
  -28.0108  -12.2861   18.6508 C   0  0  0  0  0  0
  -27.6407  -13.2168   19.8365 C   0  0  2  0  0  0
  -28.7074  -13.1825   20.9494 C   0  0  0  0  0  0
  -25.2528  -13.8148   20.5768 C   0  0  0  0  0  0
  -24.1825  -13.0398   20.9265 C   0  0  0  0  0  0
  -24.6407  -11.6890   20.8774 C   0  0  0  0  0  0
  -23.9071  -10.4273   21.0416 C   0  0  0  0  0  0
  -24.3629   -9.4205   21.9202 C   0  0  0  0  0  0
  -23.6308   -8.2240   22.0771 C   0  0  0  0  0  0
  -22.4286   -8.0279   21.3562 C   0  0  0  0  0  0
  -21.9916   -9.0251   20.4678 C   0  0  0  0  0  0
  -22.7235  -10.2125   20.3084 C   0  0  0  0  0  0
  -21.6872   -6.0737   22.5271 C   0  0  0  0  0  0
  -21.4001   -6.5652   23.8189 C   0  0  0  0  0  0
  -21.3633   -5.6820   24.9157 C   0  0  0  0  0  0
  -21.6039   -4.3081   24.7222 C   0  0  0  0  0  0
  -21.8822   -3.8158   23.4346 C   0  0  0  0  0  0
  -21.9210   -4.6966   22.3394 C   0  0  0  0  0  0
  -22.7830  -13.5167   21.1897 C   0  0  0  0  0  0
  -22.1687   -4.2130   21.0975 F   0  0  0  0  0  0
  -21.5640   -3.4577   25.7739 F   0  0  0  0  0  0
  -29.9989  -13.4836   20.3221 N   0  0  0  0  0  0
  -26.2980  -12.9368   20.3365 N   0  0  0  0  0  0
  -25.9344  -11.6516   20.5855 N   0  0  0  0  0  0
  -22.0496  -12.8132   22.0436 N   0  0  0  0  0  0
  -25.4002  -15.1860   20.4154 N   0  0  0  0  0  0
  -31.8865  -14.7204   20.3367 O   0  0  0  0  0  0
  -21.6661   -6.8874   21.4230 O   0  0  0  0  0  0
  -22.3487  -14.5458   20.6735 O   0  0  0  0  0  0
  -24.6250  -31.8585   23.1997 C   0  0  0  0  0  0
  -25.9102  -32.4752   23.8307 C   0  0  1  0  0  0
  -27.2245  -27.3188   20.1069 C   0  0  0  0  0  0
  -25.5912  -33.8552   24.2241 N   0  0  0  0  0  0
  -23.4151  -30.4813   21.5440 C   0  0  2  0  0  0
  -24.8604  -28.9352   20.1050 C   0  0  0  0  0  0
  -22.7425  -29.4642   22.4937 C   0  0  0  0  0  0
  -18.0282  -28.1388   22.8483 C   0  0  0  0  0  0
  -24.1485  -36.7304   23.2627 C   0  0  0  0  0  0
  -25.9536  -30.7900   21.3651 C   0  0  0  0  0  0
  -26.0265  -29.4161   20.7086 C   0  0  0  0  0  0
  -27.2077  -28.6201   20.7012 C   0  0  0  0  0  0
  -26.0309  -26.8860   19.4865 C   0  0  0  0  0  0
  -24.8637  -27.6743   19.4881 C   0  0  0  0  0  0
  -23.6256  -29.8113   20.1594 C   0  0  0  0  0  0
  -25.4102  -36.3062   24.0315 C   0  0  1  0  0  0
  -20.5863  -28.3705   23.1309 C   0  0  2  0  0  0
  -20.6775  -26.9417   22.5448 C   0  0  0  0  0  0
  -19.5783  -26.6384   21.5228 C   0  0  0  0  0  0
  -18.1944  -26.7947   22.1588 C   0  0  0  0  0  0
  -19.1525  -28.8854   23.2909 C   0  0  0  0  0  0
  -18.9446  -30.1452   23.8933 C   0  0  0  0  0  0
  -17.6442  -30.6578   24.0565 C   0  0  0  0  0  0
  -25.9043  -34.9432   23.5083 C   0  0  0  0  0  0
  -16.5335  -29.9078   23.6307 C   0  0  0  0  0  0
  -16.7267  -28.6494   23.0328 C   0  0  0  0  0  0
  -26.4460  -31.6576   25.0691 C   0  0  0  0  0  0
  -25.3676  -31.3758   26.1417 C   0  0  0  0  0  0
  -27.0284  -30.2987   24.6151 C   0  0  0  0  0  0
  -27.6013  -32.4304   25.7492 C   0  0  0  0  0  0
  -27.5561  -37.1803   24.8451 C   0  0  0  0  0  0
  -21.4139  -29.3058   22.3684 N   0  0  0  0  0  0
  -26.4268  -37.3769   23.9397 N   0  0  0  0  0  0
  -24.6837  -31.0607   22.0928 N   0  0  0  0  0  0
  -23.4153  -28.8202   23.3028 O   0  0  0  0  0  0
  -28.3717  -26.5128   20.1718 O   0  0  0  0  0  0
  -26.5628  -34.8914   22.4669 O   0  0  0  0  0  0
  -23.5434  -32.1353   23.7354 O   0  0  0  0  0  0
  -30.2061  -19.3226   20.9363 C   0  0  0  0  0  0
  -30.5349  -17.9451   20.7229 C   0  0  0  0  0  0
  -28.0442  -18.9594   19.9548 C   0  0  0  0  0  0
  -28.9502  -19.8721   20.5591 C   0  0  0  0  0  0
  -29.6225  -17.0341   20.1220 C   0  0  0  0  0  0
  -28.3705  -17.5911   19.7272 C   0  0  0  0  0  0
  -26.9439  -23.7026   21.2253 C   0  0  0  0  0  0
  -26.3350  -22.3030   21.2186 C   0  0  0  0  0  0
  -27.3614  -21.2838   21.7366 C   0  0  0  0  0  0
  -28.8512  -22.4269   20.0450 C   0  0  0  0  0  0
  -28.3483  -23.8498   20.6187 C   0  0  2  0  0  0
  -30.3839  -15.7630   18.2221 C   0  0  0  0  0  0
  -28.4383  -25.1233   19.6517 C   0  0  0  0  0  0
  -28.5614  -21.2189   20.8938 N   0  0  0  0  0  0
  -27.4462  -16.8006   19.0441 N   0  0  0  0  0  0
  -30.0124  -15.6990   19.6502 N   0  0  0  0  0  0
  -26.3473  -24.6473   21.7492 O   0  0  0  0  0  0
  -31.4674  -12.5276   19.0877 H   0  0  0  0  0  0
  -30.4048  -11.4397   19.9420 H   0  0  0  0  0  0
  -29.7286  -11.5703   17.5470 H   0  0  0  0  0  0
  -29.6074  -13.2989   17.6044 H   0  0  0  0  0  0
  -27.8471  -11.2480   18.9404 H   0  0  0  0  0  0
  -27.3460  -12.4669   17.8052 H   0  0  0  0  0  0
  -27.6273  -14.2234   19.4295 H   0  0  0  0  0  0
  -28.7418  -12.2067   21.4364 H   0  0  0  0  0  0
  -28.4793  -13.9209   21.7201 H   0  0  0  0  0  0
  -25.2758   -9.5698   22.4805 H   0  0  0  0  0  0
  -24.0031   -7.4627   22.7485 H   0  0  0  0  0  0
  -21.0862   -8.8785   19.8971 H   0  0  0  0  0  0
  -22.3712  -10.9698   19.6229 H   0  0  0  0  0  0
  -21.1979   -7.6157   23.9672 H   0  0  0  0  0  0
  -21.1447   -6.0562   25.9054 H   0  0  0  0  0  0
  -22.0620   -2.7619   23.2869 H   0  0  0  0  0  0
  -22.4137  -11.9772   22.4767 H   0  0  0  0  0  0
  -21.1117  -13.1141   22.2651 H   0  0  0  0  0  0
  -24.6007  -15.8056   20.4765 H   0  0  0  0  0  0
  -26.2179  -15.6531   20.0137 H   0  0  0  0  0  0
  -26.7170  -32.5407   23.1054 H   0  0  0  0  0  0
  -24.9974  -33.9673   25.0321 H   0  0  0  0  0  0
  -22.7102  -31.3027   21.4019 H   0  0  0  0  0  0
  -23.3717  -35.9673   23.3298 H   0  0  0  0  0  0
  -24.3556  -36.8911   22.2030 H   0  0  0  0  0  0
  -23.7276  -37.6522   23.6654 H   0  0  0  0  0  0
  -26.0759  -31.5526   20.5941 H   0  0  0  0  0  0
  -26.8366  -30.8429   21.9911 H   0  0  0  0  0  0
  -28.1058  -28.9922   21.1766 H   0  0  0  0  0  0
  -25.9545  -25.9184   19.0171 H   0  0  0  0  0  0
  -23.9655  -27.2946   19.0200 H   0  0  0  0  0  0
  -23.7348  -30.5861   19.3966 H   0  0  0  0  0  0
  -22.7452  -29.2379   19.8659 H   0  0  0  0  0  0
  -25.1298  -36.1893   25.0809 H   0  0  0  0  0  0
  -20.9968  -28.3278   24.1420 H   0  0  0  0  0  0
  -20.5657  -26.2295   23.3644 H   0  0  0  0  0  0
  -21.6647  -26.7423   22.1266 H   0  0  0  0  0  0
  -19.6954  -25.6301   21.1249 H   0  0  0  0  0  0
  -19.6775  -27.3200   20.6764 H   0  0  0  0  0  0
  -17.4246  -26.6729   21.3945 H   0  0  0  0  0  0
  -18.0309  -26.0044   22.8936 H   0  0  0  0  0  0
  -19.7913  -30.7261   24.2327 H   0  0  0  0  0  0
  -17.4986  -31.6263   24.5174 H   0  0  0  0  0  0
  -15.5350  -30.2993   23.7606 H   0  0  0  0  0  0
  -15.8664  -28.0828   22.7016 H   0  0  0  0  0  0
  -24.5857  -30.7091   25.7759 H   0  0  0  0  0  0
  -24.8858  -32.2941   26.4789 H   0  0  0  0  0  0
  -25.7978  -30.8958   27.0221 H   0  0  0  0  0  0
  -26.2848  -29.6787   24.1108 H   0  0  0  0  0  0
  -27.3881  -29.7212   25.4683 H   0  0  0  0  0  0
  -27.8778  -30.4261   23.9435 H   0  0  0  0  0  0
  -27.2604  -33.3609   26.2077 H   0  0  0  0  0  0
  -28.3843  -32.6867   25.0334 H   0  0  0  0  0  0
  -28.0668  -31.8406   26.5399 H   0  0  0  0  0  0
  -28.2598  -38.0089   24.7479 H   0  0  0  0  0  0
  -28.1052  -36.2607   24.6321 H   0  0  0  0  0  0
  -27.2276  -37.1510   25.8861 H   0  0  0  0  0  0
  -20.9293  -29.8716   21.6843 H   0  0  0  0  0  0
  -26.0137  -38.2843   24.1400 H   0  0  0  0  0  0
  -30.9341  -19.9610   21.4125 H   0  0  0  0  0  0
  -31.5277  -17.6039   20.9843 H   0  0  0  0  0  0
  -27.0723  -19.3198   19.6511 H   0  0  0  0  0  0
  -26.0142  -22.0572   20.2040 H   0  0  0  0  0  0
  -25.4414  -22.2933   21.8436 H   0  0  0  0  0  0
  -26.8790  -20.3095   21.8457 H   0  0  0  0  0  0
  -27.6724  -21.5642   22.7451 H   0  0  0  0  0  0
  -29.9283  -22.4694   19.8742 H   0  0  0  0  0  0
  -28.4042  -22.2665   19.0638 H   0  0  0  0  0  0
  -28.9963  -24.0641   21.4674 H   0  0  0  0  0  0
  -29.4908  -15.6882   17.6018 H   0  0  0  0  0  0
  -31.0765  -14.9828   17.8961 H   0  0  0  0  0  0
  -30.8672  -16.7123   17.9861 H   0  0  0  0  0  0
  -27.7977  -24.9843   18.7840 H   0  0  0  0  0  0
  -29.4379  -25.0743   19.2183 H   0  0  0  0  0  0
  -27.8495  -16.0101   18.5556 H   0  0  0  0  0  0
  -26.7692  -17.2879   18.4660 H   0  0  0  0  0  0
  1 25  1  0  0  0
  1 30  2  0  0  0
  1 86  1  0  0  0
  2  3  1  0  0  0
  2 25  1  0  0  0
  2 88  1  0  0  0
  2 89  1  0  0  0
  3  4  1  0  0  0
  3 90  1  0  0  0
  3 91  1  0  0  0
  4  5  1  0  0  0
  4 92  1  0  0  0
  4 93  1  0  0  0
  5  6  1  0  0  0
  5 26  1  0  0  0
  5 94  1  0  0  0
  6 25  1  0  0  0
  6 95  1  0  0  0
  6 96  1  0  0  0
  7  8  2  0  0  0
  7 26  1  0  0  0
  7 29  1  0  0  0
  8  9  1  0  0  0
  8 22  1  0  0  0
  9 10  1  0  0  0
  9 27  2  0  0  0
 10 11  2  0  0  0
 10 15  1  0  0  0
 11 12  1  0  0  0
 11 97  1  0  0  0
 12 13  2  0  0  0
 12 98  1  0  0  0
 13 14  1  0  0  0
 13 31  1  0  0  0
 14 15  2  0  0  0
 14 99  1  0  0  0
 15100  1  0  0  0
 16 17  2  0  0  0
 16 21  1  0  0  0
 16 31  1  0  0  0
 17 18  1  0  0  0
 17101  1  0  0  0
 18 19  2  0  0  0
 18102  1  0  0  0
 19 20  1  0  0  0
 19 24  1  0  0  0
 20 21  2  0  0  0
 20103  1  0  0  0
 21 23  1  0  0  0
 22 28  1  0  0  0
 22 32  2  0  0  0
 26 27  1  0  0  0
 28104  1  0  0  0
 28105  1  0  0  0
 29106  1  0  0  0
 29107  1  0  0  0
 33 34  1  0  0  0
 33 66  1  0  0  0
 33 70  2  0  0  0
 34 36  1  0  0  0
 34 59  1  0  0  0
 34108  1  0  0  0
 35 44  2  0  0  0
 35 45  1  0  0  0
 35 68  1  0  0  0
 36 56  1  0  0  0
 36109  1  0  0  0
 37 39  1  0  0  0
 37 47  1  0  0  0
 37 66  1  0  0  0
 37110  1  0  0  0
 38 43  2  0  0  0
 38 46  1  0  0  0
 38 47  1  0  0  0
 39 64  1  0  0  0
 39 67  2  0  0  0
 40 52  1  0  0  0
 40 53  2  0  0  0
 40 58  1  0  0  0
 41111  1  0  0  0
 41112  1  0  0  0
 41113  1  0  0  0
 41 48  1  0  0  0
 42 43  1  0  0  0
 42 66  1  0  0  0
 42114  1  0  0  0
 42115  1  0  0  0
 43 44  1  0  0  0
 44116  1  0  0  0
 45 46  2  0  0  0
 45117  1  0  0  0
 46118  1  0  0  0
 47119  1  0  0  0
 47120  1  0  0  0
 48 56  1  0  0  0
 48 65  1  0  0  0
 48121  1  0  0  0
 49 50  1  0  0  0
 49 53  1  0  0  0
 49 64  1  0  0  0
 49122  1  0  0  0
 50 51  1  0  0  0
 50123  1  0  0  0
 50124  1  0  0  0
 51 52  1  0  0  0
 51125  1  0  0  0
 51126  1  0  0  0
 52127  1  0  0  0
 52128  1  0  0  0
 53 54  1  0  0  0
 54 55  2  0  0  0
 54129  1  0  0  0
 55 57  1  0  0  0
 55130  1  0  0  0
 56 69  2  0  0  0
 57 58  2  0  0  0
 57131  1  0  0  0
 58132  1  0  0  0
 59 60  1  0  0  0
 59 61  1  0  0  0
 59 62  1  0  0  0
 60133  1  0  0  0
 60134  1  0  0  0
 60135  1  0  0  0
 61136  1  0  0  0
 61137  1  0  0  0
 61138  1  0  0  0
 62139  1  0  0  0
 62140  1  0  0  0
 62141  1  0  0  0
 63 65  1  0  0  0
 63142  1  0  0  0
 63143  1  0  0  0
 63144  1  0  0  0
 64145  1  0  0  0
 65146  1  0  0  0
 68 83  1  0  0  0
 71 72  2  0  0  0
 71 74  1  0  0  0
 71147  1  0  0  0
 72 75  1  0  0  0
 72148  1  0  0  0
 73 74  2  0  0  0
 73 76  1  0  0  0
 73149  1  0  0  0
 74 84  1  0  0  0
 75 76  2  0  0  0
 75 86  1  0  0  0
 76 85  1  0  0  0
 77 78  1  0  0  0
 77 81  1  0  0  0
 77 87  2  0  0  0
 78 79  1  0  0  0
 78150  1  0  0  0
 78151  1  0  0  0
 79 84  1  0  0  0
 79152  1  0  0  0
 79153  1  0  0  0
 80 81  1  0  0  0
 80 84  1  0  0  0
 80154  1  0  0  0
 80155  1  0  0  0
 81 83  1  0  0  0
 81156  1  0  0  0
 82 86  1  0  0  0
 82157  1  0  0  0
 82158  1  0  0  0
 82159  1  0  0  0
 83160  1  0  0  0
 83161  1  0  0  0
 85162  1  0  0  0
 85163  1  0  0  0
M  ISO  4   1 100  68 101  83 101  86 100
M  END
> <chiral flag>
0

> <version>
0

> <s_m_source_file>
/data/baiqing/PycharmProjects/Reinvent-master-3.2/result/LINK_invent/BTK/process_docking_weight1_custom_product_contain_oxygen_bond_distance_aromatic_linkinvent_7_9_3/rearranged_h_0102.sdf

> <i_m_source_file_index>
42

> <r_mmod_Potential_Energy-OPLS-2005>
293.396026611328

> <r_mmod_Stretch_Energy-OPLS-2005>
89.0477981567383

> <r_mmod_Bend_Energy-OPLS-2005>
168.839263916016

> <r_mmod_Torsional_Energy-OPLS-2005>
338.905242919922

> <r_mmod_Improper_Torsional_Energy-OPLS-2005>
40.3441390991211

> <r_mmod_Van_der_Waal_Energy-OPLS-2005>
153.999450683594

> <r_mmod_Electrostatic_Energy-OPLS-2005>
-351.881744384766

> <r_mmod_Solvation_Energy-OPLS-2005>
-221.416839599609

> <b_mmod_Minimization_Converged-OPLS-2005>
0

> <r_mmod_RMS_Derivative-OPLS-2005>
4.38331508636475

$$$$
43
                    3D
 Structure written by MMmdl.
157165  0  0  1  0            999 V2000
  -30.7469  -14.4027   20.5872 C   0  0  0  0  0  0
  -30.4098  -12.2686   19.4171 C   0  0  0  0  0  0
  -29.4882  -12.4937   18.2023 C   0  0  0  0  0  0
  -28.0081  -12.3643   18.6129 C   0  0  0  0  0  0
  -27.6610  -13.1999   19.8736 C   0  0  2  0  0  0
  -28.7031  -12.9750   20.9943 C   0  0  0  0  0  0
  -25.2597  -13.8147   20.5678 C   0  0  0  0  0  0
  -24.1842  -13.0431   20.9179 C   0  0  0  0  0  0
  -24.6382  -11.6895   20.8746 C   0  0  0  0  0  0
  -23.9044  -10.4283   21.0412 C   0  0  0  0  0  0
  -24.3597   -9.4201   21.9194 C   0  0  0  0  0  0
  -23.6269   -8.2236   22.0763 C   0  0  0  0  0  0
  -22.4250   -8.0272   21.3554 C   0  0  0  0  0  0
  -21.9888   -9.0248   20.4657 C   0  0  0  0  0  0
  -22.7214  -10.2127   20.3066 C   0  0  0  0  0  0
  -21.6850   -6.0717   22.5279 C   0  0  0  0  0  0
  -21.4008   -6.5627   23.8209 C   0  0  0  0  0  0
  -21.3663   -5.6788   24.9177 C   0  0  0  0  0  0
  -21.6049   -4.3050   24.7231 C   0  0  0  0  0  0
  -21.8820   -3.8137   23.4353 C   0  0  0  0  0  0
  -21.9195   -4.6948   22.3405 C   0  0  0  0  0  0
  -22.7871  -13.5250   21.1829 C   0  0  0  0  0  0
  -22.1663   -4.2135   21.0983 F   0  0  0  0  0  0
  -21.5640   -3.4532   25.7748 F   0  0  0  0  0  0
  -30.0375  -13.2548   20.4397 N   0  0  0  0  0  0
  -26.3025  -12.9302   20.3372 N   0  0  0  0  0  0
  -25.9306  -11.6471   20.5773 N   0  0  0  0  0  0
  -22.0497  -12.8257   22.0382 N   0  0  0  0  0  0
  -25.4330  -15.1858   20.4053 N   0  0  0  0  0  0
  -31.8845  -14.5341   20.1261 O   0  0  0  0  0  0
  -21.6640   -6.8851   21.4235 O   0  0  0  0  0  0
  -22.3565  -14.5558   20.6679 O   0  0  0  0  0  0
  -24.6104  -31.8718   23.2113 C   0  0  0  0  0  0
  -25.9007  -32.4840   23.8418 C   0  0  1  0  0  0
  -27.2338  -27.4821   20.0784 C   0  0  0  0  0  0
  -25.5896  -33.8644   24.2349 N   0  0  0  0  0  0
  -23.3968  -30.4956   21.5519 C   0  0  2  0  0  0
  -24.8432  -28.9668   20.1121 C   0  0  0  0  0  0
  -22.7389  -29.4683   22.4998 C   0  0  0  0  0  0
  -18.0284  -28.1376   22.8496 C   0  0  0  0  0  0
  -24.1480  -36.7328   23.2634 C   0  0  0  0  0  0
  -25.9208  -30.8521   21.3549 C   0  0  0  0  0  0
  -26.0009  -29.4890   20.7036 C   0  0  0  0  0  0
  -27.2014  -28.7508   20.6898 C   0  0  0  0  0  0
  -26.0672  -26.9621   19.4815 C   0  0  0  0  0  0
  -24.8684  -27.6981   19.5048 C   0  0  0  0  0  0
  -23.6007  -29.8260   20.1666 C   0  0  0  0  0  0
  -25.4102  -36.3121   24.0329 C   0  0  1  0  0  0
  -20.5868  -28.3654   23.1321 C   0  0  2  0  0  0
  -20.6766  -26.9385   22.5424 C   0  0  0  0  0  0
  -19.5742  -26.6375   21.5222 C   0  0  0  0  0  0
  -18.1920  -26.7918   22.1623 C   0  0  0  0  0  0
  -19.1529  -28.8835   23.2906 C   0  0  0  0  0  0
  -18.9445  -30.1445   23.8906 C   0  0  0  0  0  0
  -17.6443  -30.6570   24.0574 C   0  0  0  0  0  0
  -25.9030  -34.9478   23.5126 C   0  0  0  0  0  0
  -16.5343  -29.9079   23.6321 C   0  0  0  0  0  0
  -16.7271  -28.6503   23.0337 C   0  0  0  0  0  0
  -26.4457  -31.6605   25.0728 C   0  0  0  0  0  0
  -25.3749  -31.3699   26.1503 C   0  0  0  0  0  0
  -27.0296  -30.3059   24.6067 C   0  0  0  0  0  0
  -27.6035  -32.4323   25.7487 C   0  0  0  0  0  0
  -27.5568  -37.1819   24.8464 C   0  0  0  0  0  0
  -21.4120  -29.3032   22.3729 N   0  0  0  0  0  0
  -26.4292  -37.3801   23.9404 N   0  0  0  0  0  0
  -24.6619  -31.0861   22.0987 N   0  0  0  0  0  0
  -23.4179  -28.8217   23.3012 O   0  0  0  0  0  0
  -28.3838  -26.7408   20.0887 O   0  0  0  0  0  0
  -26.5580  -34.8908   22.4677 O   0  0  0  0  0  0
  -23.5304  -32.1463   23.7521 O   0  0  0  0  0  0
  -28.3643  -17.5378   20.0720 C   0  0  0  0  0  0
  -27.4789  -18.5795   19.7313 C   0  0  0  0  0  0
  -28.7268  -20.0861   21.1707 C   0  0  0  0  0  0
  -29.4343  -17.7581   20.9736 C   0  0  0  0  0  0
  -27.6736  -19.8742   20.2531 C   0  0  0  0  0  0
  -29.5887  -19.0421   21.5447 C   0  0  0  0  0  0
  -30.4770  -16.6967   21.1906 C   0  0  0  0  0  0
  -27.4127  -23.1798   20.7323 C   0  0  0  0  0  0
  -28.4926  -24.3020   20.5982 C   0  0  0  0  0  0
  -27.5072  -22.1954   19.5505 C   0  0  0  0  0  0
  -28.3914  -25.7591   21.1310 C   0  0  0  0  0  0
  -26.8445  -20.9224   19.8196 N   0  0  0  0  0  0
  -30.0423  -15.4296   21.0853 N   0  0  0  0  0  0
  -31.6503  -17.0149   21.4147 O   0  0  0  0  0  0
  -30.5763  -19.3083   22.4353 F   0  0  0  0  0  0
  -31.4548  -12.3441   19.1141 H   0  0  0  0  0  0
  -30.2886  -11.2595   19.8158 H   0  0  0  0  0  0
  -29.7214  -11.7788   17.4123 H   0  0  0  0  0  0
  -29.6668  -13.4830   17.7768 H   0  0  0  0  0  0
  -27.8088  -11.3090   18.8048 H   0  0  0  0  0  0
  -27.3596  -12.6526   17.7834 H   0  0  0  0  0  0
  -27.7043  -14.2457   19.5728 H   0  0  0  0  0  0
  -28.6722  -11.9408   21.3434 H   0  0  0  0  0  0
  -28.4746  -13.5841   21.8703 H   0  0  0  0  0  0
  -25.2730   -9.5692   22.4784 H   0  0  0  0  0  0
  -23.9990   -7.4632   22.7477 H   0  0  0  0  0  0
  -21.0833   -8.8760   19.8960 H   0  0  0  0  0  0
  -22.3666  -10.9673   19.6196 H   0  0  0  0  0  0
  -21.1992   -7.6133   23.9704 H   0  0  0  0  0  0
  -21.1490   -6.0525   25.9088 H   0  0  0  0  0  0
  -22.0601   -2.7594   23.2865 H   0  0  0  0  0  0
  -22.4073  -11.9898   22.4758 H   0  0  0  0  0  0
  -21.1143  -13.1360   22.2601 H   0  0  0  0  0  0
  -24.6693  -15.8434   20.5154 H   0  0  0  0  0  0
  -26.2787  -15.6208   20.0646 H   0  0  0  0  0  0
  -26.7089  -32.5568   23.1197 H   0  0  0  0  0  0
  -25.0109  -33.9832   25.0532 H   0  0  0  0  0  0
  -22.6844  -31.3112   21.4122 H   0  0  0  0  0  0
  -23.3722  -35.9676   23.3321 H   0  0  0  0  0  0
  -24.3577  -36.8920   22.2046 H   0  0  0  0  0  0
  -23.7244  -37.6536   23.6646 H   0  0  0  0  0  0
  -26.0246  -31.6168   20.5837 H   0  0  0  0  0  0
  -26.8116  -30.9091   21.9684 H   0  0  0  0  0  0
  -28.0975  -29.1467   21.1484 H   0  0  0  0  0  0
  -26.0814  -25.9918   19.0079 H   0  0  0  0  0  0
  -23.9762  -27.2875   19.0551 H   0  0  0  0  0  0
  -23.7006  -30.5998   19.4047 H   0  0  0  0  0  0
  -22.7261  -29.2415   19.8745 H   0  0  0  0  0  0
  -25.1272  -36.1997   25.0819 H   0  0  0  0  0  0
  -20.9990  -28.3217   24.1430 H   0  0  0  0  0  0
  -20.5668  -26.2257   23.3613 H   0  0  0  0  0  0
  -21.6632  -26.7427   22.1206 H   0  0  0  0  0  0
  -19.6889  -25.6298   21.1227 H   0  0  0  0  0  0
  -19.6669  -27.3206   20.6768 H   0  0  0  0  0  0
  -17.4197  -26.6694   21.4019 H   0  0  0  0  0  0
  -18.0287  -26.0063   22.9014 H   0  0  0  0  0  0
  -19.7926  -30.7273   24.2248 H   0  0  0  0  0  0
  -17.5004  -31.6242   24.5189 H   0  0  0  0  0  0
  -15.5346  -30.2980   23.7634 H   0  0  0  0  0  0
  -15.8679  -28.0835   22.7019 H   0  0  0  0  0  0
  -24.5911  -30.7046   25.7861 H   0  0  0  0  0  0
  -24.8952  -32.2852   26.4984 H   0  0  0  0  0  0
  -25.8123  -30.8862   27.0248 H   0  0  0  0  0  0
  -26.2830  -29.6814   24.1153 H   0  0  0  0  0  0
  -27.4127  -29.7293   25.4494 H   0  0  0  0  0  0
  -27.8619  -30.4399   23.9154 H   0  0  0  0  0  0
  -27.2654  -33.3611   26.2089 H   0  0  0  0  0  0
  -28.3818  -32.6917   25.0300 H   0  0  0  0  0  0
  -28.0736  -31.8451   26.5384 H   0  0  0  0  0  0
  -28.2612  -38.0099   24.7498 H   0  0  0  0  0  0
  -28.1032  -36.2630   24.6298 H   0  0  0  0  0  0
  -27.2284  -37.1465   25.8868 H   0  0  0  0  0  0
  -20.9269  -29.8785   21.6991 H   0  0  0  0  0  0
  -26.0174  -38.2863   24.1421 H   0  0  0  0  0  0
  -28.2357  -16.5790   19.5929 H   0  0  0  0  0  0
  -26.6852  -18.3777   19.0250 H   0  0  0  0  0  0
  -28.9210  -21.0556   21.5938 H   0  0  0  0  0  0
  -26.3983  -23.5881   20.7950 H   0  0  0  0  0  0
  -27.5001  -22.6116   21.6642 H   0  0  0  0  0  0
  -28.6044  -24.1335   21.6716 H   0  0  0  0  0  0
  -27.7644  -24.6637   19.8749 H   0  0  0  0  0  0
  -28.5557  -22.0203   19.2974 H   0  0  0  0  0  0
  -27.0646  -22.6430   18.6585 H   0  0  0  0  0  0
  -29.2578  -26.0047   21.7511 H   0  0  0  0  0  0
  -27.5197  -25.8631   21.7889 H   0  0  0  0  0  0
  -26.1276  -20.6642   19.1442 H   0  0  0  0  0  0
  -29.0592  -15.2709   21.2141 H   0  0  0  0  0  0
  1 25  1  0  0  0
  1 30  2  0  0  0
  1 83  1  0  0  0
  2  3  1  0  0  0
  2 25  1  0  0  0
  2 86  1  0  0  0
  2 87  1  0  0  0
  3  4  1  0  0  0
  3 88  1  0  0  0
  3 89  1  0  0  0
  4  5  1  0  0  0
  4 90  1  0  0  0
  4 91  1  0  0  0
  5  6  1  0  0  0
  5 26  1  0  0  0
  5 92  1  0  0  0
  6 25  1  0  0  0
  6 93  1  0  0  0
  6 94  1  0  0  0
  7  8  2  0  0  0
  7 26  1  0  0  0
  7 29  1  0  0  0
  8  9  1  0  0  0
  8 22  1  0  0  0
  9 10  1  0  0  0
  9 27  2  0  0  0
 10 11  2  0  0  0
 10 15  1  0  0  0
 11 12  1  0  0  0
 11 95  1  0  0  0
 12 13  2  0  0  0
 12 96  1  0  0  0
 13 14  1  0  0  0
 13 31  1  0  0  0
 14 15  2  0  0  0
 14 97  1  0  0  0
 15 98  1  0  0  0
 16 17  2  0  0  0
 16 21  1  0  0  0
 16 31  1  0  0  0
 17 18  1  0  0  0
 17 99  1  0  0  0
 18 19  2  0  0  0
 18100  1  0  0  0
 19 20  1  0  0  0
 19 24  1  0  0  0
 20 21  2  0  0  0
 20101  1  0  0  0
 21 23  1  0  0  0
 22 28  1  0  0  0
 22 32  2  0  0  0
 26 27  1  0  0  0
 28102  1  0  0  0
 28103  1  0  0  0
 29104  1  0  0  0
 29105  1  0  0  0
 33 34  1  0  0  0
 33 66  1  0  0  0
 33 70  2  0  0  0
 34 36  1  0  0  0
 34 59  1  0  0  0
 34106  1  0  0  0
 35 44  2  0  0  0
 35 45  1  0  0  0
 35 68  1  0  0  0
 36 56  1  0  0  0
 36107  1  0  0  0
 37 39  1  0  0  0
 37 47  1  0  0  0
 37 66  1  0  0  0
 37108  1  0  0  0
 38 43  2  0  0  0
 38 46  1  0  0  0
 38 47  1  0  0  0
 39 64  1  0  0  0
 39 67  2  0  0  0
 40 52  1  0  0  0
 40 53  2  0  0  0
 40 58  1  0  0  0
 41109  1  0  0  0
 41110  1  0  0  0
 41111  1  0  0  0
 41 48  1  0  0  0
 42 43  1  0  0  0
 42 66  1  0  0  0
 42112  1  0  0  0
 42113  1  0  0  0
 43 44  1  0  0  0
 44114  1  0  0  0
 45 46  2  0  0  0
 45115  1  0  0  0
 46116  1  0  0  0
 47117  1  0  0  0
 47118  1  0  0  0
 48 56  1  0  0  0
 48 65  1  0  0  0
 48119  1  0  0  0
 49 50  1  0  0  0
 49 53  1  0  0  0
 49 64  1  0  0  0
 49120  1  0  0  0
 50 51  1  0  0  0
 50121  1  0  0  0
 50122  1  0  0  0
 51 52  1  0  0  0
 51123  1  0  0  0
 51124  1  0  0  0
 52125  1  0  0  0
 52126  1  0  0  0
 53 54  1  0  0  0
 54 55  2  0  0  0
 54127  1  0  0  0
 55 57  1  0  0  0
 55128  1  0  0  0
 56 69  2  0  0  0
 57 58  2  0  0  0
 57129  1  0  0  0
 58130  1  0  0  0
 59 60  1  0  0  0
 59 61  1  0  0  0
 59 62  1  0  0  0
 60131  1  0  0  0
 60132  1  0  0  0
 60133  1  0  0  0
 61134  1  0  0  0
 61135  1  0  0  0
 61136  1  0  0  0
 62137  1  0  0  0
 62138  1  0  0  0
 62139  1  0  0  0
 63 65  1  0  0  0
 63140  1  0  0  0
 63141  1  0  0  0
 63142  1  0  0  0
 64143  1  0  0  0
 65144  1  0  0  0
 68 81  1  0  0  0
 71 72  2  0  0  0
 71 74  1  0  0  0
 71145  1  0  0  0
 72 75  1  0  0  0
 72146  1  0  0  0
 73 75  2  0  0  0
 73 76  1  0  0  0
 73147  1  0  0  0
 74 76  2  0  0  0
 74 77  1  0  0  0
 75 82  1  0  0  0
 76 85  1  0  0  0
 77 83  1  0  0  0
 77 84  2  0  0  0
 78 79  1  0  0  0
 78 80  1  0  0  0
 78148  1  0  0  0
 78149  1  0  0  0
 79 81  1  0  0  0
 79150  1  0  0  0
 79151  1  0  0  0
 80 82  1  0  0  0
 80152  1  0  0  0
 80153  1  0  0  0
 81154  1  0  0  0
 81155  1  0  0  0
 82156  1  0  0  0
 83157  1  0  0  0
M  ISO  4   1 100  68 101  81 101  83 100
M  END
> <chiral flag>
0

> <version>
0

> <s_m_source_file>
/data/baiqing/PycharmProjects/Reinvent-master-3.2/result/LINK_invent/BTK/process_docking_weight1_custom_product_contain_oxygen_bond_distance_aromatic_linkinvent_7_9_3/rearranged_h_0102.sdf

> <i_m_source_file_index>
43

> <r_mmod_Potential_Energy-OPLS-2005>
182.096435546875

> <r_mmod_Stretch_Energy-OPLS-2005>
33.7700881958008

> <r_mmod_Bend_Energy-OPLS-2005>
313.47900390625

> <r_mmod_Torsional_Energy-OPLS-2005>
267.453033447266

> <r_mmod_Improper_Torsional_Energy-OPLS-2005>
9.17715930938721

> <r_mmod_Van_der_Waal_Energy-OPLS-2005>
185.788436889648

> <r_mmod_Electrostatic_Energy-OPLS-2005>
-402.592590332031

> <r_mmod_Solvation_Energy-OPLS-2005>
-236.464950561523

> <b_mmod_Minimization_Converged-OPLS-2005>
0

> <r_mmod_RMS_Derivative-OPLS-2005>
2.37921953201294

$$$$
44
                    3D
 Structure written by MMmdl.
165174  0  0  1  0            999 V2000
  -31.6398  -12.6087   19.6120 C   0  0  0  0  0  0
  -30.7962  -14.6175   19.3517 C   0  0  0  0  0  0
  -29.9403  -15.1778   20.9002 C   0  0  0  0  0  0
  -28.1420  -14.6447   21.6577 C   0  0  0  0  0  0
  -27.2123  -13.2802   20.9036 C   0  0  2  0  0  0
  -29.0665  -12.4650   18.4559 C   0  0  0  0  0  0
  -24.9099  -13.8349   20.9769 C   0  0  0  0  0  0
  -23.8753  -13.0153   20.9773 C   0  0  0  0  0  0
  -24.3513  -11.6908   21.1399 C   0  0  0  0  0  0
  -23.7497  -10.4188   21.2263 C   0  0  0  0  0  0
  -24.1248   -9.4190   22.1550 C   0  0  0  0  0  0
  -23.4654   -8.1642   22.2267 C   0  0  0  0  0  0
  -22.3267   -7.9801   21.4206 C   0  0  0  0  0  0
  -21.9718   -8.9723   20.4875 C   0  0  0  0  0  0
  -22.6882  -10.1698   20.3527 C   0  0  0  0  0  0
  -21.6118   -6.0381   22.5176 C   0  0  0  0  0  0
  -21.3715   -6.5539   23.8036 C   0  0  0  0  0  0
  -21.4024   -5.6916   24.9083 C   0  0  0  0  0  0
  -21.5923   -4.3078   24.7151 C   0  0  0  0  0  0
  -21.8207   -3.8062   23.4231 C   0  0  0  0  0  0
  -21.8734   -4.6816   22.3207 C   0  0  0  0  0  0
  -22.4666  -13.4583   21.0370 C   0  0  0  0  0  0
  -22.1052   -4.2053   21.0787 F   0  0  0  0  0  0
  -21.5991   -3.4694   25.7681 F   0  0  0  0  0  0
  -30.6805  -13.1370   18.7636 N   0  0  0  0  0  0
  -25.9021  -12.9963   21.1413 N   0  0  0  0  0  0
  -25.5917  -11.7351   21.3917 N   0  0  0  0  0  0
  -21.7407  -12.8737   21.9772 N   0  0  0  0  0  0
  -25.0663  -15.1684   20.7690 N   0  0  0  0  0  0
  -32.5640  -13.2723   20.1481 O   0  0  0  0  0  0
  -21.5869   -6.8342   21.4212 O   0  0  0  0  0  0
  -22.0399  -14.3891   20.3806 O   0  0  0  0  0  0
  -24.7381  -31.7553   23.1307 C   0  0  0  0  0  0
  -25.9727  -32.4204   23.8045 C   0  0  1  0  0  0
  -26.8578  -26.2991   19.9643 C   0  0  0  0  0  0
  -25.6125  -33.8137   24.1765 N   0  0  0  0  0  0
  -23.5542  -30.3916   21.4996 C   0  0  2  0  0  0
  -24.9165  -28.7230   20.0402 C   0  0  0  0  0  0
  -22.7883  -29.4119   22.4456 C   0  0  0  0  0  0
  -18.0287  -28.1381   22.8428 C   0  0  0  0  0  0
  -24.1411  -36.6984   23.2670 C   0  0  0  0  0  0
  -26.1501  -30.3272   21.4517 C   0  0  0  0  0  0
  -26.1302  -28.8827   20.7139 C   0  0  0  0  0  0
  -27.0982  -27.7119   20.6149 C   0  0  0  0  0  0
  -25.6198  -26.4292   19.3238 C   0  0  0  0  0  0
  -24.7362  -27.5385   19.3092 C   0  0  0  0  0  0
  -23.8022  -29.7516   20.1069 C   0  0  0  0  0  0
  -25.4143  -36.2828   24.0255 C   0  0  1  0  0  0
  -20.5972  -28.3783   23.0996 C   0  0  2  0  0  0
  -20.6683  -26.9409   22.5386 C   0  0  0  0  0  0
  -19.5623  -26.6293   21.5174 C   0  0  0  0  0  0
  -18.1836  -26.7899   22.1605 C   0  0  0  0  0  0
  -19.1601  -28.8873   23.2680 C   0  0  0  0  0  0
  -18.9485  -30.1444   23.8772 C   0  0  0  0  0  0
  -17.6447  -30.6573   24.0486 C   0  0  0  0  0  0
  -25.9235  -34.9180   23.4854 C   0  0  0  0  0  0
  -16.5338  -29.9089   23.6329 C   0  0  0  0  0  0
  -16.7261  -28.6490   23.0430 C   0  0  0  0  0  0
  -26.4746  -31.6462   25.0805 C   0  0  0  0  0  0
  -25.3691  -31.3869   26.1292 C   0  0  0  0  0  0
  -27.0792  -30.2754   24.7272 C   0  0  0  0  0  0
  -27.6168  -32.4416   25.7484 C   0  0  0  0  0  0
  -27.5569  -37.1625   24.8456 C   0  0  0  0  0  0
  -21.4547  -29.2933   22.3234 N   0  0  0  0  0  0
  -26.4230  -37.3718   23.9466 N   0  0  0  0  0  0
  -24.8555  -30.8727   22.0711 N   0  0  0  0  0  0
  -23.4196  -28.7722   23.2820 O   0  0  0  0  0  0
  -27.5307  -24.8370   19.7903 O   0  0  0  0  0  0
  -26.5942  -34.8877   22.4551 O   0  0  0  0  0  0
  -23.6312  -32.0863   23.5923 O   0  0  0  0  0  0
  -28.3935  -14.3672   19.3653 C   0  0  0  0  0  0
  -29.2938  -12.8711   20.6360 C   0  0  0  0  0  0
  -26.6357  -12.5564   18.6887 C   0  0  0  0  0  0
  -27.1144  -14.2565   18.6625 C   0  0  0  0  0  0
  -28.7309  -11.4131   20.5131 C   0  0  0  0  0  0
  -27.3831  -11.2008   19.6115 C   0  0  0  0  0  0
  -26.5366  -15.9695   18.3529 C   0  0  0  0  0  0
  -26.3261  -20.1832   17.7423 C   0  0  0  0  0  0
  -25.8602  -18.6045   17.9655 C   0  0  0  0  0  0
  -27.3817  -19.0639   19.3524 C   0  0  0  0  0  0
  -26.9169  -20.9105   19.0472 C   0  0  2  0  0  0
  -27.5701   -8.9712   21.0111 C   0  0  0  0  0  0
  -30.0326  -10.5555   20.3224 C   0  0  0  0  0  0
  -26.9560  -23.0007   19.6182 C   0  0  0  0  0  0
  -26.7654  -17.5775   18.6215 N   0  0  0  0  0  0
  -31.3682  -11.2636   19.9863 N   0  0  0  0  0  0
  -25.6095  -15.8738   17.5503 O   0  0  0  0  0  0
  -26.9451   -9.8375   19.8740 O   0  0  0  0  0  0
  -31.7716  -15.1983   19.2681 H   0  0  0  0  0  0
  -30.4199  -15.1319   18.4433 H   0  0  0  0  0  0
  -30.0197  -16.3127   20.9036 H   0  0  0  0  0  0
  -30.5184  -14.8980   21.7545 H   0  0  0  0  0  0
  -27.4569  -15.4918   21.6469 H   0  0  0  0  0  0
  -28.3382  -14.4703   22.7591 H   0  0  0  0  0  0
  -27.4269  -12.7603   21.8933 H   0  0  0  0  0  0
  -28.8700  -12.9773   17.4928 H   0  0  0  0  0  0
  -29.1024  -11.4314   18.0462 H   0  0  0  0  0  0
  -24.8985   -9.6241   22.8653 H   0  0  0  0  0  0
  -23.7747   -7.3859   22.8892 H   0  0  0  0  0  0
  -21.1002   -8.8941   19.8363 H   0  0  0  0  0  0
  -22.4127  -10.9462   19.6459 H   0  0  0  0  0  0
  -21.1615   -7.6146   23.9418 H   0  0  0  0  0  0
  -21.3063   -6.0888   25.9124 H   0  0  0  0  0  0
  -21.9798   -2.7577   23.2726 H   0  0  0  0  0  0
  -22.1543  -12.1652   22.5459 H   0  0  0  0  0  0
  -20.8490  -13.3024   22.2335 H   0  0  0  0  0  0
  -24.2480  -15.4954   20.2790 H   0  0  0  0  0  0
  -25.8053  -15.7893   21.0465 H   0  0  0  0  0  0
  -26.7894  -32.4560   23.0841 H   0  0  0  0  0  0
  -25.0117  -33.9152   24.9820 H   0  0  0  0  0  0
  -22.9037  -31.2504   21.3155 H   0  0  0  0  0  0
  -23.3855  -35.9164   23.3316 H   0  0  0  0  0  0
  -24.3343  -36.8748   22.2087 H   0  0  0  0  0  0
  -23.6952  -37.6037   23.6833 H   0  0  0  0  0  0
  -26.4907  -31.0683   20.7202 H   0  0  0  0  0  0
  -26.9518  -30.2812   22.1828 H   0  0  0  0  0  0
  -28.0513  -27.8259   21.1308 H   0  0  0  0  0  0
  -25.2144  -25.5581   18.8154 H   0  0  0  0  0  0
  -23.8325  -27.4784   18.7247 H   0  0  0  0  0  0
  -24.0266  -30.5355   19.3696 H   0  0  0  0  0  0
  -22.8712  -29.3213   19.7408 H   0  0  0  0  0  0
  -25.1317  -36.1625   25.0782 H   0  0  0  0  0  0
  -21.0042  -28.3362   24.1070 H   0  0  0  0  0  0
  -20.5346  -26.2415   23.3680 H   0  0  0  0  0  0
  -21.6575  -26.7096   22.1280 H   0  0  0  0  0  0
  -19.6778  -25.6125   21.1346 H   0  0  0  0  0  0
  -19.6619  -27.2947   20.6567 H   0  0  0  0  0  0
  -17.4108  -26.6608   21.4041 H   0  0  0  0  0  0
  -18.0248  -26.0053   22.9017 H   0  0  0  0  0  0
  -19.7991  -30.7281   24.2220 H   0  0  0  0  0  0
  -17.5023  -31.6271   24.5078 H   0  0  0  0  0  0
  -15.5384  -30.2950   23.7689 H   0  0  0  0  0  0
  -15.8643  -28.0710   22.7341 H   0  0  0  0  0  0
  -24.5784  -30.7383   25.7453 H   0  0  0  0  0  0
  -24.8988  -32.3111   26.4729 H   0  0  0  0  0  0
  -25.7690  -30.8865   27.0161 H   0  0  0  0  0  0
  -26.3623  -29.5885   24.2772 H   0  0  0  0  0  0
  -27.4337  -29.7804   25.6367 H   0  0  0  0  0  0
  -27.9560  -30.3533   24.0823 H   0  0  0  0  0  0
  -27.2715  -33.3676   26.2197 H   0  0  0  0  0  0
  -28.3873  -32.7195   25.0194 H   0  0  0  0  0  0
  -28.1202  -31.8627   26.5293 H   0  0  0  0  0  0
  -28.2499  -38.0016   24.7731 H   0  0  0  0  0  0
  -28.1109  -36.2532   24.6013 H   0  0  0  0  0  0
  -27.2236  -37.0955   25.8837 H   0  0  0  0  0  0
  -20.9914  -29.8686   21.6380 H   0  0  0  0  0  0
  -25.9983  -38.2713   24.1848 H   0  0  0  0  0  0
  -28.6259  -15.4239   19.1450 H   0  0  0  0  0  0
  -30.0585  -12.8794   21.4541 H   0  0  0  0  0  0
  -25.6194  -12.4333   18.3916 H   0  0  0  0  0  0
  -25.4830  -20.7220   17.3101 H   0  0  0  0  0  0
  -27.0471  -20.1354   16.9278 H   0  0  0  0  0  0
  -25.4355  -18.1697   17.0619 H   0  0  0  0  0  0
  -24.9982  -18.5958   18.6081 H   0  0  0  0  0  0
  -27.4522  -18.8996   20.4134 H   0  0  0  0  0  0
  -28.4093  -18.9928   19.0659 H   0  0  0  0  0  0
  -26.0923  -20.7393   19.7384 H   0  0  0  0  0  0
  -28.6427   -8.7872   20.9134 H   0  0  0  0  0  0
  -27.4194   -7.8766   20.9736 H   0  0  0  0  0  0
  -27.5767   -9.1974   22.1258 H   0  0  0  0  0  0
  -30.2902   -9.9681   21.2340 H   0  0  0  0  0  0
  -29.7094   -9.8771   19.5047 H   0  0  0  0  0  0
  -26.9458  -22.7991   20.7077 H   0  0  0  0  0  0
  -25.9162  -23.2335   19.3995 H   0  0  0  0  0  0
  -32.0812  -10.8220   20.5527 H   0  0  0  0  0  0
  1 25  1  0  0  0
  1 30  2  0  0  0
  1 86  1  0  0  0
  2  3  1  0  0  0
  2 25  1  0  0  0
  2 89  1  0  0  0
  2 90  1  0  0  0
  3  4  1  0  0  0
  3 91  1  0  0  0
  3 92  1  0  0  0
  4  5  1  0  0  0
  4 93  1  0  0  0
  4 94  1  0  0  0
  5  6  1  0  0  0
  5 26  1  0  0  0
  5 95  1  0  0  0
  6 25  1  0  0  0
  6 96  1  0  0  0
  6 97  1  0  0  0
  7  8  2  0  0  0
  7 26  1  0  0  0
  7 29  1  0  0  0
  8  9  1  0  0  0
  8 22  1  0  0  0
  9 10  1  0  0  0
  9 27  2  0  0  0
 10 11  2  0  0  0
 10 15  1  0  0  0
 11 12  1  0  0  0
 11 98  1  0  0  0
 12 13  2  0  0  0
 12 99  1  0  0  0
 13 14  1  0  0  0
 13 31  1  0  0  0
 14 15  2  0  0  0
 14100  1  0  0  0
 15101  1  0  0  0
 16 17  2  0  0  0
 16 21  1  0  0  0
 16 31  1  0  0  0
 17 18  1  0  0  0
 17102  1  0  0  0
 18 19  2  0  0  0
 18103  1  0  0  0
 19 20  1  0  0  0
 19 24  1  0  0  0
 20 21  2  0  0  0
 20104  1  0  0  0
 21 23  1  0  0  0
 22 28  1  0  0  0
 22 32  2  0  0  0
 26 27  1  0  0  0
 28105  1  0  0  0
 28106  1  0  0  0
 29107  1  0  0  0
 29108  1  0  0  0
 33 34  1  0  0  0
 33 66  1  0  0  0
 33 70  2  0  0  0
 34 36  1  0  0  0
 34 59  1  0  0  0
 34109  1  0  0  0
 35 44  2  0  0  0
 35 45  1  0  0  0
 35 68  1  0  0  0
 36 56  1  0  0  0
 36110  1  0  0  0
 37 39  1  0  0  0
 37 47  1  0  0  0
 37 66  1  0  0  0
 37111  1  0  0  0
 38 43  2  0  0  0
 38 46  1  0  0  0
 38 47  1  0  0  0
 39 64  1  0  0  0
 39 67  2  0  0  0
 40 52  1  0  0  0
 40 53  2  0  0  0
 40 58  1  0  0  0
 41112  1  0  0  0
 41113  1  0  0  0
 41114  1  0  0  0
 41 48  1  0  0  0
 42 43  1  0  0  0
 42 66  1  0  0  0
 42115  1  0  0  0
 42116  1  0  0  0
 43 44  1  0  0  0
 44117  1  0  0  0
 45 46  2  0  0  0
 45118  1  0  0  0
 46119  1  0  0  0
 47120  1  0  0  0
 47121  1  0  0  0
 48 56  1  0  0  0
 48 65  1  0  0  0
 48122  1  0  0  0
 49 50  1  0  0  0
 49 53  1  0  0  0
 49 64  1  0  0  0
 49123  1  0  0  0
 50 51  1  0  0  0
 50124  1  0  0  0
 50125  1  0  0  0
 51 52  1  0  0  0
 51126  1  0  0  0
 51127  1  0  0  0
 52128  1  0  0  0
 52129  1  0  0  0
 53 54  1  0  0  0
 54 55  2  0  0  0
 54130  1  0  0  0
 55 57  1  0  0  0
 55131  1  0  0  0
 56 69  2  0  0  0
 57 58  2  0  0  0
 57132  1  0  0  0
 58133  1  0  0  0
 59 60  1  0  0  0
 59 61  1  0  0  0
 59 62  1  0  0  0
 60134  1  0  0  0
 60135  1  0  0  0
 60136  1  0  0  0
 61137  1  0  0  0
 61138  1  0  0  0
 61139  1  0  0  0
 62140  1  0  0  0
 62141  1  0  0  0
 62142  1  0  0  0
 63 65  1  0  0  0
 63143  1  0  0  0
 63144  1  0  0  0
 63145  1  0  0  0
 64146  1  0  0  0
 65147  1  0  0  0
 68 84  1  0  0  0
 71 72  2  0  0  0
 71 74  1  0  0  0
 71148  1  0  0  0
 72 75  1  0  0  0
 72149  1  0  0  0
 73 74  2  0  0  0
 73 76  1  0  0  0
 73150  1  0  0  0
 74 77  1  0  0  0
 75 76  2  0  0  0
 75 83  1  0  0  0
 76 88  1  0  0  0
 77 85  1  0  0  0
 77 87  2  0  0  0
 78 79  1  0  0  0
 78 81  1  0  0  0
 78151  1  0  0  0
 78152  1  0  0  0
 79 85  1  0  0  0
 79153  1  0  0  0
 79154  1  0  0  0
 80 81  1  0  0  0
 80 85  1  0  0  0
 80155  1  0  0  0
 80156  1  0  0  0
 81 84  1  0  0  0
 81157  1  0  0  0
 82 88  1  0  0  0
 82158  1  0  0  0
 82159  1  0  0  0
 82160  1  0  0  0
 83 86  1  0  0  0
 83161  1  0  0  0
 83162  1  0  0  0
 84163  1  0  0  0
 84164  1  0  0  0
 86165  1  0  0  0
M  ISO  4   1 100  68 101  84 101  86 100
M  END
> <chiral flag>
0

> <version>
0

> <s_m_source_file>
/data/baiqing/PycharmProjects/Reinvent-master-3.2/result/LINK_invent/BTK/process_docking_weight1_custom_product_contain_oxygen_bond_distance_aromatic_linkinvent_7_9_3/rearranged_h_0102.sdf

> <i_m_source_file_index>
44

> <r_mmod_Potential_Energy-OPLS-2005>
19187.322265625

> <r_mmod_Stretch_Energy-OPLS-2005>
7585.6142578125

> <r_mmod_Bend_Energy-OPLS-2005>
1766.86669921875

> <r_mmod_Torsional_Energy-OPLS-2005>
519.9931640625

> <r_mmod_Improper_Torsional_Energy-OPLS-2005>
36.6772308349609

> <r_mmod_Van_der_Waal_Energy-OPLS-2005>
3315.97827148438

> <r_mmod_Electrostatic_Energy-OPLS-2005>
-366.159240722656

> <r_mmod_Solvation_Energy-OPLS-2005>
-250.99983215332

> <b_mmod_Minimization_Converged-OPLS-2005>
0

> <r_mmod_RMS_Derivative-OPLS-2005>
89.9743347167969

$$$$
45
                    3D
 Structure written by MMmdl.
161169  0  0  1  0            999 V2000
  -30.5515  -14.6733   20.6679 C   0  0  0  0  0  0
  -30.4472  -12.4723   19.4654 C   0  0  0  0  0  0
  -29.4955  -12.5356   18.2447 C   0  0  0  0  0  0
  -28.0136  -12.3935   18.6463 C   0  0  0  0  0  0
  -27.6502  -13.2270   19.8950 C   0  0  2  0  0  0
  -28.6815  -13.0107   21.0173 C   0  0  0  0  0  0
  -25.2526  -13.8247   20.5770 C   0  0  0  0  0  0
  -24.1790  -13.0424   20.9235 C   0  0  0  0  0  0
  -24.6414  -11.6937   20.8801 C   0  0  0  0  0  0
  -23.9098  -10.4281   21.0479 C   0  0  0  0  0  0
  -24.3676   -9.4151   21.9206 C   0  0  0  0  0  0
  -23.6339   -8.2175   22.0758 C   0  0  0  0  0  0
  -22.4294   -8.0286   21.3550 C   0  0  0  0  0  0
  -21.9960   -9.0260   20.4626 C   0  0  0  0  0  0
  -22.7309  -10.2125   20.3058 C   0  0  0  0  0  0
  -21.6809   -6.0751   22.5299 C   0  0  0  0  0  0
  -21.4012   -6.5661   23.8237 C   0  0  0  0  0  0
  -21.3654   -5.6818   24.9212 C   0  0  0  0  0  0
  -21.6041   -4.3089   24.7246 C   0  0  0  0  0  0
  -21.8839   -3.8168   23.4377 C   0  0  0  0  0  0
  -21.9197   -4.6988   22.3428 C   0  0  0  0  0  0
  -22.7817  -13.5193   21.1914 C   0  0  0  0  0  0
  -22.1673   -4.2166   21.1015 F   0  0  0  0  0  0
  -21.5584   -3.4583   25.7766 F   0  0  0  0  0  0
  -29.9805  -13.4369   20.4896 N   0  0  0  0  0  0
  -26.2977  -12.9435   20.3508 N   0  0  0  0  0  0
  -25.9350  -11.6582   20.5910 N   0  0  0  0  0  0
  -22.0541  -12.8071   22.0487 N   0  0  0  0  0  0
  -25.4232  -15.1935   20.4185 N   0  0  0  0  0  0
  -31.6706  -14.8894   20.1882 O   0  0  0  0  0  0
  -21.6624   -6.8915   21.4270 O   0  0  0  0  0  0
  -22.3454  -14.5465   20.6811 O   0  0  0  0  0  0
  -24.6195  -31.8620   23.2064 C   0  0  0  0  0  0
  -25.9041  -32.4804   23.8402 C   0  0  1  0  0  0
  -27.2592  -27.3404   20.1148 C   0  0  0  0  0  0
  -25.5860  -33.8607   24.2321 N   0  0  0  0  0  0
  -23.4140  -30.4821   21.5470 C   0  0  2  0  0  0
  -24.8699  -28.9347   20.1110 C   0  0  0  0  0  0
  -22.7412  -29.4620   22.4963 C   0  0  0  0  0  0
  -18.0276  -28.1384   22.8496 C   0  0  0  0  0  0
  -24.1472  -36.7310   23.2645 C   0  0  0  0  0  0
  -25.9501  -30.8040   21.3689 C   0  0  0  0  0  0
  -26.0337  -29.4297   20.7107 C   0  0  0  0  0  0
  -27.2225  -28.6434   20.7070 C   0  0  0  0  0  0
  -26.0713  -26.8891   19.4996 C   0  0  0  0  0  0
  -24.8916  -27.6670   19.4998 C   0  0  0  0  0  0
  -23.6303  -29.8111   20.1624 C   0  0  0  0  0  0
  -25.4095  -36.3105   24.0340 C   0  0  1  0  0  0
  -20.5851  -28.3673   23.1317 C   0  0  2  0  0  0
  -20.6751  -26.9388   22.5460 C   0  0  0  0  0  0
  -19.5751  -26.6379   21.5234 C   0  0  0  0  0  0
  -18.1913  -26.7938   22.1588 C   0  0  0  0  0  0
  -19.1507  -28.8852   23.2904 C   0  0  0  0  0  0
  -18.9437  -30.1454   23.8921 C   0  0  0  0  0  0
  -17.6449  -30.6595   24.0569 C   0  0  0  0  0  0
  -25.9044  -34.9477   23.5153 C   0  0  0  0  0  0
  -16.5347  -29.9091   23.6325 C   0  0  0  0  0  0
  -16.7261  -28.6505   23.0354 C   0  0  0  0  0  0
  -26.4442  -31.6593   25.0761 C   0  0  0  0  0  0
  -25.3705  -31.3738   26.1530 C   0  0  0  0  0  0
  -27.0213  -30.2988   24.6203 C   0  0  0  0  0  0
  -27.6072  -32.4276   25.7479 C   0  0  0  0  0  0
  -27.5592  -37.1780   24.8433 C   0  0  0  0  0  0
  -21.4133  -29.3021   22.3680 N   0  0  0  0  0  0
  -26.4254  -37.3815   23.9444 N   0  0  0  0  0  0
  -24.6802  -31.0646   22.0994 N   0  0  0  0  0  0
  -23.4160  -28.8171   23.3040 O   0  0  0  0  0  0
  -28.4072  -26.5327   20.2163 O   0  0  0  0  0  0
  -26.5621  -34.8917   22.4723 O   0  0  0  0  0  0
  -23.5355  -32.1401   23.7410 O   0  0  0  0  0  0
  -27.9451  -22.8085   19.5634 C   0  0  0  0  0  0
  -28.1725  -21.4380   19.9008 C   0  0  0  0  0  0
  -30.0149  -22.1050   21.2515 C   0  0  0  0  0  0
  -28.7696  -23.8755   20.0160 C   0  0  0  0  0  0
  -29.8224  -23.4751   20.8857 C   0  0  0  0  0  0
  -29.2648  -21.0084   20.7119 C   0  0  0  0  0  0
  -29.2034  -18.4828   20.2078 C   0  0  0  0  0  0
  -30.8263  -24.5004   21.3882 C   0  0  0  0  0  0
  -32.0751  -19.6506   21.3867 C   0  0  0  0  0  0
  -28.6460  -25.3279   19.3965 C   0  0  0  0  0  0
  -29.8302  -15.8766   21.4414 C   0  0  0  0  0  0
  -28.9623  -16.9468   20.6149 C   0  0  0  0  0  0
  -30.6742  -19.3418   21.9954 C   0  0  0  0  0  0
  -29.5981  -19.5666   21.0017 N   0  0  0  0  0  0
  -28.8777  -18.7010   19.0333 O   0  0  0  0  0  0
  -31.4627  -12.7007   19.1313 H   0  0  0  0  0  0
  -30.4927  -11.4686   19.8917 H   0  0  0  0  0  0
  -29.7487  -11.7498   17.5322 H   0  0  0  0  0  0
  -29.6318  -13.4838   17.7241 H   0  0  0  0  0  0
  -27.8108  -11.3415   18.8410 H   0  0  0  0  0  0
  -27.3701  -12.6852   17.8154 H   0  0  0  0  0  0
  -27.6858  -14.2754   19.6125 H   0  0  0  0  0  0
  -28.7304  -11.9550   21.2883 H   0  0  0  0  0  0
  -28.3807  -13.5082   21.9375 H   0  0  0  0  0  0
  -25.2869   -9.5597   22.4732 H   0  0  0  0  0  0
  -24.0042   -7.4566   22.7496 H   0  0  0  0  0  0
  -21.0872   -8.8822   19.8926 H   0  0  0  0  0  0
  -22.3843  -10.9670   19.6149 H   0  0  0  0  0  0
  -21.2023   -7.6153   23.9765 H   0  0  0  0  0  0
  -21.1406   -6.0535   25.9118 H   0  0  0  0  0  0
  -22.0613   -2.7610   23.2891 H   0  0  0  0  0  0
  -22.4275  -11.9738   22.4739 H   0  0  0  0  0  0
  -21.1180  -13.1012   22.2858 H   0  0  0  0  0  0
  -24.6698  -15.8701   20.5211 H   0  0  0  0  0  0
  -26.2721  -15.5993   20.0408 H   0  0  0  0  0  0
  -26.7120  -32.5503   23.1174 H   0  0  0  0  0  0
  -24.9942  -33.9774   25.0414 H   0  0  0  0  0  0
  -22.7053  -31.3034   21.4070 H   0  0  0  0  0  0
  -23.3799  -35.9569   23.3175 H   0  0  0  0  0  0
  -24.3597  -36.9089   22.2088 H   0  0  0  0  0  0
  -23.7136  -37.6421   23.6768 H   0  0  0  0  0  0
  -26.0681  -31.5741   20.6044 H   0  0  0  0  0  0
  -26.8306  -30.8613   21.9956 H   0  0  0  0  0  0
  -28.1125  -29.0295   21.1862 H   0  0  0  0  0  0
  -26.0263  -25.9087   19.0505 H   0  0  0  0  0  0
  -23.9941  -27.2707   19.0469 H   0  0  0  0  0  0
  -23.7382  -30.5931   19.4104 H   0  0  0  0  0  0
  -22.7494  -29.2401   19.8628 H   0  0  0  0  0  0
  -25.1259  -36.1971   25.0831 H   0  0  0  0  0  0
  -20.9963  -28.3299   24.1433 H   0  0  0  0  0  0
  -20.5605  -26.2304   23.3679 H   0  0  0  0  0  0
  -21.6631  -26.7406   22.1318 H   0  0  0  0  0  0
  -19.6912  -25.6294   21.1264 H   0  0  0  0  0  0
  -19.6719  -27.3179   20.6767 H   0  0  0  0  0  0
  -17.4208  -26.6761   21.3946 H   0  0  0  0  0  0
  -18.0227  -26.0062   22.8943 H   0  0  0  0  0  0
  -19.7907  -30.7243   24.2326 H   0  0  0  0  0  0
  -17.5004  -31.6274   24.5157 H   0  0  0  0  0  0
  -15.5335  -30.3011   23.7645 H   0  0  0  0  0  0
  -15.8652  -28.0835   22.7074 H   0  0  0  0  0  0
  -24.5884  -30.7053   25.7903 H   0  0  0  0  0  0
  -24.8862  -32.2887   26.4962 H   0  0  0  0  0  0
  -25.8063  -30.8945   27.0311 H   0  0  0  0  0  0
  -26.2731  -29.6790   24.1250 H   0  0  0  0  0  0
  -27.3868  -29.7232   25.4720 H   0  0  0  0  0  0
  -27.8650  -30.4220   23.9418 H   0  0  0  0  0  0
  -27.2806  -33.3681   26.1928 H   0  0  0  0  0  0
  -28.3921  -32.6632   25.0280 H   0  0  0  0  0  0
  -28.0658  -31.8438   26.5465 H   0  0  0  0  0  0
  -28.2549  -38.0142   24.7601 H   0  0  0  0  0  0
  -28.1151  -36.2690   24.6089 H   0  0  0  0  0  0
  -27.2353  -37.1256   25.8841 H   0  0  0  0  0  0
  -20.9291  -29.8748   21.6894 H   0  0  0  0  0  0
  -26.0152  -38.2866   24.1552 H   0  0  0  0  0  0
  -27.1377  -23.0413   18.8857 H   0  0  0  0  0  0
  -27.4863  -20.7104   19.4925 H   0  0  0  0  0  0
  -30.8048  -21.9235   21.9599 H   0  0  0  0  0  0
  -31.5977  -24.0526   22.0171 H   0  0  0  0  0  0
  -30.3275  -25.2794   21.9614 H   0  0  0  0  0  0
  -31.3344  -24.9716   20.5471 H   0  0  0  0  0  0
  -32.8415  -18.9642   21.7430 H   0  0  0  0  0  0
  -32.4263  -20.6572   21.6147 H   0  0  0  0  0  0
  -32.0705  -19.5725   20.2985 H   0  0  0  0  0  0
  -28.0252  -25.3111   18.5037 H   0  0  0  0  0  0
  -29.6427  -25.5144   18.9882 H   0  0  0  0  0  0
  -29.1029  -15.4475   22.1307 H   0  0  0  0  0  0
  -30.5115  -16.3052   22.1681 H   0  0  0  0  0  0
  -28.7590  -16.4373   19.6727 H   0  0  0  0  0  0
  -27.9849  -16.9581   21.0984 H   0  0  0  0  0  0
  -30.4902  -19.9473   22.8876 H   0  0  0  0  0  0
  -30.6730  -18.3420   22.4133 H   0  0  0  0  0  0
  1 25  1  0  0  0
  1 30  2  0  0  0
  1 81  1  0  0  0
  2  3  1  0  0  0
  2 25  1  0  0  0
  2 86  1  0  0  0
  2 87  1  0  0  0
  3  4  1  0  0  0
  3 88  1  0  0  0
  3 89  1  0  0  0
  4  5  1  0  0  0
  4 90  1  0  0  0
  4 91  1  0  0  0
  5  6  1  0  0  0
  5 26  1  0  0  0
  5 92  1  0  0  0
  6 25  1  0  0  0
  6 93  1  0  0  0
  6 94  1  0  0  0
  7  8  2  0  0  0
  7 26  1  0  0  0
  7 29  1  0  0  0
  8  9  1  0  0  0
  8 22  1  0  0  0
  9 10  1  0  0  0
  9 27  2  0  0  0
 10 11  2  0  0  0
 10 15  1  0  0  0
 11 12  1  0  0  0
 11 95  1  0  0  0
 12 13  2  0  0  0
 12 96  1  0  0  0
 13 14  1  0  0  0
 13 31  1  0  0  0
 14 15  2  0  0  0
 14 97  1  0  0  0
 15 98  1  0  0  0
 16 17  2  0  0  0
 16 21  1  0  0  0
 16 31  1  0  0  0
 17 18  1  0  0  0
 17 99  1  0  0  0
 18 19  2  0  0  0
 18100  1  0  0  0
 19 20  1  0  0  0
 19 24  1  0  0  0
 20 21  2  0  0  0
 20101  1  0  0  0
 21 23  1  0  0  0
 22 28  1  0  0  0
 22 32  2  0  0  0
 26 27  1  0  0  0
 28102  1  0  0  0
 28103  1  0  0  0
 29104  1  0  0  0
 29105  1  0  0  0
 33 34  1  0  0  0
 33 66  1  0  0  0
 33 70  2  0  0  0
 34 36  1  0  0  0
 34 59  1  0  0  0
 34106  1  0  0  0
 35 44  2  0  0  0
 35 45  1  0  0  0
 35 68  1  0  0  0
 36 56  1  0  0  0
 36107  1  0  0  0
 37 39  1  0  0  0
 37 47  1  0  0  0
 37 66  1  0  0  0
 37108  1  0  0  0
 38 43  2  0  0  0
 38 46  1  0  0  0
 38 47  1  0  0  0
 39 64  1  0  0  0
 39 67  2  0  0  0
 40 52  1  0  0  0
 40 53  2  0  0  0
 40 58  1  0  0  0
 41109  1  0  0  0
 41110  1  0  0  0
 41111  1  0  0  0
 41 48  1  0  0  0
 42 43  1  0  0  0
 42 66  1  0  0  0
 42112  1  0  0  0
 42113  1  0  0  0
 43 44  1  0  0  0
 44114  1  0  0  0
 45 46  2  0  0  0
 45115  1  0  0  0
 46116  1  0  0  0
 47117  1  0  0  0
 47118  1  0  0  0
 48 56  1  0  0  0
 48 65  1  0  0  0
 48119  1  0  0  0
 49 50  1  0  0  0
 49 53  1  0  0  0
 49 64  1  0  0  0
 49120  1  0  0  0
 50 51  1  0  0  0
 50121  1  0  0  0
 50122  1  0  0  0
 51 52  1  0  0  0
 51123  1  0  0  0
 51124  1  0  0  0
 52125  1  0  0  0
 52126  1  0  0  0
 53 54  1  0  0  0
 54 55  2  0  0  0
 54127  1  0  0  0
 55 57  1  0  0  0
 55128  1  0  0  0
 56 69  2  0  0  0
 57 58  2  0  0  0
 57129  1  0  0  0
 58130  1  0  0  0
 59 60  1  0  0  0
 59 61  1  0  0  0
 59 62  1  0  0  0
 60131  1  0  0  0
 60132  1  0  0  0
 60133  1  0  0  0
 61134  1  0  0  0
 61135  1  0  0  0
 61136  1  0  0  0
 62137  1  0  0  0
 62138  1  0  0  0
 62139  1  0  0  0
 63 65  1  0  0  0
 63140  1  0  0  0
 63141  1  0  0  0
 63142  1  0  0  0
 64143  1  0  0  0
 65144  1  0  0  0
 68 80  1  0  0  0
 71 72  2  0  0  0
 71 74  1  0  0  0
 71145  1  0  0  0
 72 76  1  0  0  0
 72146  1  0  0  0
 73 75  1  0  0  0
 73 76  2  0  0  0
 73147  1  0  0  0
 74 75  2  0  0  0
 74 80  1  0  0  0
 75 78  1  0  0  0
 76 84  1  0  0  0
 77 82  1  0  0  0
 77 84  1  0  0  0
 77 85  2  0  0  0
 78148  1  0  0  0
 78149  1  0  0  0
 78150  1  0  0  0
 79 83  1  0  0  0
 79151  1  0  0  0
 79152  1  0  0  0
 79153  1  0  0  0
 80154  1  0  0  0
 80155  1  0  0  0
 81 82  1  0  0  0
 81156  1  0  0  0
 81157  1  0  0  0
 82158  1  0  0  0
 82159  1  0  0  0
 83 84  1  0  0  0
 83160  1  0  0  0
 83161  1  0  0  0
M  ISO  4   1 100  68 101  80 101  81 100
M  END
> <chiral flag>
0

> <version>
0

> <s_m_source_file>
/data/baiqing/PycharmProjects/Reinvent-master-3.2/result/LINK_invent/BTK/process_docking_weight1_custom_product_contain_oxygen_bond_distance_aromatic_linkinvent_7_9_3/rearranged_h_0102.sdf

> <i_m_source_file_index>
45

> <r_mmod_Potential_Energy-OPLS-2005>
286.851257324219

> <r_mmod_Stretch_Energy-OPLS-2005>
114.535743713379

> <r_mmod_Bend_Energy-OPLS-2005>
230.985534667969

> <r_mmod_Torsional_Energy-OPLS-2005>
256.155914306641

> <r_mmod_Improper_Torsional_Energy-OPLS-2005>
5.08288240432739

> <r_mmod_Van_der_Waal_Energy-OPLS-2005>
156.419967651367

> <r_mmod_Electrostatic_Energy-OPLS-2005>
-326.025726318359

> <r_mmod_Solvation_Energy-OPLS-2005>
-205.841918945312

> <b_mmod_Minimization_Converged-OPLS-2005>
0

> <r_mmod_RMS_Derivative-OPLS-2005>
10.3376235961914

$$$$
46
                    3D
 Structure written by MMmdl.
155163  0  0  1  0            999 V2000
  -30.7116  -14.4351   20.5509 C   0  0  0  0  0  0
  -30.4056  -12.2676   19.4412 C   0  0  0  0  0  0
  -29.4929  -12.4778   18.2160 C   0  0  0  0  0  0
  -28.0118  -12.3538   18.6210 C   0  0  0  0  0  0
  -27.6561  -13.2039   19.8714 C   0  0  2  0  0  0
  -28.6907  -13.0033   21.0035 C   0  0  0  0  0  0
  -25.2564  -13.8161   20.5683 C   0  0  0  0  0  0
  -24.1823  -13.0445   20.9185 C   0  0  0  0  0  0
  -24.6349  -11.6905   20.8733 C   0  0  0  0  0  0
  -23.9024  -10.4298   21.0406 C   0  0  0  0  0  0
  -24.3594   -9.4216   21.9184 C   0  0  0  0  0  0
  -23.6290   -8.2247   22.0745 C   0  0  0  0  0  0
  -22.4281   -8.0269   21.3534 C   0  0  0  0  0  0
  -21.9896   -9.0235   20.4645 C   0  0  0  0  0  0
  -22.7187  -10.2135   20.3065 C   0  0  0  0  0  0
  -21.6862   -6.0730   22.5294 C   0  0  0  0  0  0
  -21.3999   -6.5644   23.8221 C   0  0  0  0  0  0
  -21.3656   -5.6800   24.9194 C   0  0  0  0  0  0
  -21.6057   -4.3059   24.7240 C   0  0  0  0  0  0
  -21.8814   -3.8144   23.4357 C   0  0  0  0  0  0
  -21.9195   -4.6959   22.3413 C   0  0  0  0  0  0
  -22.7854  -13.5246   21.1857 C   0  0  0  0  0  0
  -22.1667   -4.2149   21.0986 F   0  0  0  0  0  0
  -21.5633   -3.4530   25.7750 F   0  0  0  0  0  0
  -30.0258  -13.2686   20.4532 N   0  0  0  0  0  0
  -26.2987  -12.9329   20.3351 N   0  0  0  0  0  0
  -25.9275  -11.6485   20.5777 N   0  0  0  0  0  0
  -22.0493  -12.8257   22.0420 N   0  0  0  0  0  0
  -25.4324  -15.1879   20.4062 N   0  0  0  0  0  0
  -31.8709  -14.5498   20.1440 O   0  0  0  0  0  0
  -21.6644   -6.8865   21.4246 O   0  0  0  0  0  0
  -22.3537  -14.5550   20.6688 O   0  0  0  0  0  0
  -24.6163  -31.8674   23.2071 C   0  0  0  0  0  0
  -25.9049  -32.4824   23.8351 C   0  0  1  0  0  0
  -27.2273  -27.4286   20.0777 C   0  0  0  0  0  0
  -25.5897  -33.8626   24.2288 N   0  0  0  0  0  0
  -23.4028  -30.4935   21.5495 C   0  0  2  0  0  0
  -24.8426  -28.9573   20.1164 C   0  0  0  0  0  0
  -22.7409  -29.4663   22.4963 C   0  0  0  0  0  0
  -18.0285  -28.1374   22.8479 C   0  0  0  0  0  0
  -24.1495  -36.7312   23.2638 C   0  0  0  0  0  0
  -25.9345  -30.8290   21.3622 C   0  0  0  0  0  0
  -26.0063  -29.4651   20.7045 C   0  0  0  0  0  0
  -27.2013  -28.7095   20.6783 C   0  0  0  0  0  0
  -26.0398  -26.9382   19.4842 C   0  0  0  0  0  0
  -24.8523  -27.6920   19.5079 C   0  0  0  0  0  0
  -23.6099  -29.8300   20.1642 C   0  0  0  0  0  0
  -25.4110  -36.3106   24.0336 C   0  0  1  0  0  0
  -20.5878  -28.3666   23.1294 C   0  0  2  0  0  0
  -20.6775  -26.9399   22.5406 C   0  0  0  0  0  0
  -19.5757  -26.6384   21.5194 C   0  0  0  0  0  0
  -18.1933  -26.7925   22.1600 C   0  0  0  0  0  0
  -19.1537  -28.8829   23.2892 C   0  0  0  0  0  0
  -18.9471  -30.1431   23.8915 C   0  0  0  0  0  0
  -17.6477  -30.6586   24.0559 C   0  0  0  0  0  0
  -25.9055  -34.9483   23.5116 C   0  0  0  0  0  0
  -16.5363  -29.9093   23.6316 C   0  0  0  0  0  0
  -16.7273  -28.6502   23.0343 C   0  0  0  0  0  0
  -26.4467  -31.6625   25.0694 C   0  0  0  0  0  0
  -25.3739  -31.3768   26.1452 C   0  0  0  0  0  0
  -27.0293  -30.3061   24.6083 C   0  0  0  0  0  0
  -27.6036  -32.4361   25.7460 C   0  0  0  0  0  0
  -27.5599  -37.1779   24.8438 C   0  0  0  0  0  0
  -21.4143  -29.3043   22.3711 N   0  0  0  0  0  0
  -26.4278  -37.3797   23.9445 N   0  0  0  0  0  0
  -24.6694  -31.0779   22.0970 N   0  0  0  0  0  0
  -23.4178  -28.8207   23.3003 O   0  0  0  0  0  0
  -28.4054  -26.7068   20.0955 O   0  0  0  0  0  0
  -26.5623  -34.8931   22.4681 O   0  0  0  0  0  0
  -23.5355  -32.1428   23.7477 O   0  0  0  0  0  0
  -29.6600  -18.9796   19.2043 C   0  0  0  0  0  0
  -29.3827  -20.3413   19.3909 C   0  0  0  0  0  0
  -29.3823  -18.5672   21.5808 C   0  0  0  0  0  0
  -29.6994  -18.0876   20.2889 C   0  0  0  0  0  0
  -29.1436  -20.8619   20.6835 C   0  0  0  0  0  0
  -29.1016  -19.9477   21.7711 C   0  0  0  0  0  0
  -30.2424  -16.7017   19.9629 C   0  0  0  0  0  0
  -29.5990  -24.6042   20.3566 C   0  0  0  0  0  0
  -28.3585  -25.3074   19.7770 C   0  0  0  0  0  0
  -29.7124  -23.0982   20.0293 C   0  0  0  0  0  0
  -29.9767  -15.5324   20.8085 N   0  0  0  0  0  0
  -28.8447  -20.4157   23.0273 O   0  0  0  0  0  0
  -28.9758  -22.2231   20.9073 O   0  0  0  0  0  0
  -31.4559  -12.3310   19.1469 H   0  0  0  0  0  0
  -30.2721  -11.2614   19.8419 H   0  0  0  0  0  0
  -29.7237  -11.7419   17.4430 H   0  0  0  0  0  0
  -29.6769  -13.4578   17.7747 H   0  0  0  0  0  0
  -27.8143  -11.2989   18.8215 H   0  0  0  0  0  0
  -27.3671  -12.6237   17.7826 H   0  0  0  0  0  0
  -27.6967  -14.2469   19.5578 H   0  0  0  0  0  0
  -28.6511  -11.9811   21.3796 H   0  0  0  0  0  0
  -28.4655  -13.6411   21.8578 H   0  0  0  0  0  0
  -25.2750   -9.5733   22.4736 H   0  0  0  0  0  0
  -24.0035   -7.4641   22.7448 H   0  0  0  0  0  0
  -21.0832   -8.8729   19.8947 H   0  0  0  0  0  0
  -22.3629  -10.9663   19.6169 H   0  0  0  0  0  0
  -21.1987   -7.6157   23.9724 H   0  0  0  0  0  0
  -21.1481   -6.0537   25.9097 H   0  0  0  0  0  0
  -22.0597   -2.7602   23.2872 H   0  0  0  0  0  0
  -22.4114  -11.9946   22.4857 H   0  0  0  0  0  0
  -21.1100  -13.1277   22.2569 H   0  0  0  0  0  0
  -24.6668  -15.8468   20.5108 H   0  0  0  0  0  0
  -26.2849  -15.6235   20.0788 H   0  0  0  0  0  0
  -26.7117  -32.5519   23.1110 H   0  0  0  0  0  0
  -25.0005  -33.9771   25.0397 H   0  0  0  0  0  0
  -22.6929  -31.3115   21.4117 H   0  0  0  0  0  0
  -23.3770  -35.9625   23.3242 H   0  0  0  0  0  0
  -24.3602  -36.8987   22.2063 H   0  0  0  0  0  0
  -23.7209  -37.6483   23.6690 H   0  0  0  0  0  0
  -26.0589  -31.5962   20.5971 H   0  0  0  0  0  0
  -26.8192  -30.8722   21.9859 H   0  0  0  0  0  0
  -28.1050  -29.1026   21.1246 H   0  0  0  0  0  0
  -26.0074  -25.9767   18.9936 H   0  0  0  0  0  0
  -23.9558  -27.2892   19.0576 H   0  0  0  0  0  0
  -23.7339  -30.6077   19.4096 H   0  0  0  0  0  0
  -22.7301  -29.2625   19.8577 H   0  0  0  0  0  0
  -25.1286  -36.1945   25.0821 H   0  0  0  0  0  0
  -20.9975  -28.3231   24.1407 H   0  0  0  0  0  0
  -20.5662  -26.2271   23.3595 H   0  0  0  0  0  0
  -21.6646  -26.7437   22.1207 H   0  0  0  0  0  0
  -19.6930  -25.6298   21.1215 H   0  0  0  0  0  0
  -19.6712  -27.3193   20.6726 H   0  0  0  0  0  0
  -17.4209  -26.6666   21.4000 H   0  0  0  0  0  0
  -18.0344  -26.0062   22.8991 H   0  0  0  0  0  0
  -19.7955  -30.7227   24.2297 H   0  0  0  0  0  0
  -17.5048  -31.6272   24.5162 H   0  0  0  0  0  0
  -15.5368  -30.3019   23.7633 H   0  0  0  0  0  0
  -15.8663  -28.0837   22.7058 H   0  0  0  0  0  0
  -24.5848  -30.7193   25.7777 H   0  0  0  0  0  0
  -24.9017  -32.2967   26.4925 H   0  0  0  0  0  0
  -25.8077  -30.8882   27.0188 H   0  0  0  0  0  0
  -26.2820  -29.6823   24.1164 H   0  0  0  0  0  0
  -27.4087  -29.7298   25.4528 H   0  0  0  0  0  0
  -27.8648  -30.4366   23.9204 H   0  0  0  0  0  0
  -27.2611  -33.3619   26.2100 H   0  0  0  0  0  0
  -28.3803  -32.7014   25.0276 H   0  0  0  0  0  0
  -28.0757  -31.8468   26.5330 H   0  0  0  0  0  0
  -28.2539  -38.0156   24.7617 H   0  0  0  0  0  0
  -28.1183  -36.2700   24.6097 H   0  0  0  0  0  0
  -27.2352  -37.1217   25.8841 H   0  0  0  0  0  0
  -20.9300  -29.8774   21.6951 H   0  0  0  0  0  0
  -26.0168  -38.2857   24.1522 H   0  0  0  0  0  0
  -29.9050  -18.6318   18.2114 H   0  0  0  0  0  0
  -29.3954  -20.9627   18.5117 H   0  0  0  0  0  0
  -29.4018  -17.8963   22.4281 H   0  0  0  0  0  0
  -31.3176  -16.8593   19.8548 H   0  0  0  0  0  0
  -29.8809  -16.4349   18.9676 H   0  0  0  0  0  0
  -29.6597  -24.7645   21.4330 H   0  0  0  0  0  0
  -30.4699  -25.0997   19.9262 H   0  0  0  0  0  0
  -27.4734  -24.8224   20.1869 H   0  0  0  0  0  0
  -28.3244  -25.1898   18.6921 H   0  0  0  0  0  0
  -30.7654  -22.8204   20.1066 H   0  0  0  0  0  0
  -29.4286  -22.9695   18.9858 H   0  0  0  0  0  0
  -29.0385  -15.4000   21.1517 H   0  0  0  0  0  0
  -28.7259  -21.3618   23.0223 H   0  0  0  0  0  0
  1 25  1  0  0  0
  1 30  2  0  0  0
  1 81  1  0  0  0
  2  3  1  0  0  0
  2 25  1  0  0  0
  2 84  1  0  0  0
  2 85  1  0  0  0
  3  4  1  0  0  0
  3 86  1  0  0  0
  3 87  1  0  0  0
  4  5  1  0  0  0
  4 88  1  0  0  0
  4 89  1  0  0  0
  5  6  1  0  0  0
  5 26  1  0  0  0
  5 90  1  0  0  0
  6 25  1  0  0  0
  6 91  1  0  0  0
  6 92  1  0  0  0
  7  8  2  0  0  0
  7 26  1  0  0  0
  7 29  1  0  0  0
  8  9  1  0  0  0
  8 22  1  0  0  0
  9 10  1  0  0  0
  9 27  2  0  0  0
 10 11  2  0  0  0
 10 15  1  0  0  0
 11 12  1  0  0  0
 11 93  1  0  0  0
 12 13  2  0  0  0
 12 94  1  0  0  0
 13 14  1  0  0  0
 13 31  1  0  0  0
 14 15  2  0  0  0
 14 95  1  0  0  0
 15 96  1  0  0  0
 16 17  2  0  0  0
 16 21  1  0  0  0
 16 31  1  0  0  0
 17 18  1  0  0  0
 17 97  1  0  0  0
 18 19  2  0  0  0
 18 98  1  0  0  0
 19 20  1  0  0  0
 19 24  1  0  0  0
 20 21  2  0  0  0
 20 99  1  0  0  0
 21 23  1  0  0  0
 22 28  1  0  0  0
 22 32  2  0  0  0
 26 27  1  0  0  0
 28100  1  0  0  0
 28101  1  0  0  0
 29102  1  0  0  0
 29103  1  0  0  0
 33 34  1  0  0  0
 33 66  1  0  0  0
 33 70  2  0  0  0
 34 36  1  0  0  0
 34 59  1  0  0  0
 34104  1  0  0  0
 35 44  2  0  0  0
 35 45  1  0  0  0
 35 68  1  0  0  0
 36 56  1  0  0  0
 36105  1  0  0  0
 37 39  1  0  0  0
 37 47  1  0  0  0
 37 66  1  0  0  0
 37106  1  0  0  0
 38 43  2  0  0  0
 38 46  1  0  0  0
 38 47  1  0  0  0
 39 64  1  0  0  0
 39 67  2  0  0  0
 40 52  1  0  0  0
 40 53  2  0  0  0
 40 58  1  0  0  0
 41107  1  0  0  0
 41108  1  0  0  0
 41109  1  0  0  0
 41 48  1  0  0  0
 42 43  1  0  0  0
 42 66  1  0  0  0
 42110  1  0  0  0
 42111  1  0  0  0
 43 44  1  0  0  0
 44112  1  0  0  0
 45 46  2  0  0  0
 45113  1  0  0  0
 46114  1  0  0  0
 47115  1  0  0  0
 47116  1  0  0  0
 48 56  1  0  0  0
 48 65  1  0  0  0
 48117  1  0  0  0
 49 50  1  0  0  0
 49 53  1  0  0  0
 49 64  1  0  0  0
 49118  1  0  0  0
 50 51  1  0  0  0
 50119  1  0  0  0
 50120  1  0  0  0
 51 52  1  0  0  0
 51121  1  0  0  0
 51122  1  0  0  0
 52123  1  0  0  0
 52124  1  0  0  0
 53 54  1  0  0  0
 54 55  2  0  0  0
 54125  1  0  0  0
 55 57  1  0  0  0
 55126  1  0  0  0
 56 69  2  0  0  0
 57 58  2  0  0  0
 57127  1  0  0  0
 58128  1  0  0  0
 59 60  1  0  0  0
 59 61  1  0  0  0
 59 62  1  0  0  0
 60129  1  0  0  0
 60130  1  0  0  0
 60131  1  0  0  0
 61132  1  0  0  0
 61133  1  0  0  0
 61134  1  0  0  0
 62135  1  0  0  0
 62136  1  0  0  0
 62137  1  0  0  0
 63 65  1  0  0  0
 63138  1  0  0  0
 63139  1  0  0  0
 63140  1  0  0  0
 64141  1  0  0  0
 65142  1  0  0  0
 68 79  1  0  0  0
 71 72  2  0  0  0
 71 74  1  0  0  0
 71143  1  0  0  0
 72 75  1  0  0  0
 72144  1  0  0  0
 73 74  2  0  0  0
 73 76  1  0  0  0
 73145  1  0  0  0
 74 77  1  0  0  0
 75 76  2  0  0  0
 75 83  1  0  0  0
 76 82  1  0  0  0
 77 81  1  0  0  0
 77146  1  0  0  0
 77147  1  0  0  0
 78 79  1  0  0  0
 78 80  1  0  0  0
 78148  1  0  0  0
 78149  1  0  0  0
 79150  1  0  0  0
 79151  1  0  0  0
 80 83  1  0  0  0
 80152  1  0  0  0
 80153  1  0  0  0
 81154  1  0  0  0
 82155  1  0  0  0
M  ISO  4   1 100  68 101  79 101  81 100
M  END
> <chiral flag>
0

> <version>
0

> <s_m_source_file>
/data/baiqing/PycharmProjects/Reinvent-master-3.2/result/LINK_invent/BTK/process_docking_weight1_custom_product_contain_oxygen_bond_distance_aromatic_linkinvent_7_9_3/rearranged_h_0102.sdf

> <i_m_source_file_index>
46

> <r_mmod_Potential_Energy-OPLS-2005>
-111.297035217285

> <r_mmod_Stretch_Energy-OPLS-2005>
36.7880020141602

> <r_mmod_Bend_Energy-OPLS-2005>
114.606910705566

> <r_mmod_Torsional_Energy-OPLS-2005>
225.186599731445

> <r_mmod_Improper_Torsional_Energy-OPLS-2005>
11.0281763076782

> <r_mmod_Van_der_Waal_Energy-OPLS-2005>
167.313705444336

> <r_mmod_Electrostatic_Energy-OPLS-2005>
-454.754608154297

> <r_mmod_Solvation_Energy-OPLS-2005>
-227.101776123047

> <b_mmod_Minimization_Converged-OPLS-2005>
0

> <r_mmod_RMS_Derivative-OPLS-2005>
3.78169441223145

$$$$
47
                    3D
 Structure written by MMmdl.
168176  0  0  1  0            999 V2000
  -30.6416  -14.7359   20.3595 C   0  0  0  0  0  0
  -30.4473  -12.4122   19.4845 C   0  0  0  0  0  0
  -29.5201  -12.3475   18.2510 C   0  0  0  0  0  0
  -28.0282  -12.2827   18.6570 C   0  0  0  0  0  0
  -27.6317  -13.2010   19.8502 C   0  0  2  0  0  0
  -28.6977  -13.2011   20.9667 C   0  0  0  0  0  0
  -25.2539  -13.8104   20.5777 C   0  0  0  0  0  0
  -24.1785  -13.0404   20.9244 C   0  0  0  0  0  0
  -24.6333  -11.6866   20.8812 C   0  0  0  0  0  0
  -23.9003  -10.4266   21.0449 C   0  0  0  0  0  0
  -24.3575   -9.4182   21.9213 C   0  0  0  0  0  0
  -23.6254   -8.2218   22.0761 C   0  0  0  0  0  0
  -22.4242   -8.0251   21.3539 C   0  0  0  0  0  0
  -21.9871   -9.0223   20.4652 C   0  0  0  0  0  0
  -22.7188  -10.2112   20.3084 C   0  0  0  0  0  0
  -21.6836   -6.0714   22.5269 C   0  0  0  0  0  0
  -21.4001   -6.5627   23.8202 C   0  0  0  0  0  0
  -21.3660   -5.6784   24.9171 C   0  0  0  0  0  0
  -21.6050   -4.3044   24.7220 C   0  0  0  0  0  0
  -21.8815   -3.8131   23.4345 C   0  0  0  0  0  0
  -21.9188   -4.6947   22.3406 C   0  0  0  0  0  0
  -22.7816  -13.5248   21.1848 C   0  0  0  0  0  0
  -22.1657   -4.2144   21.0977 F   0  0  0  0  0  0
  -21.5630   -3.4530   25.7740 F   0  0  0  0  0  0
  -29.9895  -13.5221   20.3430 N   0  0  0  0  0  0
  -26.2914  -12.9216   20.3410 N   0  0  0  0  0  0
  -25.9262  -11.6406   20.5884 N   0  0  0  0  0  0
  -22.0423  -12.8272   22.0393 N   0  0  0  0  0  0
  -25.4267  -15.1833   20.4204 N   0  0  0  0  0  0
  -31.8676  -14.7787   20.2359 O   0  0  0  0  0  0
  -21.6618   -6.8845   21.4224 O   0  0  0  0  0  0
  -22.3542  -14.5557   20.6674 O   0  0  0  0  0  0
  -24.6256  -31.8604   23.2037 C   0  0  0  0  0  0
  -25.9093  -32.4788   23.8376 C   0  0  1  0  0  0
  -27.2353  -27.3253   20.1157 C   0  0  0  0  0  0
  -25.5897  -33.8595   24.2293 N   0  0  0  0  0  0
  -23.4206  -30.4821   21.5457 C   0  0  2  0  0  0
  -24.8690  -28.9362   20.1122 C   0  0  0  0  0  0
  -22.7469  -29.4628   22.4946 C   0  0  0  0  0  0
  -18.0275  -28.1367   22.8490 C   0  0  0  0  0  0
  -24.1473  -36.7314   23.2648 C   0  0  0  0  0  0
  -25.9596  -30.7929   21.3736 C   0  0  0  0  0  0
  -26.0351  -29.4183   20.7191 C   0  0  0  0  0  0
  -27.2184  -28.6233   20.7119 C   0  0  0  0  0  0
  -26.0470  -26.9009   19.4732 C   0  0  0  0  0  0
  -24.8758  -27.6824   19.4820 C   0  0  0  0  0  0
  -23.6358  -29.8143   20.1619 C   0  0  0  0  0  0
  -25.4095  -36.3106   24.0347 C   0  0  1  0  0  0
  -20.5879  -28.3685   23.1263 C   0  0  2  0  0  0
  -20.6751  -26.9397   22.5409 C   0  0  0  0  0  0
  -19.5727  -26.6377   21.5197 C   0  0  0  0  0  0
  -18.1913  -26.7914   22.1624 C   0  0  0  0  0  0
  -19.1535  -28.8846   23.2877 C   0  0  0  0  0  0
  -18.9461  -30.1445   23.8897 C   0  0  0  0  0  0
  -17.6468  -30.6581   24.0558 C   0  0  0  0  0  0
  -25.9038  -34.9469   23.5124 C   0  0  0  0  0  0
  -16.5352  -29.9082   23.6320 C   0  0  0  0  0  0
  -16.7273  -28.6491   23.0360 C   0  0  0  0  0  0
  -26.4481  -31.6598   25.0750 C   0  0  0  0  0  0
  -25.3717  -31.3735   26.1485 C   0  0  0  0  0  0
  -27.0337  -30.3022   24.6208 C   0  0  0  0  0  0
  -27.6052  -32.4339   25.7511 C   0  0  0  0  0  0
  -27.5562  -37.1808   24.8466 C   0  0  0  0  0  0
  -21.4186  -29.3057   22.3685 N   0  0  0  0  0  0
  -26.4278  -37.3791   23.9414 N   0  0  0  0  0  0
  -24.6871  -31.0621   22.0977 N   0  0  0  0  0  0
  -23.4182  -28.8157   23.3035 O   0  0  0  0  0  0
  -28.3697  -26.4975   20.1886 O   0  0  0  0  0  0
  -26.5619  -34.8938   22.4696 O   0  0  0  0  0  0
  -23.5424  -32.1397   23.7357 O   0  0  0  0  0  0
  -30.9466  -18.1762   20.1315 C   0  0  0  0  0  0
  -30.7859  -19.5814   20.3309 C   0  0  0  0  0  0
  -28.9722  -17.7543   21.4355 C   0  0  0  0  0  0
  -30.0094  -17.2235   20.6242 C   0  0  0  0  0  0
  -29.7106  -20.1105   21.0864 C   0  0  0  0  0  0
  -28.8395  -19.1551   21.6814 C   0  0  0  0  0  0
  -25.1865  -18.6833   23.5370 C   0  0  0  0  0  0
  -30.0763  -16.6579   17.6219 C   0  0  0  0  0  0
  -25.5108  -20.0304   22.8774 C   0  0  0  0  0  0
  -29.1826  -24.0265   20.6919 C   0  0  0  0  0  0
  -29.2637  -15.9390   18.7158 C   0  0  0  0  0  0
  -29.1448  -22.4841   20.2745 C   0  0  0  0  0  0
  -26.6362  -19.9249   21.8435 C   0  0  0  0  0  0
  -28.2607  -25.0498   19.8937 C   0  0  0  0  0  0
  -29.5372  -21.5104   21.3374 N   0  0  0  0  0  0
  -29.8926  -15.8741   20.0573 N   0  0  0  0  0  0
  -27.8402  -19.5873   22.5150 O   0  0  0  0  0  0
  -31.4853  -12.5349   19.1681 H   0  0  0  0  0  0
  -30.4138  -11.4749   20.0430 H   0  0  0  0  0  0
  -29.7642  -11.4537   17.6771 H   0  0  0  0  0  0
  -29.7222  -13.1631   17.5605 H   0  0  0  0  0  0
  -27.8259  -11.2450   18.9231 H   0  0  0  0  0  0
  -27.3969  -12.4924   17.7928 H   0  0  0  0  0  0
  -27.5612  -14.2045   19.4597 H   0  0  0  0  0  0
  -28.7409  -12.2322   21.4669 H   0  0  0  0  0  0
  -28.4496  -13.9392   21.7315 H   0  0  0  0  0  0
  -25.2721   -9.5649   22.4792 H   0  0  0  0  0  0
  -23.9957   -7.4606   22.7484 H   0  0  0  0  0  0
  -21.0797   -8.8734   19.8962 H   0  0  0  0  0  0
  -22.3645  -10.9647   19.6192 H   0  0  0  0  0  0
  -21.1991   -7.6134   23.9697 H   0  0  0  0  0  0
  -21.1478   -6.0519   25.9070 H   0  0  0  0  0  0
  -22.0607   -2.7590   23.2848 H   0  0  0  0  0  0
  -22.4032  -11.9967   22.4853 H   0  0  0  0  0  0
  -21.1040  -13.1324   22.2568 H   0  0  0  0  0  0
  -24.6634  -15.8393   20.5333 H   0  0  0  0  0  0
  -26.2856  -15.6197   20.1111 H   0  0  0  0  0  0
  -26.7158  -32.5465   23.1134 H   0  0  0  0  0  0
  -24.9985  -33.9739   25.0396 H   0  0  0  0  0  0
  -22.7149  -31.3033   21.4021 H   0  0  0  0  0  0
  -23.3733  -35.9646   23.3325 H   0  0  0  0  0  0
  -24.3567  -36.8924   22.2058 H   0  0  0  0  0  0
  -23.7230  -37.6526   23.6657 H   0  0  0  0  0  0
  -26.0842  -31.5509   20.5988 H   0  0  0  0  0  0
  -26.8423  -30.8467   21.9999 H   0  0  0  0  0  0
  -28.1138  -28.9875   21.1976 H   0  0  0  0  0  0
  -25.9906  -25.9550   18.9559 H   0  0  0  0  0  0
  -23.9824  -27.3078   19.0009 H   0  0  0  0  0  0
  -23.7531  -30.5899   19.4047 H   0  0  0  0  0  0
  -22.7540  -29.2445   19.8606 H   0  0  0  0  0  0
  -25.1257  -36.1968   25.0839 H   0  0  0  0  0  0
  -20.9966  -28.3253   24.1384 H   0  0  0  0  0  0
  -20.5582  -26.2307   23.3628 H   0  0  0  0  0  0
  -21.6620  -26.7382   22.1228 H   0  0  0  0  0  0
  -19.6872  -25.6281   21.1233 H   0  0  0  0  0  0
  -19.6638  -27.3182   20.6711 H   0  0  0  0  0  0
  -17.4163  -26.6660   21.4048 H   0  0  0  0  0  0
  -18.0317  -26.0056   22.9015 H   0  0  0  0  0  0
  -19.7950  -30.7249   24.2270 H   0  0  0  0  0  0
  -17.5031  -31.6256   24.5165 H   0  0  0  0  0  0
  -15.5357  -30.2986   23.7652 H   0  0  0  0  0  0
  -15.8665  -28.0808   22.7084 H   0  0  0  0  0  0
  -24.5897  -30.7072   25.7815 H   0  0  0  0  0  0
  -24.8905  -32.2899   26.4903 H   0  0  0  0  0  0
  -25.8047  -30.8924   27.0263 H   0  0  0  0  0  0
  -26.2916  -29.6777   24.1220 H   0  0  0  0  0  0
  -27.4011  -29.7282   25.4725 H   0  0  0  0  0  0
  -27.8787  -30.4321   23.9451 H   0  0  0  0  0  0
  -27.2659  -33.3643   26.2077 H   0  0  0  0  0  0
  -28.3846  -32.6887   25.0318 H   0  0  0  0  0  0
  -28.0726  -31.8475   26.5433 H   0  0  0  0  0  0
  -28.2589  -38.0094   24.7495 H   0  0  0  0  0  0
  -28.1053  -36.2629   24.6297 H   0  0  0  0  0  0
  -27.2302  -37.1459   25.8879 H   0  0  0  0  0  0
  -20.9358  -29.8839   21.6941 H   0  0  0  0  0  0
  -26.0174  -38.2873   24.1413 H   0  0  0  0  0  0
  -31.7546  -17.8423   19.4965 H   0  0  0  0  0  0
  -31.5066  -20.2565   19.8942 H   0  0  0  0  0  0
  -28.2215  -17.0869   21.8319 H   0  0  0  0  0  0
  -24.3276  -18.7723   24.2019 H   0  0  0  0  0  0
  -26.0295  -18.3245   24.1291 H   0  0  0  0  0  0
  -24.9554  -17.9227   22.7909 H   0  0  0  0  0  0
  -29.6784  -16.4141   16.6360 H   0  0  0  0  0  0
  -31.1268  -16.3632   17.6313 H   0  0  0  0  0  0
  -30.0123  -17.7415   17.7145 H   0  0  0  0  0  0
  -25.7808  -20.7621   23.6409 H   0  0  0  0  0  0
  -24.6177  -20.4170   22.3870 H   0  0  0  0  0  0
  -30.2176  -24.3670   20.6329 H   0  0  0  0  0  0
  -28.9071  -24.1111   21.7428 H   0  0  0  0  0  0
  -29.0728  -14.9601   18.3112 H   0  0  0  0  0  0
  -28.2838  -16.4103   18.8086 H   0  0  0  0  0  0
  -29.7721  -22.3284   19.3942 H   0  0  0  0  0  0
  -28.1312  -22.2331   19.9578 H   0  0  0  0  0  0
  -26.7572  -20.8807   21.3346 H   0  0  0  0  0  0
  -26.3830  -19.1870   21.0804 H   0  0  0  0  0  0
  -27.2485  -24.7008   20.0899 H   0  0  0  0  0  0
  -28.4261  -24.9216   18.8234 H   0  0  0  0  0  0
  -28.9389  -21.6238   22.1541 H   0  0  0  0  0  0
  1 25  1  0  0  0
  1 30  2  0  0  0
  1 86  1  0  0  0
  2  3  1  0  0  0
  2 25  1  0  0  0
  2 88  1  0  0  0
  2 89  1  0  0  0
  3  4  1  0  0  0
  3 90  1  0  0  0
  3 91  1  0  0  0
  4  5  1  0  0  0
  4 92  1  0  0  0
  4 93  1  0  0  0
  5  6  1  0  0  0
  5 26  1  0  0  0
  5 94  1  0  0  0
  6 25  1  0  0  0
  6 95  1  0  0  0
  6 96  1  0  0  0
  7  8  2  0  0  0
  7 26  1  0  0  0
  7 29  1  0  0  0
  8  9  1  0  0  0
  8 22  1  0  0  0
  9 10  1  0  0  0
  9 27  2  0  0  0
 10 11  2  0  0  0
 10 15  1  0  0  0
 11 12  1  0  0  0
 11 97  1  0  0  0
 12 13  2  0  0  0
 12 98  1  0  0  0
 13 14  1  0  0  0
 13 31  1  0  0  0
 14 15  2  0  0  0
 14 99  1  0  0  0
 15100  1  0  0  0
 16 17  2  0  0  0
 16 21  1  0  0  0
 16 31  1  0  0  0
 17 18  1  0  0  0
 17101  1  0  0  0
 18 19  2  0  0  0
 18102  1  0  0  0
 19 20  1  0  0  0
 19 24  1  0  0  0
 20 21  2  0  0  0
 20103  1  0  0  0
 21 23  1  0  0  0
 22 28  1  0  0  0
 22 32  2  0  0  0
 26 27  1  0  0  0
 28104  1  0  0  0
 28105  1  0  0  0
 29106  1  0  0  0
 29107  1  0  0  0
 33 34  1  0  0  0
 33 66  1  0  0  0
 33 70  2  0  0  0
 34 36  1  0  0  0
 34 59  1  0  0  0
 34108  1  0  0  0
 35 44  2  0  0  0
 35 45  1  0  0  0
 35 68  1  0  0  0
 36 56  1  0  0  0
 36109  1  0  0  0
 37 39  1  0  0  0
 37 47  1  0  0  0
 37 66  1  0  0  0
 37110  1  0  0  0
 38 43  2  0  0  0
 38 46  1  0  0  0
 38 47  1  0  0  0
 39 64  1  0  0  0
 39 67  2  0  0  0
 40 52  1  0  0  0
 40 53  2  0  0  0
 40 58  1  0  0  0
 41111  1  0  0  0
 41112  1  0  0  0
 41113  1  0  0  0
 41 48  1  0  0  0
 42 43  1  0  0  0
 42 66  1  0  0  0
 42114  1  0  0  0
 42115  1  0  0  0
 43 44  1  0  0  0
 44116  1  0  0  0
 45 46  2  0  0  0
 45117  1  0  0  0
 46118  1  0  0  0
 47119  1  0  0  0
 47120  1  0  0  0
 48 56  1  0  0  0
 48 65  1  0  0  0
 48121  1  0  0  0
 49 50  1  0  0  0
 49 53  1  0  0  0
 49 64  1  0  0  0
 49122  1  0  0  0
 50 51  1  0  0  0
 50123  1  0  0  0
 50124  1  0  0  0
 51 52  1  0  0  0
 51125  1  0  0  0
 51126  1  0  0  0
 52127  1  0  0  0
 52128  1  0  0  0
 53 54  1  0  0  0
 54 55  2  0  0  0
 54129  1  0  0  0
 55 57  1  0  0  0
 55130  1  0  0  0
 56 69  2  0  0  0
 57 58  2  0  0  0
 57131  1  0  0  0
 58132  1  0  0  0
 59 60  1  0  0  0
 59 61  1  0  0  0
 59 62  1  0  0  0
 60133  1  0  0  0
 60134  1  0  0  0
 60135  1  0  0  0
 61136  1  0  0  0
 61137  1  0  0  0
 61138  1  0  0  0
 62139  1  0  0  0
 62140  1  0  0  0
 62141  1  0  0  0
 63 65  1  0  0  0
 63142  1  0  0  0
 63143  1  0  0  0
 63144  1  0  0  0
 64145  1  0  0  0
 65146  1  0  0  0
 68 84  1  0  0  0
 71 72  2  0  0  0
 71 74  1  0  0  0
 71147  1  0  0  0
 72 75  1  0  0  0
 72148  1  0  0  0
 73 74  2  0  0  0
 73 76  1  0  0  0
 73149  1  0  0  0
 74 86  1  0  0  0
 75 76  2  0  0  0
 75 85  1  0  0  0
 76 87  1  0  0  0
 77 79  1  0  0  0
 77150  1  0  0  0
 77151  1  0  0  0
 77152  1  0  0  0
 78 81  1  0  0  0
 78153  1  0  0  0
 78154  1  0  0  0
 78155  1  0  0  0
 79 83  1  0  0  0
 79156  1  0  0  0
 79157  1  0  0  0
 80 82  1  0  0  0
 80 84  1  0  0  0
 80158  1  0  0  0
 80159  1  0  0  0
 81 86  1  0  0  0
 81160  1  0  0  0
 81161  1  0  0  0
 82 85  1  0  0  0
 82162  1  0  0  0
 82163  1  0  0  0
 83 87  1  0  0  0
 83164  1  0  0  0
 83165  1  0  0  0
 84166  1  0  0  0
 84167  1  0  0  0
 85168  1  0  0  0
M  ISO  4   1 100  68 101  84 101  86 100
M  END
> <chiral flag>
0

> <version>
0

> <s_m_source_file>
/data/baiqing/PycharmProjects/Reinvent-master-3.2/result/LINK_invent/BTK/process_docking_weight1_custom_product_contain_oxygen_bond_distance_aromatic_linkinvent_7_9_3/rearranged_h_0102.sdf

> <i_m_source_file_index>
47

> <r_mmod_Potential_Energy-OPLS-2005>
383.000244140625

> <r_mmod_Stretch_Energy-OPLS-2005>
84.9241409301758

> <r_mmod_Bend_Energy-OPLS-2005>
151.660354614258

> <r_mmod_Torsional_Energy-OPLS-2005>
390.464752197266

> <r_mmod_Improper_Torsional_Energy-OPLS-2005>
22.5547924041748

> <r_mmod_Van_der_Waal_Energy-OPLS-2005>
144.347900390625

> <r_mmod_Electrostatic_Energy-OPLS-2005>
-290.749176025391

> <r_mmod_Solvation_Energy-OPLS-2005>
-201.138076782227

> <b_mmod_Minimization_Converged-OPLS-2005>
0

> <r_mmod_RMS_Derivative-OPLS-2005>
2.68500924110413

$$$$
48
                    3D
 Structure written by MMmdl.
161170  0  0  1  0            999 V2000
  -30.6464  -14.6044   20.5124 C   0  0  0  0  0  0
  -30.4385  -12.3736   19.4431 C   0  0  0  0  0  0
  -29.5077  -12.5147   18.2182 C   0  0  0  0  0  0
  -28.0291  -12.3589   18.6293 C   0  0  0  0  0  0
  -27.6594  -13.2158   19.8695 C   0  0  2  0  0  0
  -28.7067  -13.0481   20.9949 C   0  0  0  0  0  0
  -25.2585  -13.8175   20.5700 C   0  0  0  0  0  0
  -24.1847  -13.0444   20.9196 C   0  0  0  0  0  0
  -24.6410  -11.6915   20.8739 C   0  0  0  0  0  0
  -23.9076  -10.4295   21.0406 C   0  0  0  0  0  0
  -24.3620   -9.4211   21.9185 C   0  0  0  0  0  0
  -23.6289   -8.2254   22.0762 C   0  0  0  0  0  0
  -22.4268   -8.0296   21.3555 C   0  0  0  0  0  0
  -21.9904   -9.0270   20.4656 C   0  0  0  0  0  0
  -22.7243  -10.2143   20.3058 C   0  0  0  0  0  0
  -21.6854   -6.0735   22.5280 C   0  0  0  0  0  0
  -21.4016   -6.5637   23.8212 C   0  0  0  0  0  0
  -21.3655   -5.6791   24.9173 C   0  0  0  0  0  0
  -21.6040   -4.3054   24.7224 C   0  0  0  0  0  0
  -21.8821   -3.8145   23.4346 C   0  0  0  0  0  0
  -21.9192   -4.6963   22.3400 C   0  0  0  0  0  0
  -22.7861  -13.5246   21.1843 C   0  0  0  0  0  0
  -22.1661   -4.2149   21.0978 F   0  0  0  0  0  0
  -21.5622   -3.4537   25.7738 F   0  0  0  0  0  0
  -30.0267  -13.3855   20.4349 N   0  0  0  0  0  0
  -26.3025  -12.9357   20.3351 N   0  0  0  0  0  0
  -25.9340  -11.6509   20.5756 N   0  0  0  0  0  0
  -22.0485  -12.8253   22.0398 N   0  0  0  0  0  0
  -25.4292  -15.1896   20.4109 N   0  0  0  0  0  0
  -31.7985  -14.7706   20.1036 O   0  0  0  0  0  0
  -21.6638   -6.8887   21.4247 O   0  0  0  0  0  0
  -22.3555  -14.5547   20.6680 O   0  0  0  0  0  0
  -24.6241  -31.8629   23.2049 C   0  0  0  0  0  0
  -25.9100  -32.4793   23.8373 C   0  0  1  0  0  0
  -27.2234  -27.3366   20.1100 C   0  0  0  0  0  0
  -25.5919  -33.8590   24.2300 N   0  0  0  0  0  0
  -23.4163  -30.4873   21.5480 C   0  0  2  0  0  0
  -24.8615  -28.9455   20.1143 C   0  0  0  0  0  0
  -22.7464  -29.4638   22.4959 C   0  0  0  0  0  0
  -18.0284  -28.1385   22.8483 C   0  0  0  0  0  0
  -24.1474  -36.7282   23.2640 C   0  0  0  0  0  0
  -25.9571  -30.7967   21.3761 C   0  0  0  0  0  0
  -26.0308  -29.4257   20.7181 C   0  0  0  0  0  0
  -27.2148  -28.6323   20.7083 C   0  0  0  0  0  0
  -26.0337  -26.9146   19.4711 C   0  0  0  0  0  0
  -24.8637  -27.6933   19.4843 C   0  0  0  0  0  0
  -23.6301  -29.8251   20.1624 C   0  0  0  0  0  0
  -25.4099  -36.3085   24.0337 C   0  0  1  0  0  0
  -20.5882  -28.3681   23.1284 C   0  0  2  0  0  0
  -20.6771  -26.9406   22.5404 C   0  0  0  0  0  0
  -19.5745  -26.6381   21.5204 C   0  0  0  0  0  0
  -18.1927  -26.7929   22.1619 C   0  0  0  0  0  0
  -19.1538  -28.8851   23.2878 C   0  0  0  0  0  0
  -18.9469  -30.1452   23.8902 C   0  0  0  0  0  0
  -17.6469  -30.6585   24.0567 C   0  0  0  0  0  0
  -25.9047  -34.9458   23.5118 C   0  0  0  0  0  0
  -16.5358  -29.9088   23.6327 C   0  0  0  0  0  0
  -16.7272  -28.6501   23.0351 C   0  0  0  0  0  0
  -26.4481  -31.6595   25.0739 C   0  0  0  0  0  0
  -25.3716  -31.3737   26.1471 C   0  0  0  0  0  0
  -27.0322  -30.3019   24.6185 C   0  0  0  0  0  0
  -27.6045  -32.4325   25.7504 C   0  0  0  0  0  0
  -27.5570  -37.1795   24.8466 C   0  0  0  0  0  0
  -21.4183  -29.3038   22.3690 N   0  0  0  0  0  0
  -26.4275  -37.3781   23.9419 N   0  0  0  0  0  0
  -24.6843  -31.0655   22.0998 N   0  0  0  0  0  0
  -23.4196  -28.8182   23.3036 O   0  0  0  0  0  0
  -28.3507  -26.5044   20.1324 O   0  0  0  0  0  0
  -26.5618  -34.8926   22.4688 O   0  0  0  0  0  0
  -23.5407  -32.1430   23.7385 O   0  0  0  0  0  0
  -30.9982  -19.2161   20.0978 C   0  0  0  0  0  0
  -31.0588  -17.8084   20.3062 C   0  0  0  0  0  0
  -28.7483  -17.8460   20.9452 C   0  0  0  0  0  0
  -28.6759  -19.2566   20.7279 C   0  0  0  0  0  0
  -29.8114  -19.9951   20.2649 C   0  0  0  0  0  0
  -29.9183  -17.0785   20.7186 C   0  0  0  0  0  0
  -29.5851  -24.0414   18.4873 C   0  0  0  0  0  0
  -29.9067  -22.7193   17.7962 C   0  0  0  0  0  0
  -30.6344  -21.7511   18.7399 C   0  0  0  0  0  0
  -28.9205  -22.4880   20.4209 C   0  0  0  0  0  0
  -29.2591  -23.9932   19.9903 C   0  0  2  0  0  0
  -27.3240  -19.9083   20.9626 C   0  0  0  0  0  0
  -28.1354  -25.0552   20.3594 C   0  0  0  0  0  0
  -29.8247  -21.4010   19.9132 N   0  0  0  0  0  0
  -29.8551  -15.6368   20.9296 N   0  0  0  0  0  0
  -29.6071  -25.0980   17.8485 O   0  0  0  0  0  0
  -31.4812  -12.4862   19.1419 H   0  0  0  0  0  0
  -30.3607  -11.3729   19.8706 H   0  0  0  0  0  0
  -29.7650  -11.7732   17.4604 H   0  0  0  0  0  0
  -29.6587  -13.4896   17.7522 H   0  0  0  0  0  0
  -27.8553  -11.3042   18.8443 H   0  0  0  0  0  0
  -27.3784  -12.6099   17.7908 H   0  0  0  0  0  0
  -27.6850  -14.2556   19.5453 H   0  0  0  0  0  0
  -28.7103  -12.0192   21.3580 H   0  0  0  0  0  0
  -28.4587  -13.6631   21.8612 H   0  0  0  0  0  0
  -25.2763   -9.5678   22.4765 H   0  0  0  0  0  0
  -23.9994   -7.4642   22.7481 H   0  0  0  0  0  0
  -21.0833   -8.8790   19.8962 H   0  0  0  0  0  0
  -22.3706  -10.9680   19.6167 H   0  0  0  0  0  0
  -21.2014   -7.6147   23.9714 H   0  0  0  0  0  0
  -21.1468   -6.0520   25.9073 H   0  0  0  0  0  0
  -22.0603   -2.7609   23.2848 H   0  0  0  0  0  0
  -22.4079  -11.9914   22.4800 H   0  0  0  0  0  0
  -21.1104  -13.1295   22.2584 H   0  0  0  0  0  0
  -24.6593  -15.8406   20.5199 H   0  0  0  0  0  0
  -26.2644  -15.6243   20.0404 H   0  0  0  0  0  0
  -26.7181  -32.5468   23.1135 H   0  0  0  0  0  0
  -25.0050  -33.9736   25.0431 H   0  0  0  0  0  0
  -22.7085  -31.3070   21.4071 H   0  0  0  0  0  0
  -23.3744  -35.9605   23.3299 H   0  0  0  0  0  0
  -24.3564  -36.8902   22.2054 H   0  0  0  0  0  0
  -23.7221  -37.6482   23.6660 H   0  0  0  0  0  0
  -26.0910  -31.5620   20.6105 H   0  0  0  0  0  0
  -26.8370  -30.8428   22.0059 H   0  0  0  0  0  0
  -28.1127  -28.9962   21.1879 H   0  0  0  0  0  0
  -25.9792  -25.9795   18.9363 H   0  0  0  0  0  0
  -23.9713  -27.3234   18.9974 H   0  0  0  0  0  0
  -23.7530  -30.6033   19.4080 H   0  0  0  0  0  0
  -22.7493  -29.2578   19.8566 H   0  0  0  0  0  0
  -25.1276  -36.1938   25.0830 H   0  0  0  0  0  0
  -20.9970  -28.3252   24.1405 H   0  0  0  0  0  0
  -20.5650  -26.2296   23.3602 H   0  0  0  0  0  0
  -21.6647  -26.7428   22.1214 H   0  0  0  0  0  0
  -19.6901  -25.6293   21.1233 H   0  0  0  0  0  0
  -19.6675  -27.3187   20.6729 H   0  0  0  0  0  0
  -17.4190  -26.6666   21.4029 H   0  0  0  0  0  0
  -18.0330  -26.0073   22.9015 H   0  0  0  0  0  0
  -19.7950  -30.7263   24.2269 H   0  0  0  0  0  0
  -17.5030  -31.6263   24.5171 H   0  0  0  0  0  0
  -15.5362  -30.2993   23.7652 H   0  0  0  0  0  0
  -15.8667  -28.0819   22.7075 H   0  0  0  0  0  0
  -24.5872  -30.7109   25.7805 H   0  0  0  0  0  0
  -24.8931  -32.2909   26.4913 H   0  0  0  0  0  0
  -25.8041  -30.8899   27.0237 H   0  0  0  0  0  0
  -26.2897  -29.6778   24.1201 H   0  0  0  0  0  0
  -27.4019  -29.7271   25.4688 H   0  0  0  0  0  0
  -27.8763  -30.4313   23.9409 H   0  0  0  0  0  0
  -27.2660  -33.3624   26.2084 H   0  0  0  0  0  0
  -28.3844  -32.6888   25.0324 H   0  0  0  0  0  0
  -28.0715  -31.8451   26.5418 H   0  0  0  0  0  0
  -28.2593  -38.0087   24.7524 H   0  0  0  0  0  0
  -28.1065  -36.2628   24.6269 H   0  0  0  0  0  0
  -27.2301  -37.1424   25.8872 H   0  0  0  0  0  0
  -20.9363  -29.8769   21.6908 H   0  0  0  0  0  0
  -26.0157  -38.2853   24.1432 H   0  0  0  0  0  0
  -31.9132  -19.6968   19.7830 H   0  0  0  0  0  0
  -31.9984  -17.3034   20.1349 H   0  0  0  0  0  0
  -27.8573  -17.3294   21.2736 H   0  0  0  0  0  0
  -30.5185  -22.9166   16.9154 H   0  0  0  0  0  0
  -28.9751  -22.2768   17.4425 H   0  0  0  0  0  0
  -31.5771  -22.1885   19.0738 H   0  0  0  0  0  0
  -30.8917  -20.8673   18.1552 H   0  0  0  0  0  0
  -27.9129  -22.2869   20.0612 H   0  0  0  0  0  0
  -28.8844  -22.4336   21.5093 H   0  0  0  0  0  0
  -30.1728  -24.2864   20.5064 H   0  0  0  0  0  0
  -26.5734  -19.1797   21.2692 H   0  0  0  0  0  0
  -26.9592  -20.3696   20.0458 H   0  0  0  0  0  0
  -27.3863  -20.6565   21.7522 H   0  0  0  0  0  0
  -27.9291  -24.9521   21.4249 H   0  0  0  0  0  0
  -27.2344  -24.6902   19.8756 H   0  0  0  0  0  0
  -28.9710  -15.3071   21.2840 H   0  0  0  0  0  0
  1 25  1  0  0  0
  1 30  2  0  0  0
  1 85  1  0  0  0
  2  3  1  0  0  0
  2 25  1  0  0  0
  2 87  1  0  0  0
  2 88  1  0  0  0
  3  4  1  0  0  0
  3 89  1  0  0  0
  3 90  1  0  0  0
  4  5  1  0  0  0
  4 91  1  0  0  0
  4 92  1  0  0  0
  5  6  1  0  0  0
  5 26  1  0  0  0
  5 93  1  0  0  0
  6 25  1  0  0  0
  6 94  1  0  0  0
  6 95  1  0  0  0
  7  8  2  0  0  0
  7 26  1  0  0  0
  7 29  1  0  0  0
  8  9  1  0  0  0
  8 22  1  0  0  0
  9 10  1  0  0  0
  9 27  2  0  0  0
 10 11  2  0  0  0
 10 15  1  0  0  0
 11 12  1  0  0  0
 11 96  1  0  0  0
 12 13  2  0  0  0
 12 97  1  0  0  0
 13 14  1  0  0  0
 13 31  1  0  0  0
 14 15  2  0  0  0
 14 98  1  0  0  0
 15 99  1  0  0  0
 16 17  2  0  0  0
 16 21  1  0  0  0
 16 31  1  0  0  0
 17 18  1  0  0  0
 17100  1  0  0  0
 18 19  2  0  0  0
 18101  1  0  0  0
 19 20  1  0  0  0
 19 24  1  0  0  0
 20 21  2  0  0  0
 20102  1  0  0  0
 21 23  1  0  0  0
 22 28  1  0  0  0
 22 32  2  0  0  0
 26 27  1  0  0  0
 28103  1  0  0  0
 28104  1  0  0  0
 29105  1  0  0  0
 29106  1  0  0  0
 33 34  1  0  0  0
 33 66  1  0  0  0
 33 70  2  0  0  0
 34 36  1  0  0  0
 34 59  1  0  0  0
 34107  1  0  0  0
 35 44  2  0  0  0
 35 45  1  0  0  0
 35 68  1  0  0  0
 36 56  1  0  0  0
 36108  1  0  0  0
 37 39  1  0  0  0
 37 47  1  0  0  0
 37 66  1  0  0  0
 37109  1  0  0  0
 38 43  2  0  0  0
 38 46  1  0  0  0
 38 47  1  0  0  0
 39 64  1  0  0  0
 39 67  2  0  0  0
 40 52  1  0  0  0
 40 53  2  0  0  0
 40 58  1  0  0  0
 41110  1  0  0  0
 41111  1  0  0  0
 41112  1  0  0  0
 41 48  1  0  0  0
 42 43  1  0  0  0
 42 66  1  0  0  0
 42113  1  0  0  0
 42114  1  0  0  0
 43 44  1  0  0  0
 44115  1  0  0  0
 45 46  2  0  0  0
 45116  1  0  0  0
 46117  1  0  0  0
 47118  1  0  0  0
 47119  1  0  0  0
 48 56  1  0  0  0
 48 65  1  0  0  0
 48120  1  0  0  0
 49 50  1  0  0  0
 49 53  1  0  0  0
 49 64  1  0  0  0
 49121  1  0  0  0
 50 51  1  0  0  0
 50122  1  0  0  0
 50123  1  0  0  0
 51 52  1  0  0  0
 51124  1  0  0  0
 51125  1  0  0  0
 52126  1  0  0  0
 52127  1  0  0  0
 53 54  1  0  0  0
 54 55  2  0  0  0
 54128  1  0  0  0
 55 57  1  0  0  0
 55129  1  0  0  0
 56 69  2  0  0  0
 57 58  2  0  0  0
 57130  1  0  0  0
 58131  1  0  0  0
 59 60  1  0  0  0
 59 61  1  0  0  0
 59 62  1  0  0  0
 60132  1  0  0  0
 60133  1  0  0  0
 60134  1  0  0  0
 61135  1  0  0  0
 61136  1  0  0  0
 61137  1  0  0  0
 62138  1  0  0  0
 62139  1  0  0  0
 62140  1  0  0  0
 63 65  1  0  0  0
 63141  1  0  0  0
 63142  1  0  0  0
 63143  1  0  0  0
 64144  1  0  0  0
 65145  1  0  0  0
 68 83  1  0  0  0
 71 72  2  0  0  0
 71 75  1  0  0  0
 71146  1  0  0  0
 72 76  1  0  0  0
 72147  1  0  0  0
 73 74  1  0  0  0
 73 76  2  0  0  0
 73148  1  0  0  0
 74 75  2  0  0  0
 74 82  1  0  0  0
 75 84  1  0  0  0
 76 85  1  0  0  0
 77 78  1  0  0  0
 77 81  1  0  0  0
 77 86  2  0  0  0
 78 79  1  0  0  0
 78149  1  0  0  0
 78150  1  0  0  0
 79 84  1  0  0  0
 79151  1  0  0  0
 79152  1  0  0  0
 80 81  1  0  0  0
 80 84  1  0  0  0
 80153  1  0  0  0
 80154  1  0  0  0
 81 83  1  0  0  0
 81155  1  0  0  0
 82156  1  0  0  0
 82157  1  0  0  0
 82158  1  0  0  0
 83159  1  0  0  0
 83160  1  0  0  0
 85161  1  0  0  0
M  ISO  4   1 100  68 101  83 101  85 100
M  END
> <chiral flag>
0

> <version>
0

> <s_m_source_file>
/data/baiqing/PycharmProjects/Reinvent-master-3.2/result/LINK_invent/BTK/process_docking_weight1_custom_product_contain_oxygen_bond_distance_aromatic_linkinvent_7_9_3/rearranged_h_0102.sdf

> <i_m_source_file_index>
48

> <r_mmod_Potential_Energy-OPLS-2005>
13.147777557373

> <r_mmod_Stretch_Energy-OPLS-2005>
79.7929306030273

> <r_mmod_Bend_Energy-OPLS-2005>
155.962478637695

> <r_mmod_Torsional_Energy-OPLS-2005>
208.621322631836

> <r_mmod_Improper_Torsional_Energy-OPLS-2005>
4.61498975753784

> <r_mmod_Van_der_Waal_Energy-OPLS-2005>
165.806945800781

> <r_mmod_Electrostatic_Energy-OPLS-2005>
-400.755462646484

> <r_mmod_Solvation_Energy-OPLS-2005>
-238.98193359375

> <b_mmod_Minimization_Converged-OPLS-2005>
0

> <r_mmod_RMS_Derivative-OPLS-2005>
1.40885484218597

$$$$
49
                    3D
 Structure written by MMmdl.
159168  0  0  1  0            999 V2000
  -30.7423  -14.5050   20.5138 C   0  0  0  0  0  0
  -30.4015  -12.3056   19.4728 C   0  0  0  0  0  0
  -29.5032  -12.4791   18.2327 C   0  0  0  0  0  0
  -28.0221  -12.3533   18.6327 C   0  0  0  0  0  0
  -27.6517  -13.2269   19.8633 C   0  0  2  0  0  0
  -28.6891  -13.1007   21.0033 C   0  0  0  0  0  0
  -25.2528  -13.8205   20.5663 C   0  0  0  0  0  0
  -24.1816  -13.0451   20.9185 C   0  0  0  0  0  0
  -24.6394  -11.6925   20.8734 C   0  0  0  0  0  0
  -23.9066  -10.4287   21.0398 C   0  0  0  0  0  0
  -24.3616   -9.4211   21.9189 C   0  0  0  0  0  0
  -23.6292   -8.2242   22.0757 C   0  0  0  0  0  0
  -22.4282   -8.0277   21.3537 C   0  0  0  0  0  0
  -21.9912   -9.0248   20.4647 C   0  0  0  0  0  0
  -22.7237  -10.2124   20.3055 C   0  0  0  0  0  0
  -21.6857   -6.0724   22.5258 C   0  0  0  0  0  0
  -21.4029   -6.5624   23.8189 C   0  0  0  0  0  0
  -21.3665   -5.6789   24.9155 C   0  0  0  0  0  0
  -21.6043   -4.3047   24.7224 C   0  0  0  0  0  0
  -21.8826   -3.8131   23.4340 C   0  0  0  0  0  0
  -21.9197   -4.6943   22.3394 C   0  0  0  0  0  0
  -22.7827  -13.5226   21.1853 C   0  0  0  0  0  0
  -22.1663   -4.2126   21.0973 F   0  0  0  0  0  0
  -21.5628   -3.4535   25.7737 F   0  0  0  0  0  0
  -30.0209  -13.3524   20.4383 N   0  0  0  0  0  0
  -26.2976  -12.9409   20.3310 N   0  0  0  0  0  0
  -25.9327  -11.6548   20.5765 N   0  0  0  0  0  0
  -22.0475  -12.8206   22.0396 N   0  0  0  0  0  0
  -25.4227  -15.1923   20.4050 N   0  0  0  0  0  0
  -31.9077  -14.5637   20.1153 O   0  0  0  0  0  0
  -21.6650   -6.8868   21.4227 O   0  0  0  0  0  0
  -22.3489  -14.5522   20.6692 O   0  0  0  0  0  0
  -24.6171  -31.8680   23.2083 C   0  0  0  0  0  0
  -25.9056  -32.4842   23.8405 C   0  0  1  0  0  0
  -27.2370  -27.4098   20.1301 C   0  0  0  0  0  0
  -25.5918  -33.8635   24.2337 N   0  0  0  0  0  0
  -23.4090  -30.4900   21.5453 C   0  0  2  0  0  0
  -24.8606  -28.9447   20.1224 C   0  0  0  0  0  0
  -22.7396  -29.4724   22.4974 C   0  0  0  0  0  0
  -18.0287  -28.1424   22.8493 C   0  0  0  0  0  0
  -24.1475  -36.7317   23.2632 C   0  0  0  0  0  0
  -25.9366  -30.8276   21.3651 C   0  0  0  0  0  0
  -26.0169  -29.4539   20.7281 C   0  0  0  0  0  0
  -27.2093  -28.6877   20.7392 C   0  0  0  0  0  0
  -26.0723  -26.9268   19.5032 C   0  0  0  0  0  0
  -24.8824  -27.6792   19.5084 C   0  0  0  0  0  0
  -23.6224  -29.8139   20.1640 C   0  0  0  0  0  0
  -25.4103  -36.3143   24.0342 C   0  0  1  0  0  0
  -20.5871  -28.3741   23.1283 C   0  0  2  0  0  0
  -20.6756  -26.9470   22.5413 C   0  0  0  0  0  0
  -19.5736  -26.6444   21.5192 C   0  0  0  0  0  0
  -18.1923  -26.7983   22.1610 C   0  0  0  0  0  0
  -19.1530  -28.8893   23.2895 C   0  0  0  0  0  0
  -18.9474  -30.1487   23.8925 C   0  0  0  0  0  0
  -17.6477  -30.6615   24.0610 C   0  0  0  0  0  0
  -25.9032  -34.9493   23.5130 C   0  0  0  0  0  0
  -16.5366  -29.9134   23.6337 C   0  0  0  0  0  0
  -16.7279  -28.6554   23.0347 C   0  0  0  0  0  0
  -26.4468  -31.6598   25.0719 C   0  0  0  0  0  0
  -25.3740  -31.3709   26.1475 C   0  0  0  0  0  0
  -27.0266  -30.3041   24.6079 C   0  0  0  0  0  0
  -27.6051  -32.4291   25.7478 C   0  0  0  0  0  0
  -27.5584  -37.1820   24.8467 C   0  0  0  0  0  0
  -21.4128  -29.3091   22.3654 N   0  0  0  0  0  0
  -26.4292  -37.3834   23.9428 N   0  0  0  0  0  0
  -24.6725  -31.0762   22.0998 N   0  0  0  0  0  0
  -23.4097  -28.8340   23.3124 O   0  0  0  0  0  0
  -28.3721  -26.6260   20.0605 O   0  0  0  0  0  0
  -26.5602  -34.8931   22.4692 O   0  0  0  0  0  0
  -23.5345  -32.1452   23.7445 O   0  0  0  0  0  0
  -28.7662  -18.4498   21.2770 C   0  0  0  0  0  0
  -30.8429  -19.4666   20.5609 C   0  0  0  0  0  0
  -28.2563  -19.7383   21.5691 C   0  0  0  0  0  0
  -30.3412  -20.7508   20.8733 C   0  0  0  0  0  0
  -30.0737  -18.2990   20.7698 C   0  0  0  0  0  0
  -29.0312  -20.9205   21.3875 C   0  0  0  0  0  0
  -28.1574  -24.6472   21.6133 C   0  0  0  0  0  0
  -27.1369  -24.6096   22.5500 C   0  0  0  0  0  0
  -28.7065  -23.3867   21.0466 C   0  0  0  0  0  0
  -26.6069  -23.2592   22.9842 C   0  0  0  0  0  0
  -27.7782  -22.2813   23.0530 C   0  0  0  0  0  0
  -30.7026  -16.9471   20.3949 C   0  0  0  0  0  0
  -28.8308  -25.9991   21.2707 C   0  0  0  0  0  0
  -28.5152  -22.2273   21.7743 N   0  0  0  0  0  0
  -30.0920  -15.6572   20.8022 N   0  0  0  0  0  0
  -26.5716  -25.5099   23.2104 O   0  5  0  0  0  0
  -29.2865  -23.3883   19.9575 O   0  0  0  0  0  0
  -31.4542  -12.3508   19.1886 H   0  0  0  0  0  0
  -30.2588  -11.3201   19.9179 H   0  0  0  0  0  0
  -29.7514  -11.7278   17.4834 H   0  0  0  0  0  0
  -29.6883  -13.4487   17.7684 H   0  0  0  0  0  0
  -27.8341  -11.3021   18.8577 H   0  0  0  0  0  0
  -27.3809  -12.6026   17.7869 H   0  0  0  0  0  0
  -27.6718  -14.2616   19.5213 H   0  0  0  0  0  0
  -28.6515  -12.1084   21.4544 H   0  0  0  0  0  0
  -28.4571  -13.8048   21.8047 H   0  0  0  0  0  0
  -25.2762   -9.5678   22.4760 H   0  0  0  0  0  0
  -23.9994   -7.4635   22.7477 H   0  0  0  0  0  0
  -21.0840   -8.8769   19.8949 H   0  0  0  0  0  0
  -22.3703  -10.9664   19.6155 H   0  0  0  0  0  0
  -21.2029   -7.6138   23.9684 H   0  0  0  0  0  0
  -21.1486   -6.0523   25.9060 H   0  0  0  0  0  0
  -22.0605   -2.7592   23.2851 H   0  0  0  0  0  0
  -22.4109  -11.9869   22.4782 H   0  0  0  0  0  0
  -21.1088  -13.1208   22.2601 H   0  0  0  0  0  0
  -24.6522  -15.8474   20.4911 H   0  0  0  0  0  0
  -26.2697  -15.6235   20.0568 H   0  0  0  0  0  0
  -26.7147  -32.5587   23.1188 H   0  0  0  0  0  0
  -25.0052  -33.9806   25.0479 H   0  0  0  0  0  0
  -22.7037  -31.3111   21.4002 H   0  0  0  0  0  0
  -23.3737  -35.9650   23.3306 H   0  0  0  0  0  0
  -24.3561  -36.8914   22.2041 H   0  0  0  0  0  0
  -23.7187  -37.6516   23.6616 H   0  0  0  0  0  0
  -26.0376  -31.5780   20.5795 H   0  0  0  0  0  0
  -26.8274  -30.9000   21.9764 H   0  0  0  0  0  0
  -28.1008  -29.0719   21.2143 H   0  0  0  0  0  0
  -26.0901  -25.9567   19.0265 H   0  0  0  0  0  0
  -23.9963  -27.2782   19.0372 H   0  0  0  0  0  0
  -23.7393  -30.5828   19.3988 H   0  0  0  0  0  0
  -22.7467  -29.2353   19.8665 H   0  0  0  0  0  0
  -25.1265  -36.2012   25.0836 H   0  0  0  0  0  0
  -21.0003  -28.3336   24.1395 H   0  0  0  0  0  0
  -20.5641  -26.2370   23.3621 H   0  0  0  0  0  0
  -21.6641  -26.7501   22.1240 H   0  0  0  0  0  0
  -19.6901  -25.6357   21.1236 H   0  0  0  0  0  0
  -19.6673  -27.3236   20.6710 H   0  0  0  0  0  0
  -17.4209  -26.6764   21.4003 H   0  0  0  0  0  0
  -18.0329  -26.0102   22.8987 H   0  0  0  0  0  0
  -19.7943  -30.7301   24.2288 H   0  0  0  0  0  0
  -17.5035  -31.6292   24.5234 H   0  0  0  0  0  0
  -15.5368  -30.3060   23.7634 H   0  0  0  0  0  0
  -15.8677  -28.0886   22.7041 H   0  0  0  0  0  0
  -24.5970  -30.6968   25.7846 H   0  0  0  0  0  0
  -24.8859  -32.2850   26.4870 H   0  0  0  0  0  0
  -25.8145  -30.8966   27.0251 H   0  0  0  0  0  0
  -26.2811  -29.6856   24.1067 H   0  0  0  0  0  0
  -27.3936  -29.7232   25.4546 H   0  0  0  0  0  0
  -27.8694  -30.4338   23.9283 H   0  0  0  0  0  0
  -27.2708  -33.3611   26.2045 H   0  0  0  0  0  0
  -28.3879  -32.6798   25.0307 H   0  0  0  0  0  0
  -28.0674  -31.8387   26.5397 H   0  0  0  0  0  0
  -28.2630  -38.0093   24.7540 H   0  0  0  0  0  0
  -28.1053  -36.2637   24.6270 H   0  0  0  0  0  0
  -27.2315  -37.1466   25.8871 H   0  0  0  0  0  0
  -20.9300  -29.8768   21.6829 H   0  0  0  0  0  0
  -26.0176  -38.2915   24.1428 H   0  0  0  0  0  0
  -28.1432  -17.5819   21.4384 H   0  0  0  0  0  0
  -31.8450  -19.3807   20.1593 H   0  0  0  0  0  0
  -27.2426  -19.7977   21.9385 H   0  0  0  0  0  0
  -30.9877  -21.6040   20.7232 H   0  0  0  0  0  0
  -25.8688  -22.8985   22.2655 H   0  0  0  0  0  0
  -26.1031  -23.2927   23.9525 H   0  0  0  0  0  0
  -27.4054  -21.3204   23.4001 H   0  0  0  0  0  0
  -28.4793  -22.6104   23.8220 H   0  0  0  0  0  0
  -31.7339  -16.9779   20.7561 H   0  0  0  0  0  0
  -30.7697  -16.9348   19.3042 H   0  0  0  0  0  0
  -29.9052  -25.8383   21.1786 H   0  0  0  0  0  0
  -28.7268  -26.6905   22.1086 H   0  0  0  0  0  0
  -29.1257  -15.6278   21.0886 H   0  0  0  0  0  0
  1 25  1  0  0  0
  1 30  2  0  0  0
  1 85  1  0  0  0
  2  3  1  0  0  0
  2 25  1  0  0  0
  2 88  1  0  0  0
  2 89  1  0  0  0
  3  4  1  0  0  0
  3 90  1  0  0  0
  3 91  1  0  0  0
  4  5  1  0  0  0
  4 92  1  0  0  0
  4 93  1  0  0  0
  5  6  1  0  0  0
  5 26  1  0  0  0
  5 94  1  0  0  0
  6 25  1  0  0  0
  6 95  1  0  0  0
  6 96  1  0  0  0
  7  8  2  0  0  0
  7 26  1  0  0  0
  7 29  1  0  0  0
  8  9  1  0  0  0
  8 22  1  0  0  0
  9 10  1  0  0  0
  9 27  2  0  0  0
 10 11  2  0  0  0
 10 15  1  0  0  0
 11 12  1  0  0  0
 11 97  1  0  0  0
 12 13  2  0  0  0
 12 98  1  0  0  0
 13 14  1  0  0  0
 13 31  1  0  0  0
 14 15  2  0  0  0
 14 99  1  0  0  0
 15100  1  0  0  0
 16 17  2  0  0  0
 16 21  1  0  0  0
 16 31  1  0  0  0
 17 18  1  0  0  0
 17101  1  0  0  0
 18 19  2  0  0  0
 18102  1  0  0  0
 19 20  1  0  0  0
 19 24  1  0  0  0
 20 21  2  0  0  0
 20103  1  0  0  0
 21 23  1  0  0  0
 22 28  1  0  0  0
 22 32  2  0  0  0
 26 27  1  0  0  0
 28104  1  0  0  0
 28105  1  0  0  0
 29106  1  0  0  0
 29107  1  0  0  0
 33 34  1  0  0  0
 33 66  1  0  0  0
 33 70  2  0  0  0
 34 36  1  0  0  0
 34 59  1  0  0  0
 34108  1  0  0  0
 35 44  2  0  0  0
 35 45  1  0  0  0
 35 68  1  0  0  0
 36 56  1  0  0  0
 36109  1  0  0  0
 37 39  1  0  0  0
 37 47  1  0  0  0
 37 66  1  0  0  0
 37110  1  0  0  0
 38 43  2  0  0  0
 38 46  1  0  0  0
 38 47  1  0  0  0
 39 64  1  0  0  0
 39 67  2  0  0  0
 40 52  1  0  0  0
 40 53  2  0  0  0
 40 58  1  0  0  0
 41111  1  0  0  0
 41112  1  0  0  0
 41113  1  0  0  0
 41 48  1  0  0  0
 42 43  1  0  0  0
 42 66  1  0  0  0
 42114  1  0  0  0
 42115  1  0  0  0
 43 44  1  0  0  0
 44116  1  0  0  0
 45 46  2  0  0  0
 45117  1  0  0  0
 46118  1  0  0  0
 47119  1  0  0  0
 47120  1  0  0  0
 48 56  1  0  0  0
 48 65  1  0  0  0
 48121  1  0  0  0
 49 50  1  0  0  0
 49 53  1  0  0  0
 49 64  1  0  0  0
 49122  1  0  0  0
 50 51  1  0  0  0
 50123  1  0  0  0
 50124  1  0  0  0
 51 52  1  0  0  0
 51125  1  0  0  0
 51126  1  0  0  0
 52127  1  0  0  0
 52128  1  0  0  0
 53 54  1  0  0  0
 54 55  2  0  0  0
 54129  1  0  0  0
 55 57  1  0  0  0
 55130  1  0  0  0
 56 69  2  0  0  0
 57 58  2  0  0  0
 57131  1  0  0  0
 58132  1  0  0  0
 59 60  1  0  0  0
 59 61  1  0  0  0
 59 62  1  0  0  0
 60133  1  0  0  0
 60134  1  0  0  0
 60135  1  0  0  0
 61136  1  0  0  0
 61137  1  0  0  0
 61138  1  0  0  0
 62139  1  0  0  0
 62140  1  0  0  0
 62141  1  0  0  0
 63 65  1  0  0  0
 63142  1  0  0  0
 63143  1  0  0  0
 63144  1  0  0  0
 64145  1  0  0  0
 65146  1  0  0  0
 68 83  1  0  0  0
 71 73  2  0  0  0
 71 75  1  0  0  0
 71147  1  0  0  0
 72 74  1  0  0  0
 72 75  2  0  0  0
 72148  1  0  0  0
 73 76  1  0  0  0
 73149  1  0  0  0
 74 76  2  0  0  0
 74150  1  0  0  0
 75 82  1  0  0  0
 76 84  1  0  0  0
 77 78  2  0  0  0
 77 79  1  0  0  0
 77 83  1  0  0  0
 78 80  1  0  0  0
 78 86  1  0  0  0
 79 84  1  0  0  0
 79 87  2  0  0  0
 80 81  1  0  0  0
 80151  1  0  0  0
 80152  1  0  0  0
 81 84  1  0  0  0
 81153  1  0  0  0
 81154  1  0  0  0
 82 85  1  0  0  0
 82155  1  0  0  0
 82156  1  0  0  0
 83157  1  0  0  0
 83158  1  0  0  0
 85159  1  0  0  0
M  CHG  1  86  -1
M  ISO  4   1 100  68 101  83 101  85 100
M  END
> <chiral flag>
0

> <version>
0

> <s_m_source_file>
/data/baiqing/PycharmProjects/Reinvent-master-3.2/result/LINK_invent/BTK/process_docking_weight1_custom_product_contain_oxygen_bond_distance_aromatic_linkinvent_7_9_3/rearranged_h_0102.sdf

> <i_m_source_file_index>
49

> <r_mmod_Potential_Energy-OPLS-2005>
-267.619537353516

> <r_mmod_Stretch_Energy-OPLS-2005>
53.4571342468262

> <r_mmod_Bend_Energy-OPLS-2005>
126.55859375

> <r_mmod_Torsional_Energy-OPLS-2005>
265.257232666016

> <r_mmod_Improper_Torsional_Energy-OPLS-2005>
6.49332666397095

> <r_mmod_Van_der_Waal_Energy-OPLS-2005>
170.61067199707

> <r_mmod_Electrostatic_Energy-OPLS-2005>
-416.887817382812

> <r_mmod_Solvation_Energy-OPLS-2005>
-496.392150878906

> <b_mmod_Minimization_Converged-OPLS-2005>
0

> <r_mmod_RMS_Derivative-OPLS-2005>
3.41489124298096

$$$$
50
                    3D
 Structure written by MMmdl.
173182  0  0  1  0            999 V2000
  -29.7647  -15.6267   20.5613 C   0  0  0  0  0  0
  -30.3512  -13.1439   19.6399 C   0  0  0  0  0  0
  -29.5419  -12.6954   18.3805 C   0  0  0  0  0  0
  -28.1116  -12.2782   18.7626 C   0  0  0  0  0  0
  -27.5351  -13.2550   19.8088 C   0  0  2  0  0  0
  -28.4592  -13.4564   21.0073 C   0  0  0  0  0  0
  -25.1955  -13.8109   20.5557 C   0  0  0  0  0  0
  -24.1440  -13.0315   20.9290 C   0  0  0  0  0  0
  -24.6127  -11.6821   20.8799 C   0  0  0  0  0  0
  -23.8946  -10.4207   21.0481 C   0  0  0  0  0  0
  -24.3568   -9.4141   21.9232 C   0  0  0  0  0  0
  -23.6259   -8.2171   22.0774 C   0  0  0  0  0  0
  -22.4237   -8.0230   21.3551 C   0  0  0  0  0  0
  -21.9850   -9.0195   20.4650 C   0  0  0  0  0  0
  -22.7167  -10.2071   20.3078 C   0  0  0  0  0  0
  -21.6822   -6.0720   22.5298 C   0  0  0  0  0  0
  -21.3986   -6.5629   23.8233 C   0  0  0  0  0  0
  -21.3639   -5.6777   24.9192 C   0  0  0  0  0  0
  -21.6039   -4.3044   24.7240 C   0  0  0  0  0  0
  -21.8821   -3.8141   23.4363 C   0  0  0  0  0  0
  -21.9179   -4.6955   22.3420 C   0  0  0  0  0  0
  -22.7525  -13.5128   21.1999 C   0  0  0  0  0  0
  -22.1660   -4.2151   21.0998 F   0  0  0  0  0  0
  -21.5623   -3.4523   25.7753 F   0  0  0  0  0  0
  -29.5731  -14.1942   20.4560 N   0  0  0  0  0  0
  -26.2189  -12.9287   20.2774 N   0  0  0  0  0  0
  -25.8956  -11.6442   20.5501 N   0  0  0  0  0  0
  -22.0184  -12.8148   22.0569 N   0  0  0  0  0  0
  -25.3466  -15.1853   20.3932 N   0  0  0  0  0  0
  -30.9962  -15.7781   20.3311 O   0  0  0  0  0  0
  -21.6592   -6.8845   21.4254 O   0  0  0  0  0  0
  -22.3264  -14.5444   20.6818 O   0  0  0  0  0  0
  -24.6918  -31.9976   23.1229 C   0  0  0  0  0  0
  -25.9566  -32.5400   23.8448 C   0  0  1  0  0  0
  -26.6826  -27.3441   20.7132 C   0  0  0  0  0  0
  -25.6272  -33.9013   24.2567 N   0  0  0  0  0  0
  -23.6448  -30.6128   21.3623 C   0  0  2  0  0  0
  -25.0626  -29.2753   19.7762 C   0  0  0  0  0  0
  -23.7190  -29.3288   22.1358 C   0  0  0  0  0  0
  -18.0869  -27.7877   22.9614 C   0  0  0  0  0  0
  -24.1488  -36.7453   23.2627 C   0  0  0  0  0  0
  -26.1089  -31.0111   21.2842 C   0  0  0  0  0  0
  -26.1487  -29.6486   20.5896 C   0  0  0  0  0  0
  -27.0559  -28.6672   20.9979 C   0  0  0  0  0  0
  -25.9385  -27.0317   19.5763 C   0  0  0  0  0  0
  -25.0498  -28.0143   19.1426 C   0  0  0  0  0  0
  -23.8720  -30.2229   19.8743 C   0  0  0  0  0  0
  -25.4091  -36.3338   24.0386 C   0  0  1  0  0  0
  -20.9362  -27.0378   22.9470 C   0  0  2  0  0  0
  -20.1684  -25.8219   22.5358 C   0  0  0  0  0  0
  -19.0973  -26.1501   21.4843 C   0  0  0  0  0  0
  -17.8554  -26.5470   22.1808 C   0  0  0  0  0  0
  -19.4238  -28.0873   23.4500 C   0  0  0  0  0  0
  -19.3179  -29.4733   23.9967 C   0  0  0  0  0  0
  -18.1326  -30.2904   24.1165 C   0  0  0  0  0  0
  -25.9089  -34.9789   23.5175 C   0  0  0  0  0  0
  -16.8878  -29.8328   23.6719 C   0  0  0  0  0  0
  -16.8971  -28.5725   23.0754 C   0  0  0  0  0  0
  -26.4666  -31.6919   25.0785 C   0  0  0  0  0  0
  -25.3697  -31.3632   26.1156 C   0  0  0  0  0  0
  -27.1365  -30.3741   24.6244 C   0  0  0  0  0  0
  -27.5860  -32.4727   25.8106 C   0  0  0  0  0  0
  -27.5600  -37.1948   24.8495 C   0  0  0  0  0  0
  -22.9532  -28.2552   21.8531 N   0  0  0  0  0  0
  -26.4271  -37.3994   23.9488 N   0  0  0  0  0  0
  -24.8086  -31.3353   21.9267 N   0  0  0  0  0  0
  -24.3889  -29.2177   23.1522 O   0  0  0  0  0  0
  -26.3869  -26.4861   21.7650 O   0  0  0  0  0  0
  -26.5458  -34.9209   22.4614 O   0  0  0  0  0  0
  -23.5907  -32.1789   23.6680 O   0  0  0  0  0  0
  -26.8230  -20.8100   22.2982 C   0  0  0  0  0  0
  -25.9098  -22.0539   22.4689 C   0  0  0  0  0  0
  -25.9441  -20.4042   20.3563 C   0  0  0  0  0  0
  -26.9829  -19.7533   21.2297 C   0  0  0  0  0  0
  -24.8789  -22.7028   21.5813 C   0  0  0  0  0  0
  -25.0561  -21.6733   20.4889 C   0  0  0  0  0  0
  -28.5139  -16.8508   20.7874 C   0  0  0  0  0  0
  -28.2341  -18.3704   21.0469 C   0  0  0  0  0  0
  -20.8758  -28.7467   21.5436 C   0  0  0  0  0  0
  -22.0743  -28.6380   23.8607 C   0  0  0  0  0  0
  -21.7368  -26.7195   20.7349 C   0  0  1  0  0  0
  -23.4205  -26.6878   23.3972 C   0  0  2  0  0  0
  -21.0033  -27.0867   18.3045 C   0  0  0  0  0  0
  -24.6248  -23.1473   18.7371 C   0  0  0  0  0  0
  -23.5250  -24.0552   21.8148 C   0  0  0  0  0  0
  -22.1607  -26.9806   19.2995 C   0  0  0  0  0  0
  -25.2448  -26.7000   22.9898 C   0  0  0  0  0  0
  -23.0334  -25.8061   21.8568 N   0  3  1  0  0  0
  -29.3984  -19.0192   21.1892 O   0  0  0  0  0  0
  -24.2920  -21.9221   19.3819 O   0  0  0  0  0  0
  -31.3087  -13.5520   19.3115 H   0  0  0  0  0  0
  -30.6076  -12.2932   20.2708 H   0  0  0  0  0  0
  -30.0599  -11.8852   17.8640 H   0  0  0  0  0  0
  -29.4939  -13.5286   17.6766 H   0  0  0  0  0  0
  -28.1537  -11.2764   19.1901 H   0  0  0  0  0  0
  -27.4741  -12.2152   17.8799 H   0  0  0  0  0  0
  -27.4344  -14.1998   19.2743 H   0  0  0  0  0  0
  -28.7510  -12.5171   21.4779 H   0  0  0  0  0  0
  -27.9739  -14.0565   21.7790 H   0  0  0  0  0  0
  -25.2710   -9.5629   22.4804 H   0  0  0  0  0  0
  -23.9965   -7.4554   22.7486 H   0  0  0  0  0  0
  -21.0775   -8.8714   19.8963 H   0  0  0  0  0  0
  -22.3644  -10.9620   19.6187 H   0  0  0  0  0  0
  -21.1971   -7.6132   23.9745 H   0  0  0  0  0  0
  -21.1453   -6.0502   25.9097 H   0  0  0  0  0  0
  -22.0622   -2.7604   23.2862 H   0  0  0  0  0  0
  -22.3742  -11.9801   22.4966 H   0  0  0  0  0  0
  -21.0820  -13.1225   22.2753 H   0  0  0  0  0  0
  -24.5491  -15.8035   20.5008 H   0  0  0  0  0  0
  -26.1013  -15.6145   19.8734 H   0  0  0  0  0  0
  -26.7993  -32.6293   23.1651 H   0  0  0  0  0  0
  -25.0758  -34.0147   25.0942 H   0  0  0  0  0  0
  -22.7096  -31.1544   21.5251 H   0  0  0  0  0  0
  -23.3770  -35.9759   23.3272 H   0  0  0  0  0  0
  -24.3626  -36.9046   22.2047 H   0  0  0  0  0  0
  -23.7216  -37.6650   23.6625 H   0  0  0  0  0  0
  -26.3272  -31.7840   20.5462 H   0  0  0  0  0  0
  -26.9437  -31.0024   21.9761 H   0  0  0  0  0  0
  -27.6965  -28.8859   21.8428 H   0  0  0  0  0  0
  -25.7362  -26.0070   19.2974 H   0  0  0  0  0  0
  -24.3413  -27.7934   18.3615 H   0  0  0  0  0  0
  -24.1618  -31.1308   19.3485 H   0  0  0  0  0  0
  -22.9766  -29.9258   19.3435 H   0  0  0  0  0  0
  -25.1242  -36.2196   25.0871 H   0  0  0  0  0  0
  -21.1855  -26.5430   23.8988 H   0  0  0  0  0  0
  -19.6421  -25.4161   23.4068 H   0  0  0  0  0  0
  -20.7566  -24.9458   22.2647 H   0  0  0  0  0  0
  -18.9012  -25.2804   20.8623 H   0  0  0  0  0  0
  -19.3038  -26.9436   20.7776 H   0  0  0  0  0  0
  -17.0668  -26.6896   21.4412 H   0  0  0  0  0  0
  -17.5046  -25.7553   22.8468 H   0  0  0  0  0  0
  -20.1884  -29.9876   24.3663 H   0  0  0  0  0  0
  -18.2205  -31.2625   24.5803 H   0  0  0  0  0  0
  -15.9918  -30.4299   23.7629 H   0  0  0  0  0  0
  -15.9660  -28.2111   22.6599 H   0  0  0  0  0  0
  -24.5958  -30.7168   25.7012 H   0  0  0  0  0  0
  -24.8856  -32.2681   26.4851 H   0  0  0  0  0  0
  -25.7842  -30.8467   26.9822 H   0  0  0  0  0  0
  -26.4845  -29.7157   24.0702 H   0  0  0  0  0  0
  -27.4996  -29.8051   25.4807 H   0  0  0  0  0  0
  -28.0067  -30.5707   23.9962 H   0  0  0  0  0  0
  -27.2187  -33.3915   26.2692 H   0  0  0  0  0  0
  -28.3977  -32.7489   25.1372 H   0  0  0  0  0  0
  -28.0245  -31.8846   26.6184 H   0  0  0  0  0  0
  -28.2594  -38.0269   24.7568 H   0  0  0  0  0  0
  -28.1135  -36.2810   24.6263 H   0  0  0  0  0  0
  -27.2375  -37.1540   25.8914 H   0  0  0  0  0  0
  -22.7128  -28.3672   20.8796 H   0  0  0  0  0  0
  -26.0166  -38.3044   24.1574 H   0  0  0  0  0  0
  -27.4903  -20.6662   23.1349 H   0  0  0  0  0  0
  -26.0319  -22.5486   23.4257 H   0  0  0  0  0  0
  -25.8129  -19.8959   19.4112 H   0  0  0  0  0  0
  -27.5600  -16.3650   20.7005 H   0  0  0  0  0  0
  -21.2110  -29.5761   20.9196 H   0  0  0  0  0  0
  -19.8122  -28.9097   21.3619 H   0  0  0  0  0  0
  -21.5123  -28.3970   24.7729 H   0  0  0  0  0  0
  -22.4694  -29.5784   24.2650 H   0  0  0  0  0  0
  -21.1029  -25.9067   20.3995 H   0  0  0  0  0  0
  -23.3105  -26.0105   24.2478 H   0  0  0  0  0  0
  -21.3640  -27.5086   17.3660 H   0  0  0  0  0  0
  -20.2137  -27.7430   18.6763 H   0  0  0  0  0  0
  -20.5673  -26.1093   18.0958 H   0  0  0  0  0  0
  -23.7249  -23.7160   18.4979 H   0  0  0  0  0  0
  -25.1653  -22.9247   17.8183 H   0  0  0  0  0  0
  -25.2739  -23.8045   19.3169 H   0  0  0  0  0  0
  -23.1683  -23.7656   22.8036 H   0  0  0  0  0  0
  -22.7487  -23.6592   21.1620 H   0  0  0  0  0  0
  -22.9041  -26.2595   18.9611 H   0  0  0  0  0  0
  -22.5643  -27.9683   19.3038 H   0  0  0  0  0  0
  -25.4715  -25.7451   23.4617 H   0  0  0  0  0  0
  -25.7359  -27.3651   23.6998 H   0  0  0  0  0  0
  -23.8362  -26.1437   21.3446 H   0  0  0  0  0  0
  -29.1932  -19.9332   21.3449 H   0  0  0  0  0  0
  1 25  1  0  0  0
  1 30  2  0  0  0
  1 77  1  0  0  0
  2  3  1  0  0  0
  2 25  1  0  0  0
  2 91  1  0  0  0
  2 92  1  0  0  0
  3  4  1  0  0  0
  3 93  1  0  0  0
  3 94  1  0  0  0
  4  5  1  0  0  0
  4 95  1  0  0  0
  4 96  1  0  0  0
  5  6  1  0  0  0
  5 26  1  0  0  0
  5 97  1  0  0  0
  6 25  1  0  0  0
  6 98  1  0  0  0
  6 99  1  0  0  0
  7  8  2  0  0  0
  7 26  1  0  0  0
  7 29  1  0  0  0
  8  9  1  0  0  0
  8 22  1  0  0  0
  9 10  1  0  0  0
  9 27  2  0  0  0
 10 11  2  0  0  0
 10 15  1  0  0  0
 11 12  1  0  0  0
 11100  1  0  0  0
 12 13  2  0  0  0
 12101  1  0  0  0
 13 14  1  0  0  0
 13 31  1  0  0  0
 14 15  2  0  0  0
 14102  1  0  0  0
 15103  1  0  0  0
 16 17  2  0  0  0
 16 21  1  0  0  0
 16 31  1  0  0  0
 17 18  1  0  0  0
 17104  1  0  0  0
 18 19  2  0  0  0
 18105  1  0  0  0
 19 20  1  0  0  0
 19 24  1  0  0  0
 20 21  2  0  0  0
 20106  1  0  0  0
 21 23  1  0  0  0
 22 28  1  0  0  0
 22 32  2  0  0  0
 26 27  1  0  0  0
 28107  1  0  0  0
 28108  1  0  0  0
 29109  1  0  0  0
 29110  1  0  0  0
 33 34  1  0  0  0
 33 66  1  0  0  0
 33 70  2  0  0  0
 34 36  1  0  0  0
 34 59  1  0  0  0
 34111  1  0  0  0
 35 44  2  0  0  0
 35 45  1  0  0  0
 35 68  1  0  0  0
 36 56  1  0  0  0
 36112  1  0  0  0
 37 39  1  0  0  0
 37 47  1  0  0  0
 37 66  1  0  0  0
 37113  1  0  0  0
 38 43  2  0  0  0
 38 46  1  0  0  0
 38 47  1  0  0  0
 39 64  1  0  0  0
 39 67  2  0  0  0
 40 52  1  0  0  0
 40 53  2  0  0  0
 40 58  1  0  0  0
 41114  1  0  0  0
 41115  1  0  0  0
 41116  1  0  0  0
 41 48  1  0  0  0
 42 43  1  0  0  0
 42 66  1  0  0  0
 42117  1  0  0  0
 42118  1  0  0  0
 43 44  1  0  0  0
 44119  1  0  0  0
 45 46  2  0  0  0
 45120  1  0  0  0
 46121  1  0  0  0
 47122  1  0  0  0
 47123  1  0  0  0
 48 56  1  0  0  0
 48 65  1  0  0  0
 48124  1  0  0  0
 49 50  1  0  0  0
 49 53  1  0  0  0
 49 64  1  0  0  0
 49125  1  0  0  0
 50 51  1  0  0  0
 50126  1  0  0  0
 50127  1  0  0  0
 51 52  1  0  0  0
 51128  1  0  0  0
 51129  1  0  0  0
 52130  1  0  0  0
 52131  1  0  0  0
 53 54  1  0  0  0
 54 55  2  0  0  0
 54132  1  0  0  0
 55 57  1  0  0  0
 55133  1  0  0  0
 56 69  2  0  0  0
 57 58  2  0  0  0
 57134  1  0  0  0
 58135  1  0  0  0
 59 60  1  0  0  0
 59 61  1  0  0  0
 59 62  1  0  0  0
 60136  1  0  0  0
 60137  1  0  0  0
 60138  1  0  0  0
 61139  1  0  0  0
 61140  1  0  0  0
 61141  1  0  0  0
 62142  1  0  0  0
 62143  1  0  0  0
 62144  1  0  0  0
 63 65  1  0  0  0
 63145  1  0  0  0
 63146  1  0  0  0
 63147  1  0  0  0
 64148  1  0  0  0
 65149  1  0  0  0
 68 87  1  0  0  0
 71 72  2  0  0  0
 71 74  1  0  0  0
 71150  1  0  0  0
 72 75  1  0  0  0
 72151  1  0  0  0
 73 74  2  0  0  0
 73 76  1  0  0  0
 73152  1  0  0  0
 74 78  1  0  0  0
 75 76  2  0  0  0
 75 85  1  0  0  0
 76 90  1  0  0  0
 77 78  2  0  0  0
 77153  1  0  0  0
 78 89  1  0  0  0
 79 80  1  0  0  0
 79 81  1  0  0  0
 79154  1  0  0  0
 79155  1  0  0  0
 80 82  1  0  0  0
 80156  1  0  0  0
 80157  1  0  0  0
 81 86  1  0  0  0
 81 88  1  0  0  0
 81158  1  0  0  0
 82 87  1  0  0  0
 82 88  1  0  0  0
 82159  1  0  0  0
 83 86  1  0  0  0
 83160  1  0  0  0
 83161  1  0  0  0
 83162  1  0  0  0
 84 90  1  0  0  0
 84163  1  0  0  0
 84164  1  0  0  0
 84165  1  0  0  0
 85166  1  0  0  0
 85167  1  0  0  0
 85 88  1  0  0  0
 86168  1  0  0  0
 86169  1  0  0  0
 87170  1  0  0  0
 87171  1  0  0  0
 88172  1  0  0  0
 89173  1  0  0  0
M  CHG  1  88   1
M  ISO  4   1 100  68 101  77 100  87 101
M  END
> <chiral flag>
0

> <version>
0

> <s_m_source_file>
/data/baiqing/PycharmProjects/Reinvent-master-3.2/result/LINK_invent/BTK/process_docking_weight1_custom_product_contain_oxygen_bond_distance_aromatic_linkinvent_7_9_3/rearranged_h_0102.sdf

> <i_m_source_file_index>
50

> <r_mmod_Potential_Energy-OPLS-2005>
13707.271484375

> <r_mmod_Stretch_Energy-OPLS-2005>
6997.01513671875

> <r_mmod_Bend_Energy-OPLS-2005>
1338.48840332031

> <r_mmod_Torsional_Energy-OPLS-2005>
551.156311035156

> <r_mmod_Improper_Torsional_Energy-OPLS-2005>
34.2172012329102

> <r_mmod_Van_der_Waal_Energy-OPLS-2005>
2554.396484375

> <r_mmod_Electrostatic_Energy-OPLS-2005>
-215.865692138672

> <r_mmod_Solvation_Energy-OPLS-2005>
-409.472137451172

> <b_mmod_Minimization_Converged-OPLS-2005>
0

> <r_mmod_RMS_Derivative-OPLS-2005>
11.0460834503174

$$$$
51
                    3D
 Structure written by MMmdl.
165174  0  0  1  0            999 V2000
  -30.7175  -14.4428   20.4630 C   0  0  0  0  0  0
  -30.4047  -12.2579   19.4384 C   0  0  0  0  0  0
  -29.4934  -12.4702   18.2120 C   0  0  0  0  0  0
  -28.0115  -12.3518   18.6190 C   0  0  0  0  0  0
  -27.6539  -13.2078   19.8650 C   0  0  2  0  0  0
  -28.6981  -13.0355   20.9952 C   0  0  0  0  0  0
  -25.2555  -13.8158   20.5678 C   0  0  0  0  0  0
  -24.1819  -13.0428   20.9189 C   0  0  0  0  0  0
  -24.6383  -11.6900   20.8748 C   0  0  0  0  0  0
  -23.9053  -10.4287   21.0411 C   0  0  0  0  0  0
  -24.3610   -9.4199   21.9182 C   0  0  0  0  0  0
  -23.6284   -8.2239   22.0748 C   0  0  0  0  0  0
  -22.4263   -8.0282   21.3545 C   0  0  0  0  0  0
  -21.9900   -9.0255   20.4643 C   0  0  0  0  0  0
  -22.7231  -10.2129   20.3056 C   0  0  0  0  0  0
  -21.6853   -6.0735   22.5279 C   0  0  0  0  0  0
  -21.4022   -6.5641   23.8214 C   0  0  0  0  0  0
  -21.3654   -5.6792   24.9174 C   0  0  0  0  0  0
  -21.6039   -4.3055   24.7227 C   0  0  0  0  0  0
  -21.8821   -3.8145   23.4350 C   0  0  0  0  0  0
  -21.9191   -4.6961   22.3404 C   0  0  0  0  0  0
  -22.7841  -13.5223   21.1846 C   0  0  0  0  0  0
  -22.1658   -4.2146   21.0980 F   0  0  0  0  0  0
  -21.5621   -3.4537   25.7738 F   0  0  0  0  0  0
  -30.0328  -13.2744   20.4305 N   0  0  0  0  0  0
  -26.2986  -12.9329   20.3338 N   0  0  0  0  0  0
  -25.9307  -11.6491   20.5780 N   0  0  0  0  0  0
  -22.0476  -12.8214   22.0399 N   0  0  0  0  0  0
  -25.4259  -15.1881   20.4078 N   0  0  0  0  0  0
  -31.9189  -14.5269   20.2060 O   0  0  0  0  0  0
  -21.6633   -6.8877   21.4240 O   0  0  0  0  0  0
  -22.3527  -14.5531   20.6700 O   0  0  0  0  0  0
  -24.6101  -31.8709   23.2115 C   0  0  0  0  0  0
  -25.9017  -32.4833   23.8400 C   0  0  1  0  0  0
  -27.2364  -27.4704   20.1041 C   0  0  0  0  0  0
  -25.5885  -33.8631   24.2335 N   0  0  0  0  0  0
  -23.3958  -30.4929   21.5517 C   0  0  2  0  0  0
  -24.8425  -28.9604   20.1173 C   0  0  0  0  0  0
  -22.7382  -29.4669   22.5016 C   0  0  0  0  0  0
  -18.0268  -28.1374   22.8487 C   0  0  0  0  0  0
  -24.1484  -36.7323   23.2633 C   0  0  0  0  0  0
  -25.9194  -30.8494   21.3568 C   0  0  0  0  0  0
  -25.9991  -29.4857   20.7071 C   0  0  0  0  0  0
  -27.2006  -28.7493   20.6932 C   0  0  0  0  0  0
  -26.0676  -26.9484   19.5077 C   0  0  0  0  0  0
  -24.8697  -27.6888   19.5155 C   0  0  0  0  0  0
  -23.6018  -29.8221   20.1669 C   0  0  0  0  0  0
  -25.4100  -36.3119   24.0338 C   0  0  1  0  0  0
  -20.5851  -28.3653   23.1335 C   0  0  2  0  0  0
  -20.6754  -26.9392   22.5430 C   0  0  0  0  0  0
  -19.5745  -26.6395   21.5206 C   0  0  0  0  0  0
  -18.1917  -26.7928   22.1603 C   0  0  0  0  0  0
  -19.1514  -28.8827   23.2912 C   0  0  0  0  0  0
  -18.9448  -30.1431   23.8932 C   0  0  0  0  0  0
  -17.6451  -30.6574   24.0577 C   0  0  0  0  0  0
  -25.9028  -34.9483   23.5134 C   0  0  0  0  0  0
  -16.5344  -29.9085   23.6320 C   0  0  0  0  0  0
  -16.7256  -28.6501   23.0338 C   0  0  0  0  0  0
  -26.4458  -31.6597   25.0712 C   0  0  0  0  0  0
  -25.3743  -31.3721   26.1482 C   0  0  0  0  0  0
  -27.0265  -30.3034   24.6060 C   0  0  0  0  0  0
  -27.6047  -32.4302   25.7464 C   0  0  0  0  0  0
  -27.5587  -37.1815   24.8448 C   0  0  0  0  0  0
  -21.4116  -29.3023   22.3744 N   0  0  0  0  0  0
  -26.4290  -37.3800   23.9405 N   0  0  0  0  0  0
  -24.6599  -31.0842   22.0994 N   0  0  0  0  0  0
  -23.4169  -28.8222   23.3053 O   0  0  0  0  0  0
  -28.4208  -26.7796   20.0979 O   0  0  0  0  0  0
  -26.5595  -34.8932   22.4699 O   0  0  0  0  0  0
  -23.5305  -32.1454   23.7531 O   0  0  0  0  0  0
  -28.8074  -18.4241   18.5801 C   0  0  0  0  0  0
  -28.5771  -19.8067   18.4687 C   0  0  0  0  0  0
  -30.2797  -20.2175   20.1655 C   0  0  0  0  0  0
  -29.8127  -17.9310   19.4381 C   0  0  0  0  0  0
  -29.3457  -20.7156   19.2266 C   0  0  0  0  0  0
  -30.5177  -18.8318   20.2732 C   0  0  0  0  0  0
  -30.8419  -23.3089   17.3857 C   0  0  0  0  0  0
  -28.9753  -23.0226   19.9209 C   0  0  0  0  0  0
  -31.4868  -23.9502   18.6168 C   0  0  0  0  0  0
  -29.5288  -22.5247   17.5529 C   0  0  0  0  0  0
  -30.5680  -24.9508   19.3567 C   0  0  0  0  0  0
  -29.0882  -24.5239   19.5645 C   0  0  2  0  0  0
  -30.2493  -16.4830   19.2671 C   0  0  0  0  0  0
  -28.3821  -25.4373   20.5835 C   0  0  0  0  0  0
  -29.2659  -22.1134   18.9498 N   0  0  0  0  0  0
  -31.4990  -18.3773   21.1522 N   0  0  0  0  0  0
  -29.9399  -15.5274   20.3384 N   0  0  0  0  0  0
  -31.3666  -23.4262   16.2763 O   0  0  0  0  0  0
  -28.6406  -22.6944   21.0649 O   0  0  0  0  0  0
  -31.4547  -12.3182   19.1453 H   0  0  0  0  0  0
  -30.2650  -11.2593   19.8557 H   0  0  0  0  0  0
  -29.7266  -11.7362   17.4394 H   0  0  0  0  0  0
  -29.6806  -13.4497   17.7689 H   0  0  0  0  0  0
  -27.8125  -11.2994   18.8232 H   0  0  0  0  0  0
  -27.3682  -12.6222   17.7808 H   0  0  0  0  0  0
  -27.6789  -14.2463   19.5377 H   0  0  0  0  0  0
  -28.6528  -12.0279   21.4110 H   0  0  0  0  0  0
  -28.4916  -13.7169   21.8229 H   0  0  0  0  0  0
  -25.2758   -9.5666   22.4753 H   0  0  0  0  0  0
  -23.9998   -7.4621   22.7455 H   0  0  0  0  0  0
  -21.0836   -8.8769   19.8941 H   0  0  0  0  0  0
  -22.3697  -10.9668   19.6161 H   0  0  0  0  0  0
  -21.2032   -7.6152   23.9720 H   0  0  0  0  0  0
  -21.1468   -6.0522   25.9076 H   0  0  0  0  0  0
  -22.0608   -2.7607   23.2854 H   0  0  0  0  0  0
  -22.4083  -11.9867   22.4780 H   0  0  0  0  0  0
  -21.1086  -13.1231   22.2581 H   0  0  0  0  0  0
  -24.6572  -15.8408   20.5181 H   0  0  0  0  0  0
  -26.2748  -15.6322   20.0826 H   0  0  0  0  0  0
  -26.7096  -32.5559   23.1180 H   0  0  0  0  0  0
  -25.0024  -33.9795   25.0471 H   0  0  0  0  0  0
  -22.6822  -31.3078   21.4130 H   0  0  0  0  0  0
  -23.3742  -35.9661   23.3288 H   0  0  0  0  0  0
  -24.3591  -36.8938   22.2050 H   0  0  0  0  0  0
  -23.7238  -37.6528   23.6649 H   0  0  0  0  0  0
  -26.0235  -31.6153   20.5869 H   0  0  0  0  0  0
  -26.8103  -30.9053   21.9709 H   0  0  0  0  0  0
  -28.0970  -29.1538   21.1429 H   0  0  0  0  0  0
  -26.0817  -25.9779   19.0323 H   0  0  0  0  0  0
  -23.9804  -27.2770   19.0584 H   0  0  0  0  0  0
  -23.7047  -30.5957   19.4049 H   0  0  0  0  0  0
  -22.7265  -29.2386   19.8746 H   0  0  0  0  0  0
  -25.1269  -36.1992   25.0830 H   0  0  0  0  0  0
  -20.9942  -28.3225   24.1456 H   0  0  0  0  0  0
  -20.5624  -26.2264   23.3612 H   0  0  0  0  0  0
  -21.6635  -26.7429   22.1247 H   0  0  0  0  0  0
  -19.6910  -25.6315   21.1202 H   0  0  0  0  0  0
  -19.6691  -27.3235   20.6762 H   0  0  0  0  0  0
  -17.4193  -26.6689   21.3997 H   0  0  0  0  0  0
  -18.0310  -26.0056   22.8983 H   0  0  0  0  0  0
  -19.7926  -30.7233   24.2321 H   0  0  0  0  0  0
  -17.5008  -31.6250   24.5185 H   0  0  0  0  0  0
  -15.5346  -30.2995   23.7626 H   0  0  0  0  0  0
  -15.8658  -28.0833   22.7033 H   0  0  0  0  0  0
  -24.5910  -30.7058   25.7852 H   0  0  0  0  0  0
  -24.8950  -32.2890   26.4922 H   0  0  0  0  0  0
  -25.8116  -30.8915   27.0242 H   0  0  0  0  0  0
  -26.2796  -29.6819   24.1107 H   0  0  0  0  0  0
  -27.4030  -29.7239   25.4501 H   0  0  0  0  0  0
  -27.8634  -30.4344   23.9196 H   0  0  0  0  0  0
  -27.2677  -33.3595   26.2072 H   0  0  0  0  0  0
  -28.3842  -32.6870   25.0276 H   0  0  0  0  0  0
  -28.0733  -31.8407   26.5354 H   0  0  0  0  0  0
  -28.2598  -38.0119   24.7497 H   0  0  0  0  0  0
  -28.1087  -36.2653   24.6249 H   0  0  0  0  0  0
  -27.2321  -37.1439   25.8856 H   0  0  0  0  0  0
  -20.9268  -29.8745   21.6973 H   0  0  0  0  0  0
  -26.0179  -38.2878   24.1410 H   0  0  0  0  0  0
  -28.2637  -17.7490   17.9344 H   0  0  0  0  0  0
  -27.8515  -20.1659   17.7511 H   0  0  0  0  0  0
  -30.8688  -20.9107   20.7505 H   0  0  0  0  0  0
  -32.4095  -24.4489   18.3180 H   0  0  0  0  0  0
  -31.7874  -23.1474   19.2909 H   0  0  0  0  0  0
  -29.6059  -21.6544   16.9013 H   0  0  0  0  0  0
  -28.6963  -23.1034   17.1531 H   0  0  0  0  0  0
  -30.5823  -25.8973   18.8151 H   0  0  0  0  0  0
  -31.0206  -25.1684   20.3252 H   0  0  0  0  0  0
  -28.5436  -24.6835   18.6350 H   0  0  0  0  0  0
  -31.3187  -16.5323   19.0517 H   0  0  0  0  0  0
  -29.8067  -16.0848   18.3527 H   0  0  0  0  0  0
  -28.9037  -25.4139   21.5415 H   0  0  0  0  0  0
  -27.3701  -25.0818   20.7868 H   0  0  0  0  0  0
  -31.7572  -18.9699   21.9353 H   0  0  0  0  0  0
  -31.4822  -17.3920   21.3962 H   0  0  0  0  0  0
  -28.9655  -15.4076   20.5648 H   0  0  0  0  0  0
  1 25  1  0  0  0
  1 30  2  0  0  0
  1 87  1  0  0  0
  2  3  1  0  0  0
  2 25  1  0  0  0
  2 90  1  0  0  0
  2 91  1  0  0  0
  3  4  1  0  0  0
  3 92  1  0  0  0
  3 93  1  0  0  0
  4  5  1  0  0  0
  4 94  1  0  0  0
  4 95  1  0  0  0
  5  6  1  0  0  0
  5 26  1  0  0  0
  5 96  1  0  0  0
  6 25  1  0  0  0
  6 97  1  0  0  0
  6 98  1  0  0  0
  7  8  2  0  0  0
  7 26  1  0  0  0
  7 29  1  0  0  0
  8  9  1  0  0  0
  8 22  1  0  0  0
  9 10  1  0  0  0
  9 27  2  0  0  0
 10 11  2  0  0  0
 10 15  1  0  0  0
 11 12  1  0  0  0
 11 99  1  0  0  0
 12 13  2  0  0  0
 12100  1  0  0  0
 13 14  1  0  0  0
 13 31  1  0  0  0
 14 15  2  0  0  0
 14101  1  0  0  0
 15102  1  0  0  0
 16 17  2  0  0  0
 16 21  1  0  0  0
 16 31  1  0  0  0
 17 18  1  0  0  0
 17103  1  0  0  0
 18 19  2  0  0  0
 18104  1  0  0  0
 19 20  1  0  0  0
 19 24  1  0  0  0
 20 21  2  0  0  0
 20105  1  0  0  0
 21 23  1  0  0  0
 22 28  1  0  0  0
 22 32  2  0  0  0
 26 27  1  0  0  0
 28106  1  0  0  0
 28107  1  0  0  0
 29108  1  0  0  0
 29109  1  0  0  0
 33 34  1  0  0  0
 33 66  1  0  0  0
 33 70  2  0  0  0
 34 36  1  0  0  0
 34 59  1  0  0  0
 34110  1  0  0  0
 35 44  2  0  0  0
 35 45  1  0  0  0
 35 68  1  0  0  0
 36 56  1  0  0  0
 36111  1  0  0  0
 37 39  1  0  0  0
 37 47  1  0  0  0
 37 66  1  0  0  0
 37112  1  0  0  0
 38 43  2  0  0  0
 38 46  1  0  0  0
 38 47  1  0  0  0
 39 64  1  0  0  0
 39 67  2  0  0  0
 40 52  1  0  0  0
 40 53  2  0  0  0
 40 58  1  0  0  0
 41113  1  0  0  0
 41114  1  0  0  0
 41115  1  0  0  0
 41 48  1  0  0  0
 42 43  1  0  0  0
 42 66  1  0  0  0
 42116  1  0  0  0
 42117  1  0  0  0
 43 44  1  0  0  0
 44118  1  0  0  0
 45 46  2  0  0  0
 45119  1  0  0  0
 46120  1  0  0  0
 47121  1  0  0  0
 47122  1  0  0  0
 48 56  1  0  0  0
 48 65  1  0  0  0
 48123  1  0  0  0
 49 50  1  0  0  0
 49 53  1  0  0  0
 49 64  1  0  0  0
 49124  1  0  0  0
 50 51  1  0  0  0
 50125  1  0  0  0
 50126  1  0  0  0
 51 52  1  0  0  0
 51127  1  0  0  0
 51128  1  0  0  0
 52129  1  0  0  0
 52130  1  0  0  0
 53 54  1  0  0  0
 54 55  2  0  0  0
 54131  1  0  0  0
 55 57  1  0  0  0
 55132  1  0  0  0
 56 69  2  0  0  0
 57 58  2  0  0  0
 57133  1  0  0  0
 58134  1  0  0  0
 59 60  1  0  0  0
 59 61  1  0  0  0
 59 62  1  0  0  0
 60135  1  0  0  0
 60136  1  0  0  0
 60137  1  0  0  0
 61138  1  0  0  0
 61139  1  0  0  0
 61140  1  0  0  0
 62141  1  0  0  0
 62142  1  0  0  0
 62143  1  0  0  0
 63 65  1  0  0  0
 63144  1  0  0  0
 63145  1  0  0  0
 63146  1  0  0  0
 64147  1  0  0  0
 65148  1  0  0  0
 68 84  1  0  0  0
 71 72  2  0  0  0
 71 74  1  0  0  0
 71149  1  0  0  0
 72 75  1  0  0  0
 72150  1  0  0  0
 73 75  2  0  0  0
 73 76  1  0  0  0
 73151  1  0  0  0
 74 76  2  0  0  0
 74 83  1  0  0  0
 75 85  1  0  0  0
 76 86  1  0  0  0
 77 79  1  0  0  0
 77 80  1  0  0  0
 77 88  2  0  0  0
 78 82  1  0  0  0
 78 85  1  0  0  0
 78 89  2  0  0  0
 79 81  1  0  0  0
 79152  1  0  0  0
 79153  1  0  0  0
 80 85  1  0  0  0
 80154  1  0  0  0
 80155  1  0  0  0
 81 82  1  0  0  0
 81156  1  0  0  0
 81157  1  0  0  0
 82 84  1  0  0  0
 82158  1  0  0  0
 83 87  1  0  0  0
 83159  1  0  0  0
 83160  1  0  0  0
 84161  1  0  0  0
 84162  1  0  0  0
 86163  1  0  0  0
 86164  1  0  0  0
 87165  1  0  0  0
M  ISO  4   1 100  68 101  84 101  87 100
M  END
> <chiral flag>
0

> <version>
0

> <s_m_source_file>
/data/baiqing/PycharmProjects/Reinvent-master-3.2/result/LINK_invent/BTK/process_docking_weight1_custom_product_contain_oxygen_bond_distance_aromatic_linkinvent_7_9_3/rearranged_h_0102.sdf

> <i_m_source_file_index>
51

> <r_mmod_Potential_Energy-OPLS-2005>
13.4938306808472

> <r_mmod_Stretch_Energy-OPLS-2005>
36.8744812011719

> <r_mmod_Bend_Energy-OPLS-2005>
103.271217346191

> <r_mmod_Torsional_Energy-OPLS-2005>
328.219116210938

> <r_mmod_Improper_Torsional_Energy-OPLS-2005>
21.1315631866455

> <r_mmod_Van_der_Waal_Energy-OPLS-2005>
179.319534301758

> <r_mmod_Electrostatic_Energy-OPLS-2005>
-428.816375732422

> <r_mmod_Solvation_Energy-OPLS-2005>
-246.571060180664

> <b_mmod_Minimization_Converged-OPLS-2005>
0

> <r_mmod_RMS_Derivative-OPLS-2005>
1.08615112304688

$$$$
52
                    3D
 Structure written by MMmdl.
155163  0  0  1  0            999 V2000
  -30.6886  -14.5452   20.6089 C   0  0  0  0  0  0
  -30.4288  -12.3703   19.4346 C   0  0  0  0  0  0
  -29.5002  -12.5337   18.2155 C   0  0  0  0  0  0
  -28.0216  -12.3788   18.6190 C   0  0  0  0  0  0
  -27.6568  -13.2124   19.8778 C   0  0  2  0  0  0
  -28.6986  -13.0056   21.0004 C   0  0  0  0  0  0
  -25.2451  -13.8053   20.5473 C   0  0  0  0  0  0
  -24.1797  -13.0334   20.9168 C   0  0  0  0  0  0
  -24.6400  -11.6825   20.8749 C   0  0  0  0  0  0
  -23.9065  -10.4234   21.0396 C   0  0  0  0  0  0
  -24.3610   -9.4152   21.9166 C   0  0  0  0  0  0
  -23.6263   -8.2199   22.0757 C   0  0  0  0  0  0
  -22.4247   -8.0253   21.3553 C   0  0  0  0  0  0
  -21.9890   -9.0217   20.4642 C   0  0  0  0  0  0
  -22.7228  -10.2086   20.3040 C   0  0  0  0  0  0
  -21.6836   -6.0703   22.5279 C   0  0  0  0  0  0
  -21.4011   -6.5613   23.8206 C   0  0  0  0  0  0
  -21.3662   -5.6778   24.9171 C   0  0  0  0  0  0
  -21.6042   -4.3045   24.7232 C   0  0  0  0  0  0
  -21.8826   -3.8124   23.4357 C   0  0  0  0  0  0
  -21.9187   -4.6936   22.3401 C   0  0  0  0  0  0
  -22.7820  -13.5138   21.1831 C   0  0  0  0  0  0
  -22.1641   -4.2102   21.0982 F   0  0  0  0  0  0
  -21.5633   -3.4550   25.7759 F   0  0  0  0  0  0
  -30.0229  -13.3558   20.4588 N   0  0  0  0  0  0
  -26.2986  -12.9284   20.3341 N   0  0  0  0  0  0
  -25.9354  -11.6445   20.5818 N   0  0  0  0  0  0
  -22.0480  -12.8149   22.0422 N   0  0  0  0  0  0
  -25.3935  -15.1675   20.3480 N   0  0  0  0  0  0
  -31.7495  -14.7821   20.0199 O   0  0  0  0  0  0
  -21.6620   -6.8845   21.4244 O   0  0  0  0  0  0
  -22.3467  -14.5420   20.6647 O   0  0  0  0  0  0
  -24.6191  -31.8639   23.2051 C   0  0  0  0  0  0
  -25.9064  -32.4804   23.8364 C   0  0  1  0  0  0
  -27.2361  -27.3933   20.1032 C   0  0  0  0  0  0
  -25.5915  -33.8603   24.2305 N   0  0  0  0  0  0
  -23.4090  -30.4841   21.5479 C   0  0  2  0  0  0
  -24.8559  -28.9371   20.1198 C   0  0  0  0  0  0
  -22.7431  -29.4642   22.5000 C   0  0  0  0  0  0
  -18.0274  -28.1362   22.8496 C   0  0  0  0  0  0
  -24.1488  -36.7309   23.2640 C   0  0  0  0  0  0
  -25.9424  -30.8161   21.3638 C   0  0  0  0  0  0
  -26.0195  -29.4462   20.7107 C   0  0  0  0  0  0
  -27.2162  -28.6869   20.6873 C   0  0  0  0  0  0
  -26.0527  -26.8993   19.5163 C   0  0  0  0  0  0
  -24.8689  -27.6649   19.5194 C   0  0  0  0  0  0
  -23.6173  -29.8071   20.1668 C   0  0  0  0  0  0
  -25.4116  -36.3101   24.0332 C   0  0  1  0  0  0
  -20.5858  -28.3655   23.1305 C   0  0  2  0  0  0
  -20.6750  -26.9390   22.5407 C   0  0  0  0  0  0
  -19.5738  -26.6375   21.5200 C   0  0  0  0  0  0
  -18.1919  -26.7915   22.1611 C   0  0  0  0  0  0
  -19.1522  -28.8829   23.2887 C   0  0  0  0  0  0
  -18.9453  -30.1436   23.8885 C   0  0  0  0  0  0
  -17.6453  -30.6579   24.0549 C   0  0  0  0  0  0
  -25.9057  -34.9467   23.5122 C   0  0  0  0  0  0
  -16.5340  -29.9073   23.6332 C   0  0  0  0  0  0
  -16.7259  -28.6486   23.0364 C   0  0  0  0  0  0
  -26.4478  -31.6596   25.0717 C   0  0  0  0  0  0
  -25.3743  -31.3716   26.1471 C   0  0  0  0  0  0
  -27.0305  -30.3023   24.6144 C   0  0  0  0  0  0
  -27.6045  -32.4335   25.7487 C   0  0  0  0  0  0
  -27.5586  -37.1806   24.8464 C   0  0  0  0  0  0
  -21.4153  -29.3025   22.3727 N   0  0  0  0  0  0
  -26.4302  -37.3785   23.9406 N   0  0  0  0  0  0
  -24.6756  -31.0703   22.0974 N   0  0  0  0  0  0
  -23.4196  -28.8201   23.3072 O   0  0  0  0  0  0
  -28.3954  -26.6381   20.0671 O   0  0  0  0  0  0
  -26.5627  -34.8912   22.4691 O   0  0  0  0  0  0
  -23.5383  -32.1406   23.7433 O   0  0  0  0  0  0
  -29.8764  -18.0069   20.6866 C   0  0  0  0  0  0
  -27.9474  -16.7407   21.4290 C   0  0  0  0  0  0
  -27.6729  -19.0498   20.6760 C   0  0  0  0  0  0
  -29.3362  -16.7736   21.1764 C   0  0  0  0  0  0
  -29.0616  -19.1597   20.4337 C   0  0  0  0  0  0
  -27.1270  -17.8574   21.1780 C   0  0  0  0  0  0
  -30.1439  -15.5753   21.6313 C   0  0  0  0  0  0
  -28.4543  -24.0921   19.7095 C   0  0  0  0  0  0
  -28.8597  -22.7369   20.4009 C   0  0  0  0  0  0
  -28.3626  -25.3203   20.6728 C   0  0  0  0  0  0
  -28.8910  -21.4711   19.4819 C   0  0  0  0  0  0
  -30.3440  -15.4062   22.8738 N   0  0  0  0  0  0
  -29.6581  -20.3485   20.0071 O   0  0  0  0  0  0
  -25.8013  -17.8003   21.4463 F   0  0  0  0  0  0
  -31.4695  -12.4919   19.1290 H   0  0  0  0  0  0
  -30.3614  -11.3597   19.8401 H   0  0  0  0  0  0
  -29.7564  -11.8087   17.4423 H   0  0  0  0  0  0
  -29.6569  -13.5186   17.7738 H   0  0  0  0  0  0
  -27.8320  -11.3199   18.8068 H   0  0  0  0  0  0
  -27.3797  -12.6625   17.7825 H   0  0  0  0  0  0
  -27.6985  -14.2618   19.5860 H   0  0  0  0  0  0
  -28.6981  -11.9662   21.3293 H   0  0  0  0  0  0
  -28.4323  -13.5839   21.8844 H   0  0  0  0  0  0
  -25.2752   -9.5634   22.4740 H   0  0  0  0  0  0
  -23.9956   -7.4612   22.7499 H   0  0  0  0  0  0
  -21.0814   -8.8735   19.8956 H   0  0  0  0  0  0
  -22.3666  -10.9634   19.6149 H   0  0  0  0  0  0
  -21.1994   -7.6126   23.9689 H   0  0  0  0  0  0
  -21.1478   -6.0513   25.9073 H   0  0  0  0  0  0
  -22.0605   -2.7578   23.2879 H   0  0  0  0  0  0
  -22.4079  -11.9826   22.4842 H   0  0  0  0  0  0
  -21.1119  -13.1191   22.2635 H   0  0  0  0  0  0
  -24.6428  -15.8285   20.5179 H   0  0  0  0  0  0
  -26.2155  -15.6124   19.9642 H   0  0  0  0  0  0
  -26.7146  -32.5488   23.1131 H   0  0  0  0  0  0
  -25.0036  -33.9755   25.0429 H   0  0  0  0  0  0
  -22.6996  -31.3008   21.4041 H   0  0  0  0  0  0
  -23.3750  -35.9641   23.3293 H   0  0  0  0  0  0
  -24.3578  -36.8952   22.2059 H   0  0  0  0  0  0
  -23.7240  -37.6507   23.6673 H   0  0  0  0  0  0
  -26.0649  -31.5808   20.5950 H   0  0  0  0  0  0
  -26.8260  -30.8638   21.9891 H   0  0  0  0  0  0
  -28.1190  -29.0832   21.1314 H   0  0  0  0  0  0
  -26.0456  -25.9219   19.0541 H   0  0  0  0  0  0
  -23.9737  -27.2649   19.0655 H   0  0  0  0  0  0
  -23.7232  -30.5756   19.4014 H   0  0  0  0  0  0
  -22.7408  -29.2244   19.8786 H   0  0  0  0  0  0
  -25.1288  -36.1963   25.0825 H   0  0  0  0  0  0
  -20.9944  -28.3217   24.1425 H   0  0  0  0  0  0
  -20.5632  -26.2270   23.3600 H   0  0  0  0  0  0
  -21.6624  -26.7411   22.1216 H   0  0  0  0  0  0
  -19.6890  -25.6291   21.1222 H   0  0  0  0  0  0
  -19.6668  -27.3184   20.6738 H   0  0  0  0  0  0
  -17.4183  -26.6676   21.4005 H   0  0  0  0  0  0
  -18.0300  -26.0038   22.8993 H   0  0  0  0  0  0
  -19.7931  -30.7257   24.2250 H   0  0  0  0  0  0
  -17.5007  -31.6262   24.5149 H   0  0  0  0  0  0
  -15.5336  -30.2967   23.7653 H   0  0  0  0  0  0
  -15.8662  -28.0789   22.7086 H   0  0  0  0  0  0
  -24.5905  -30.7077   25.7807 H   0  0  0  0  0  0
  -24.8955  -32.2877   26.4943 H   0  0  0  0  0  0
  -25.8100  -30.8867   27.0214 H   0  0  0  0  0  0
  -26.2851  -29.6792   24.1200 H   0  0  0  0  0  0
  -27.4028  -29.7274   25.4629 H   0  0  0  0  0  0
  -27.8709  -30.4308   23.9323 H   0  0  0  0  0  0
  -27.2654  -33.3634   26.2056 H   0  0  0  0  0  0
  -28.3853  -32.6898   25.0320 H   0  0  0  0  0  0
  -28.0705  -31.8471   26.5415 H   0  0  0  0  0  0
  -28.2602  -38.0102   24.7517 H   0  0  0  0  0  0
  -28.1083  -36.2638   24.6279 H   0  0  0  0  0  0
  -27.2298  -37.1454   25.8863 H   0  0  0  0  0  0
  -20.9337  -29.8766   21.6943 H   0  0  0  0  0  0
  -26.0189  -38.2862   24.1397 H   0  0  0  0  0  0
  -30.9441  -18.0870   20.5436 H   0  0  0  0  0  0
  -27.5007  -15.8568   21.8598 H   0  0  0  0  0  0
  -26.9939  -19.8731   20.5211 H   0  0  0  0  0  0
  -27.5028  -23.9704   19.1929 H   0  0  0  0  0  0
  -29.1833  -24.3138   18.9287 H   0  0  0  0  0  0
  -28.1983  -22.5452   21.2464 H   0  0  0  0  0  0
  -29.8521  -22.8668   20.8324 H   0  0  0  0  0  0
  -29.2282  -25.2840   21.3321 H   0  0  0  0  0  0
  -27.4987  -25.2131   21.3313 H   0  0  0  0  0  0
  -29.3926  -21.7506   18.5555 H   0  0  0  0  0  0
  -27.8841  -21.2063   19.1591 H   0  0  0  0  0  0
  -29.9215  -16.1489   23.4192 H   0  0  0  0  0  0
  1 25  1  0  0  0
  1 30  2  0  0  0
  1 77  1  0  0  0
  2  3  1  0  0  0
  2 25  1  0  0  0
  2 85  1  0  0  0
  2 86  1  0  0  0
  3  4  1  0  0  0
  3 87  1  0  0  0
  3 88  1  0  0  0
  4  5  1  0  0  0
  4 89  1  0  0  0
  4 90  1  0  0  0
  5  6  1  0  0  0
  5 26  1  0  0  0
  5 91  1  0  0  0
  6 25  1  0  0  0
  6 92  1  0  0  0
  6 93  1  0  0  0
  7  8  2  0  0  0
  7 26  1  0  0  0
  7 29  1  0  0  0
  8  9  1  0  0  0
  8 22  1  0  0  0
  9 10  1  0  0  0
  9 27  2  0  0  0
 10 11  2  0  0  0
 10 15  1  0  0  0
 11 12  1  0  0  0
 11 94  1  0  0  0
 12 13  2  0  0  0
 12 95  1  0  0  0
 13 14  1  0  0  0
 13 31  1  0  0  0
 14 15  2  0  0  0
 14 96  1  0  0  0
 15 97  1  0  0  0
 16 17  2  0  0  0
 16 21  1  0  0  0
 16 31  1  0  0  0
 17 18  1  0  0  0
 17 98  1  0  0  0
 18 19  2  0  0  0
 18 99  1  0  0  0
 19 20  1  0  0  0
 19 24  1  0  0  0
 20 21  2  0  0  0
 20100  1  0  0  0
 21 23  1  0  0  0
 22 28  1  0  0  0
 22 32  2  0  0  0
 26 27  1  0  0  0
 28101  1  0  0  0
 28102  1  0  0  0
 29103  1  0  0  0
 29104  1  0  0  0
 33 34  1  0  0  0
 33 66  1  0  0  0
 33 70  2  0  0  0
 34 36  1  0  0  0
 34 59  1  0  0  0
 34105  1  0  0  0
 35 44  2  0  0  0
 35 45  1  0  0  0
 35 68  1  0  0  0
 36 56  1  0  0  0
 36106  1  0  0  0
 37 39  1  0  0  0
 37 47  1  0  0  0
 37 66  1  0  0  0
 37107  1  0  0  0
 38 43  2  0  0  0
 38 46  1  0  0  0
 38 47  1  0  0  0
 39 64  1  0  0  0
 39 67  2  0  0  0
 40 52  1  0  0  0
 40 53  2  0  0  0
 40 58  1  0  0  0
 41108  1  0  0  0
 41109  1  0  0  0
 41110  1  0  0  0
 41 48  1  0  0  0
 42 43  1  0  0  0
 42 66  1  0  0  0
 42111  1  0  0  0
 42112  1  0  0  0
 43 44  1  0  0  0
 44113  1  0  0  0
 45 46  2  0  0  0
 45114  1  0  0  0
 46115  1  0  0  0
 47116  1  0  0  0
 47117  1  0  0  0
 48 56  1  0  0  0
 48 65  1  0  0  0
 48118  1  0  0  0
 49 50  1  0  0  0
 49 53  1  0  0  0
 49 64  1  0  0  0
 49119  1  0  0  0
 50 51  1  0  0  0
 50120  1  0  0  0
 50121  1  0  0  0
 51 52  1  0  0  0
 51122  1  0  0  0
 51123  1  0  0  0
 52124  1  0  0  0
 52125  1  0  0  0
 53 54  1  0  0  0
 54 55  2  0  0  0
 54126  1  0  0  0
 55 57  1  0  0  0
 55127  1  0  0  0
 56 69  2  0  0  0
 57 58  2  0  0  0
 57128  1  0  0  0
 58129  1  0  0  0
 59 60  1  0  0  0
 59 61  1  0  0  0
 59 62  1  0  0  0
 60130  1  0  0  0
 60131  1  0  0  0
 60132  1  0  0  0
 61133  1  0  0  0
 61134  1  0  0  0
 61135  1  0  0  0
 62136  1  0  0  0
 62137  1  0  0  0
 62138  1  0  0  0
 63 65  1  0  0  0
 63139  1  0  0  0
 63140  1  0  0  0
 63141  1  0  0  0
 64142  1  0  0  0
 65143  1  0  0  0
 68 80  1  0  0  0
 71 74  2  0  0  0
 71 75  1  0  0  0
 71144  1  0  0  0
 72 74  1  0  0  0
 72 76  2  0  0  0
 72145  1  0  0  0
 73 75  2  0  0  0
 73 76  1  0  0  0
 73146  1  0  0  0
 74 77  1  0  0  0
 75 83  1  0  0  0
 76 84  1  0  0  0
 77 82  2  0  0  0
 78 79  1  0  0  0
 78 80  1  0  0  0
 78147  1  0  0  0
 78148  1  0  0  0
 79 81  1  0  0  0
 79149  1  0  0  0
 79150  1  0  0  0
 80151  1  0  0  0
 80152  1  0  0  0
 81 83  1  0  0  0
 81153  1  0  0  0
 81154  1  0  0  0
 82155  1  0  0  0
M  ISO  4   1 100  68 101  77 100  80 101
M  END
> <chiral flag>
0

> <version>
0

> <s_m_source_file>
/data/baiqing/PycharmProjects/Reinvent-master-3.2/result/LINK_invent/BTK/process_docking_weight1_custom_product_contain_oxygen_bond_distance_aromatic_linkinvent_7_9_3/rearranged_h_0102.sdf

> <i_m_source_file_index>
52

> <r_mmod_Potential_Energy-OPLS-2005>
146.737442016602

> <r_mmod_Stretch_Energy-OPLS-2005>
58.3529090881348

> <r_mmod_Bend_Energy-OPLS-2005>
129.248916625977

> <r_mmod_Torsional_Energy-OPLS-2005>
250.851150512695

> <r_mmod_Improper_Torsional_Energy-OPLS-2005>
3.51024413108826

> <r_mmod_Van_der_Waal_Energy-OPLS-2005>
138.890075683594

> <r_mmod_Electrostatic_Energy-OPLS-2005>
-259.064331054688

> <r_mmod_Solvation_Energy-OPLS-2005>
-196.528656005859

> <b_mmod_Minimization_Converged-OPLS-2005>
0

> <r_mmod_RMS_Derivative-OPLS-2005>
3.14753532409668

$$$$
53
                    3D
 Structure written by MMmdl.
156164  0  0  1  0            999 V2000
  -30.5838  -14.7771   20.4542 C   0  0  0  0  0  0
  -30.4467  -12.4798   19.4568 C   0  0  0  0  0  0
  -29.5128  -12.4971   18.2267 C   0  0  0  0  0  0
  -28.0411  -12.3092   18.6494 C   0  0  0  0  0  0
  -27.6382  -13.2229   19.8369 C   0  0  2  0  0  0
  -28.6878  -13.1792   20.9668 C   0  0  0  0  0  0
  -25.2521  -13.8168   20.5685 C   0  0  0  0  0  0
  -24.1807  -13.0428   20.9202 C   0  0  0  0  0  0
  -24.6387  -11.6903   20.8741 C   0  0  0  0  0  0
  -23.9057  -10.4285   21.0413 C   0  0  0  0  0  0
  -24.3612   -9.4204   21.9185 C   0  0  0  0  0  0
  -23.6293   -8.2241   22.0748 C   0  0  0  0  0  0
  -22.4273   -8.0274   21.3535 C   0  0  0  0  0  0
  -21.9907   -9.0250   20.4640 C   0  0  0  0  0  0
  -22.7232  -10.2130   20.3056 C   0  0  0  0  0  0
  -21.6853   -6.0729   22.5282 C   0  0  0  0  0  0
  -21.4011   -6.5637   23.8217 C   0  0  0  0  0  0
  -21.3659   -5.6784   24.9173 C   0  0  0  0  0  0
  -21.6041   -4.3050   24.7227 C   0  0  0  0  0  0
  -21.8823   -3.8141   23.4345 C   0  0  0  0  0  0
  -21.9188   -4.6960   22.3401 C   0  0  0  0  0  0
  -22.7833  -13.5228   21.1853 C   0  0  0  0  0  0
  -22.1662   -4.2144   21.0982 F   0  0  0  0  0  0
  -21.5626   -3.4531   25.7739 F   0  0  0  0  0  0
  -29.9770  -13.5451   20.3683 N   0  0  0  0  0  0
  -26.2929  -12.9349   20.3226 N   0  0  0  0  0  0
  -25.9310  -11.6504   20.5728 N   0  0  0  0  0  0
  -22.0460  -12.8239   22.0413 N   0  0  0  0  0  0
  -25.4207  -15.1903   20.4151 N   0  0  0  0  0  0
  -31.7978  -14.8789   20.2587 O   0  0  0  0  0  0
  -21.6634   -6.8878   21.4249 O   0  0  0  0  0  0
  -22.3535  -14.5531   20.6693 O   0  0  0  0  0  0
  -24.6334  -31.8522   23.1940 C   0  0  0  0  0  0
  -25.9145  -32.4739   23.8304 C   0  0  1  0  0  0
  -27.2313  -27.2407   20.1508 C   0  0  0  0  0  0
  -25.5928  -33.8539   24.2229 N   0  0  0  0  0  0
  -23.4316  -30.4701   21.5391 C   0  0  2  0  0  0
  -24.8790  -28.8939   20.1323 C   0  0  0  0  0  0
  -22.7509  -29.4595   22.4937 C   0  0  0  0  0  0
  -18.0294  -28.1384   22.8485 C   0  0  0  0  0  0
  -24.1491  -36.7279   23.2640 C   0  0  0  0  0  0
  -25.9771  -30.7584   21.3750 C   0  0  0  0  0  0
  -26.0507  -29.3712   20.7338 C   0  0  0  0  0  0
  -27.2322  -28.5605   20.7211 C   0  0  0  0  0  0
  -26.0349  -26.8200   19.5395 C   0  0  0  0  0  0
  -24.8747  -27.6251   19.5267 C   0  0  0  0  0  0
  -23.6518  -29.7871   20.1631 C   0  0  0  0  0  0
  -25.4115  -36.3059   24.0327 C   0  0  1  0  0  0
  -20.5896  -28.3695   23.1273 C   0  0  2  0  0  0
  -20.6779  -26.9413   22.5409 C   0  0  0  0  0  0
  -19.5759  -26.6379   21.5211 C   0  0  0  0  0  0
  -18.1938  -26.7928   22.1618 C   0  0  0  0  0  0
  -19.1546  -28.8860   23.2871 C   0  0  0  0  0  0
  -18.9461  -30.1458   23.8893 C   0  0  0  0  0  0
  -17.6460  -30.6585   24.0557 C   0  0  0  0  0  0
  -25.9055  -34.9431   23.5082 C   0  0  0  0  0  0
  -16.5354  -29.9078   23.6328 C   0  0  0  0  0  0
  -16.7281  -28.6496   23.0354 C   0  0  0  0  0  0
  -26.4495  -31.6586   25.0714 C   0  0  0  0  0  0
  -25.3702  -31.3751   26.1428 C   0  0  0  0  0  0
  -27.0351  -30.3004   24.6218 C   0  0  0  0  0  0
  -27.6043  -32.4338   25.7481 C   0  0  0  0  0  0
  -27.5587  -37.1778   24.8452 C   0  0  0  0  0  0
  -21.4217  -29.3037   22.3665 N   0  0  0  0  0  0
  -26.4282  -37.3766   23.9421 N   0  0  0  0  0  0
  -24.7001  -31.0471   22.0919 N   0  0  0  0  0  0
  -23.4198  -28.8147   23.3059 O   0  0  0  0  0  0
  -28.3799  -26.4381   19.9860 O   0  0  0  0  0  0
  -26.5636  -34.8916   22.4657 O   0  0  0  0  0  0
  -23.5479  -32.1345   23.7229 O   0  0  0  0  0  0
  -30.0510  -18.5988   23.0067 C   0  0  0  0  0  0
  -29.8068  -19.8041   22.3186 C   0  0  0  0  0  0
  -30.0965  -17.3609   22.3369 C   0  0  0  0  0  0
  -29.6026  -18.5359   20.2544 C   0  0  0  0  0  0
  -29.5985  -19.8431   20.9217 C   0  0  0  0  0  0
  -29.8667  -17.2705   20.9486 C   0  0  0  0  0  0
  -27.8947  -23.6917   20.5914 C   0  0  0  0  0  0
  -28.3304  -22.2434   19.9458 C   0  0  0  0  0  0
  -28.6897  -25.1077   20.6253 C   0  0  0  0  0  0
  -29.6316  -21.3211   20.2718 C   0  0  2  0  0  0
  -29.7572  -15.8978   20.3873 N   0  0  0  0  0  0
  -30.5241  -21.2684   19.1047 N   0  3  0  0  0  0
  -31.4821  -12.6352   19.1460 H   0  0  0  0  0  0
  -30.4228  -11.5100   19.9554 H   0  0  0  0  0  0
  -29.8059  -11.7160   17.5242 H   0  0  0  0  0  0
  -29.6228  -13.4439   17.6960 H   0  0  0  0  0  0
  -27.9173  -11.2643   18.9334 H   0  0  0  0  0  0
  -27.3773  -12.4717   17.7996 H   0  0  0  0  0  0
  -27.6216  -14.2362   19.4381 H   0  0  0  0  0  0
  -28.7398  -12.1883   21.4202 H   0  0  0  0  0  0
  -28.4224  -13.8727   21.7669 H   0  0  0  0  0  0
  -25.2758   -9.5689   22.4754 H   0  0  0  0  0  0
  -23.9998   -7.4637   22.7473 H   0  0  0  0  0  0
  -21.0823   -8.8771   19.8963 H   0  0  0  0  0  0
  -22.3684  -10.9668   19.6157 H   0  0  0  0  0  0
  -21.2013   -7.6147   23.9723 H   0  0  0  0  0  0
  -21.1471   -6.0511   25.9080 H   0  0  0  0  0  0
  -22.0603   -2.7606   23.2844 H   0  0  0  0  0  0
  -22.4052  -11.9908   22.4843 H   0  0  0  0  0  0
  -21.1075  -13.1281   22.2581 H   0  0  0  0  0  0
  -24.6533  -15.8397   20.5487 H   0  0  0  0  0  0
  -26.2721  -15.6449   20.1129 H   0  0  0  0  0  0
  -26.7216  -32.5382   23.1047 H   0  0  0  0  0  0
  -25.0067  -33.9660   25.0371 H   0  0  0  0  0  0
  -22.7302  -31.2925   21.3841 H   0  0  0  0  0  0
  -23.3763  -35.9597   23.3261 H   0  0  0  0  0  0
  -24.3597  -36.8944   22.2064 H   0  0  0  0  0  0
  -23.7222  -37.6459   23.6693 H   0  0  0  0  0  0
  -26.1155  -31.5101   20.5969 H   0  0  0  0  0  0
  -26.8553  -30.8147   22.0064 H   0  0  0  0  0  0
  -28.1462  -28.9438   21.1527 H   0  0  0  0  0  0
  -26.0060  -25.8602   19.0443 H   0  0  0  0  0  0
  -23.9796  -27.2555   19.0456 H   0  0  0  0  0  0
  -23.7794  -30.5518   19.3963 H   0  0  0  0  0  0
  -22.7703  -29.2165   19.8646 H   0  0  0  0  0  0
  -25.1293  -36.1891   25.0817 H   0  0  0  0  0  0
  -20.9991  -28.3269   24.1392 H   0  0  0  0  0  0
  -20.5669  -26.2307   23.3611 H   0  0  0  0  0  0
  -21.6647  -26.7423   22.1209 H   0  0  0  0  0  0
  -19.6913  -25.6284   21.1250 H   0  0  0  0  0  0
  -19.6700  -27.3180   20.6734 H   0  0  0  0  0  0
  -17.4208  -26.6683   21.4018 H   0  0  0  0  0  0
  -18.0332  -26.0068   22.9010 H   0  0  0  0  0  0
  -19.7934  -30.7275   24.2267 H   0  0  0  0  0  0
  -17.5007  -31.6265   24.5151 H   0  0  0  0  0  0
  -15.5351  -30.2971   23.7650 H   0  0  0  0  0  0
  -15.8685  -28.0804   22.7076 H   0  0  0  0  0  0
  -24.5859  -30.7127   25.7746 H   0  0  0  0  0  0
  -24.8911  -32.2930   26.4849 H   0  0  0  0  0  0
  -25.7998  -30.8915   27.0210 H   0  0  0  0  0  0
  -26.2946  -29.6740   24.1232 H   0  0  0  0  0  0
  -27.4020  -29.7282   25.4750 H   0  0  0  0  0  0
  -27.8824  -30.4284   23.9477 H   0  0  0  0  0  0
  -27.2647  -33.3643   26.2042 H   0  0  0  0  0  0
  -28.3849  -32.6898   25.0306 H   0  0  0  0  0  0
  -28.0715  -31.8479   26.5403 H   0  0  0  0  0  0
  -28.2558  -38.0122   24.7564 H   0  0  0  0  0  0
  -28.1131  -36.2657   24.6187 H   0  0  0  0  0  0
  -27.2323  -37.1315   25.8855 H   0  0  0  0  0  0
  -20.9422  -29.8739   21.6836 H   0  0  0  0  0  0
  -26.0157  -38.2831   24.1452 H   0  0  0  0  0  0
  -30.2176  -18.6273   24.0743 H   0  0  0  0  0  0
  -29.8321  -20.7263   22.8841 H   0  0  0  0  0  0
  -30.2730  -16.4659   22.9183 H   0  0  0  0  0  0
  -29.4369  -18.5009   19.1859 H   0  0  0  0  0  0
  -27.6745  -23.4677   21.6362 H   0  0  0  0  0  0
  -26.9136  -23.9191   20.1763 H   0  0  0  0  0  0
  -28.2932  -22.3883   18.8659 H   0  0  0  0  0  0
  -27.4821  -21.5824   20.1260 H   0  0  0  0  0  0
  -29.7055  -24.8839   20.2986 H   0  0  0  0  0  0
  -28.8159  -25.3538   21.6806 H   0  0  0  0  0  0
  -30.1969  -21.9197   20.9873 H   0  0  0  0  0  0
  -28.8184  -15.6551   20.1136 H   0  0  0  0  0  0
  -30.0862  -20.7872   18.3408 H   0  0  0  0  0  0
  -31.3657  -20.7792   19.3495 H   0  0  0  0  0  0
  -30.7740  -22.1920   18.8032 H   0  0  0  0  0  0
  1 25  1  0  0  0
  1 30  2  0  0  0
  1 81  1  0  0  0
  2  3  1  0  0  0
  2 25  1  0  0  0
  2 83  1  0  0  0
  2 84  1  0  0  0
  3  4  1  0  0  0
  3 85  1  0  0  0
  3 86  1  0  0  0
  4  5  1  0  0  0
  4 87  1  0  0  0
  4 88  1  0  0  0
  5  6  1  0  0  0
  5 26  1  0  0  0
  5 89  1  0  0  0
  6 25  1  0  0  0
  6 90  1  0  0  0
  6 91  1  0  0  0
  7  8  2  0  0  0
  7 26  1  0  0  0
  7 29  1  0  0  0
  8  9  1  0  0  0
  8 22  1  0  0  0
  9 10  1  0  0  0
  9 27  2  0  0  0
 10 11  2  0  0  0
 10 15  1  0  0  0
 11 12  1  0  0  0
 11 92  1  0  0  0
 12 13  2  0  0  0
 12 93  1  0  0  0
 13 14  1  0  0  0
 13 31  1  0  0  0
 14 15  2  0  0  0
 14 94  1  0  0  0
 15 95  1  0  0  0
 16 17  2  0  0  0
 16 21  1  0  0  0
 16 31  1  0  0  0
 17 18  1  0  0  0
 17 96  1  0  0  0
 18 19  2  0  0  0
 18 97  1  0  0  0
 19 20  1  0  0  0
 19 24  1  0  0  0
 20 21  2  0  0  0
 20 98  1  0  0  0
 21 23  1  0  0  0
 22 28  1  0  0  0
 22 32  2  0  0  0
 26 27  1  0  0  0
 28 99  1  0  0  0
 28100  1  0  0  0
 29101  1  0  0  0
 29102  1  0  0  0
 33 34  1  0  0  0
 33 66  1  0  0  0
 33 70  2  0  0  0
 34 36  1  0  0  0
 34 59  1  0  0  0
 34103  1  0  0  0
 35 44  2  0  0  0
 35 45  1  0  0  0
 35 68  1  0  0  0
 36 56  1  0  0  0
 36104  1  0  0  0
 37 39  1  0  0  0
 37 47  1  0  0  0
 37 66  1  0  0  0
 37105  1  0  0  0
 38 43  2  0  0  0
 38 46  1  0  0  0
 38 47  1  0  0  0
 39 64  1  0  0  0
 39 67  2  0  0  0
 40 52  1  0  0  0
 40 53  2  0  0  0
 40 58  1  0  0  0
 41106  1  0  0  0
 41107  1  0  0  0
 41108  1  0  0  0
 41 48  1  0  0  0
 42 43  1  0  0  0
 42 66  1  0  0  0
 42109  1  0  0  0
 42110  1  0  0  0
 43 44  1  0  0  0
 44111  1  0  0  0
 45 46  2  0  0  0
 45112  1  0  0  0
 46113  1  0  0  0
 47114  1  0  0  0
 47115  1  0  0  0
 48 56  1  0  0  0
 48 65  1  0  0  0
 48116  1  0  0  0
 49 50  1  0  0  0
 49 53  1  0  0  0
 49 64  1  0  0  0
 49117  1  0  0  0
 50 51  1  0  0  0
 50118  1  0  0  0
 50119  1  0  0  0
 51 52  1  0  0  0
 51120  1  0  0  0
 51121  1  0  0  0
 52122  1  0  0  0
 52123  1  0  0  0
 53 54  1  0  0  0
 54 55  2  0  0  0
 54124  1  0  0  0
 55 57  1  0  0  0
 55125  1  0  0  0
 56 69  2  0  0  0
 57 58  2  0  0  0
 57126  1  0  0  0
 58127  1  0  0  0
 59 60  1  0  0  0
 59 61  1  0  0  0
 59 62  1  0  0  0
 60128  1  0  0  0
 60129  1  0  0  0
 60130  1  0  0  0
 61131  1  0  0  0
 61132  1  0  0  0
 61133  1  0  0  0
 62134  1  0  0  0
 62135  1  0  0  0
 62136  1  0  0  0
 63 65  1  0  0  0
 63137  1  0  0  0
 63138  1  0  0  0
 63139  1  0  0  0
 64140  1  0  0  0
 65141  1  0  0  0
 68 79  1  0  0  0
 71 72  2  0  0  0
 71 73  1  0  0  0
 71142  1  0  0  0
 72 75  1  0  0  0
 72143  1  0  0  0
 73 76  2  0  0  0
 73144  1  0  0  0
 74 75  2  0  0  0
 74 76  1  0  0  0
 74145  1  0  0  0
 75 80  1  0  0  0
 76 81  1  0  0  0
 77 78  1  0  0  0
 77 79  1  0  0  0
 77146  1  0  0  0
 77147  1  0  0  0
 78 80  1  0  0  0
 78148  1  0  0  0
 78149  1  0  0  0
 79150  1  0  0  0
 79151  1  0  0  0
 80 82  1  0  0  0
 80152  1  0  0  0
 81153  1  0  0  0
 82154  1  0  0  0
 82155  1  0  0  0
 82156  1  0  0  0
M  CHG  1  82   1
M  ISO  4   1 100  68 101  79 101  81 100
M  END
> <chiral flag>
0

> <version>
0

> <s_m_source_file>
/data/baiqing/PycharmProjects/Reinvent-master-3.2/result/LINK_invent/BTK/process_docking_weight1_custom_product_contain_oxygen_bond_distance_aromatic_linkinvent_7_9_3/rearranged_h_0102.sdf

> <i_m_source_file_index>
53

> <r_mmod_Potential_Energy-OPLS-2005>
72.8975677490234

> <r_mmod_Stretch_Energy-OPLS-2005>
142.159439086914

> <r_mmod_Bend_Energy-OPLS-2005>
265.876831054688

> <r_mmod_Torsional_Energy-OPLS-2005>
297.652770996094

> <r_mmod_Improper_Torsional_Energy-OPLS-2005>
13.3544330596924

> <r_mmod_Van_der_Waal_Energy-OPLS-2005>
125.40486907959

> <r_mmod_Electrostatic_Energy-OPLS-2005>
-358.423431396484

> <r_mmod_Solvation_Energy-OPLS-2005>
-507.478607177734

> <b_mmod_Minimization_Converged-OPLS-2005>
0

> <r_mmod_RMS_Derivative-OPLS-2005>
1.58303821086884

$$$$
54
                    3D
 Structure written by MMmdl.
164173  0  0  1  0            999 V2000
  -30.5737  -14.9293   20.4583 C   0  0  0  0  0  0
  -30.4304  -12.5624   19.5319 C   0  0  0  0  0  0
  -29.5349  -12.5373   18.2720 C   0  0  0  0  0  0
  -28.0633  -12.3191   18.6697 C   0  0  0  0  0  0
  -27.6290  -13.2489   19.8329 C   0  0  2  0  0  0
  -28.6591  -13.2762   20.9841 C   0  0  0  0  0  0
  -25.2400  -13.8159   20.5531 C   0  0  0  0  0  0
  -24.1767  -13.0405   20.9132 C   0  0  0  0  0  0
  -24.6403  -11.6900   20.8707 C   0  0  0  0  0  0
  -23.9080  -10.4284   21.0369 C   0  0  0  0  0  0
  -24.3637   -9.4213   21.9158 C   0  0  0  0  0  0
  -23.6302   -8.2261   22.0758 C   0  0  0  0  0  0
  -22.4290   -8.0288   21.3540 C   0  0  0  0  0  0
  -21.9918   -9.0245   20.4634 C   0  0  0  0  0  0
  -22.7250  -10.2112   20.3023 C   0  0  0  0  0  0
  -21.6855   -6.0741   22.5276 C   0  0  0  0  0  0
  -21.4025   -6.5633   23.8211 C   0  0  0  0  0  0
  -21.3662   -5.6780   24.9167 C   0  0  0  0  0  0
  -21.6054   -4.3045   24.7207 C   0  0  0  0  0  0
  -21.8827   -3.8145   23.4318 C   0  0  0  0  0  0
  -21.9207   -4.6977   22.3387 C   0  0  0  0  0  0
  -22.7793  -13.5158   21.1823 C   0  0  0  0  0  0
  -22.1672   -4.2168   21.0968 F   0  0  0  0  0  0
  -21.5619   -3.4523   25.7709 F   0  0  0  0  0  0
  -29.9580  -13.6714   20.4137 N   0  0  0  0  0  0
  -26.2853  -12.9431   20.3118 N   0  0  0  0  0  0
  -25.9325  -11.6563   20.5673 N   0  0  0  0  0  0
  -22.0497  -12.8153   22.0414 N   0  0  0  0  0  0
  -25.4009  -15.1858   20.3812 N   0  0  0  0  0  0
  -31.7218  -15.0020   19.9997 O   0  0  0  0  0  0
  -21.6647   -6.8887   21.4242 O   0  0  0  0  0  0
  -22.3473  -14.5504   20.6707 O   0  0  0  0  0  0
  -24.6372  -31.8452   23.1889 C   0  0  0  0  0  0
  -25.9134  -32.4718   23.8294 C   0  0  1  0  0  0
  -27.2289  -27.1504   20.1737 C   0  0  0  0  0  0
  -25.5907  -33.8533   24.2229 N   0  0  0  0  0  0
  -23.4444  -30.4562   21.5310 C   0  0  2  0  0  0
  -24.9029  -28.8801   20.1132 C   0  0  0  0  0  0
  -22.7536  -29.4508   22.4849 C   0  0  0  0  0  0
  -18.0257  -28.1398   22.8401 C   0  0  0  0  0  0
  -24.1492  -36.7281   23.2642 C   0  0  0  0  0  0
  -25.9953  -30.7216   21.3909 C   0  0  0  0  0  0
  -26.0692  -29.3303   20.7421 C   0  0  0  0  0  0
  -27.2256  -28.4715   20.7673 C   0  0  0  0  0  0
  -26.0400  -26.7891   19.5062 C   0  0  0  0  0  0
  -24.8965  -27.6224   19.4853 C   0  0  0  0  0  0
  -23.6789  -29.7776   20.1522 C   0  0  0  0  0  0
  -25.4123  -36.3072   24.0327 C   0  0  1  0  0  0
  -20.5874  -28.3701   23.1236 C   0  0  2  0  0  0
  -20.6777  -26.9404   22.5405 C   0  0  0  0  0  0
  -19.5781  -26.6369   21.5171 C   0  0  0  0  0  0
  -18.1931  -26.7925   22.1554 C   0  0  0  0  0  0
  -19.1518  -28.8868   23.2798 C   0  0  0  0  0  0
  -18.9445  -30.1474   23.8796 C   0  0  0  0  0  0
  -17.6450  -30.6589   24.0539 C   0  0  0  0  0  0
  -25.9042  -34.9430   23.5095 C   0  0  0  0  0  0
  -16.5334  -29.9083   23.6349 C   0  0  0  0  0  0
  -16.7243  -28.6536   23.0290 C   0  0  0  0  0  0
  -26.4486  -31.6590   25.0733 C   0  0  0  0  0  0
  -25.3678  -31.3764   26.1434 C   0  0  0  0  0  0
  -27.0382  -30.2984   24.6385 C   0  0  0  0  0  0
  -27.6059  -32.4353   25.7489 C   0  0  0  0  0  0
  -27.5585  -37.1808   24.8451 C   0  0  0  0  0  0
  -21.4226  -29.3031   22.3624 N   0  0  0  0  0  0
  -26.4296  -37.3771   23.9392 N   0  0  0  0  0  0
  -24.7113  -31.0301   22.0931 N   0  0  0  0  0  0
  -23.4177  -28.8065   23.3010 O   0  0  0  0  0  0
  -28.3117  -26.2201   20.3076 O   0  0  0  0  0  0
  -26.5620  -34.8905   22.4657 O   0  0  0  0  0  0
  -23.5496  -32.1318   23.7096 O   0  0  0  0  0  0
  -30.2176  -19.8534   19.7329 C   0  0  0  0  0  0
  -30.5060  -18.4396   19.9717 C   0  0  0  0  0  0
  -28.1346  -19.6206   20.7901 C   0  0  0  0  0  0
  -28.4065  -18.2061   21.0178 C   0  0  0  0  0  0
  -29.0132  -20.5376   20.1284 C   0  0  0  0  0  0
  -29.6190  -17.5131   20.6249 C   0  0  0  0  0  0
  -27.7704  -21.8796   18.5857 C   0  0  0  0  0  0
  -26.4771  -22.6639   18.8095 C   0  0  0  0  0  0
  -26.6301  -23.1140   20.2654 C   0  0  0  0  0  0
  -28.1463  -23.2685   20.3815 C   0  0  2  0  0  0
  -27.2952  -17.4439   21.7056 C   0  0  0  0  0  0
  -31.3362  -16.8315   23.0212 C   0  0  0  0  0  0
  -28.4508  -24.7980   19.7178 C   0  0  0  0  0  0
  -30.1449  -15.9772   22.5398 C   0  0  0  0  0  0
  -28.6028  -21.9459   19.6466 N   0  0  0  0  0  0
  -29.9592  -16.0640   21.0751 N   0  0  0  0  0  0
  -27.9753  -21.2394   17.5501 O   0  0  0  0  0  0
  -31.4799  -12.6725   19.2542 H   0  0  0  0  0  0
  -30.3724  -11.6099   20.0606 H   0  0  0  0  0  0
  -29.8600  -11.7510   17.5879 H   0  0  0  0  0  0
  -29.6404  -13.4792   17.7323 H   0  0  0  0  0  0
  -27.9631  -11.2777   18.9824 H   0  0  0  0  0  0
  -27.4092  -12.4466   17.8049 H   0  0  0  0  0  0
  -27.5953  -14.2509   19.4032 H   0  0  0  0  0  0
  -28.7222  -12.3077   21.4846 H   0  0  0  0  0  0
  -28.3356  -13.9898   21.7406 H   0  0  0  0  0  0
  -25.2790   -9.5708   22.4708 H   0  0  0  0  0  0
  -24.0020   -7.4671   22.7489 H   0  0  0  0  0  0
  -21.0843   -8.8743   19.8943 H   0  0  0  0  0  0
  -22.3699  -10.9638   19.6109 H   0  0  0  0  0  0
  -21.2033   -7.6146   23.9718 H   0  0  0  0  0  0
  -21.1470   -6.0503   25.9068 H   0  0  0  0  0  0
  -22.0617   -2.7609   23.2804 H   0  0  0  0  0  0
  -22.4157  -11.9749   22.4661 H   0  0  0  0  0  0
  -21.1135  -13.1188   22.2703 H   0  0  0  0  0  0
  -24.6448  -15.8471   20.5196 H   0  0  0  0  0  0
  -26.2488  -15.6195   20.0412 H   0  0  0  0  0  0
  -26.7177  -32.5384   23.1013 H   0  0  0  0  0  0
  -25.0068  -33.9667   25.0393 H   0  0  0  0  0  0
  -22.7436  -31.2777   21.3656 H   0  0  0  0  0  0
  -23.3773  -35.9586   23.3288 H   0  0  0  0  0  0
  -24.3563  -36.8932   22.2053 H   0  0  0  0  0  0
  -23.7238  -37.6479   23.6674 H   0  0  0  0  0  0
  -26.1367  -31.4703   20.6108 H   0  0  0  0  0  0
  -26.8688  -30.7872   22.0268 H   0  0  0  0  0  0
  -28.1058  -28.7948   21.3049 H   0  0  0  0  0  0
  -25.9607  -25.8178   19.0439 H   0  0  0  0  0  0
  -23.9960  -27.2767   18.9970 H   0  0  0  0  0  0
  -23.8200  -30.5476   19.3947 H   0  0  0  0  0  0
  -22.8030  -29.2101   19.8370 H   0  0  0  0  0  0
  -25.1307  -36.1913   25.0823 H   0  0  0  0  0  0
  -20.9866  -28.3292   24.1392 H   0  0  0  0  0  0
  -20.5631  -26.2289   23.3603 H   0  0  0  0  0  0
  -21.6657  -26.7406   22.1227 H   0  0  0  0  0  0
  -19.6965  -25.6254   21.1264 H   0  0  0  0  0  0
  -19.6805  -27.3119   20.6656 H   0  0  0  0  0  0
  -17.4213  -26.6563   21.3964 H   0  0  0  0  0  0
  -18.0385  -26.0095   22.8990 H   0  0  0  0  0  0
  -19.7929  -30.7314   24.2103 H   0  0  0  0  0  0
  -17.5015  -31.6237   24.5197 H   0  0  0  0  0  0
  -15.5341  -30.2958   23.7795 H   0  0  0  0  0  0
  -15.8617  -28.0898   22.6985 H   0  0  0  0  0  0
  -24.5869  -30.7093   25.7753 H   0  0  0  0  0  0
  -24.8828  -32.2919   26.4825 H   0  0  0  0  0  0
  -25.7973  -30.8971   27.0229 H   0  0  0  0  0  0
  -26.3024  -29.6669   24.1403 H   0  0  0  0  0  0
  -27.3936  -29.7350   25.5020 H   0  0  0  0  0  0
  -27.8932  -30.4192   23.9740 H   0  0  0  0  0  0
  -27.2702  -33.3675   26.2026 H   0  0  0  0  0  0
  -28.3882  -32.6873   25.0320 H   0  0  0  0  0  0
  -28.0680  -31.8482   26.5429 H   0  0  0  0  0  0
  -28.2605  -38.0112   24.7521 H   0  0  0  0  0  0
  -28.1109  -36.2654   24.6270 H   0  0  0  0  0  0
  -27.2293  -37.1430   25.8853 H   0  0  0  0  0  0
  -20.9424  -29.8793   21.6851 H   0  0  0  0  0  0
  -26.0194  -38.2851   24.1393 H   0  0  0  0  0  0
  -30.9640  -20.4261   19.2008 H   0  0  0  0  0  0
  -31.4675  -18.0721   19.6455 H   0  0  0  0  0  0
  -27.1712  -20.0029   21.1018 H   0  0  0  0  0  0
  -25.5819  -22.0584   18.6601 H   0  0  0  0  0  0
  -26.4266  -23.4995   18.1102 H   0  0  0  0  0  0
  -26.2861  -22.3198   20.9292 H   0  0  0  0  0  0
  -26.0693  -24.0152   20.5150 H   0  0  0  0  0  0
  -28.4616  -23.2327   21.4254 H   0  0  0  0  0  0
  -26.3257  -17.7353   21.2983 H   0  0  0  0  0  0
  -27.2975  -17.6494   22.7764 H   0  0  0  0  0  0
  -27.4029  -16.3704   21.5640 H   0  0  0  0  0  0
  -31.4797  -16.7243   24.0955 H   0  0  0  0  0  0
  -31.1773  -17.8927   22.8265 H   0  0  0  0  0  0
  -32.2710  -16.5419   22.5391 H   0  0  0  0  0  0
  -27.9783  -24.8681   18.7404 H   0  0  0  0  0  0
  -29.5097  -24.7622   19.4606 H   0  0  0  0  0  0
  -29.2400  -16.2942   23.0566 H   0  0  0  0  0  0
  -30.3016  -14.9532   22.8877 H   0  0  0  0  0  0
  1 25  1  0  0  0
  1 30  2  0  0  0
  1 86  1  0  0  0
  2  3  1  0  0  0
  2 25  1  0  0  0
  2 88  1  0  0  0
  2 89  1  0  0  0
  3  4  1  0  0  0
  3 90  1  0  0  0
  3 91  1  0  0  0
  4  5  1  0  0  0
  4 92  1  0  0  0
  4 93  1  0  0  0
  5  6  1  0  0  0
  5 26  1  0  0  0
  5 94  1  0  0  0
  6 25  1  0  0  0
  6 95  1  0  0  0
  6 96  1  0  0  0
  7  8  2  0  0  0
  7 26  1  0  0  0
  7 29  1  0  0  0
  8  9  1  0  0  0
  8 22  1  0  0  0
  9 10  1  0  0  0
  9 27  2  0  0  0
 10 11  2  0  0  0
 10 15  1  0  0  0
 11 12  1  0  0  0
 11 97  1  0  0  0
 12 13  2  0  0  0
 12 98  1  0  0  0
 13 14  1  0  0  0
 13 31  1  0  0  0
 14 15  2  0  0  0
 14 99  1  0  0  0
 15100  1  0  0  0
 16 17  2  0  0  0
 16 21  1  0  0  0
 16 31  1  0  0  0
 17 18  1  0  0  0
 17101  1  0  0  0
 18 19  2  0  0  0
 18102  1  0  0  0
 19 20  1  0  0  0
 19 24  1  0  0  0
 20 21  2  0  0  0
 20103  1  0  0  0
 21 23  1  0  0  0
 22 28  1  0  0  0
 22 32  2  0  0  0
 26 27  1  0  0  0
 28104  1  0  0  0
 28105  1  0  0  0
 29106  1  0  0  0
 29107  1  0  0  0
 33 34  1  0  0  0
 33 66  1  0  0  0
 33 70  2  0  0  0
 34 36  1  0  0  0
 34 59  1  0  0  0
 34108  1  0  0  0
 35 44  2  0  0  0
 35 45  1  0  0  0
 35 68  1  0  0  0
 36 56  1  0  0  0
 36109  1  0  0  0
 37 39  1  0  0  0
 37 47  1  0  0  0
 37 66  1  0  0  0
 37110  1  0  0  0
 38 43  2  0  0  0
 38 46  1  0  0  0
 38 47  1  0  0  0
 39 64  1  0  0  0
 39 67  2  0  0  0
 40 52  1  0  0  0
 40 53  2  0  0  0
 40 58  1  0  0  0
 41111  1  0  0  0
 41112  1  0  0  0
 41113  1  0  0  0
 41 48  1  0  0  0
 42 43  1  0  0  0
 42 66  1  0  0  0
 42114  1  0  0  0
 42115  1  0  0  0
 43 44  1  0  0  0
 44116  1  0  0  0
 45 46  2  0  0  0
 45117  1  0  0  0
 46118  1  0  0  0
 47119  1  0  0  0
 47120  1  0  0  0
 48 56  1  0  0  0
 48 65  1  0  0  0
 48121  1  0  0  0
 49 50  1  0  0  0
 49 53  1  0  0  0
 49 64  1  0  0  0
 49122  1  0  0  0
 50 51  1  0  0  0
 50123  1  0  0  0
 50124  1  0  0  0
 51 52  1  0  0  0
 51125  1  0  0  0
 51126  1  0  0  0
 52127  1  0  0  0
 52128  1  0  0  0
 53 54  1  0  0  0
 54 55  2  0  0  0
 54129  1  0  0  0
 55 57  1  0  0  0
 55130  1  0  0  0
 56 69  2  0  0  0
 57 58  2  0  0  0
 57131  1  0  0  0
 58132  1  0  0  0
 59 60  1  0  0  0
 59 61  1  0  0  0
 59 62  1  0  0  0
 60133  1  0  0  0
 60134  1  0  0  0
 60135  1  0  0  0
 61136  1  0  0  0
 61137  1  0  0  0
 61138  1  0  0  0
 62139  1  0  0  0
 62140  1  0  0  0
 62141  1  0  0  0
 63 65  1  0  0  0
 63142  1  0  0  0
 63143  1  0  0  0
 63144  1  0  0  0
 64145  1  0  0  0
 65146  1  0  0  0
 68 83  1  0  0  0
 71 72  2  0  0  0
 71 75  1  0  0  0
 71147  1  0  0  0
 72 76  1  0  0  0
 72148  1  0  0  0
 73 74  1  0  0  0
 73 75  2  0  0  0
 73149  1  0  0  0
 74 76  2  0  0  0
 74 81  1  0  0  0
 75 85  1  0  0  0
 76 86  1  0  0  0
 77 78  1  0  0  0
 77 85  1  0  0  0
 77 87  2  0  0  0
 78 79  1  0  0  0
 78150  1  0  0  0
 78151  1  0  0  0
 79 80  1  0  0  0
 79152  1  0  0  0
 79153  1  0  0  0
 80 83  1  0  0  0
 80 85  1  0  0  0
 80154  1  0  0  0
 81155  1  0  0  0
 81156  1  0  0  0
 81157  1  0  0  0
 82 84  1  0  0  0
 82158  1  0  0  0
 82159  1  0  0  0
 82160  1  0  0  0
 83161  1  0  0  0
 83162  1  0  0  0
 84 86  1  0  0  0
 84163  1  0  0  0
 84164  1  0  0  0
M  ISO  4   1 100  68 101  83 101  86 100
M  END
> <chiral flag>
0

> <version>
0

> <s_m_source_file>
/data/baiqing/PycharmProjects/Reinvent-master-3.2/result/LINK_invent/BTK/process_docking_weight1_custom_product_contain_oxygen_bond_distance_aromatic_linkinvent_7_9_3/rearranged_h_0102.sdf

> <i_m_source_file_index>
54

> <r_mmod_Potential_Energy-OPLS-2005>
849.275451660156

> <r_mmod_Stretch_Energy-OPLS-2005>
251.818222045898

> <r_mmod_Bend_Energy-OPLS-2005>
345.993194580078

> <r_mmod_Torsional_Energy-OPLS-2005>
402.260681152344

> <r_mmod_Improper_Torsional_Energy-OPLS-2005>
9.42820358276367

> <r_mmod_Van_der_Waal_Energy-OPLS-2005>
131.228759765625

> <r_mmod_Electrostatic_Energy-OPLS-2005>
-266.272247314453

> <r_mmod_Solvation_Energy-OPLS-2005>
-204.080322265625

> <b_mmod_Minimization_Converged-OPLS-2005>
0

> <r_mmod_RMS_Derivative-OPLS-2005>
4.80503845214844

$$$$
55
                    3D
 Structure written by MMmdl.
160168  0  0  1  0            999 V2000
  -30.6964  -14.4215   20.5610 C   0  0  0  0  0  0
  -30.4209  -12.2654   19.4171 C   0  0  0  0  0  0
  -29.4951  -12.5007   18.2043 C   0  0  0  0  0  0
  -28.0111  -12.3772   18.6094 C   0  0  0  0  0  0
  -27.6645  -13.1943   19.8837 C   0  0  2  0  0  0
  -28.7072  -12.9348   20.9939 C   0  0  0  0  0  0
  -25.2612  -13.8116   20.5697 C   0  0  0  0  0  0
  -24.1846  -13.0420   20.9173 C   0  0  0  0  0  0
  -24.6378  -11.6875   20.8744 C   0  0  0  0  0  0
  -23.9045  -10.4268   21.0416 C   0  0  0  0  0  0
  -24.3593   -9.4186   21.9201 C   0  0  0  0  0  0
  -23.6269   -8.2223   22.0769 C   0  0  0  0  0  0
  -22.4256   -8.0263   21.3552 C   0  0  0  0  0  0
  -21.9895   -9.0235   20.4650 C   0  0  0  0  0  0
  -22.7220  -10.2113   20.3062 C   0  0  0  0  0  0
  -21.6838   -6.0729   22.5281 C   0  0  0  0  0  0
  -21.3996   -6.5636   23.8211 C   0  0  0  0  0  0
  -21.3665   -5.6795   24.9180 C   0  0  0  0  0  0
  -21.6050   -4.3058   24.7229 C   0  0  0  0  0  0
  -21.8817   -3.8145   23.4350 C   0  0  0  0  0  0
  -21.9183   -4.6959   22.3406 C   0  0  0  0  0  0
  -22.7876  -13.5242   21.1844 C   0  0  0  0  0  0
  -22.1664   -4.2148   21.0983 F   0  0  0  0  0  0
  -21.5642   -3.4542   25.7746 F   0  0  0  0  0  0
  -30.0410  -13.2363   20.4523 N   0  0  0  0  0  0
  -26.3039  -12.9259   20.3411 N   0  0  0  0  0  0
  -25.9301  -11.6428   20.5777 N   0  0  0  0  0  0
  -22.0513  -12.8221   22.0376 N   0  0  0  0  0  0
  -25.4368  -15.1833   20.4121 N   0  0  0  0  0  0
  -31.8379  -14.5901   20.1218 O   0  0  0  0  0  0
  -21.6619   -6.8867   21.4241 O   0  0  0  0  0  0
  -22.3576  -14.5574   20.6719 O   0  0  0  0  0  0
  -24.6116  -31.8696   23.2116 C   0  0  0  0  0  0
  -25.9029  -32.4832   23.8410 C   0  0  1  0  0  0
  -27.2443  -27.4792   20.0821 C   0  0  0  0  0  0
  -25.5884  -33.8632   24.2341 N   0  0  0  0  0  0
  -23.3983  -30.4926   21.5498 C   0  0  2  0  0  0
  -24.8478  -28.9628   20.1181 C   0  0  0  0  0  0
  -22.7386  -29.4668   22.4992 C   0  0  0  0  0  0
  -18.0264  -28.1384   22.8496 C   0  0  0  0  0  0
  -24.1477  -36.7331   23.2638 C   0  0  0  0  0  0
  -25.9219  -30.8512   21.3574 C   0  0  0  0  0  0
  -26.0051  -29.4876   20.7078 C   0  0  0  0  0  0
  -27.2083  -28.7520   20.6938 C   0  0  0  0  0  0
  -26.0693  -26.9502   19.5145 C   0  0  0  0  0  0
  -24.8714  -27.6890   19.5229 C   0  0  0  0  0  0
  -23.6070  -29.8232   20.1646 C   0  0  0  0  0  0
  -25.4098  -36.3128   24.0342 C   0  0  1  0  0  0
  -20.5851  -28.3659   23.1334 C   0  0  2  0  0  0
  -20.6757  -26.9403   22.5419 C   0  0  0  0  0  0
  -19.5734  -26.6395   21.5215 C   0  0  0  0  0  0
  -18.1910  -26.7933   22.1626 C   0  0  0  0  0  0
  -19.1512  -28.8836   23.2917 C   0  0  0  0  0  0
  -18.9442  -30.1440   23.8930 C   0  0  0  0  0  0
  -17.6445  -30.6596   24.0560 C   0  0  0  0  0  0
  -25.9026  -34.9489   23.5142 C   0  0  0  0  0  0
  -16.5335  -29.9097   23.6325 C   0  0  0  0  0  0
  -16.7253  -28.6511   23.0351 C   0  0  0  0  0  0
  -26.4474  -31.6595   25.0725 C   0  0  0  0  0  0
  -25.3748  -31.3653   26.1461 C   0  0  0  0  0  0
  -27.0311  -30.3046   24.6077 C   0  0  0  0  0  0
  -27.6037  -32.4307   25.7519 C   0  0  0  0  0  0
  -27.5578  -37.1821   24.8458 C   0  0  0  0  0  0
  -21.4114  -29.3026   22.3738 N   0  0  0  0  0  0
  -26.4286  -37.3814   23.9411 N   0  0  0  0  0  0
  -24.6619  -31.0838   22.0994 N   0  0  0  0  0  0
  -23.4164  -28.8219   23.3040 O   0  0  0  0  0  0
  -28.3697  -26.6966   20.0380 O   0  0  0  0  0  0
  -26.5591  -34.8941   22.4704 O   0  0  0  0  0  0
  -23.5313  -32.1425   23.7528 O   0  0  0  0  0  0
  -30.6479  -22.1672   19.6218 C   0  0  0  0  0  0
  -30.7046  -20.8498   20.1197 C   0  0  0  0  0  0
  -28.2235  -22.0035   19.4918 C   0  0  0  0  0  0
  -29.4034  -22.7540   19.2919 C   0  0  0  0  0  0
  -29.5302  -20.0871   20.2799 C   0  0  0  0  0  0
  -28.2784  -20.6890   19.9907 C   0  0  0  0  0  0
  -29.3038  -24.1146   18.6922 C   0  0  0  0  0  0
  -30.5165  -25.0467   18.8474 C   0  0  0  0  0  0
  -29.9530  -15.6800   21.0339 C   0  0  0  0  0  0
  -30.2520  -26.5423   18.5520 C   0  0  0  0  0  0
  -29.6081  -16.5562   19.8102 C   0  0  0  0  0  0
  -29.6040  -27.3173   19.7129 C   0  0  0  0  0  0
  -28.8051  -17.8199   20.1301 C   0  0  0  0  0  0
  -28.3020  -24.4924   18.0772 O   0  0  0  0  0  0
  -29.6729  -18.7868   20.7142 O   0  0  0  0  0  0
  -27.1168  -20.0191   20.1893 F   0  0  0  0  0  0
  -31.4682  -12.3504   19.1210 H   0  0  0  0  0  0
  -30.3030  -11.2489   19.7962 H   0  0  0  0  0  0
  -29.7252  -11.7881   17.4116 H   0  0  0  0  0  0
  -29.6804  -13.4919   17.7866 H   0  0  0  0  0  0
  -27.8001  -11.3210   18.7797 H   0  0  0  0  0  0
  -27.3694  -12.6845   17.7831 H   0  0  0  0  0  0
  -27.7125  -14.2459   19.6124 H   0  0  0  0  0  0
  -28.6714  -11.8859   21.2924 H   0  0  0  0  0  0
  -28.4788  -13.4826   21.9067 H   0  0  0  0  0  0
  -25.2737   -9.5655   22.4780 H   0  0  0  0  0  0
  -23.9980   -7.4610   22.7482 H   0  0  0  0  0  0
  -21.0839   -8.8733   19.8941 H   0  0  0  0  0  0
  -22.3686  -10.9649   19.6163 H   0  0  0  0  0  0
  -21.1973   -7.6142   23.9710 H   0  0  0  0  0  0
  -21.1512   -6.0533   25.9085 H   0  0  0  0  0  0
  -22.0593   -2.7607   23.2850 H   0  0  0  0  0  0
  -22.4128  -11.9855   22.4714 H   0  0  0  0  0  0
  -21.1142  -13.1256   22.2618 H   0  0  0  0  0  0
  -24.6748  -15.8430   20.5264 H   0  0  0  0  0  0
  -26.2965  -15.6171   20.1033 H   0  0  0  0  0  0
  -26.7119  -32.5580   23.1200 H   0  0  0  0  0  0
  -25.0030  -33.9797   25.0484 H   0  0  0  0  0  0
  -22.6859  -31.3080   21.4087 H   0  0  0  0  0  0
  -23.3739  -35.9662   23.3285 H   0  0  0  0  0  0
  -24.3578  -36.8962   22.2057 H   0  0  0  0  0  0
  -23.7229  -37.6535   23.6657 H   0  0  0  0  0  0
  -26.0242  -31.6176   20.5876 H   0  0  0  0  0  0
  -26.8126  -30.9097   21.9707 H   0  0  0  0  0  0
  -28.0978  -29.1565   21.1570 H   0  0  0  0  0  0
  -26.0860  -25.9713   19.0542 H   0  0  0  0  0  0
  -23.9793  -27.2753   19.0738 H   0  0  0  0  0  0
  -23.7141  -30.5951   19.4012 H   0  0  0  0  0  0
  -22.7323  -29.2399   19.8704 H   0  0  0  0  0  0
  -25.1271  -36.2003   25.0836 H   0  0  0  0  0  0
  -20.9944  -28.3225   24.1455 H   0  0  0  0  0  0
  -20.5675  -26.2258   23.3592 H   0  0  0  0  0  0
  -21.6630  -26.7465   22.1203 H   0  0  0  0  0  0
  -19.6889  -25.6311   21.1235 H   0  0  0  0  0  0
  -19.6679  -27.3215   20.6753 H   0  0  0  0  0  0
  -17.4177  -26.6673   21.4030 H   0  0  0  0  0  0
  -18.0305  -26.0084   22.9029 H   0  0  0  0  0  0
  -19.7918  -30.7236   24.2333 H   0  0  0  0  0  0
  -17.5004  -31.6287   24.5140 H   0  0  0  0  0  0
  -15.5337  -30.3001   23.7653 H   0  0  0  0  0  0
  -15.8647  -28.0840   22.7061 H   0  0  0  0  0  0
  -24.5957  -30.6970   25.7775 H   0  0  0  0  0  0
  -24.8901  -32.2783   26.4921 H   0  0  0  0  0  0
  -25.8114  -30.8816   27.0209 H   0  0  0  0  0  0
  -26.2853  -29.6811   24.1127 H   0  0  0  0  0  0
  -27.4083  -29.7275   25.4532 H   0  0  0  0  0  0
  -27.8685  -30.4371   23.9222 H   0  0  0  0  0  0
  -27.2648  -33.3598   26.2116 H   0  0  0  0  0  0
  -28.3863  -32.6874   25.0368 H   0  0  0  0  0  0
  -28.0687  -31.8414   26.5434 H   0  0  0  0  0  0
  -28.2577  -38.0139   24.7549 H   0  0  0  0  0  0
  -28.1097  -36.2675   24.6235 H   0  0  0  0  0  0
  -27.2289  -37.1412   25.8858 H   0  0  0  0  0  0
  -20.9260  -29.8755   21.6975 H   0  0  0  0  0  0
  -26.0174  -38.2887   24.1442 H   0  0  0  0  0  0
  -31.5749  -22.7041   19.4748 H   0  0  0  0  0  0
  -31.6635  -20.4077   20.3518 H   0  0  0  0  0  0
  -27.2580  -22.4315   19.2617 H   0  0  0  0  0  0
  -31.2799  -24.6811   18.1613 H   0  0  0  0  0  0
  -30.9203  -24.9421   19.8544 H   0  0  0  0  0  0
  -29.0555  -15.4646   21.6063 H   0  0  0  0  0  0
  -30.6065  -16.2317   21.7099 H   0  0  0  0  0  0
  -29.6449  -26.6504   17.6517 H   0  0  0  0  0  0
  -31.2050  -27.0177   18.3179 H   0  0  0  0  0  0
  -29.0340  -15.9647   19.0966 H   0  0  0  0  0  0
  -30.5184  -16.8371   19.2778 H   0  0  0  0  0  0
  -29.4867  -28.3600   19.4131 H   0  0  0  0  0  0
  -30.2491  -27.3020   20.5916 H   0  0  0  0  0  0
  -27.9698  -17.5998   20.7963 H   0  0  0  0  0  0
  -28.3824  -18.1773   19.1889 H   0  0  0  0  0  0
  1 25  1  0  0  0
  1 30  2  0  0  0
  1 79  1  0  0  0
  2  3  1  0  0  0
  2 25  1  0  0  0
  2 87  1  0  0  0
  2 88  1  0  0  0
  3  4  1  0  0  0
  3 89  1  0  0  0
  3 90  1  0  0  0
  4  5  1  0  0  0
  4 91  1  0  0  0
  4 92  1  0  0  0
  5  6  1  0  0  0
  5 26  1  0  0  0
  5 93  1  0  0  0
  6 25  1  0  0  0
  6 94  1  0  0  0
  6 95  1  0  0  0
  7  8  2  0  0  0
  7 26  1  0  0  0
  7 29  1  0  0  0
  8  9  1  0  0  0
  8 22  1  0  0  0
  9 10  1  0  0  0
  9 27  2  0  0  0
 10 11  2  0  0  0
 10 15  1  0  0  0
 11 12  1  0  0  0
 11 96  1  0  0  0
 12 13  2  0  0  0
 12 97  1  0  0  0
 13 14  1  0  0  0
 13 31  1  0  0  0
 14 15  2  0  0  0
 14 98  1  0  0  0
 15 99  1  0  0  0
 16 17  2  0  0  0
 16 21  1  0  0  0
 16 31  1  0  0  0
 17 18  1  0  0  0
 17100  1  0  0  0
 18 19  2  0  0  0
 18101  1  0  0  0
 19 20  1  0  0  0
 19 24  1  0  0  0
 20 21  2  0  0  0
 20102  1  0  0  0
 21 23  1  0  0  0
 22 28  1  0  0  0
 22 32  2  0  0  0
 26 27  1  0  0  0
 28103  1  0  0  0
 28104  1  0  0  0
 29105  1  0  0  0
 29106  1  0  0  0
 33 34  1  0  0  0
 33 66  1  0  0  0
 33 70  2  0  0  0
 34 36  1  0  0  0
 34 59  1  0  0  0
 34107  1  0  0  0
 35 44  2  0  0  0
 35 45  1  0  0  0
 35 68  1  0  0  0
 36 56  1  0  0  0
 36108  1  0  0  0
 37 39  1  0  0  0
 37 47  1  0  0  0
 37 66  1  0  0  0
 37109  1  0  0  0
 38 43  2  0  0  0
 38 46  1  0  0  0
 38 47  1  0  0  0
 39 64  1  0  0  0
 39 67  2  0  0  0
 40 52  1  0  0  0
 40 53  2  0  0  0
 40 58  1  0  0  0
 41110  1  0  0  0
 41111  1  0  0  0
 41112  1  0  0  0
 41 48  1  0  0  0
 42 43  1  0  0  0
 42 66  1  0  0  0
 42113  1  0  0  0
 42114  1  0  0  0
 43 44  1  0  0  0
 44115  1  0  0  0
 45 46  2  0  0  0
 45116  1  0  0  0
 46117  1  0  0  0
 47118  1  0  0  0
 47119  1  0  0  0
 48 56  1  0  0  0
 48 65  1  0  0  0
 48120  1  0  0  0
 49 50  1  0  0  0
 49 53  1  0  0  0
 49 64  1  0  0  0
 49121  1  0  0  0
 50 51  1  0  0  0
 50122  1  0  0  0
 50123  1  0  0  0
 51 52  1  0  0  0
 51124  1  0  0  0
 51125  1  0  0  0
 52126  1  0  0  0
 52127  1  0  0  0
 53 54  1  0  0  0
 54 55  2  0  0  0
 54128  1  0  0  0
 55 57  1  0  0  0
 55129  1  0  0  0
 56 69  2  0  0  0
 57 58  2  0  0  0
 57130  1  0  0  0
 58131  1  0  0  0
 59 60  1  0  0  0
 59 61  1  0  0  0
 59 62  1  0  0  0
 60132  1  0  0  0
 60133  1  0  0  0
 60134  1  0  0  0
 61135  1  0  0  0
 61136  1  0  0  0
 61137  1  0  0  0
 62138  1  0  0  0
 62139  1  0  0  0
 62140  1  0  0  0
 63 65  1  0  0  0
 63141  1  0  0  0
 63142  1  0  0  0
 63143  1  0  0  0
 64144  1  0  0  0
 65145  1  0  0  0
 68 82  1  0  0  0
 71 72  2  0  0  0
 71 74  1  0  0  0
 71146  1  0  0  0
 72 75  1  0  0  0
 72147  1  0  0  0
 73 74  2  0  0  0
 73 76  1  0  0  0
 73148  1  0  0  0
 74 77  1  0  0  0
 75 76  2  0  0  0
 75 85  1  0  0  0
 76 86  1  0  0  0
 77 78  1  0  0  0
 77 84  2  0  0  0
 78 80  1  0  0  0
 78149  1  0  0  0
 78150  1  0  0  0
 79 81  1  0  0  0
 79151  1  0  0  0
 79152  1  0  0  0
 80 82  1  0  0  0
 80153  1  0  0  0
 80154  1  0  0  0
 81 83  1  0  0  0
 81155  1  0  0  0
 81156  1  0  0  0
 82157  1  0  0  0
 82158  1  0  0  0
 83 85  1  0  0  0
 83159  1  0  0  0
 83160  1  0  0  0
M  ISO  4   1 100  68 101  79 100  82 101
M  END
> <chiral flag>
0

> <version>
0

> <s_m_source_file>
/data/baiqing/PycharmProjects/Reinvent-master-3.2/result/LINK_invent/BTK/process_docking_weight1_custom_product_contain_oxygen_bond_distance_aromatic_linkinvent_7_9_3/rearranged_h_0102.sdf

> <i_m_source_file_index>
55

> <r_mmod_Potential_Energy-OPLS-2005>
-46.1720848083496

> <r_mmod_Stretch_Energy-OPLS-2005>
32.990478515625

> <r_mmod_Bend_Energy-OPLS-2005>
99.0981216430664

> <r_mmod_Torsional_Energy-OPLS-2005>
224.596405029297

> <r_mmod_Improper_Torsional_Energy-OPLS-2005>
4.63805341720581

> <r_mmod_Van_der_Waal_Energy-OPLS-2005>
157.867950439453

> <r_mmod_Electrostatic_Energy-OPLS-2005>
-369.090515136719

> <r_mmod_Solvation_Energy-OPLS-2005>
-205.903137207031

> <b_mmod_Minimization_Converged-OPLS-2005>
0

> <r_mmod_RMS_Derivative-OPLS-2005>
1.37668371200562

$$$$
56
                    3D
 Structure written by MMmdl.
160168  0  0  1  0            999 V2000
  -30.7585  -14.3596   20.6917 C   0  0  0  0  0  0
  -30.4153  -12.2906   19.3858 C   0  0  0  0  0  0
  -29.4844  -12.5335   18.1843 C   0  0  0  0  0  0
  -28.0083  -12.3812   18.6022 C   0  0  0  0  0  0
  -27.6652  -13.1992   19.8765 C   0  0  2  0  0  0
  -28.7030  -12.9309   20.9875 C   0  0  0  0  0  0
  -25.2618  -13.8152   20.5667 C   0  0  0  0  0  0
  -24.1857  -13.0432   20.9165 C   0  0  0  0  0  0
  -24.6387  -11.6891   20.8705 C   0  0  0  0  0  0
  -23.9044  -10.4279   21.0376 C   0  0  0  0  0  0
  -24.3601   -9.4208   21.9173 C   0  0  0  0  0  0
  -23.6277   -8.2247   22.0754 C   0  0  0  0  0  0
  -22.4263   -8.0275   21.3541 C   0  0  0  0  0  0
  -21.9881   -9.0237   20.4638 C   0  0  0  0  0  0
  -22.7203  -10.2116   20.3040 C   0  0  0  0  0  0
  -21.6853   -6.0718   22.5261 C   0  0  0  0  0  0
  -21.4015   -6.5625   23.8188 C   0  0  0  0  0  0
  -21.3671   -5.6785   24.9154 C   0  0  0  0  0  0
  -21.6051   -4.3047   24.7220 C   0  0  0  0  0  0
  -21.8826   -3.8140   23.4341 C   0  0  0  0  0  0
  -21.9195   -4.6950   22.3392 C   0  0  0  0  0  0
  -22.7885  -13.5239   21.1839 C   0  0  0  0  0  0
  -22.1648   -4.2127   21.0972 F   0  0  0  0  0  0
  -21.5642   -3.4537   25.7738 F   0  0  0  0  0  0
  -30.0430  -13.2296   20.4514 N   0  0  0  0  0  0
  -26.3040  -12.9305   20.3361 N   0  0  0  0  0  0
  -25.9308  -11.6465   20.5730 N   0  0  0  0  0  0
  -22.0505  -12.8233   22.0389 N   0  0  0  0  0  0
  -25.4402  -15.1865   20.4079 N   0  0  0  0  0  0
  -31.7981  -14.6439   20.0918 O   0  0  0  0  0  0
  -21.6650   -6.8857   21.4220 O   0  0  0  0  0  0
  -22.3563  -14.5538   20.6665 O   0  0  0  0  0  0
  -24.6137  -31.8658   23.2120 C   0  0  0  0  0  0
  -25.9038  -32.4827   23.8417 C   0  0  1  0  0  0
  -27.2328  -27.4582   20.0845 C   0  0  0  0  0  0
  -25.5938  -33.8643   24.2358 N   0  0  0  0  0  0
  -23.3995  -30.4922   21.5495 C   0  0  2  0  0  0
  -24.8465  -28.9653   20.1063 C   0  0  0  0  0  0
  -22.7391  -29.4663   22.4982 C   0  0  0  0  0  0
  -18.0263  -28.1361   22.8461 C   0  0  0  0  0  0
  -24.1502  -36.7334   23.2636 C   0  0  0  0  0  0
  -25.9266  -30.8428   21.3592 C   0  0  0  0  0  0
  -26.0047  -29.4807   20.7027 C   0  0  0  0  0  0
  -27.2054  -28.7360   20.6838 C   0  0  0  0  0  0
  -26.0606  -26.9506   19.4876 C   0  0  0  0  0  0
  -24.8696  -27.7000   19.4924 C   0  0  0  0  0  0
  -23.6054  -29.8257   20.1624 C   0  0  0  0  0  0
  -25.4126  -36.3142   24.0328 C   0  0  1  0  0  0
  -20.5848  -28.3661   23.1313 C   0  0  2  0  0  0
  -20.6773  -26.9399   22.5414 C   0  0  0  0  0  0
  -19.5756  -26.6367   21.5217 C   0  0  0  0  0  0
  -18.1923  -26.7904   22.1606 C   0  0  0  0  0  0
  -19.1506  -28.8828   23.2878 C   0  0  0  0  0  0
  -18.9438  -30.1436   23.8889 C   0  0  0  0  0  0
  -17.6440  -30.6559   24.0575 C   0  0  0  0  0  0
  -25.9038  -34.9490   23.5126 C   0  0  0  0  0  0
  -16.5338  -29.9040   23.6349 C   0  0  0  0  0  0
  -16.7253  -28.6469   23.0342 C   0  0  0  0  0  0
  -26.4467  -31.6594   25.0737 C   0  0  0  0  0  0
  -25.3747  -31.3653   26.1490 C   0  0  0  0  0  0
  -27.0296  -30.3053   24.6087 C   0  0  0  0  0  0
  -27.6076  -32.4280   25.7482 C   0  0  0  0  0  0
  -27.5590  -37.1830   24.8455 C   0  0  0  0  0  0
  -21.4119  -29.3044   22.3735 N   0  0  0  0  0  0
  -26.4325  -37.3817   23.9386 N   0  0  0  0  0  0
  -24.6652  -31.0803   22.0986 N   0  0  0  0  0  0
  -23.4164  -28.8178   23.3007 O   0  0  0  0  0  0
  -28.3968  -26.7241   20.0650 O   0  0  0  0  0  0
  -26.5541  -34.8916   22.4653 O   0  0  0  0  0  0
  -23.5333  -32.1372   23.7533 O   0  0  0  0  0  0
  -29.2856  -19.3416   20.5425 C   0  0  0  0  0  0
  -29.4498  -18.1268   21.2400 C   0  0  0  0  0  0
  -31.6897  -19.4414   20.1621 C   0  0  0  0  0  0
  -30.4104  -20.0185   20.0133 C   0  0  0  0  0  0
  -30.7391  -17.5783   21.4211 C   0  0  0  0  0  0
  -31.8561  -18.2382   20.8669 C   0  0  0  0  0  0
  -30.2790  -21.3233   19.2798 C   0  0  0  0  0  0
  -28.4857  -25.9105   22.3405 C   0  0  0  0  0  0
  -30.9277  -16.3052   22.2358 C   0  0  0  0  0  0
  -29.5288  -24.5891   20.4445 C   0  0  0  0  0  0
  -29.1744  -23.5708   19.3346 C   0  0  0  0  0  0
  -28.3727  -25.5293   20.8555 C   0  0  2  0  0  0
  -29.3987  -22.1944   19.7883 N   0  0  0  0  0  0
  -30.2716  -15.1321   21.6686 N   0  0  0  0  0  0
  -31.0054  -21.5819   18.3189 O   0  0  0  0  0  0
  -33.1024  -17.7288   21.0182 F   0  0  0  0  0  0
  -31.4590  -12.3914   19.0825 H   0  0  0  0  0  0
  -30.3117  -11.2649   19.7427 H   0  0  0  0  0  0
  -29.7169  -11.8365   17.3779 H   0  0  0  0  0  0
  -29.6555  -13.5347   17.7871 H   0  0  0  0  0  0
  -27.8131  -11.3210   18.7744 H   0  0  0  0  0  0
  -27.3570  -12.6781   17.7802 H   0  0  0  0  0  0
  -27.7263  -14.2548   19.6116 H   0  0  0  0  0  0
  -28.6677  -11.8804   21.2812 H   0  0  0  0  0  0
  -28.4490  -13.4862   21.8905 H   0  0  0  0  0  0
  -25.2726   -9.5723   22.4766 H   0  0  0  0  0  0
  -23.9989   -7.4656   22.7484 H   0  0  0  0  0  0
  -21.0809   -8.8736   19.8949 H   0  0  0  0  0  0
  -22.3624  -10.9659   19.6175 H   0  0  0  0  0  0
  -21.1984   -7.6126   23.9683 H   0  0  0  0  0  0
  -21.1502   -6.0514   25.9053 H   0  0  0  0  0  0
  -22.0602   -2.7602   23.2846 H   0  0  0  0  0  0
  -22.4063  -11.9862   22.4776 H   0  0  0  0  0  0
  -21.1134  -13.1304   22.2592 H   0  0  0  0  0  0
  -24.6840  -15.8542   20.5152 H   0  0  0  0  0  0
  -26.3061  -15.6165   20.1076 H   0  0  0  0  0  0
  -26.7128  -32.5543   23.1213 H   0  0  0  0  0  0
  -25.0261  -33.9846   25.0613 H   0  0  0  0  0  0
  -22.6909  -31.3124   21.4134 H   0  0  0  0  0  0
  -23.3771  -35.9669   23.3312 H   0  0  0  0  0  0
  -24.3598  -36.8916   22.2048 H   0  0  0  0  0  0
  -23.7223  -37.6536   23.6615 H   0  0  0  0  0  0
  -26.0369  -31.6158   20.5955 H   0  0  0  0  0  0
  -26.8160  -30.8902   21.9743 H   0  0  0  0  0  0
  -28.1048  -29.1308   21.1352 H   0  0  0  0  0  0
  -26.0681  -25.9800   19.0122 H   0  0  0  0  0  0
  -23.9809  -27.3023   19.0201 H   0  0  0  0  0  0
  -23.7046  -30.6016   19.4022 H   0  0  0  0  0  0
  -22.7312  -29.2394   19.8713 H   0  0  0  0  0  0
  -25.1308  -36.2060   25.0828 H   0  0  0  0  0  0
  -20.9930  -28.3242   24.1434 H   0  0  0  0  0  0
  -20.5705  -26.2262   23.3588 H   0  0  0  0  0  0
  -21.6647  -26.7476   22.1206 H   0  0  0  0  0  0
  -19.6920  -25.6274   21.1226 H   0  0  0  0  0  0
  -19.6702  -27.3212   20.6770 H   0  0  0  0  0  0
  -17.4209  -26.6681   21.3984 H   0  0  0  0  0  0
  -18.0304  -26.0035   22.8980 H   0  0  0  0  0  0
  -19.7932  -30.7257   24.2229 H   0  0  0  0  0  0
  -17.5001  -31.6237   24.5182 H   0  0  0  0  0  0
  -15.5329  -30.2932   23.7680 H   0  0  0  0  0  0
  -15.8664  -28.0789   22.7040 H   0  0  0  0  0  0
  -24.5960  -30.6961   25.7813 H   0  0  0  0  0  0
  -24.8906  -32.2789   26.4977 H   0  0  0  0  0  0
  -25.8130  -30.8796   27.0226 H   0  0  0  0  0  0
  -26.2813  -29.6794   24.1210 H   0  0  0  0  0  0
  -27.4138  -29.7321   25.4532 H   0  0  0  0  0  0
  -27.8628  -30.4389   23.9173 H   0  0  0  0  0  0
  -27.2755  -33.3584   26.2104 H   0  0  0  0  0  0
  -28.3866  -32.6814   25.0277 H   0  0  0  0  0  0
  -28.0759  -31.8342   26.5348 H   0  0  0  0  0  0
  -28.2628  -38.0111   24.7536 H   0  0  0  0  0  0
  -28.1054  -36.2645   24.6270 H   0  0  0  0  0  0
  -27.2278  -37.1479   25.8845 H   0  0  0  0  0  0
  -20.9213  -29.8805   21.7037 H   0  0  0  0  0  0
  -26.0219  -38.2900   24.1393 H   0  0  0  0  0  0
  -28.2909  -19.7495   20.4186 H   0  0  0  0  0  0
  -28.5858  -17.6270   21.6548 H   0  0  0  0  0  0
  -32.5575  -19.9371   19.7534 H   0  0  0  0  0  0
  -28.4241  -25.0231   22.9739 H   0  0  0  0  0  0
  -27.6799  -26.5792   22.6461 H   0  0  0  0  0  0
  -29.4352  -26.4033   22.5527 H   0  0  0  0  0  0
  -30.5078  -16.4713   23.2283 H   0  0  0  0  0  0
  -31.9877  -16.1022   22.3962 H   0  0  0  0  0  0
  -30.3899  -25.1834   20.1358 H   0  0  0  0  0  0
  -29.8638  -24.0414   21.3262 H   0  0  0  0  0  0
  -29.7600  -23.7969   18.4423 H   0  0  0  0  0  0
  -28.1296  -23.6582   19.0331 H   0  0  0  0  0  0
  -27.4326  -24.9924   20.7278 H   0  0  0  0  0  0
  -28.8699  -21.8841   20.5928 H   0  0  0  0  0  0
  -29.4223  -14.8199   22.1141 H   0  0  0  0  0  0
  1 25  1  0  0  0
  1 30  2  0  0  0
  1 84  1  0  0  0
  2  3  1  0  0  0
  2 25  1  0  0  0
  2 87  1  0  0  0
  2 88  1  0  0  0
  3  4  1  0  0  0
  3 89  1  0  0  0
  3 90  1  0  0  0
  4  5  1  0  0  0
  4 91  1  0  0  0
  4 92  1  0  0  0
  5  6  1  0  0  0
  5 26  1  0  0  0
  5 93  1  0  0  0
  6 25  1  0  0  0
  6 94  1  0  0  0
  6 95  1  0  0  0
  7  8  2  0  0  0
  7 26  1  0  0  0
  7 29  1  0  0  0
  8  9  1  0  0  0
  8 22  1  0  0  0
  9 10  1  0  0  0
  9 27  2  0  0  0
 10 11  2  0  0  0
 10 15  1  0  0  0
 11 12  1  0  0  0
 11 96  1  0  0  0
 12 13  2  0  0  0
 12 97  1  0  0  0
 13 14  1  0  0  0
 13 31  1  0  0  0
 14 15  2  0  0  0
 14 98  1  0  0  0
 15 99  1  0  0  0
 16 17  2  0  0  0
 16 21  1  0  0  0
 16 31  1  0  0  0
 17 18  1  0  0  0
 17100  1  0  0  0
 18 19  2  0  0  0
 18101  1  0  0  0
 19 20  1  0  0  0
 19 24  1  0  0  0
 20 21  2  0  0  0
 20102  1  0  0  0
 21 23  1  0  0  0
 22 28  1  0  0  0
 22 32  2  0  0  0
 26 27  1  0  0  0
 28103  1  0  0  0
 28104  1  0  0  0
 29105  1  0  0  0
 29106  1  0  0  0
 33 34  1  0  0  0
 33 66  1  0  0  0
 33 70  2  0  0  0
 34 36  1  0  0  0
 34 59  1  0  0  0
 34107  1  0  0  0
 35 44  2  0  0  0
 35 45  1  0  0  0
 35 68  1  0  0  0
 36 56  1  0  0  0
 36108  1  0  0  0
 37 39  1  0  0  0
 37 47  1  0  0  0
 37 66  1  0  0  0
 37109  1  0  0  0
 38 43  2  0  0  0
 38 46  1  0  0  0
 38 47  1  0  0  0
 39 64  1  0  0  0
 39 67  2  0  0  0
 40 52  1  0  0  0
 40 53  2  0  0  0
 40 58  1  0  0  0
 41110  1  0  0  0
 41111  1  0  0  0
 41112  1  0  0  0
 41 48  1  0  0  0
 42 43  1  0  0  0
 42 66  1  0  0  0
 42113  1  0  0  0
 42114  1  0  0  0
 43 44  1  0  0  0
 44115  1  0  0  0
 45 46  2  0  0  0
 45116  1  0  0  0
 46117  1  0  0  0
 47118  1  0  0  0
 47119  1  0  0  0
 48 56  1  0  0  0
 48 65  1  0  0  0
 48120  1  0  0  0
 49 50  1  0  0  0
 49 53  1  0  0  0
 49 64  1  0  0  0
 49121  1  0  0  0
 50 51  1  0  0  0
 50122  1  0  0  0
 50123  1  0  0  0
 51 52  1  0  0  0
 51124  1  0  0  0
 51125  1  0  0  0
 52126  1  0  0  0
 52127  1  0  0  0
 53 54  1  0  0  0
 54 55  2  0  0  0
 54128  1  0  0  0
 55 57  1  0  0  0
 55129  1  0  0  0
 56 69  2  0  0  0
 57 58  2  0  0  0
 57130  1  0  0  0
 58131  1  0  0  0
 59 60  1  0  0  0
 59 61  1  0  0  0
 59 62  1  0  0  0
 60132  1  0  0  0
 60133  1  0  0  0
 60134  1  0  0  0
 61135  1  0  0  0
 61136  1  0  0  0
 61137  1  0  0  0
 62138  1  0  0  0
 62139  1  0  0  0
 62140  1  0  0  0
 63 65  1  0  0  0
 63141  1  0  0  0
 63142  1  0  0  0
 63143  1  0  0  0
 64144  1  0  0  0
 65145  1  0  0  0
 68 82  1  0  0  0
 71 72  2  0  0  0
 71 74  1  0  0  0
 71146  1  0  0  0
 72 75  1  0  0  0
 72147  1  0  0  0
 73 74  2  0  0  0
 73 76  1  0  0  0
 73148  1  0  0  0
 74 77  1  0  0  0
 75 76  2  0  0  0
 75 79  1  0  0  0
 76 86  1  0  0  0
 77 83  1  0  0  0
 77 85  2  0  0  0
 78149  1  0  0  0
 78150  1  0  0  0
 78151  1  0  0  0
 78 82  1  0  0  0
 79 84  1  0  0  0
 79152  1  0  0  0
 79153  1  0  0  0
 80 81  1  0  0  0
 80 82  1  0  0  0
 80154  1  0  0  0
 80155  1  0  0  0
 81 83  1  0  0  0
 81156  1  0  0  0
 81157  1  0  0  0
 82158  1  0  0  0
 83159  1  0  0  0
 84160  1  0  0  0
M  ISO  4   1 100  68 101  82 101  84 100
M  END
> <chiral flag>
0

> <version>
0

> <s_m_source_file>
/data/baiqing/PycharmProjects/Reinvent-master-3.2/result/LINK_invent/BTK/process_docking_weight1_custom_product_contain_oxygen_bond_distance_aromatic_linkinvent_7_9_3/rearranged_h_0102.sdf

> <i_m_source_file_index>
56

> <r_mmod_Potential_Energy-OPLS-2005>
-162.228881835938

> <r_mmod_Stretch_Energy-OPLS-2005>
33.0643615722656

> <r_mmod_Bend_Energy-OPLS-2005>
85.4650650024414

> <r_mmod_Torsional_Energy-OPLS-2005>
240.78759765625

> <r_mmod_Improper_Torsional_Energy-OPLS-2005>
2.30841135978699

> <r_mmod_Van_der_Waal_Energy-OPLS-2005>
154.746719360352

> <r_mmod_Electrostatic_Energy-OPLS-2005>
-447.375091552734

> <r_mmod_Solvation_Energy-OPLS-2005>
-238.580474853516

> <b_mmod_Minimization_Converged-OPLS-2005>
0

> <r_mmod_RMS_Derivative-OPLS-2005>
3.31384634971619

$$$$
57
                    3D
 Structure written by MMmdl.
164172  0  0  1  0            999 V2000
  -30.6547  -14.5974   20.4596 C   0  0  0  0  0  0
  -30.4227  -12.3488   19.4534 C   0  0  0  0  0  0
  -29.4933  -12.4262   18.2222 C   0  0  0  0  0  0
  -28.0097  -12.3207   18.6385 C   0  0  0  0  0  0
  -27.6383  -13.1998   19.8634 C   0  0  2  0  0  0
  -28.6923  -13.0947   20.9871 C   0  0  0  0  0  0
  -25.2508  -13.8112   20.5769 C   0  0  0  0  0  0
  -24.1756  -13.0409   20.9245 C   0  0  0  0  0  0
  -24.6316  -11.6880   20.8829 C   0  0  0  0  0  0
  -23.8998  -10.4274   21.0460 C   0  0  0  0  0  0
  -24.3567   -9.4182   21.9218 C   0  0  0  0  0  0
  -23.6257   -8.2207   22.0756 C   0  0  0  0  0  0
  -22.4242   -8.0255   21.3539 C   0  0  0  0  0  0
  -21.9887   -9.0232   20.4646 C   0  0  0  0  0  0
  -22.7196  -10.2121   20.3073 C   0  0  0  0  0  0
  -21.6840   -6.0716   22.5272 C   0  0  0  0  0  0
  -21.3995   -6.5617   23.8203 C   0  0  0  0  0  0
  -21.3651   -5.6772   24.9173 C   0  0  0  0  0  0
  -21.6056   -4.3038   24.7232 C   0  0  0  0  0  0
  -21.8825   -3.8129   23.4355 C   0  0  0  0  0  0
  -21.9185   -4.6946   22.3409 C   0  0  0  0  0  0
  -22.7781  -13.5219   21.1878 C   0  0  0  0  0  0
  -22.1662   -4.2125   21.0996 F   0  0  0  0  0  0
  -21.5632   -3.4527   25.7752 F   0  0  0  0  0  0
  -30.0018  -13.3981   20.3973 N   0  0  0  0  0  0
  -26.2911  -12.9245   20.3436 N   0  0  0  0  0  0
  -25.9236  -11.6427   20.5874 N   0  0  0  0  0  0
  -22.0368  -12.8246   22.0426 N   0  0  0  0  0  0
  -25.4258  -15.1833   20.4189 N   0  0  0  0  0  0
  -31.8580  -14.6887   20.2014 O   0  0  0  0  0  0
  -21.6623   -6.8846   21.4220 O   0  0  0  0  0  0
  -22.3498  -14.5522   20.6679 O   0  0  0  0  0  0
  -24.6175  -31.8649   23.2087 C   0  0  0  0  0  0
  -25.9064  -32.4804   23.8392 C   0  0  1  0  0  0
  -27.2269  -27.3980   20.1260 C   0  0  0  0  0  0
  -25.5923  -33.8600   24.2352 N   0  0  0  0  0  0
  -23.4105  -30.4890   21.5440 C   0  0  2  0  0  0
  -24.8619  -28.9567   20.1081 C   0  0  0  0  0  0
  -22.7449  -29.4634   22.4926 C   0  0  0  0  0  0
  -18.0280  -28.1368   22.8466 C   0  0  0  0  0  0
  -24.1482  -36.7278   23.2637 C   0  0  0  0  0  0
  -25.9407  -30.8265   21.3660 C   0  0  0  0  0  0
  -26.0206  -29.4571   20.7152 C   0  0  0  0  0  0
  -27.2107  -28.6856   20.7218 C   0  0  0  0  0  0
  -26.0596  -26.9317   19.4892 C   0  0  0  0  0  0
  -24.8780  -27.6958   19.4835 C   0  0  0  0  0  0
  -23.6266  -29.8282   20.1552 C   0  0  0  0  0  0
  -25.4093  -36.3096   24.0362 C   0  0  1  0  0  0
  -20.5875  -28.3662   23.1285 C   0  0  2  0  0  0
  -20.6764  -26.9384   22.5412 C   0  0  0  0  0  0
  -19.5750  -26.6391   21.5185 C   0  0  0  0  0  0
  -18.1932  -26.7916   22.1598 C   0  0  0  0  0  0
  -19.1534  -28.8826   23.2882 C   0  0  0  0  0  0
  -18.9467  -30.1430   23.8890 C   0  0  0  0  0  0
  -17.6473  -30.6566   24.0561 C   0  0  0  0  0  0
  -25.9020  -34.9463   23.5145 C   0  0  0  0  0  0
  -16.5354  -29.9069   23.6324 C   0  0  0  0  0  0
  -16.7280  -28.6492   23.0330 C   0  0  0  0  0  0
  -26.4487  -31.6559   25.0710 C   0  0  0  0  0  0
  -25.3781  -31.3677   26.1497 C   0  0  0  0  0  0
  -27.0280  -30.2994   24.6059 C   0  0  0  0  0  0
  -27.6082  -32.4246   25.7479 C   0  0  0  0  0  0
  -27.5577  -37.1796   24.8473 C   0  0  0  0  0  0
  -21.4173  -29.3024   22.3688 N   0  0  0  0  0  0
  -26.4275  -37.3789   23.9440 N   0  0  0  0  0  0
  -24.6740  -31.0743   22.0991 N   0  0  0  0  0  0
  -23.4207  -28.8168   23.2985 O   0  0  0  0  0  0
  -28.3371  -26.5743   20.1811 O   0  0  0  0  0  0
  -26.5544  -34.8910   22.4689 O   0  0  0  0  0  0
  -23.5355  -32.1407   23.7469 O   0  0  0  0  0  0
  -29.5792  -18.8367   23.3934 C   0  0  0  0  0  0
  -29.9698  -17.5353   23.7535 C   0  0  0  0  0  0
  -29.4534  -18.1399   21.0783 C   0  0  0  0  0  0
  -29.2982  -19.1615   22.0557 C   0  0  0  0  0  0
  -29.8220  -16.7849   21.4178 C   0  0  0  0  0  0
  -30.0624  -16.4947   22.7925 C   0  0  0  0  0  0
  -28.9901  -21.4197   20.8988 C   0  0  0  0  0  0
  -30.4628  -16.8787   18.2316 C   0  0  0  0  0  0
  -30.3871  -14.8540   24.5348 C   0  0  0  0  0  0
  -28.1828  -22.7422   21.0538 C   0  0  0  0  0  0
  -28.7223  -24.0421   20.3595 C   0  0  0  0  0  0
  -29.4131  -16.0994   19.0439 C   0  0  0  0  0  0
  -28.1321  -25.3605   20.9554 C   0  0  0  0  0  0
  -28.7289  -20.4625   21.8162 N   0  0  0  0  0  0
  -29.8659  -15.7274   20.4018 N   0  0  0  0  0  0
  -29.8051  -21.2805   19.9850 O   0  0  0  0  0  0
  -30.3491  -15.1944   23.1557 O   0  0  0  0  0  0
  -31.4639  -12.4601   19.1464 H   0  0  0  0  0  0
  -30.3530  -11.3710   19.9318 H   0  0  0  0  0  0
  -29.7334  -11.6171   17.5322 H   0  0  0  0  0  0
  -29.6736  -13.3403   17.6599 H   0  0  0  0  0  0
  -27.8171  -11.2724   18.8718 H   0  0  0  0  0  0
  -27.3606  -12.5631   17.7976 H   0  0  0  0  0  0
  -27.6174  -14.2259   19.5178 H   0  0  0  0  0  0
  -28.6913  -12.0957   21.4258 H   0  0  0  0  0  0
  -28.4571  -13.7897   21.7960 H   0  0  0  0  0  0
  -25.2693   -9.5654   22.4821 H   0  0  0  0  0  0
  -23.9962   -7.4587   22.7466 H   0  0  0  0  0  0
  -21.0827   -8.8752   19.8950 H   0  0  0  0  0  0
  -22.3653  -10.9666   19.6199 H   0  0  0  0  0  0
  -21.1969   -7.6125   23.9687 H   0  0  0  0  0  0
  -21.1464   -6.0517   25.9068 H   0  0  0  0  0  0
  -22.0608   -2.7594   23.2869 H   0  0  0  0  0  0
  -22.3928  -11.9924   22.4879 H   0  0  0  0  0  0
  -21.0962  -13.1281   22.2556 H   0  0  0  0  0  0
  -24.6624  -15.8445   20.5172 H   0  0  0  0  0  0
  -26.3011  -15.6192   20.1585 H   0  0  0  0  0  0
  -26.7140  -32.5541   23.1152 H   0  0  0  0  0  0
  -25.0248  -33.9775   25.0608 H   0  0  0  0  0  0
  -22.6990  -31.3062   21.4041 H   0  0  0  0  0  0
  -23.3754  -35.9607   23.3324 H   0  0  0  0  0  0
  -24.3588  -36.8838   22.2047 H   0  0  0  0  0  0
  -23.7210  -37.6489   23.6603 H   0  0  0  0  0  0
  -26.0580  -31.5924   20.5981 H   0  0  0  0  0  0
  -26.8246  -30.8828   21.9873 H   0  0  0  0  0  0
  -28.0992  -29.0568   21.2118 H   0  0  0  0  0  0
  -26.0630  -25.9606   19.0130 H   0  0  0  0  0  0
  -23.9929  -27.3082   18.9978 H   0  0  0  0  0  0
  -23.7532  -30.6066   19.4012 H   0  0  0  0  0  0
  -22.7502  -29.2559   19.8463 H   0  0  0  0  0  0
  -25.1263  -36.1976   25.0856 H   0  0  0  0  0  0
  -20.9986  -28.3230   24.1396 H   0  0  0  0  0  0
  -20.5634  -26.2257   23.3607 H   0  0  0  0  0  0
  -21.6650  -26.7411   22.1229 H   0  0  0  0  0  0
  -19.6915  -25.6307   21.1209 H   0  0  0  0  0  0
  -19.6702  -27.3207   20.6714 H   0  0  0  0  0  0
  -17.4215  -26.6658   21.3998 H   0  0  0  0  0  0
  -18.0334  -26.0065   22.9000 H   0  0  0  0  0  0
  -19.7956  -30.7240   24.2269 H   0  0  0  0  0  0
  -17.5035  -31.6248   24.5177 H   0  0  0  0  0  0
  -15.5352  -30.2964   23.7664 H   0  0  0  0  0  0
  -15.8683  -28.0830   22.7008 H   0  0  0  0  0  0
  -24.6004  -30.6931   25.7902 H   0  0  0  0  0  0
  -24.8916  -32.2827   26.4886 H   0  0  0  0  0  0
  -25.8204  -30.8961   27.0284 H   0  0  0  0  0  0
  -26.2790  -29.6791   24.1125 H   0  0  0  0  0  0
  -27.4057  -29.7196   25.4484 H   0  0  0  0  0  0
  -27.8638  -30.4303   23.9185 H   0  0  0  0  0  0
  -27.2735  -33.3568   26.2050 H   0  0  0  0  0  0
  -28.3907  -32.6746   25.0300 H   0  0  0  0  0  0
  -28.0720  -31.8354   26.5403 H   0  0  0  0  0  0
  -28.2599  -38.0088   24.7519 H   0  0  0  0  0  0
  -28.1054  -36.2614   24.6281 H   0  0  0  0  0  0
  -27.2315  -37.1457   25.8882 H   0  0  0  0  0  0
  -20.9317  -29.8750   21.6920 H   0  0  0  0  0  0
  -26.0166  -38.2875   24.1435 H   0  0  0  0  0  0
  -29.4783  -19.5837   24.1705 H   0  0  0  0  0  0
  -30.1615  -17.3583   24.8010 H   0  0  0  0  0  0
  -29.2360  -18.4243   20.0613 H   0  0  0  0  0  0
  -29.9786  -17.5011   17.4792 H   0  0  0  0  0  0
  -31.1350  -16.1972   17.7112 H   0  0  0  0  0  0
  -31.0728  -17.5300   18.8568 H   0  0  0  0  0  0
  -30.4840  -13.7730   24.6319 H   0  0  0  0  0  0
  -29.4685  -15.1450   25.0486 H   0  0  0  0  0  0
  -31.2448  -15.3093   25.0311 H   0  0  0  0  0  0
  -28.0877  -22.9391   22.1226 H   0  0  0  0  0  0
  -27.1687  -22.5522   20.6990 H   0  0  0  0  0  0
  -28.4794  -23.9934   19.2976 H   0  0  0  0  0  0
  -29.8095  -24.0807   20.4246 H   0  0  0  0  0  0
  -29.1364  -15.2325   18.4542 H   0  0  0  0  0  0
  -28.4783  -16.6557   19.1180 H   0  0  0  0  0  0
  -28.5830  -25.5217   21.9357 H   0  0  0  0  0  0
  -27.0727  -25.1959   21.1666 H   0  0  0  0  0  0
  -28.0751  -20.7684   22.5245 H   0  0  0  0  0  0
  1 25  1  0  0  0
  1 30  2  0  0  0
  1 85  1  0  0  0
  2  3  1  0  0  0
  2 25  1  0  0  0
  2 88  1  0  0  0
  2 89  1  0  0  0
  3  4  1  0  0  0
  3 90  1  0  0  0
  3 91  1  0  0  0
  4  5  1  0  0  0
  4 92  1  0  0  0
  4 93  1  0  0  0
  5  6  1  0  0  0
  5 26  1  0  0  0
  5 94  1  0  0  0
  6 25  1  0  0  0
  6 95  1  0  0  0
  6 96  1  0  0  0
  7  8  2  0  0  0
  7 26  1  0  0  0
  7 29  1  0  0  0
  8  9  1  0  0  0
  8 22  1  0  0  0
  9 10  1  0  0  0
  9 27  2  0  0  0
 10 11  2  0  0  0
 10 15  1  0  0  0
 11 12  1  0  0  0
 11 97  1  0  0  0
 12 13  2  0  0  0
 12 98  1  0  0  0
 13 14  1  0  0  0
 13 31  1  0  0  0
 14 15  2  0  0  0
 14 99  1  0  0  0
 15100  1  0  0  0
 16 17  2  0  0  0
 16 21  1  0  0  0
 16 31  1  0  0  0
 17 18  1  0  0  0
 17101  1  0  0  0
 18 19  2  0  0  0
 18102  1  0  0  0
 19 20  1  0  0  0
 19 24  1  0  0  0
 20 21  2  0  0  0
 20103  1  0  0  0
 21 23  1  0  0  0
 22 28  1  0  0  0
 22 32  2  0  0  0
 26 27  1  0  0  0
 28104  1  0  0  0
 28105  1  0  0  0
 29106  1  0  0  0
 29107  1  0  0  0
 33 34  1  0  0  0
 33 66  1  0  0  0
 33 70  2  0  0  0
 34 36  1  0  0  0
 34 59  1  0  0  0
 34108  1  0  0  0
 35 44  2  0  0  0
 35 45  1  0  0  0
 35 68  1  0  0  0
 36 56  1  0  0  0
 36109  1  0  0  0
 37 39  1  0  0  0
 37 47  1  0  0  0
 37 66  1  0  0  0
 37110  1  0  0  0
 38 43  2  0  0  0
 38 46  1  0  0  0
 38 47  1  0  0  0
 39 64  1  0  0  0
 39 67  2  0  0  0
 40 52  1  0  0  0
 40 53  2  0  0  0
 40 58  1  0  0  0
 41111  1  0  0  0
 41112  1  0  0  0
 41113  1  0  0  0
 41 48  1  0  0  0
 42 43  1  0  0  0
 42 66  1  0  0  0
 42114  1  0  0  0
 42115  1  0  0  0
 43 44  1  0  0  0
 44116  1  0  0  0
 45 46  2  0  0  0
 45117  1  0  0  0
 46118  1  0  0  0
 47119  1  0  0  0
 47120  1  0  0  0
 48 56  1  0  0  0
 48 65  1  0  0  0
 48121  1  0  0  0
 49 50  1  0  0  0
 49 53  1  0  0  0
 49 64  1  0  0  0
 49122  1  0  0  0
 50 51  1  0  0  0
 50123  1  0  0  0
 50124  1  0  0  0
 51 52  1  0  0  0
 51125  1  0  0  0
 51126  1  0  0  0
 52127  1  0  0  0
 52128  1  0  0  0
 53 54  1  0  0  0
 54 55  2  0  0  0
 54129  1  0  0  0
 55 57  1  0  0  0
 55130  1  0  0  0
 56 69  2  0  0  0
 57 58  2  0  0  0
 57131  1  0  0  0
 58132  1  0  0  0
 59 60  1  0  0  0
 59 61  1  0  0  0
 59 62  1  0  0  0
 60133  1  0  0  0
 60134  1  0  0  0
 60135  1  0  0  0
 61136  1  0  0  0
 61137  1  0  0  0
 61138  1  0  0  0
 62139  1  0  0  0
 62140  1  0  0  0
 62141  1  0  0  0
 63 65  1  0  0  0
 63142  1  0  0  0
 63143  1  0  0  0
 63144  1  0  0  0
 64145  1  0  0  0
 65146  1  0  0  0
 68 83  1  0  0  0
 71 72  2  0  0  0
 71 74  1  0  0  0
 71147  1  0  0  0
 72 76  1  0  0  0
 72148  1  0  0  0
 73 74  2  0  0  0
 73 75  1  0  0  0
 73149  1  0  0  0
 74 84  1  0  0  0
 75 76  2  0  0  0
 75 85  1  0  0  0
 76 87  1  0  0  0
 77 80  1  0  0  0
 77 84  1  0  0  0
 77 86  2  0  0  0
 78 82  1  0  0  0
 78150  1  0  0  0
 78151  1  0  0  0
 78152  1  0  0  0
 79 87  1  0  0  0
 79153  1  0  0  0
 79154  1  0  0  0
 79155  1  0  0  0
 80 81  1  0  0  0
 80156  1  0  0  0
 80157  1  0  0  0
 81 83  1  0  0  0
 81158  1  0  0  0
 81159  1  0  0  0
 82 85  1  0  0  0
 82160  1  0  0  0
 82161  1  0  0  0
 83162  1  0  0  0
 83163  1  0  0  0
 84164  1  0  0  0
M  ISO  4   1 100  68 101  83 101  85 100
M  END
> <chiral flag>
0

> <version>
0

> <s_m_source_file>
/data/baiqing/PycharmProjects/Reinvent-master-3.2/result/LINK_invent/BTK/process_docking_weight1_custom_product_contain_oxygen_bond_distance_aromatic_linkinvent_7_9_3/rearranged_h_0102.sdf

> <i_m_source_file_index>
57

> <r_mmod_Potential_Energy-OPLS-2005>
166.247329711914

> <r_mmod_Stretch_Energy-OPLS-2005>
60.3631057739258

> <r_mmod_Bend_Energy-OPLS-2005>
127.853713989258

> <r_mmod_Torsional_Energy-OPLS-2005>
342.498504638672

> <r_mmod_Improper_Torsional_Energy-OPLS-2005>
13.3661804199219

> <r_mmod_Van_der_Waal_Energy-OPLS-2005>
163.877807617188

> <r_mmod_Electrostatic_Energy-OPLS-2005>
-357.161499023438

> <r_mmod_Solvation_Energy-OPLS-2005>
-222.726104736328

> <b_mmod_Minimization_Converged-OPLS-2005>
0

> <r_mmod_RMS_Derivative-OPLS-2005>
3.46598839759827

$$$$
58
                    3D
 Structure written by MMmdl.
160169  0  0  1  0            999 V2000
  -30.6574  -14.6230   20.5869 C   0  0  0  0  0  0
  -30.4271  -12.3983   19.4655 C   0  0  0  0  0  0
  -29.5140  -12.5493   18.2267 C   0  0  0  0  0  0
  -28.0255  -12.4014   18.6079 C   0  0  0  0  0  0
  -27.6485  -13.2289   19.8638 C   0  0  2  0  0  0
  -28.6830  -13.0270   20.9865 C   0  0  0  0  0  0
  -25.2483  -13.8176   20.5642 C   0  0  0  0  0  0
  -24.1769  -13.0410   20.9157 C   0  0  0  0  0  0
  -24.6373  -11.6888   20.8677 C   0  0  0  0  0  0
  -23.9049  -10.4270   21.0378 C   0  0  0  0  0  0
  -24.3603   -9.4197   21.9167 C   0  0  0  0  0  0
  -23.6285   -8.2221   22.0728 C   0  0  0  0  0  0
  -22.4263   -8.0259   21.3511 C   0  0  0  0  0  0
  -21.9906   -9.0233   20.4604 C   0  0  0  0  0  0
  -22.7233  -10.2116   20.3008 C   0  0  0  0  0  0
  -21.6837   -6.0737   22.5300 C   0  0  0  0  0  0
  -21.4019   -6.5629   23.8239 C   0  0  0  0  0  0
  -21.3666   -5.6773   24.9192 C   0  0  0  0  0  0
  -21.6035   -4.3041   24.7235 C   0  0  0  0  0  0
  -21.8805   -3.8130   23.4369 C   0  0  0  0  0  0
  -21.9184   -4.6960   22.3429 C   0  0  0  0  0  0
  -22.7802  -13.5211   21.1860 C   0  0  0  0  0  0
  -22.1637   -4.2141   21.1006 F   0  0  0  0  0  0
  -21.5622   -3.4527   25.7760 F   0  0  0  0  0  0
  -30.0073  -13.4108   20.4613 N   0  0  0  0  0  0
  -26.2925  -12.9382   20.3239 N   0  0  0  0  0  0
  -25.9291  -11.6503   20.5625 N   0  0  0  0  0  0
  -22.0453  -12.8176   22.0421 N   0  0  0  0  0  0
  -25.4135  -15.1918   20.4111 N   0  0  0  0  0  0
  -31.7632  -14.7906   20.0581 O   0  0  0  0  0  0
  -21.6599   -6.8881   21.4249 O   0  0  0  0  0  0
  -22.3471  -14.5534   20.6762 O   0  0  0  0  0  0
  -24.6273  -31.8573   23.2042 C   0  0  0  0  0  0
  -25.9116  -32.4754   23.8375 C   0  0  1  0  0  0
  -27.1994  -27.3026   20.1316 C   0  0  0  0  0  0
  -25.5920  -33.8570   24.2264 N   0  0  0  0  0  0
  -23.4213  -30.4825   21.5462 C   0  0  2  0  0  0
  -24.8625  -28.9396   20.1108 C   0  0  0  0  0  0
  -22.7476  -29.4610   22.4945 C   0  0  0  0  0  0
  -18.0274  -28.1419   22.8486 C   0  0  0  0  0  0
  -24.1486  -36.7276   23.2636 C   0  0  0  0  0  0
  -25.9649  -30.7823   21.3855 C   0  0  0  0  0  0
  -26.0326  -29.4133   20.7186 C   0  0  0  0  0  0
  -27.2080  -28.6063   20.7147 C   0  0  0  0  0  0
  -26.0114  -26.8822   19.4942 C   0  0  0  0  0  0
  -24.8543  -27.6839   19.4865 C   0  0  0  0  0  0
  -23.6347  -29.8217   20.1598 C   0  0  0  0  0  0
  -25.4115  -36.3054   24.0310 C   0  0  1  0  0  0
  -20.5871  -28.3696   23.1302 C   0  0  2  0  0  0
  -20.6776  -26.9420   22.5435 C   0  0  0  0  0  0
  -19.5746  -26.6401   21.5247 C   0  0  0  0  0  0
  -18.1922  -26.7961   22.1635 C   0  0  0  0  0  0
  -19.1527  -28.8884   23.2882 C   0  0  0  0  0  0
  -18.9442  -30.1500   23.8877 C   0  0  0  0  0  0
  -17.6438  -30.6612   24.0582 C   0  0  0  0  0  0
  -25.9066  -34.9433   23.5086 C   0  0  0  0  0  0
  -16.5330  -29.9098   23.6364 C   0  0  0  0  0  0
  -16.7257  -28.6535   23.0342 C   0  0  0  0  0  0
  -26.4485  -31.6598   25.0782 C   0  0  0  0  0  0
  -25.3726  -31.3694   26.1496 C   0  0  0  0  0  0
  -27.0350  -30.3007   24.6315 C   0  0  0  0  0  0
  -27.5987  -32.4396   25.7584 C   0  0  0  0  0  0
  -27.5581  -37.1784   24.8433 C   0  0  0  0  0  0
  -21.4190  -29.3040   22.3687 N   0  0  0  0  0  0
  -26.4265  -37.3774   23.9423 N   0  0  0  0  0  0
  -24.6890  -31.0587   22.1004 N   0  0  0  0  0  0
  -23.4191  -28.8165   23.3044 O   0  0  0  0  0  0
  -28.3074  -26.4491   20.1588 O   0  0  0  0  0  0
  -26.5635  -34.8889   22.4655 O   0  0  0  0  0  0
  -23.5428  -32.1384   23.7344 O   0  0  0  0  0  0
  -31.1239  -19.3114   20.7487 C   0  0  0  0  0  0
  -28.7874  -19.1841   20.2367 C   0  0  0  0  0  0
  -31.1733  -17.9009   20.9566 C   0  0  0  0  0  0
  -28.8280  -17.7730   20.4784 C   0  0  0  0  0  0
  -29.9413  -20.0168   20.3500 C   0  0  0  0  0  0
  -30.0253  -17.0825   20.8153 C   0  0  0  0  0  0
  -31.0556  -21.9439   19.3371 C   0  0  0  0  0  0
  -28.9628  -22.3964   20.3669 C   0  0  0  0  0  0
  -31.4118  -23.4431   19.2649 C   0  0  0  0  0  0
  -30.5139  -24.3523   20.1030 C   0  0  0  0  0  0
  -29.0605  -23.9332   19.9294 C   0  0  2  0  0  0
  -29.7029  -15.5158   22.6473 C   0  0  0  0  0  0
  -28.1013  -25.0314   20.5726 C   0  0  0  0  0  0
  -29.9623  -21.4821   20.0269 N   0  0  0  0  0  0
  -30.0155  -15.6730   21.2247 N   0  0  0  0  0  0
  -31.8015  -21.1964   18.6906 O   0  0  0  0  0  0
  -27.9637  -22.0517   21.0111 O   0  0  0  0  0  0
  -31.4784  -12.4974   19.1880 H   0  0  0  0  0  0
  -30.3327  -11.3916   19.8789 H   0  0  0  0  0  0
  -29.7801  -11.8164   17.4651 H   0  0  0  0  0  0
  -29.6789  -13.5275   17.7726 H   0  0  0  0  0  0
  -27.8257  -11.3437   18.7844 H   0  0  0  0  0  0
  -27.3930  -12.6951   17.7673 H   0  0  0  0  0  0
  -27.6781  -14.2794   19.5703 H   0  0  0  0  0  0
  -28.6964  -11.9801   21.2962 H   0  0  0  0  0  0
  -28.3686  -13.5705   21.8725 H   0  0  0  0  0  0
  -25.2756   -9.5663   22.4724 H   0  0  0  0  0  0
  -23.9989   -7.4609   22.7456 H   0  0  0  0  0  0
  -21.0830   -8.8749   19.8937 H   0  0  0  0  0  0
  -22.3702  -10.9631   19.6081 H   0  0  0  0  0  0
  -21.2004   -7.6129   23.9762 H   0  0  0  0  0  0
  -21.1496   -6.0494   25.9106 H   0  0  0  0  0  0
  -22.0577   -2.7594   23.2867 H   0  0  0  0  0  0
  -22.4084  -11.9843   22.4790 H   0  0  0  0  0  0
  -21.1063  -13.1158   22.2642 H   0  0  0  0  0  0
  -24.6422  -15.8427   20.5118 H   0  0  0  0  0  0
  -26.2598  -15.6296   20.0721 H   0  0  0  0  0  0
  -26.7207  -32.5378   23.1134 H   0  0  0  0  0  0
  -25.0009  -33.9753   25.0359 H   0  0  0  0  0  0
  -22.7186  -31.3056   21.4028 H   0  0  0  0  0  0
  -23.3778  -35.9575   23.3224 H   0  0  0  0  0  0
  -24.3604  -36.9000   22.2075 H   0  0  0  0  0  0
  -23.7204  -37.6429   23.6730 H   0  0  0  0  0  0
  -26.1220  -31.5573   20.6336 H   0  0  0  0  0  0
  -26.8344  -30.8058   22.0309 H   0  0  0  0  0  0
  -28.1064  -28.9584   21.2016 H   0  0  0  0  0  0
  -25.9569  -25.9201   19.0042 H   0  0  0  0  0  0
  -23.9535  -27.3291   19.0039 H   0  0  0  0  0  0
  -23.7560  -30.5996   19.4054 H   0  0  0  0  0  0
  -22.7548  -29.2506   19.8567 H   0  0  0  0  0  0
  -25.1306  -36.1867   25.0799 H   0  0  0  0  0  0
  -20.9952  -28.3271   24.1418 H   0  0  0  0  0  0
  -20.5730  -26.2288   23.3629 H   0  0  0  0  0  0
  -21.6637  -26.7499   22.1170 H   0  0  0  0  0  0
  -19.6917  -25.6311   21.1280 H   0  0  0  0  0  0
  -19.6706  -27.3219   20.6787 H   0  0  0  0  0  0
  -17.4198  -26.6711   21.4027 H   0  0  0  0  0  0
  -18.0304  -26.0112   22.9031 H   0  0  0  0  0  0
  -19.7916  -30.7359   24.2200 H   0  0  0  0  0  0
  -17.4977  -31.6278   24.5210 H   0  0  0  0  0  0
  -15.5329  -30.2980   23.7747 H   0  0  0  0  0  0
  -15.8647  -28.0890   22.7026 H   0  0  0  0  0  0
  -24.5895  -30.7068   25.7800 H   0  0  0  0  0  0
  -24.8941  -32.2836   26.5014 H   0  0  0  0  0  0
  -25.8069  -30.8793   27.0220 H   0  0  0  0  0  0
  -26.2954  -29.6760   24.1291 H   0  0  0  0  0  0
  -27.3924  -29.7269   25.4883 H   0  0  0  0  0  0
  -27.8878  -30.4260   23.9642 H   0  0  0  0  0  0
  -27.2522  -33.3682   26.2131 H   0  0  0  0  0  0
  -28.3807  -32.7012   25.0450 H   0  0  0  0  0  0
  -28.0636  -31.8574   26.5543 H   0  0  0  0  0  0
  -28.2472  -38.0199   24.7619 H   0  0  0  0  0  0
  -28.1190  -36.2732   24.6064 H   0  0  0  0  0  0
  -27.2315  -37.1184   25.8829 H   0  0  0  0  0  0
  -20.9389  -29.8698   21.6829 H   0  0  0  0  0  0
  -26.0108  -38.2813   24.1505 H   0  0  0  0  0  0
  -32.0525  -19.8475   20.8901 H   0  0  0  0  0  0
  -27.8380  -19.6204   19.9613 H   0  0  0  0  0  0
  -32.1091  -17.4547   21.2652 H   0  0  0  0  0  0
  -27.9036  -17.2159   20.4216 H   0  0  0  0  0  0
  -31.3487  -23.7422   18.2178 H   0  0  0  0  0  0
  -32.4521  -23.5784   19.5615 H   0  0  0  0  0  0
  -30.6487  -25.3866   19.7854 H   0  0  0  0  0  0
  -30.7996  -24.3181   21.1571 H   0  0  0  0  0  0
  -28.8239  -23.9454   18.8631 H   0  0  0  0  0  0
  -28.6302  -15.6369   22.8022 H   0  0  0  0  0  0
  -30.2124  -16.2743   23.2418 H   0  0  0  0  0  0
  -30.0027  -14.5492   23.0560 H   0  0  0  0  0  0
  -28.2225  -25.0070   21.6565 H   0  0  0  0  0  0
  -27.0768  -24.7056   20.4068 H   0  0  0  0  0  0
  1 25  1  0  0  0
  1 30  2  0  0  0
  1 85  1  0  0  0
  2  3  1  0  0  0
  2 25  1  0  0  0
  2 88  1  0  0  0
  2 89  1  0  0  0
  3  4  1  0  0  0
  3 90  1  0  0  0
  3 91  1  0  0  0
  4  5  1  0  0  0
  4 92  1  0  0  0
  4 93  1  0  0  0
  5  6  1  0  0  0
  5 26  1  0  0  0
  5 94  1  0  0  0
  6 25  1  0  0  0
  6 95  1  0  0  0
  6 96  1  0  0  0
  7  8  2  0  0  0
  7 26  1  0  0  0
  7 29  1  0  0  0
  8  9  1  0  0  0
  8 22  1  0  0  0
  9 10  1  0  0  0
  9 27  2  0  0  0
 10 11  2  0  0  0
 10 15  1  0  0  0
 11 12  1  0  0  0
 11 97  1  0  0  0
 12 13  2  0  0  0
 12 98  1  0  0  0
 13 14  1  0  0  0
 13 31  1  0  0  0
 14 15  2  0  0  0
 14 99  1  0  0  0
 15100  1  0  0  0
 16 17  2  0  0  0
 16 21  1  0  0  0
 16 31  1  0  0  0
 17 18  1  0  0  0
 17101  1  0  0  0
 18 19  2  0  0  0
 18102  1  0  0  0
 19 20  1  0  0  0
 19 24  1  0  0  0
 20 21  2  0  0  0
 20103  1  0  0  0
 21 23  1  0  0  0
 22 28  1  0  0  0
 22 32  2  0  0  0
 26 27  1  0  0  0
 28104  1  0  0  0
 28105  1  0  0  0
 29106  1  0  0  0
 29107  1  0  0  0
 33 34  1  0  0  0
 33 66  1  0  0  0
 33 70  2  0  0  0
 34 36  1  0  0  0
 34 59  1  0  0  0
 34108  1  0  0  0
 35 44  2  0  0  0
 35 45  1  0  0  0
 35 68  1  0  0  0
 36 56  1  0  0  0
 36109  1  0  0  0
 37 39  1  0  0  0
 37 47  1  0  0  0
 37 66  1  0  0  0
 37110  1  0  0  0
 38 43  2  0  0  0
 38 46  1  0  0  0
 38 47  1  0  0  0
 39 64  1  0  0  0
 39 67  2  0  0  0
 40 52  1  0  0  0
 40 53  2  0  0  0
 40 58  1  0  0  0
 41111  1  0  0  0
 41112  1  0  0  0
 41113  1  0  0  0
 41 48  1  0  0  0
 42 43  1  0  0  0
 42 66  1  0  0  0
 42114  1  0  0  0
 42115  1  0  0  0
 43 44  1  0  0  0
 44116  1  0  0  0
 45 46  2  0  0  0
 45117  1  0  0  0
 46118  1  0  0  0
 47119  1  0  0  0
 47120  1  0  0  0
 48 56  1  0  0  0
 48 65  1  0  0  0
 48121  1  0  0  0
 49 50  1  0  0  0
 49 53  1  0  0  0
 49 64  1  0  0  0
 49122  1  0  0  0
 50 51  1  0  0  0
 50123  1  0  0  0
 50124  1  0  0  0
 51 52  1  0  0  0
 51125  1  0  0  0
 51126  1  0  0  0
 52127  1  0  0  0
 52128  1  0  0  0
 53 54  1  0  0  0
 54 55  2  0  0  0
 54129  1  0  0  0
 55 57  1  0  0  0
 55130  1  0  0  0
 56 69  2  0  0  0
 57 58  2  0  0  0
 57131  1  0  0  0
 58132  1  0  0  0
 59 60  1  0  0  0
 59 61  1  0  0  0
 59 62  1  0  0  0
 60133  1  0  0  0
 60134  1  0  0  0
 60135  1  0  0  0
 61136  1  0  0  0
 61137  1  0  0  0
 61138  1  0  0  0
 62139  1  0  0  0
 62140  1  0  0  0
 62141  1  0  0  0
 63 65  1  0  0  0
 63142  1  0  0  0
 63143  1  0  0  0
 63144  1  0  0  0
 64145  1  0  0  0
 65146  1  0  0  0
 68 83  1  0  0  0
 71 73  2  0  0  0
 71 75  1  0  0  0
 71147  1  0  0  0
 72 74  1  0  0  0
 72 75  2  0  0  0
 72148  1  0  0  0
 73 76  1  0  0  0
 73149  1  0  0  0
 74 76  2  0  0  0
 74150  1  0  0  0
 75 84  1  0  0  0
 76 85  1  0  0  0
 77 79  1  0  0  0
 77 84  1  0  0  0
 77 86  2  0  0  0
 78 81  1  0  0  0
 78 84  1  0  0  0
 78 87  2  0  0  0
 79 80  1  0  0  0
 79151  1  0  0  0
 79152  1  0  0  0
 80 81  1  0  0  0
 80153  1  0  0  0
 80154  1  0  0  0
 81 83  1  0  0  0
 81155  1  0  0  0
 82 85  1  0  0  0
 82156  1  0  0  0
 82157  1  0  0  0
 82158  1  0  0  0
 83159  1  0  0  0
 83160  1  0  0  0
M  ISO  4   1 100  68 101  83 101  85 100
M  END
> <chiral flag>
0

> <version>
0

> <s_m_source_file>
/data/baiqing/PycharmProjects/Reinvent-master-3.2/result/LINK_invent/BTK/process_docking_weight1_custom_product_contain_oxygen_bond_distance_aromatic_linkinvent_7_9_3/rearranged_h_0102.sdf

> <i_m_source_file_index>
58

> <r_mmod_Potential_Energy-OPLS-2005>
341.974700927734

> <r_mmod_Stretch_Energy-OPLS-2005>
106.823135375977

> <r_mmod_Bend_Energy-OPLS-2005>
152.63395690918

> <r_mmod_Torsional_Energy-OPLS-2005>
361.201446533203

> <r_mmod_Improper_Torsional_Energy-OPLS-2005>
5.42532205581665

> <r_mmod_Van_der_Waal_Energy-OPLS-2005>
172.255615234375

> <r_mmod_Electrostatic_Energy-OPLS-2005>
-283.424224853516

> <r_mmod_Solvation_Energy-OPLS-2005>
-220.232925415039

> <b_mmod_Minimization_Converged-OPLS-2005>
0

> <r_mmod_RMS_Derivative-OPLS-2005>
3.59413528442383

$$$$
59
                    3D
 Structure written by MMmdl.
160169  0  0  1  0            999 V2000
  -30.7176  -14.5465   20.6419 C   0  0  0  0  0  0
  -30.4269  -12.3841   19.4328 C   0  0  0  0  0  0
  -29.4949  -12.5317   18.2120 C   0  0  0  0  0  0
  -28.0220  -12.3593   18.6254 C   0  0  0  0  0  0
  -27.6541  -13.2183   19.8609 C   0  0  2  0  0  0
  -28.6901  -13.0450   20.9883 C   0  0  0  0  0  0
  -25.2560  -13.8180   20.5685 C   0  0  0  0  0  0
  -24.1828  -13.0441   20.9184 C   0  0  0  0  0  0
  -24.6400  -11.6913   20.8725 C   0  0  0  0  0  0
  -23.9068  -10.4293   21.0395 C   0  0  0  0  0  0
  -24.3620   -9.4213   21.9176 C   0  0  0  0  0  0
  -23.6296   -8.2248   22.0746 C   0  0  0  0  0  0
  -22.4276   -8.0283   21.3542 C   0  0  0  0  0  0
  -21.9913   -9.0255   20.4641 C   0  0  0  0  0  0
  -22.7239  -10.2136   20.3045 C   0  0  0  0  0  0
  -21.6853   -6.0739   22.5283 C   0  0  0  0  0  0
  -21.4012   -6.5640   23.8216 C   0  0  0  0  0  0
  -21.3659   -5.6792   24.9179 C   0  0  0  0  0  0
  -21.6040   -4.3055   24.7229 C   0  0  0  0  0  0
  -21.8821   -3.8148   23.4349 C   0  0  0  0  0  0
  -21.9196   -4.6965   22.3407 C   0  0  0  0  0  0
  -22.7849  -13.5228   21.1859 C   0  0  0  0  0  0
  -22.1663   -4.2152   21.0985 F   0  0  0  0  0  0
  -21.5628   -3.4539   25.7743 F   0  0  0  0  0  0
  -30.0245  -13.3748   20.4541 N   0  0  0  0  0  0
  -26.2987  -12.9370   20.3291 N   0  0  0  0  0  0
  -25.9323  -11.6517   20.5717 N   0  0  0  0  0  0
  -22.0489  -12.8215   22.0412 N   0  0  0  0  0  0
  -25.4269  -15.1904   20.4139 N   0  0  0  0  0  0
  -31.7659  -14.7756   20.0303 O   0  0  0  0  0  0
  -21.6636   -6.8882   21.4245 O   0  0  0  0  0  0
  -22.3529  -14.5537   20.6715 O   0  0  0  0  0  0
  -24.6228  -31.8625   23.2040 C   0  0  0  0  0  0
  -25.9088  -32.4789   23.8364 C   0  0  1  0  0  0
  -27.2292  -27.3616   20.1137 C   0  0  0  0  0  0
  -25.5925  -33.8588   24.2300 N   0  0  0  0  0  0
  -23.4159  -30.4843   21.5458 C   0  0  2  0  0  0
  -24.8659  -28.9431   20.1111 C   0  0  0  0  0  0
  -22.7463  -29.4626   22.4954 C   0  0  0  0  0  0
  -18.0284  -28.1385   22.8489 C   0  0  0  0  0  0
  -24.1489  -36.7286   23.2635 C   0  0  0  0  0  0
  -25.9525  -30.8071   21.3680 C   0  0  0  0  0  0
  -26.0317  -29.4358   20.7137 C   0  0  0  0  0  0
  -27.2210  -28.6540   20.7102 C   0  0  0  0  0  0
  -26.0472  -26.9052   19.4971 C   0  0  0  0  0  0
  -24.8719  -27.6802   19.4950 C   0  0  0  0  0  0
  -23.6298  -29.8170   20.1613 C   0  0  0  0  0  0
  -25.4108  -36.3088   24.0336 C   0  0  1  0  0  0
  -20.5881  -28.3678   23.1301 C   0  0  2  0  0  0
  -20.6769  -26.9406   22.5414 C   0  0  0  0  0  0
  -19.5745  -26.6392   21.5213 C   0  0  0  0  0  0
  -18.1925  -26.7934   22.1624 C   0  0  0  0  0  0
  -19.1535  -28.8851   23.2890 C   0  0  0  0  0  0
  -18.9457  -30.1456   23.8898 C   0  0  0  0  0  0
  -17.6456  -30.6588   24.0566 C   0  0  0  0  0  0
  -25.9042  -34.9457   23.5115 C   0  0  0  0  0  0
  -16.5348  -29.9083   23.6336 C   0  0  0  0  0  0
  -16.7271  -28.6505   23.0351 C   0  0  0  0  0  0
  -26.4488  -31.6581   25.0716 C   0  0  0  0  0  0
  -25.3735  -31.3699   26.1448 C   0  0  0  0  0  0
  -27.0319  -30.3015   24.6119 C   0  0  0  0  0  0
  -27.6062  -32.4300   25.7488 C   0  0  0  0  0  0
  -27.5580  -37.1797   24.8463 C   0  0  0  0  0  0
  -21.4180  -29.3035   22.3702 N   0  0  0  0  0  0
  -26.4285  -37.3783   23.9417 N   0  0  0  0  0  0
  -24.6822  -31.0665   22.0969 N   0  0  0  0  0  0
  -23.4201  -28.8161   23.3022 O   0  0  0  0  0  0
  -28.3154  -26.4933   20.1407 O   0  0  0  0  0  0
  -26.5605  -34.8921   22.4678 O   0  0  0  0  0  0
  -23.5398  -32.1406   23.7386 O   0  0  0  0  0  0
  -29.1320  -18.7831   19.9818 C   0  0  0  0  0  0
  -29.4160  -17.3911   20.1533 C   0  0  0  0  0  0
  -30.1746  -19.2535   22.0868 C   0  0  0  0  0  0
  -29.4694  -19.7545   20.9636 C   0  0  0  0  0  0
  -30.0672  -16.8857   21.3144 C   0  0  0  0  0  0
  -30.4704  -17.8765   22.2603 C   0  0  0  0  0  0
  -28.3684  -24.0828   20.8546 C   0  0  0  0  0  0
  -28.1910  -25.4312   21.0360 C   0  0  0  0  0  0
  -28.0066  -23.1143   21.9802 C   0  0  0  0  0  0
  -28.7603  -23.3417   19.5660 C   0  0  0  0  0  0
  -28.9435  -21.8905   22.1174 C   0  0  0  0  0  0
  -29.5359  -21.9757   19.7477 C   0  0  0  0  0  0
  -30.4040  -14.9896   22.9581 C   0  0  0  0  0  0
  -29.0673  -21.1346   20.8661 N   0  0  0  0  0  0
  -30.2460  -15.4426   21.5637 N   0  0  0  0  0  0
  -31.1583  -17.5379   23.3777 F   0  0  0  0  0  0
  -31.4667  -12.5042   19.1232 H   0  0  0  0  0  0
  -30.3592  -11.3765   19.8463 H   0  0  0  0  0  0
  -29.7557  -11.7997   17.4464 H   0  0  0  0  0  0
  -29.6356  -13.5132   17.7562 H   0  0  0  0  0  0
  -27.8616  -11.3039   18.8488 H   0  0  0  0  0  0
  -27.3630  -12.5975   17.7894 H   0  0  0  0  0  0
  -27.6840  -14.2603   19.5412 H   0  0  0  0  0  0
  -28.6876  -12.0188   21.3589 H   0  0  0  0  0  0
  -28.3947  -13.6683   21.8307 H   0  0  0  0  0  0
  -25.2768   -9.5693   22.4745 H   0  0  0  0  0  0
  -24.0009   -7.4642   22.7464 H   0  0  0  0  0  0
  -21.0843   -8.8776   19.8948 H   0  0  0  0  0  0
  -22.3697  -10.9674   19.6148 H   0  0  0  0  0  0
  -21.1997   -7.6148   23.9722 H   0  0  0  0  0  0
  -21.1475   -6.0521   25.9084 H   0  0  0  0  0  0
  -22.0596   -2.7611   23.2850 H   0  0  0  0  0  0
  -22.4100  -11.9873   22.4798 H   0  0  0  0  0  0
  -21.1103  -13.1236   22.2612 H   0  0  0  0  0  0
  -24.6640  -15.8474   20.5363 H   0  0  0  0  0  0
  -26.2883  -15.6333   20.1204 H   0  0  0  0  0  0
  -26.7162  -32.5488   23.1127 H   0  0  0  0  0  0
  -25.0101  -33.9740   25.0465 H   0  0  0  0  0  0
  -22.7072  -31.3028   21.4025 H   0  0  0  0  0  0
  -23.3758  -35.9610   23.3290 H   0  0  0  0  0  0
  -24.3584  -36.8909   22.2051 H   0  0  0  0  0  0
  -23.7230  -37.6482   23.6655 H   0  0  0  0  0  0
  -26.0745  -31.5708   20.5982 H   0  0  0  0  0  0
  -26.8357  -30.8603   21.9927 H   0  0  0  0  0  0
  -28.1170  -29.0205   21.1908 H   0  0  0  0  0  0
  -26.0331  -25.9274   19.0369 H   0  0  0  0  0  0
  -23.9769  -27.2937   19.0272 H   0  0  0  0  0  0
  -23.7419  -30.5914   19.4014 H   0  0  0  0  0  0
  -22.7527  -29.2396   19.8639 H   0  0  0  0  0  0
  -25.1283  -36.1942   25.0826 H   0  0  0  0  0  0
  -20.9973  -28.3242   24.1421 H   0  0  0  0  0  0
  -20.5675  -26.2277   23.3600 H   0  0  0  0  0  0
  -21.6638  -26.7443   22.1206 H   0  0  0  0  0  0
  -19.6895  -25.6305   21.1235 H   0  0  0  0  0  0
  -19.6685  -27.3211   20.6748 H   0  0  0  0  0  0
  -17.4198  -26.6700   21.4019 H   0  0  0  0  0  0
  -18.0308  -26.0075   22.9016 H   0  0  0  0  0  0
  -19.7930  -30.7282   24.2261 H   0  0  0  0  0  0
  -17.5008  -31.6268   24.5167 H   0  0  0  0  0  0
  -15.5345  -30.2979   23.7662 H   0  0  0  0  0  0
  -15.8674  -28.0825   22.7054 H   0  0  0  0  0  0
  -24.5936  -30.7012   25.7786 H   0  0  0  0  0  0
  -24.8890  -32.2850   26.4861 H   0  0  0  0  0  0
  -25.8080  -30.8905   27.0228 H   0  0  0  0  0  0
  -26.2873  -29.6779   24.1157 H   0  0  0  0  0  0
  -27.4057  -29.7249   25.4591 H   0  0  0  0  0  0
  -27.8726  -30.4316   23.9300 H   0  0  0  0  0  0
  -27.2696  -33.3615   26.2048 H   0  0  0  0  0  0
  -28.3886  -32.6825   25.0321 H   0  0  0  0  0  0
  -28.0707  -31.8425   26.5418 H   0  0  0  0  0  0
  -28.2586  -38.0108   24.7536 H   0  0  0  0  0  0
  -28.1090  -36.2641   24.6255 H   0  0  0  0  0  0
  -27.2308  -37.1411   25.8869 H   0  0  0  0  0  0
  -20.9347  -29.8759   21.6920 H   0  0  0  0  0  0
  -26.0166  -38.2855   24.1430 H   0  0  0  0  0  0
  -28.5934  -19.0928   19.0973 H   0  0  0  0  0  0
  -29.0846  -16.7045   19.3879 H   0  0  0  0  0  0
  -30.5024  -19.9249   22.8657 H   0  0  0  0  0  0
  -27.8510  -25.8025   21.9949 H   0  0  0  0  0  0
  -26.9917  -22.7606   21.7923 H   0  0  0  0  0  0
  -27.9661  -23.6485   22.9308 H   0  0  0  0  0  0
  -29.3226  -24.0137   18.9167 H   0  0  0  0  0  0
  -27.8282  -23.1297   19.0412 H   0  0  0  0  0  0
  -28.5572  -21.2461   22.9097 H   0  0  0  0  0  0
  -29.9334  -22.2237   22.4362 H   0  0  0  0  0  0
  -30.5906  -22.1939   19.9238 H   0  0  0  0  0  0
  -29.5005  -21.4113   18.8145 H   0  0  0  0  0  0
  -29.7027  -15.4999   23.6191 H   0  0  0  0  0  0
  -31.4183  -15.1813   23.3107 H   0  0  0  0  0  0
  -30.2386  -13.9200   23.0964 H   0  0  0  0  0  0
  1 25  1  0  0  0
  1 30  2  0  0  0
  1 85  1  0  0  0
  2  3  1  0  0  0
  2 25  1  0  0  0
  2 87  1  0  0  0
  2 88  1  0  0  0
  3  4  1  0  0  0
  3 89  1  0  0  0
  3 90  1  0  0  0
  4  5  1  0  0  0
  4 91  1  0  0  0
  4 92  1  0  0  0
  5  6  1  0  0  0
  5 26  1  0  0  0
  5 93  1  0  0  0
  6 25  1  0  0  0
  6 94  1  0  0  0
  6 95  1  0  0  0
  7  8  2  0  0  0
  7 26  1  0  0  0
  7 29  1  0  0  0
  8  9  1  0  0  0
  8 22  1  0  0  0
  9 10  1  0  0  0
  9 27  2  0  0  0
 10 11  2  0  0  0
 10 15  1  0  0  0
 11 12  1  0  0  0
 11 96  1  0  0  0
 12 13  2  0  0  0
 12 97  1  0  0  0
 13 14  1  0  0  0
 13 31  1  0  0  0
 14 15  2  0  0  0
 14 98  1  0  0  0
 15 99  1  0  0  0
 16 17  2  0  0  0
 16 21  1  0  0  0
 16 31  1  0  0  0
 17 18  1  0  0  0
 17100  1  0  0  0
 18 19  2  0  0  0
 18101  1  0  0  0
 19 20  1  0  0  0
 19 24  1  0  0  0
 20 21  2  0  0  0
 20102  1  0  0  0
 21 23  1  0  0  0
 22 28  1  0  0  0
 22 32  2  0  0  0
 26 27  1  0  0  0
 28103  1  0  0  0
 28104  1  0  0  0
 29105  1  0  0  0
 29106  1  0  0  0
 33 34  1  0  0  0
 33 66  1  0  0  0
 33 70  2  0  0  0
 34 36  1  0  0  0
 34 59  1  0  0  0
 34107  1  0  0  0
 35 44  2  0  0  0
 35 45  1  0  0  0
 35 68  1  0  0  0
 36 56  1  0  0  0
 36108  1  0  0  0
 37 39  1  0  0  0
 37 47  1  0  0  0
 37 66  1  0  0  0
 37109  1  0  0  0
 38 43  2  0  0  0
 38 46  1  0  0  0
 38 47  1  0  0  0
 39 64  1  0  0  0
 39 67  2  0  0  0
 40 52  1  0  0  0
 40 53  2  0  0  0
 40 58  1  0  0  0
 41110  1  0  0  0
 41111  1  0  0  0
 41112  1  0  0  0
 41 48  1  0  0  0
 42 43  1  0  0  0
 42 66  1  0  0  0
 42113  1  0  0  0
 42114  1  0  0  0
 43 44  1  0  0  0
 44115  1  0  0  0
 45 46  2  0  0  0
 45116  1  0  0  0
 46117  1  0  0  0
 47118  1  0  0  0
 47119  1  0  0  0
 48 56  1  0  0  0
 48 65  1  0  0  0
 48120  1  0  0  0
 49 50  1  0  0  0
 49 53  1  0  0  0
 49 64  1  0  0  0
 49121  1  0  0  0
 50 51  1  0  0  0
 50122  1  0  0  0
 50123  1  0  0  0
 51 52  1  0  0  0
 51124  1  0  0  0
 51125  1  0  0  0
 52126  1  0  0  0
 52127  1  0  0  0
 53 54  1  0  0  0
 54 55  2  0  0  0
 54128  1  0  0  0
 55 57  1  0  0  0
 55129  1  0  0  0
 56 69  2  0  0  0
 57 58  2  0  0  0
 57130  1  0  0  0
 58131  1  0  0  0
 59 60  1  0  0  0
 59 61  1  0  0  0
 59 62  1  0  0  0
 60132  1  0  0  0
 60133  1  0  0  0
 60134  1  0  0  0
 61135  1  0  0  0
 61136  1  0  0  0
 61137  1  0  0  0
 62138  1  0  0  0
 62139  1  0  0  0
 62140  1  0  0  0
 63 65  1  0  0  0
 63141  1  0  0  0
 63142  1  0  0  0
 63143  1  0  0  0
 64144  1  0  0  0
 65145  1  0  0  0
 68 78  1  0  0  0
 71 72  2  0  0  0
 71 74  1  0  0  0
 71146  1  0  0  0
 72 75  1  0  0  0
 72147  1  0  0  0
 73 74  2  0  0  0
 73 76  1  0  0  0
 73148  1  0  0  0
 74 84  1  0  0  0
 75 76  2  0  0  0
 75 85  1  0  0  0
 76 86  1  0  0  0
 77 78  2  0  0  0
 77 79  1  0  0  0
 77 80  1  0  0  0
 78149  1  0  0  0
 79 81  1  0  0  0
 79150  1  0  0  0
 79151  1  0  0  0
 80 82  1  0  0  0
 80152  1  0  0  0
 80153  1  0  0  0
 81 84  1  0  0  0
 81154  1  0  0  0
 81155  1  0  0  0
 82 84  1  0  0  0
 82156  1  0  0  0
 82157  1  0  0  0
 83 85  1  0  0  0
 83158  1  0  0  0
 83159  1  0  0  0
 83160  1  0  0  0
M  ISO  4   1 100  68 101  78 101  85 100
M  END
> <chiral flag>
0

> <version>
0

> <s_m_source_file>
/data/baiqing/PycharmProjects/Reinvent-master-3.2/result/LINK_invent/BTK/process_docking_weight1_custom_product_contain_oxygen_bond_distance_aromatic_linkinvent_7_9_3/rearranged_h_0102.sdf

> <i_m_source_file_index>
59

> <r_mmod_Potential_Energy-OPLS-2005>
198.376434326172

> <r_mmod_Stretch_Energy-OPLS-2005>
68.5762252807617

> <r_mmod_Bend_Energy-OPLS-2005>
136.940979003906

> <r_mmod_Torsional_Energy-OPLS-2005>
323.163635253906

> <r_mmod_Improper_Torsional_Energy-OPLS-2005>
6.38827753067017

> <r_mmod_Van_der_Waal_Energy-OPLS-2005>
157.418014526367

> <r_mmod_Electrostatic_Energy-OPLS-2005>
-327.341064453125

> <r_mmod_Solvation_Energy-OPLS-2005>
-197.425155639648

> <b_mmod_Minimization_Converged-OPLS-2005>
0

> <r_mmod_RMS_Derivative-OPLS-2005>
1.07052659988403

$$$$
60
                    3D
 Structure written by MMmdl.
163172  0  0  1  0            999 V2000
  -30.7209  -14.4314   20.6047 C   0  0  0  0  0  0
  -30.4171  -12.2934   19.3974 C   0  0  0  0  0  0
  -29.4778  -12.4935   18.1910 C   0  0  0  0  0  0
  -28.0018  -12.3623   18.6151 C   0  0  0  0  0  0
  -27.6611  -13.1992   19.8767 C   0  0  2  0  0  0
  -28.7086  -12.9546   20.9842 C   0  0  0  0  0  0
  -25.2585  -13.8133   20.5695 C   0  0  0  0  0  0
  -24.1821  -13.0424   20.9178 C   0  0  0  0  0  0
  -24.6360  -11.6887   20.8752 C   0  0  0  0  0  0
  -23.9021  -10.4290   21.0420 C   0  0  0  0  0  0
  -24.3580   -9.4210   21.9198 C   0  0  0  0  0  0
  -23.6276   -8.2237   22.0756 C   0  0  0  0  0  0
  -22.4268   -8.0265   21.3530 C   0  0  0  0  0  0
  -21.9898   -9.0225   20.4631 C   0  0  0  0  0  0
  -22.7203  -10.2120   20.3056 C   0  0  0  0  0  0
  -21.6830   -6.0729   22.5277 C   0  0  0  0  0  0
  -21.4003   -6.5634   23.8207 C   0  0  0  0  0  0
  -21.3658   -5.6791   24.9178 C   0  0  0  0  0  0
  -21.6052   -4.3053   24.7232 C   0  0  0  0  0  0
  -21.8823   -3.8145   23.4346 C   0  0  0  0  0  0
  -21.9195   -4.6965   22.3406 C   0  0  0  0  0  0
  -22.7858  -13.5227   21.1862 C   0  0  0  0  0  0
  -22.1670   -4.2153   21.0981 F   0  0  0  0  0  0
  -21.5637   -3.4537   25.7744 F   0  0  0  0  0  0
  -30.0326  -13.2739   20.4245 N   0  0  0  0  0  0
  -26.3016  -12.9291   20.3405 N   0  0  0  0  0  0
  -25.9297  -11.6459   20.5798 N   0  0  0  0  0  0
  -22.0521  -12.8208   22.0423 N   0  0  0  0  0  0
  -25.4350  -15.1851   20.4122 N   0  0  0  0  0  0
  -31.8379  -14.6315   20.1183 O   0  0  0  0  0  0
  -21.6624   -6.8862   21.4229 O   0  0  0  0  0  0
  -22.3563  -14.5557   20.6749 O   0  0  0  0  0  0
  -24.6136  -31.8677   23.2072 C   0  0  0  0  0  0
  -25.9030  -32.4816   23.8376 C   0  0  1  0  0  0
  -27.2492  -27.4141   20.1150 C   0  0  0  0  0  0
  -25.5898  -33.8604   24.2310 N   0  0  0  0  0  0
  -23.4051  -30.4872   21.5463 C   0  0  2  0  0  0
  -24.8588  -28.9514   20.1150 C   0  0  0  0  0  0
  -22.7402  -29.4666   22.4961 C   0  0  0  0  0  0
  -18.0274  -28.1378   22.8528 C   0  0  0  0  0  0
  -24.1463  -36.7263   23.2648 C   0  0  0  0  0  0
  -25.9355  -30.8292   21.3623 C   0  0  0  0  0  0
  -26.0169  -29.4591   20.7166 C   0  0  0  0  0  0
  -27.2142  -28.7010   20.7112 C   0  0  0  0  0  0
  -26.0703  -26.9326   19.4989 C   0  0  0  0  0  0
  -24.8814  -27.6892   19.5011 C   0  0  0  0  0  0
  -23.6166  -29.8153   20.1614 C   0  0  0  0  0  0
  -25.4089  -36.3072   24.0338 C   0  0  1  0  0  0
  -20.5867  -28.3678   23.1309 C   0  0  2  0  0  0
  -20.6772  -26.9418   22.5414 C   0  0  0  0  0  0
  -19.5722  -26.6382   21.5243 C   0  0  0  0  0  0
  -18.1892  -26.7945   22.1637 C   0  0  0  0  0  0
  -19.1529  -28.8845   23.2916 C   0  0  0  0  0  0
  -18.9470  -30.1467   23.8898 C   0  0  0  0  0  0
  -17.6481  -30.6601   24.0568 C   0  0  0  0  0  0
  -25.9042  -34.9456   23.5125 C   0  0  0  0  0  0
  -16.5361  -29.9107   23.6341 C   0  0  0  0  0  0
  -16.7273  -28.6518   23.0385 C   0  0  0  0  0  0
  -26.4486  -31.6602   25.0696 C   0  0  0  0  0  0
  -25.3737  -31.3664   26.1422 C   0  0  0  0  0  0
  -27.0397  -30.3067   24.6084 C   0  0  0  0  0  0
  -27.5995  -32.4408   25.7482 C   0  0  0  0  0  0
  -27.5565  -37.1758   24.8462 C   0  0  0  0  0  0
  -21.4125  -29.3049   22.3707 N   0  0  0  0  0  0
  -26.4249  -37.3789   23.9446 N   0  0  0  0  0  0
  -24.6687  -31.0761   22.0983 N   0  0  0  0  0  0
  -23.4170  -28.8209   23.3008 O   0  0  0  0  0  0
  -28.4213  -26.6753   20.1091 O   0  0  0  0  0  0
  -26.5587  -34.8912   22.4678 O   0  0  0  0  0  0
  -23.5319  -32.1455   23.7453 O   0  0  0  0  0  0
  -31.1137  -18.9395   22.3682 C   0  0  0  0  0  0
  -31.1044  -20.3106   22.0589 C   0  0  0  0  0  0
  -30.0832  -19.8059   19.9191 C   0  0  0  0  0  0
  -30.6077  -17.9660   21.4787 C   0  0  0  0  0  0
  -30.0743  -18.4151   20.2338 C   0  0  0  0  0  0
  -30.6052  -20.7719   20.8201 C   0  0  0  0  0  0
  -31.9307  -22.7662   20.5621 C   0  0  0  0  0  0
  -29.5604  -22.9394   20.2926 C   0  0  0  0  0  0
  -32.0938  -24.2860   20.7088 C   0  0  0  0  0  0
  -30.7852  -24.9851   21.0832 C   0  0  0  0  0  0
  -29.6576  -24.4955   20.1661 C   0  0  2  0  0  0
  -29.5027  -17.4487   19.2054 C   0  0  0  0  0  0
  -30.7299  -16.5123   21.9883 C   0  0  0  0  0  0
  -28.3274  -25.2664   20.4402 C   0  0  0  0  0  0
  -30.6914  -22.1905   20.5133 N   0  0  0  0  0  0
  -30.0845  -15.3827   21.3083 N   0  0  0  0  0  0
  -32.9741  -22.1061   20.4664 O   0  0  0  0  0  0
  -28.4476  -22.4144   20.1572 O   0  0  0  0  0  0
  -31.4592  -12.3911   19.0866 H   0  0  0  0  0  0
  -30.3177  -11.2794   19.7911 H   0  0  0  0  0  0
  -29.7019  -11.7660   17.4100 H   0  0  0  0  0  0
  -29.6469  -13.4785   17.7538 H   0  0  0  0  0  0
  -27.8079  -11.3056   18.8132 H   0  0  0  0  0  0
  -27.3434  -12.6397   17.7922 H   0  0  0  0  0  0
  -27.7136  -14.2482   19.5873 H   0  0  0  0  0  0
  -28.6903  -11.9037   21.2823 H   0  0  0  0  0  0
  -28.4765  -13.5169   21.8902 H   0  0  0  0  0  0
  -25.2708   -9.5701   22.4773 H   0  0  0  0  0  0
  -23.9992   -7.4636   22.7491 H   0  0  0  0  0  0
  -21.0830   -8.8719   19.8939 H   0  0  0  0  0  0
  -22.3639  -10.9653   19.6173 H   0  0  0  0  0  0
  -21.1968   -7.6137   23.9708 H   0  0  0  0  0  0
  -21.1482   -6.0523   25.9075 H   0  0  0  0  0  0
  -22.0602   -2.7614   23.2853 H   0  0  0  0  0  0
  -22.4127  -11.9814   22.4724 H   0  0  0  0  0  0
  -21.1174  -13.1258   22.2731 H   0  0  0  0  0  0
  -24.6692  -15.8434   20.5038 H   0  0  0  0  0  0
  -26.2991  -15.6225   20.1176 H   0  0  0  0  0  0
  -26.7104  -32.5555   23.1140 H   0  0  0  0  0  0
  -25.0076  -33.9774   25.0472 H   0  0  0  0  0  0
  -22.6937  -31.3023   21.4023 H   0  0  0  0  0  0
  -23.3736  -35.9588   23.3298 H   0  0  0  0  0  0
  -24.3545  -36.8927   22.2069 H   0  0  0  0  0  0
  -23.7216  -37.6446   23.6703 H   0  0  0  0  0  0
  -26.0439  -31.5929   20.5910 H   0  0  0  0  0  0
  -26.8238  -30.8902   21.9790 H   0  0  0  0  0  0
  -28.1066  -29.0984   21.1744 H   0  0  0  0  0  0
  -26.0613  -25.9811   18.9923 H   0  0  0  0  0  0
  -23.9953  -27.3003   19.0166 H   0  0  0  0  0  0
  -23.7143  -30.5868   19.3977 H   0  0  0  0  0  0
  -22.7457  -29.2260   19.8701 H   0  0  0  0  0  0
  -25.1274  -36.1899   25.0830 H   0  0  0  0  0  0
  -20.9982  -28.3272   24.1422 H   0  0  0  0  0  0
  -20.5736  -26.2282   23.3604 H   0  0  0  0  0  0
  -21.6644  -26.7460   22.1183 H   0  0  0  0  0  0
  -19.6862  -25.6295   21.1279 H   0  0  0  0  0  0
  -19.6641  -27.3181   20.6763 H   0  0  0  0  0  0
  -17.4187  -26.6742   21.4014 H   0  0  0  0  0  0
  -18.0229  -26.0068   22.8988 H   0  0  0  0  0  0
  -19.7949  -30.7303   24.2232 H   0  0  0  0  0  0
  -17.5043  -31.6289   24.5152 H   0  0  0  0  0  0
  -15.5384  -30.3032   23.7657 H   0  0  0  0  0  0
  -15.8663  -28.0872   22.7065 H   0  0  0  0  0  0
  -24.5930  -30.7001   25.7743 H   0  0  0  0  0  0
  -24.8854  -32.2794   26.4843 H   0  0  0  0  0  0
  -25.8080  -30.8854   27.0194 H   0  0  0  0  0  0
  -26.2968  -29.6731   24.1220 H   0  0  0  0  0  0
  -27.4326  -29.7394   25.4538 H   0  0  0  0  0  0
  -27.8718  -30.4439   23.9163 H   0  0  0  0  0  0
  -27.2573  -33.3781   26.1888 H   0  0  0  0  0  0
  -28.3868  -32.6888   25.0350 H   0  0  0  0  0  0
  -28.0572  -31.8651   26.5545 H   0  0  0  0  0  0
  -28.2506  -38.0122   24.7688 H   0  0  0  0  0  0
  -28.1168  -36.2691   24.6137 H   0  0  0  0  0  0
  -27.2301  -37.1227   25.8856 H   0  0  0  0  0  0
  -20.9264  -29.8815   21.6979 H   0  0  0  0  0  0
  -26.0116  -38.2834   24.1567 H   0  0  0  0  0  0
  -31.5352  -18.6320   23.3170 H   0  0  0  0  0  0
  -31.5180  -21.0028   22.7819 H   0  0  0  0  0  0
  -29.6949  -20.1363   18.9642 H   0  0  0  0  0  0
  -32.4894  -24.6862   19.7732 H   0  0  0  0  0  0
  -32.8463  -24.4789   21.4766 H   0  0  0  0  0  0
  -30.9043  -26.0667   21.0240 H   0  0  0  0  0  0
  -30.5328  -24.7605   22.1228 H   0  0  0  0  0  0
  -29.9335  -24.7001   19.1296 H   0  0  0  0  0  0
  -29.0714  -17.9650   18.3455 H   0  0  0  0  0  0
  -28.7047  -16.8477   19.6419 H   0  0  0  0  0  0
  -30.2806  -16.7808   18.8306 H   0  0  0  0  0  0
  -30.3102  -16.5090   22.9950 H   0  0  0  0  0  0
  -31.7908  -16.2917   22.1315 H   0  0  0  0  0  0
  -28.0639  -25.1839   21.4973 H   0  0  0  0  0  0
  -27.5308  -24.7755   19.8863 H   0  0  0  0  0  0
  -29.1308  -15.1842   21.5702 H   0  0  0  0  0  0
  1 25  1  0  0  0
  1 30  2  0  0  0
  1 86  1  0  0  0
  2  3  1  0  0  0
  2 25  1  0  0  0
  2 89  1  0  0  0
  2 90  1  0  0  0
  3  4  1  0  0  0
  3 91  1  0  0  0
  3 92  1  0  0  0
  4  5  1  0  0  0
  4 93  1  0  0  0
  4 94  1  0  0  0
  5  6  1  0  0  0
  5 26  1  0  0  0
  5 95  1  0  0  0
  6 25  1  0  0  0
  6 96  1  0  0  0
  6 97  1  0  0  0
  7  8  2  0  0  0
  7 26  1  0  0  0
  7 29  1  0  0  0
  8  9  1  0  0  0
  8 22  1  0  0  0
  9 10  1  0  0  0
  9 27  2  0  0  0
 10 11  2  0  0  0
 10 15  1  0  0  0
 11 12  1  0  0  0
 11 98  1  0  0  0
 12 13  2  0  0  0
 12 99  1  0  0  0
 13 14  1  0  0  0
 13 31  1  0  0  0
 14 15  2  0  0  0
 14100  1  0  0  0
 15101  1  0  0  0
 16 17  2  0  0  0
 16 21  1  0  0  0
 16 31  1  0  0  0
 17 18  1  0  0  0
 17102  1  0  0  0
 18 19  2  0  0  0
 18103  1  0  0  0
 19 20  1  0  0  0
 19 24  1  0  0  0
 20 21  2  0  0  0
 20104  1  0  0  0
 21 23  1  0  0  0
 22 28  1  0  0  0
 22 32  2  0  0  0
 26 27  1  0  0  0
 28105  1  0  0  0
 28106  1  0  0  0
 29107  1  0  0  0
 29108  1  0  0  0
 33 34  1  0  0  0
 33 66  1  0  0  0
 33 70  2  0  0  0
 34 36  1  0  0  0
 34 59  1  0  0  0
 34109  1  0  0  0
 35 44  2  0  0  0
 35 45  1  0  0  0
 35 68  1  0  0  0
 36 56  1  0  0  0
 36110  1  0  0  0
 37 39  1  0  0  0
 37 47  1  0  0  0
 37 66  1  0  0  0
 37111  1  0  0  0
 38 43  2  0  0  0
 38 46  1  0  0  0
 38 47  1  0  0  0
 39 64  1  0  0  0
 39 67  2  0  0  0
 40 52  1  0  0  0
 40 53  2  0  0  0
 40 58  1  0  0  0
 41112  1  0  0  0
 41113  1  0  0  0
 41114  1  0  0  0
 41 48  1  0  0  0
 42 43  1  0  0  0
 42 66  1  0  0  0
 42115  1  0  0  0
 42116  1  0  0  0
 43 44  1  0  0  0
 44117  1  0  0  0
 45 46  2  0  0  0
 45118  1  0  0  0
 46119  1  0  0  0
 47120  1  0  0  0
 47121  1  0  0  0
 48 56  1  0  0  0
 48 65  1  0  0  0
 48122  1  0  0  0
 49 50  1  0  0  0
 49 53  1  0  0  0
 49 64  1  0  0  0
 49123  1  0  0  0
 50 51  1  0  0  0
 50124  1  0  0  0
 50125  1  0  0  0
 51 52  1  0  0  0
 51126  1  0  0  0
 51127  1  0  0  0
 52128  1  0  0  0
 52129  1  0  0  0
 53 54  1  0  0  0
 54 55  2  0  0  0
 54130  1  0  0  0
 55 57  1  0  0  0
 55131  1  0  0  0
 56 69  2  0  0  0
 57 58  2  0  0  0
 57132  1  0  0  0
 58133  1  0  0  0
 59 60  1  0  0  0
 59 61  1  0  0  0
 59 62  1  0  0  0
 60134  1  0  0  0
 60135  1  0  0  0
 60136  1  0  0  0
 61137  1  0  0  0
 61138  1  0  0  0
 61139  1  0  0  0
 62140  1  0  0  0
 62141  1  0  0  0
 62142  1  0  0  0
 63 65  1  0  0  0
 63143  1  0  0  0
 63144  1  0  0  0
 63145  1  0  0  0
 64146  1  0  0  0
 65147  1  0  0  0
 68 84  1  0  0  0
 71 72  2  0  0  0
 71 74  1  0  0  0
 71148  1  0  0  0
 72 76  1  0  0  0
 72149  1  0  0  0
 73 75  1  0  0  0
 73 76  2  0  0  0
 73150  1  0  0  0
 74 75  2  0  0  0
 74 83  1  0  0  0
 75 82  1  0  0  0
 76 85  1  0  0  0
 77 79  1  0  0  0
 77 85  1  0  0  0
 77 87  2  0  0  0
 78 81  1  0  0  0
 78 85  1  0  0  0
 78 88  2  0  0  0
 79 80  1  0  0  0
 79151  1  0  0  0
 79152  1  0  0  0
 80 81  1  0  0  0
 80153  1  0  0  0
 80154  1  0  0  0
 81 84  1  0  0  0
 81155  1  0  0  0
 82156  1  0  0  0
 82157  1  0  0  0
 82158  1  0  0  0
 83 86  1  0  0  0
 83159  1  0  0  0
 83160  1  0  0  0
 84161  1  0  0  0
 84162  1  0  0  0
 86163  1  0  0  0
M  ISO  4   1 100  68 101  84 101  86 100
M  END
> <chiral flag>
0

> <version>
0

> <s_m_source_file>
/data/baiqing/PycharmProjects/Reinvent-master-3.2/result/LINK_invent/BTK/process_docking_weight1_custom_product_contain_oxygen_bond_distance_aromatic_linkinvent_7_9_3/rearranged_h_0102.sdf

> <i_m_source_file_index>
60

> <r_mmod_Potential_Energy-OPLS-2005>
-9.90332889556885

> <r_mmod_Stretch_Energy-OPLS-2005>
52.9875144958496

> <r_mmod_Bend_Energy-OPLS-2005>
122.163482666016

> <r_mmod_Torsional_Energy-OPLS-2005>
255.473358154297

> <r_mmod_Improper_Torsional_Energy-OPLS-2005>
2.67313623428345

> <r_mmod_Van_der_Waal_Energy-OPLS-2005>
178.155685424805

> <r_mmod_Electrostatic_Energy-OPLS-2005>
-390.779876708984

> <r_mmod_Solvation_Energy-OPLS-2005>
-242.490417480469

> <b_mmod_Minimization_Converged-OPLS-2005>
0

> <r_mmod_RMS_Derivative-OPLS-2005>
4.43360948562622

$$$$
61
                    3D
 Structure written by MMmdl.
155163  0  0  1  0            999 V2000
  -30.6271  -14.5967   20.5758 C   0  0  0  0  0  0
  -30.4467  -12.3875   19.4282 C   0  0  0  0  0  0
  -29.5053  -12.5317   18.2117 C   0  0  0  0  0  0
  -28.0272  -12.3686   18.6231 C   0  0  0  0  0  0
  -27.6617  -13.2084   19.8755 C   0  0  2  0  0  0
  -28.7105  -13.0051   20.9918 C   0  0  0  0  0  0
  -25.2598  -13.8137   20.5711 C   0  0  0  0  0  0
  -24.1849  -13.0409   20.9176 C   0  0  0  0  0  0
  -24.6413  -11.6883   20.8731 C   0  0  0  0  0  0
  -23.9077  -10.4279   21.0406 C   0  0  0  0  0  0
  -24.3624   -9.4193   21.9181 C   0  0  0  0  0  0
  -23.6294   -8.2236   22.0758 C   0  0  0  0  0  0
  -22.4278   -8.0278   21.3548 C   0  0  0  0  0  0
  -21.9919   -9.0249   20.4644 C   0  0  0  0  0  0
  -22.7254  -10.2124   20.3053 C   0  0  0  0  0  0
  -21.6854   -6.0741   22.5288 C   0  0  0  0  0  0
  -21.4014   -6.5644   23.8219 C   0  0  0  0  0  0
  -21.3661   -5.6798   24.9180 C   0  0  0  0  0  0
  -21.6046   -4.3060   24.7230 C   0  0  0  0  0  0
  -21.8820   -3.8152   23.4349 C   0  0  0  0  0  0
  -21.9196   -4.6971   22.3406 C   0  0  0  0  0  0
  -22.7869  -13.5208   21.1839 C   0  0  0  0  0  0
  -22.1662   -4.2154   21.0982 F   0  0  0  0  0  0
  -21.5626   -3.4542   25.7740 F   0  0  0  0  0  0
  -30.0250  -13.3724   20.4408 N   0  0  0  0  0  0
  -26.3041  -12.9314   20.3381 N   0  0  0  0  0  0
  -25.9345  -11.6473   20.5768 N   0  0  0  0  0  0
  -22.0507  -12.8199   22.0393 N   0  0  0  0  0  0
  -25.4293  -15.1861   20.4178 N   0  0  0  0  0  0
  -31.7461  -14.8061   20.0936 O   0  0  0  0  0  0
  -21.6637   -6.8882   21.4248 O   0  0  0  0  0  0
  -22.3551  -14.5521   20.6701 O   0  0  0  0  0  0
  -24.6240  -31.8611   23.2062 C   0  0  0  0  0  0
  -25.9103  -32.4786   23.8374 C   0  0  1  0  0  0
  -27.2312  -27.3498   20.1069 C   0  0  0  0  0  0
  -25.5930  -33.8588   24.2300 N   0  0  0  0  0  0
  -23.4162  -30.4864   21.5476 C   0  0  2  0  0  0
  -24.8635  -28.9474   20.1116 C   0  0  0  0  0  0
  -22.7456  -29.4632   22.4944 C   0  0  0  0  0  0
  -18.0282  -28.1383   22.8490 C   0  0  0  0  0  0
  -24.1491  -36.7294   23.2640 C   0  0  0  0  0  0
  -25.9558  -30.8008   21.3749 C   0  0  0  0  0  0
  -26.0308  -29.4319   20.7148 C   0  0  0  0  0  0
  -27.2165  -28.6439   20.7047 C   0  0  0  0  0  0
  -26.0390  -26.9125   19.4806 C   0  0  0  0  0  0
  -24.8678  -27.6914   19.4877 C   0  0  0  0  0  0
  -23.6295  -29.8228   20.1621 C   0  0  0  0  0  0
  -25.4114  -36.3088   24.0332 C   0  0  1  0  0  0
  -20.5880  -28.3685   23.1290 C   0  0  2  0  0  0
  -20.6772  -26.9413   22.5410 C   0  0  0  0  0  0
  -19.5747  -26.6385   21.5211 C   0  0  0  0  0  0
  -18.1926  -26.7928   22.1624 C   0  0  0  0  0  0
  -19.1535  -28.8851   23.2886 C   0  0  0  0  0  0
  -18.9457  -30.1455   23.8899 C   0  0  0  0  0  0
  -17.6458  -30.6587   24.0566 C   0  0  0  0  0  0
  -25.9049  -34.9454   23.5112 C   0  0  0  0  0  0
  -16.5349  -29.9085   23.6337 C   0  0  0  0  0  0
  -16.7269  -28.6502   23.0357 C   0  0  0  0  0  0
  -26.4502  -31.6585   25.0729 C   0  0  0  0  0  0
  -25.3748  -31.3697   26.1458 C   0  0  0  0  0  0
  -27.0346  -30.3011   24.6174 C   0  0  0  0  0  0
  -27.6052  -32.4323   25.7509 C   0  0  0  0  0  0
  -27.5582  -37.1806   24.8463 C   0  0  0  0  0  0
  -21.4172  -29.3041   22.3684 N   0  0  0  0  0  0
  -26.4293  -37.3782   23.9408 N   0  0  0  0  0  0
  -24.6837  -31.0653   22.0997 N   0  0  0  0  0  0
  -23.4188  -28.8168   23.3017 O   0  0  0  0  0  0
  -28.3651  -26.5279   20.1561 O   0  0  0  0  0  0
  -26.5606  -34.8918   22.4673 O   0  0  0  0  0  0
  -23.5412  -32.1397   23.7408 O   0  0  0  0  0  0
  -29.2739  -19.3397   19.7443 C   0  0  0  0  0  0
  -30.7733  -18.1399   21.7801 C   0  0  0  0  0  0
  -29.3226  -17.9142   19.8622 C   0  0  0  0  0  0
  -30.0485  -17.2808   20.9155 C   0  0  0  0  0  0
  -29.9455  -20.1911   20.6631 C   0  0  0  0  0  0
  -30.7254  -19.5535   21.6563 C   0  0  0  0  0  0
  -29.1093  -22.5620   20.0630 C   0  0  0  0  0  0
  -28.5338  -17.0819   18.8674 C   0  0  0  0  0  0
  -29.8628  -15.7695   21.3035 C   0  0  0  0  0  0
  -29.3348  -24.0914   20.3625 C   0  0  0  0  0  0
  -28.1791  -25.0832   19.9384 C   0  0  0  0  0  0
  -29.9163  -21.6480   20.6743 N   0  0  0  0  0  0
  -28.2184  -22.2287   19.2790 O   0  0  0  0  0  0
  -31.4113  -20.3189   22.5407 F   0  0  0  0  0  0
  -31.4845  -12.5295   19.1207 H   0  0  0  0  0  0
  -30.3940  -11.3782   19.8391 H   0  0  0  0  0  0
  -29.7642  -11.8017   17.4441 H   0  0  0  0  0  0
  -29.6478  -13.5152   17.7597 H   0  0  0  0  0  0
  -27.8492  -11.3117   18.8221 H   0  0  0  0  0  0
  -27.3761  -12.6338   17.7895 H   0  0  0  0  0  0
  -27.6933  -14.2527   19.5688 H   0  0  0  0  0  0
  -28.7204  -11.9622   21.3109 H   0  0  0  0  0  0
  -28.4593  -13.5688   21.8903 H   0  0  0  0  0  0
  -25.2773   -9.5660   22.4745 H   0  0  0  0  0  0
  -24.0000   -7.4634   22.7483 H   0  0  0  0  0  0
  -21.0853   -8.8777   19.8945 H   0  0  0  0  0  0
  -22.3728  -10.9663   19.6160 H   0  0  0  0  0  0
  -21.2002   -7.6155   23.9721 H   0  0  0  0  0  0
  -21.1486   -6.0529   25.9083 H   0  0  0  0  0  0
  -22.0598   -2.7614   23.2853 H   0  0  0  0  0  0
  -22.4123  -11.9851   22.4766 H   0  0  0  0  0  0
  -21.1126  -13.1229   22.2603 H   0  0  0  0  0  0
  -24.6626  -15.8402   20.5331 H   0  0  0  0  0  0
  -26.2903  -15.6306   20.1308 H   0  0  0  0  0  0
  -26.7166  -32.5468   23.1120 H   0  0  0  0  0  0
  -25.0085  -33.9736   25.0452 H   0  0  0  0  0  0
  -22.7091  -31.3068   21.4066 H   0  0  0  0  0  0
  -23.3758  -35.9621   23.3291 H   0  0  0  0  0  0
  -24.3582  -36.8926   22.2056 H   0  0  0  0  0  0
  -23.7238  -37.6490   23.6670 H   0  0  0  0  0  0
  -26.0882  -31.5679   20.6108 H   0  0  0  0  0  0
  -26.8358  -30.8449   22.0050 H   0  0  0  0  0  0
  -28.1124  -29.0116   21.1856 H   0  0  0  0  0  0
  -25.9821  -25.9560   18.9835 H   0  0  0  0  0  0
  -23.9735  -27.3146   19.0103 H   0  0  0  0  0  0
  -23.7468  -30.5999   19.4061 H   0  0  0  0  0  0
  -22.7507  -29.2497   19.8605 H   0  0  0  0  0  0
  -25.1299  -36.1937   25.0825 H   0  0  0  0  0  0
  -20.9979  -28.3260   24.1409 H   0  0  0  0  0  0
  -20.5683  -26.2291   23.3602 H   0  0  0  0  0  0
  -21.6639  -26.7447   22.1203 H   0  0  0  0  0  0
  -19.6909  -25.6298   21.1237 H   0  0  0  0  0  0
  -19.6686  -27.3200   20.6744 H   0  0  0  0  0  0
  -17.4198  -26.6683   21.4022 H   0  0  0  0  0  0
  -18.0321  -26.0065   22.9016 H   0  0  0  0  0  0
  -19.7929  -30.7273   24.2269 H   0  0  0  0  0  0
  -17.5009  -31.6270   24.5164 H   0  0  0  0  0  0
  -15.5349  -30.2987   23.7661 H   0  0  0  0  0  0
  -15.8666  -28.0822   22.7073 H   0  0  0  0  0  0
  -24.5923  -30.7051   25.7778 H   0  0  0  0  0  0
  -24.8945  -32.2853   26.4915 H   0  0  0  0  0  0
  -25.8086  -30.8846   27.0210 H   0  0  0  0  0  0
  -26.2913  -29.6753   24.1217 H   0  0  0  0  0  0
  -27.4064  -29.7272   25.4673 H   0  0  0  0  0  0
  -27.8778  -30.4294   23.9381 H   0  0  0  0  0  0
  -27.2653  -33.3624   26.2077 H   0  0  0  0  0  0
  -28.3875  -32.6879   25.0350 H   0  0  0  0  0  0
  -28.0705  -31.8454   26.5439 H   0  0  0  0  0  0
  -28.2589  -38.0118   24.7530 H   0  0  0  0  0  0
  -28.1093  -36.2645   24.6271 H   0  0  0  0  0  0
  -27.2297  -37.1435   25.8867 H   0  0  0  0  0  0
  -20.9340  -29.8752   21.6889 H   0  0  0  0  0  0
  -26.0171  -38.2854   24.1417 H   0  0  0  0  0  0
  -28.6876  -19.7749   18.9480 H   0  0  0  0  0  0
  -31.3320  -17.7210   22.6044 H   0  0  0  0  0  0
  -28.3177  -17.6490   17.9610 H   0  0  0  0  0  0
  -27.5843  -16.7701   19.2992 H   0  0  0  0  0  0
  -29.0887  -16.1926   18.5679 H   0  0  0  0  0  0
  -28.7907  -15.6035   21.2264 H   0  0  0  0  0  0
  -30.0838  -15.6634   22.3659 H   0  0  0  0  0  0
  -30.2556  -24.3900   19.8619 H   0  0  0  0  0  0
  -29.5187  -24.2033   21.4313 H   0  0  0  0  0  0
  -27.2831  -24.7642   20.4742 H   0  0  0  0  0  0
  -27.9805  -24.9328   18.8766 H   0  0  0  0  0  0
  -30.5849  -22.0487   21.3193 H   0  0  0  0  0  0
  1 25  1  0  0  0
  1 30  2  0  0  0
  1 79  1  0  0  0
  2  3  1  0  0  0
  2 25  1  0  0  0
  2 85  1  0  0  0
  2 86  1  0  0  0
  3  4  1  0  0  0
  3 87  1  0  0  0
  3 88  1  0  0  0
  4  5  1  0  0  0
  4 89  1  0  0  0
  4 90  1  0  0  0
  5  6  1  0  0  0
  5 26  1  0  0  0
  5 91  1  0  0  0
  6 25  1  0  0  0
  6 92  1  0  0  0
  6 93  1  0  0  0
  7  8  2  0  0  0
  7 26  1  0  0  0
  7 29  1  0  0  0
  8  9  1  0  0  0
  8 22  1  0  0  0
  9 10  1  0  0  0
  9 27  2  0  0  0
 10 11  2  0  0  0
 10 15  1  0  0  0
 11 12  1  0  0  0
 11 94  1  0  0  0
 12 13  2  0  0  0
 12 95  1  0  0  0
 13 14  1  0  0  0
 13 31  1  0  0  0
 14 15  2  0  0  0
 14 96  1  0  0  0
 15 97  1  0  0  0
 16 17  2  0  0  0
 16 21  1  0  0  0
 16 31  1  0  0  0
 17 18  1  0  0  0
 17 98  1  0  0  0
 18 19  2  0  0  0
 18 99  1  0  0  0
 19 20  1  0  0  0
 19 24  1  0  0  0
 20 21  2  0  0  0
 20100  1  0  0  0
 21 23  1  0  0  0
 22 28  1  0  0  0
 22 32  2  0  0  0
 26 27  1  0  0  0
 28101  1  0  0  0
 28102  1  0  0  0
 29103  1  0  0  0
 29104  1  0  0  0
 33 34  1  0  0  0
 33 66  1  0  0  0
 33 70  2  0  0  0
 34 36  1  0  0  0
 34 59  1  0  0  0
 34105  1  0  0  0
 35 44  2  0  0  0
 35 45  1  0  0  0
 35 68  1  0  0  0
 36 56  1  0  0  0
 36106  1  0  0  0
 37 39  1  0  0  0
 37 47  1  0  0  0
 37 66  1  0  0  0
 37107  1  0  0  0
 38 43  2  0  0  0
 38 46  1  0  0  0
 38 47  1  0  0  0
 39 64  1  0  0  0
 39 67  2  0  0  0
 40 52  1  0  0  0
 40 53  2  0  0  0
 40 58  1  0  0  0
 41108  1  0  0  0
 41109  1  0  0  0
 41110  1  0  0  0
 41 48  1  0  0  0
 42 43  1  0  0  0
 42 66  1  0  0  0
 42111  1  0  0  0
 42112  1  0  0  0
 43 44  1  0  0  0
 44113  1  0  0  0
 45 46  2  0  0  0
 45114  1  0  0  0
 46115  1  0  0  0
 47116  1  0  0  0
 47117  1  0  0  0
 48 56  1  0  0  0
 48 65  1  0  0  0
 48118  1  0  0  0
 49 50  1  0  0  0
 49 53  1  0  0  0
 49 64  1  0  0  0
 49119  1  0  0  0
 50 51  1  0  0  0
 50120  1  0  0  0
 50121  1  0  0  0
 51 52  1  0  0  0
 51122  1  0  0  0
 51123  1  0  0  0
 52124  1  0  0  0
 52125  1  0  0  0
 53 54  1  0  0  0
 54 55  2  0  0  0
 54126  1  0  0  0
 55 57  1  0  0  0
 55127  1  0  0  0
 56 69  2  0  0  0
 57 58  2  0  0  0
 57128  1  0  0  0
 58129  1  0  0  0
 59 60  1  0  0  0
 59 61  1  0  0  0
 59 62  1  0  0  0
 60130  1  0  0  0
 60131  1  0  0  0
 60132  1  0  0  0
 61133  1  0  0  0
 61134  1  0  0  0
 61135  1  0  0  0
 62136  1  0  0  0
 62137  1  0  0  0
 62138  1  0  0  0
 63 65  1  0  0  0
 63139  1  0  0  0
 63140  1  0  0  0
 63141  1  0  0  0
 64142  1  0  0  0
 65143  1  0  0  0
 68 81  1  0  0  0
 71 73  2  0  0  0
 71 75  1  0  0  0
 71144  1  0  0  0
 72 74  2  0  0  0
 72 76  1  0  0  0
 72145  1  0  0  0
 73 74  1  0  0  0
 73 78  1  0  0  0
 74 79  1  0  0  0
 75 76  2  0  0  0
 75 82  1  0  0  0
 76 84  1  0  0  0
 77 80  1  0  0  0
 77 82  1  0  0  0
 77 83  2  0  0  0
 78146  1  0  0  0
 78147  1  0  0  0
 78148  1  0  0  0
 79149  1  0  0  0
 79150  1  0  0  0
 80 81  1  0  0  0
 80151  1  0  0  0
 80152  1  0  0  0
 81153  1  0  0  0
 81154  1  0  0  0
 82155  1  0  0  0
M  ISO  4   1 100  68 101  79 100  81 101
M  END
> <chiral flag>
0

> <version>
0

> <s_m_source_file>
/data/baiqing/PycharmProjects/Reinvent-master-3.2/result/LINK_invent/BTK/process_docking_weight1_custom_product_contain_oxygen_bond_distance_aromatic_linkinvent_7_9_3/rearranged_h_0102.sdf

> <i_m_source_file_index>
61

> <r_mmod_Potential_Energy-OPLS-2005>
-0.399435967206955

> <r_mmod_Stretch_Energy-OPLS-2005>
69.1261672973633

> <r_mmod_Bend_Energy-OPLS-2005>
135.950607299805

> <r_mmod_Torsional_Energy-OPLS-2005>
181.48957824707

> <r_mmod_Improper_Torsional_Energy-OPLS-2005>
3.68873882293701

> <r_mmod_Van_der_Waal_Energy-OPLS-2005>
143.924896240234

> <r_mmod_Electrostatic_Energy-OPLS-2005>
-356.303680419922

> <r_mmod_Solvation_Energy-OPLS-2005>
-213.062225341797

> <b_mmod_Minimization_Converged-OPLS-2005>
0

> <r_mmod_RMS_Derivative-OPLS-2005>
1.09502303600311

$$$$
62
                    3D
 Structure written by MMmdl.
167175  0  0  1  0            999 V2000
  -29.2073  -16.3066   20.2753 C   0  0  0  0  0  0
  -30.1572  -13.7046   19.5107 C   0  0  0  0  0  0
  -29.4913  -12.8238   18.3793 C   0  0  0  0  0  0
  -28.1515  -12.2420   18.8610 C   0  0  0  0  0  0
  -27.4652  -13.2770   19.7676 C   0  0  2  0  0  0
  -28.3429  -13.8199   20.8907 C   0  0  0  0  0  0
  -25.1790  -13.8068   20.5694 C   0  0  0  0  0  0
  -24.1297  -13.0251   20.9377 C   0  0  0  0  0  0
  -24.6022  -11.6753   20.8851 C   0  0  0  0  0  0
  -23.8846  -10.4169   21.0493 C   0  0  0  0  0  0
  -24.3500   -9.4125   21.9234 C   0  0  0  0  0  0
  -23.6219   -8.2144   22.0779 C   0  0  0  0  0  0
  -22.4222   -8.0188   21.3544 C   0  0  0  0  0  0
  -21.9810   -9.0143   20.4657 C   0  0  0  0  0  0
  -22.7083  -10.2024   20.3083 C   0  0  0  0  0  0
  -21.6821   -6.0699   22.5286 C   0  0  0  0  0  0
  -21.3981   -6.5615   23.8218 C   0  0  0  0  0  0
  -21.3655   -5.6773   24.9191 C   0  0  0  0  0  0
  -21.6036   -4.3037   24.7235 C   0  0  0  0  0  0
  -21.8831   -3.8122   23.4367 C   0  0  0  0  0  0
  -21.9178   -4.6934   22.3415 C   0  0  0  0  0  0
  -22.7396  -13.5078   21.2029 C   0  0  0  0  0  0
  -22.1662   -4.2121   21.0995 F   0  0  0  0  0  0
  -21.5634   -3.4535   25.7757 F   0  0  0  0  0  0
  -29.1746  -14.7793   20.1642 N   0  0  0  0  0  0
  -26.1937  -12.9196   20.2853 N   0  0  0  0  0  0
  -25.8857  -11.6379   20.5571 N   0  0  0  0  0  0
  -22.0077  -12.8080   22.0604 N   0  0  0  0  0  0
  -25.3456  -15.1834   20.4131 N   0  0  0  0  0  0
  -30.4850  -16.3591   20.2160 O   0  0  0  0  0  0
  -21.6586   -6.8799   21.4242 O   0  0  0  0  0  0
  -22.3164  -14.5431   20.6857 O   0  0  0  0  0  0
  -24.7790  -31.8174   22.9179 C   0  0  0  0  0  0
  -26.0045  -32.4823   23.6977 C   0  0  1  0  0  0
  -26.7266  -27.8225   21.2303 C   0  0  0  0  0  0
  -25.5659  -33.8355   24.1085 N   0  0  0  0  0  0
  -24.0052  -29.5751   21.3283 C   0  0  2  0  0  0
  -25.2271  -29.0834   19.5952 C   0  0  0  0  0  0
  -23.5635  -27.7684   22.0811 C   0  0  0  0  0  0
  -18.1766  -28.0389   22.8398 C   0  0  0  0  0  0
  -24.1465  -36.7449   23.2680 C   0  0  0  0  0  0
  -26.1115  -30.9806   21.0460 C   0  0  0  0  0  0
  -26.3151  -29.7232   20.2331 C   0  0  0  0  0  0
  -27.3341  -28.9212   20.6705 C   0  0  0  0  0  0
  -26.0960  -27.0138   20.2201 C   0  0  0  0  0  0
  -25.2511  -27.6973   19.3685 C   0  0  0  0  0  0
  -23.9352  -29.6669   19.8369 C   0  0  0  0  0  0
  -25.4082  -36.3085   24.0282 C   0  0  1  0  0  0
  -20.7881  -27.5428   23.3638 C   0  0  2  0  0  0
  -20.3744  -26.1725   22.8671 C   0  0  0  0  0  0
  -19.3227  -26.0640   21.7733 C   0  0  0  0  0  0
  -18.0293  -26.6454   22.2446 C   0  0  0  0  0  0
  -19.4401  -28.5557   23.3167 C   0  0  0  0  0  0
  -19.3044  -29.8337   23.9362 C   0  0  0  0  0  0
  -18.0438  -30.5040   24.1082 C   0  0  0  0  0  0
  -25.9119  -34.9495   23.4688 C   0  0  0  0  0  0
  -16.8583  -29.9534   23.6073 C   0  0  0  0  0  0
  -16.9395  -28.7135   22.9692 C   0  0  0  0  0  0
  -26.5675  -31.7321   24.9867 C   0  0  0  0  0  0
  -25.4473  -31.3593   26.0218 C   0  0  0  0  0  0
  -27.4777  -30.5422   24.5402 C   0  0  0  0  0  0
  -27.5923  -32.5888   25.7401 C   0  0  0  0  0  0
  -27.5531  -37.1747   24.8457 C   0  0  0  0  0  0
  -22.3396  -27.3243   22.8652 N   0  0  0  0  0  0
  -26.4179  -37.3782   23.9551 N   0  0  0  0  0  0
  -24.9141  -30.8362   21.8547 N   0  0  0  0  0  0
  -24.2440  -26.9304   22.5044 O   0  0  0  0  0  0
  -26.2495  -28.1887   22.6049 O   0  0  0  0  0  0
  -26.5908  -34.9246   22.4455 O   0  0  0  0  0  0
  -23.6725  -32.2253   23.3408 O   0  0  0  0  0  0
  -26.0545  -22.0090   21.0353 C   0  0  0  0  0  0
  -26.9894  -20.6789   20.9879 C   0  0  0  0  0  0
  -25.6968  -19.8822   19.5996 C   0  0  0  0  0  0
  -24.7497  -22.5816   20.3689 C   0  0  0  0  0  0
  -27.0115  -19.2752   20.2594 C   0  0  0  0  0  0
  -24.7327  -21.1963   19.6034 C   0  0  0  0  0  0
  -21.7059  -27.4040   20.2703 C   0  0  0  0  0  0
  -28.3002  -17.7550   18.5294 C   0  0  0  0  0  0
  -21.9529  -25.5571   18.7461 C   0  0  0  0  0  0
  -22.5569  -21.8527   18.7769 C   0  0  0  0  0  0
  -23.6553  -24.3761   20.5933 C   0  0  0  0  0  0
  -21.5666  -29.0816   21.4584 C   0  0  0  0  0  0
  -22.7656  -29.6443   23.3974 C   0  0  0  0  0  0
  -24.8741  -29.0684   23.6802 C   0  0  0  0  0  0
  -28.0696  -17.6118   19.9771 N   0  0  0  0  0  0
  -22.4922  -25.8941   20.0828 N   0  0  0  0  0  0
  -20.9335  -27.7781   19.3625 O   0  0  0  0  0  0
  -23.6746  -20.9550   18.7352 O   0  0  0  0  0  0
  -31.0009  -14.2161   19.0349 H   0  0  0  0  0  0
  -30.6313  -13.0504   20.2588 H   0  0  0  0  0  0
  -30.1569  -12.0240   18.0464 H   0  0  0  0  0  0
  -29.2990  -13.4464   17.5020 H   0  0  0  0  0  0
  -28.3564  -11.3365   19.4376 H   0  0  0  0  0  0
  -27.5172  -11.9371   18.0223 H   0  0  0  0  0  0
  -27.2381  -14.0845   19.0643 H   0  0  0  0  0  0
  -28.8631  -13.0347   21.4576 H   0  0  0  0  0  0
  -27.7588  -14.3861   21.6180 H   0  0  0  0  0  0
  -25.2650   -9.5642   22.4810 H   0  0  0  0  0  0
  -23.9952   -7.4536   22.7474 H   0  0  0  0  0  0
  -21.0747   -8.8625   19.8946 H   0  0  0  0  0  0
  -22.3544  -10.9574   19.6201 H   0  0  0  0  0  0
  -21.1965   -7.6124   23.9710 H   0  0  0  0  0  0
  -21.1467   -6.0515   25.9087 H   0  0  0  0  0  0
  -22.0614   -2.7589   23.2872 H   0  0  0  0  0  0
  -22.3719  -11.9762   22.4962 H   0  0  0  0  0  0
  -21.0719  -13.1119   22.2819 H   0  0  0  0  0  0
  -24.5602  -15.8164   20.5311 H   0  0  0  0  0  0
  -26.1565  -15.6320   20.0142 H   0  0  0  0  0  0
  -26.8498  -32.5902   23.0197 H   0  0  0  0  0  0
  -24.9190  -33.9011   24.8795 H   0  0  0  0  0  0
  -23.3273  -30.4126   21.4805 H   0  0  0  0  0  0
  -23.3654  -35.9860   23.3221 H   0  0  0  0  0  0
  -24.3538  -36.9302   22.2140 H   0  0  0  0  0  0
  -23.7193  -37.6573   23.6813 H   0  0  0  0  0  0
  -25.9246  -31.8112   20.3810 H   0  0  0  0  0  0
  -27.0496  -31.1868   21.5609 H   0  0  0  0  0  0
  -28.1245  -29.3780   21.2520 H   0  0  0  0  0  0
  -26.0666  -25.9639   20.2625 H   0  0  0  0  0  0
  -24.5274  -27.1555   18.7991 H   0  0  0  0  0  0
  -23.8311  -30.7060   19.5172 H   0  0  0  0  0  0
  -23.1748  -29.0728   19.3394 H   0  0  0  0  0  0
  -25.1269  -36.1690   25.0697 H   0  0  0  0  0  0
  -20.8961  -27.4411   24.4468 H   0  0  0  0  0  0
  -19.9722  -25.6630   23.7468 H   0  0  0  0  0  0
  -21.1656  -25.4643   22.6008 H   0  0  0  0  0  0
  -19.1924  -24.9864   21.5753 H   0  0  0  0  0  0
  -19.4915  -26.4860   20.8010 H   0  0  0  0  0  0
  -17.3279  -26.6636   21.4103 H   0  0  0  0  0  0
  -17.5875  -25.9713   22.9869 H   0  0  0  0  0  0
  -20.1713  -30.2520   24.4633 H   0  0  0  0  0  0
  -17.9615  -31.3497   24.7607 H   0  0  0  0  0  0
  -15.9147  -30.4810   23.6633 H   0  0  0  0  0  0
  -16.0638  -28.2957   22.5441 H   0  0  0  0  0  0
  -24.4389  -31.3139   25.6132 H   0  0  0  0  0  0
  -25.3727  -32.1121   26.7976 H   0  0  0  0  0  0
  -25.6254  -30.4153   26.5367 H   0  0  0  0  0  0
  -27.2730  -30.1657   23.5353 H   0  0  0  0  0  0
  -27.4881  -29.6955   25.2192 H   0  0  0  0  0  0
  -28.5423  -30.8368   24.5038 H   0  0  0  0  0  0
  -27.2168  -33.5210   26.1466 H   0  0  0  0  0  0
  -28.4385  -32.8925   25.1176 H   0  0  0  0  0  0
  -28.0103  -32.0377   26.5767 H   0  0  0  0  0  0
  -28.2479  -38.0091   24.7596 H   0  0  0  0  0  0
  -28.1060  -36.2655   24.6086 H   0  0  0  0  0  0
  -27.2370  -37.1203   25.8863 H   0  0  0  0  0  0
  -22.5681  -26.4170   23.2084 H   0  0  0  0  0  0
  -26.0110  -38.2858   24.1531 H   0  0  0  0  0  0
  -26.4365  -22.7502   21.7486 H   0  0  0  0  0  0
  -27.8349  -20.8195   21.6349 H   0  0  0  0  0  0
  -25.2978  -19.2113   18.8547 H   0  0  0  0  0  0
  -27.4113  -18.1086   18.0065 H   0  0  0  0  0  0
  -29.0747  -18.5003   18.3358 H   0  0  0  0  0  0
  -28.6041  -16.8521   18.0094 H   0  0  0  0  0  0
  -22.1264  -26.4022   18.0336 H   0  0  0  0  0  0
  -20.8516  -25.4111   18.7819 H   0  0  0  0  0  0
  -22.4170  -24.7262   18.2248 H   0  0  0  0  0  0
  -21.7854  -21.4484   18.1494 H   0  0  0  0  0  0
  -22.8182  -22.8115   18.3548 H   0  0  0  0  0  0
  -22.1492  -22.0057   19.7748 H   0  0  0  0  0  0
  -23.9970  -24.5164   19.5794 H   0  0  0  0  0  0
  -22.7002  -23.8542   20.7040 H   0  0  0  0  0  0
  -20.5287  -29.3987   21.4622 H   0  0  0  0  0  0
  -21.7636  -29.8222   20.7092 H   0  0  0  0  0  0
  -22.4401  -29.1346   24.3047 H   0  0  0  0  0  0
  -22.4301  -30.5271   23.9129 H   0  0  0  0  0  0
  -24.7697  -28.2325   24.3627 H   0  0  0  0  0  0
  -25.2215  -29.6843   24.4929 H   0  0  0  0  0  0
  1 25  1  0  0  0
  1 30  2  0  0  0
  1 85  1  0  0  0
  2  3  1  0  0  0
  2 25  1  0  0  0
  2 89  1  0  0  0
  2 90  1  0  0  0
  3  4  1  0  0  0
  3 91  1  0  0  0
  3 92  1  0  0  0
  4  5  1  0  0  0
  4 93  1  0  0  0
  4 94  1  0  0  0
  5  6  1  0  0  0
  5 26  1  0  0  0
  5 95  1  0  0  0
  6 25  1  0  0  0
  6 96  1  0  0  0
  6 97  1  0  0  0
  7  8  2  0  0  0
  7 26  1  0  0  0
  7 29  1  0  0  0
  8  9  1  0  0  0
  8 22  1  0  0  0
  9 10  1  0  0  0
  9 27  2  0  0  0
 10 11  2  0  0  0
 10 15  1  0  0  0
 11 12  1  0  0  0
 11 98  1  0  0  0
 12 13  2  0  0  0
 12 99  1  0  0  0
 13 14  1  0  0  0
 13 31  1  0  0  0
 14 15  2  0  0  0
 14100  1  0  0  0
 15101  1  0  0  0
 16 17  2  0  0  0
 16 21  1  0  0  0
 16 31  1  0  0  0
 17 18  1  0  0  0
 17102  1  0  0  0
 18 19  2  0  0  0
 18103  1  0  0  0
 19 20  1  0  0  0
 19 24  1  0  0  0
 20 21  2  0  0  0
 20104  1  0  0  0
 21 23  1  0  0  0
 22 28  1  0  0  0
 22 32  2  0  0  0
 26 27  1  0  0  0
 28105  1  0  0  0
 28106  1  0  0  0
 29107  1  0  0  0
 29108  1  0  0  0
 33 34  1  0  0  0
 33 66  1  0  0  0
 33 70  2  0  0  0
 34 36  1  0  0  0
 34 59  1  0  0  0
 34109  1  0  0  0
 35 44  2  0  0  0
 35 45  1  0  0  0
 35 68  1  0  0  0
 36 56  1  0  0  0
 36110  1  0  0  0
 37 39  1  0  0  0
 37 47  1  0  0  0
 37 66  1  0  0  0
 37111  1  0  0  0
 38 43  2  0  0  0
 38 46  1  0  0  0
 38 47  1  0  0  0
 39 64  1  0  0  0
 39 67  2  0  0  0
 40 52  1  0  0  0
 40 53  2  0  0  0
 40 58  1  0  0  0
 41112  1  0  0  0
 41113  1  0  0  0
 41114  1  0  0  0
 41 48  1  0  0  0
 42 43  1  0  0  0
 42 66  1  0  0  0
 42115  1  0  0  0
 42116  1  0  0  0
 43 44  1  0  0  0
 44117  1  0  0  0
 45 46  2  0  0  0
 45118  1  0  0  0
 46119  1  0  0  0
 47120  1  0  0  0
 47121  1  0  0  0
 48 56  1  0  0  0
 48 65  1  0  0  0
 48122  1  0  0  0
 49 50  1  0  0  0
 49 53  1  0  0  0
 49 64  1  0  0  0
 49123  1  0  0  0
 50 51  1  0  0  0
 50124  1  0  0  0
 50125  1  0  0  0
 51 52  1  0  0  0
 51126  1  0  0  0
 51127  1  0  0  0
 52128  1  0  0  0
 52129  1  0  0  0
 53 54  1  0  0  0
 54 55  2  0  0  0
 54130  1  0  0  0
 55 57  1  0  0  0
 55131  1  0  0  0
 56 69  2  0  0  0
 57 58  2  0  0  0
 57132  1  0  0  0
 58133  1  0  0  0
 59 60  1  0  0  0
 59 61  1  0  0  0
 59 62  1  0  0  0
 60134  1  0  0  0
 60135  1  0  0  0
 60136  1  0  0  0
 61137  1  0  0  0
 61138  1  0  0  0
 61139  1  0  0  0
 62140  1  0  0  0
 62141  1  0  0  0
 62142  1  0  0  0
 63 65  1  0  0  0
 63143  1  0  0  0
 63144  1  0  0  0
 63145  1  0  0  0
 64146  1  0  0  0
 65147  1  0  0  0
 68 84  1  0  0  0
 71 72  2  0  0  0
 71 74  1  0  0  0
 71148  1  0  0  0
 72 75  1  0  0  0
 72149  1  0  0  0
 73 75  2  0  0  0
 73 76  1  0  0  0
 73150  1  0  0  0
 74 76  2  0  0  0
 74 81  1  0  0  0
 75 85  1  0  0  0
 76 88  1  0  0  0
 77 82  1  0  0  0
 77 86  1  0  0  0
 77 87  2  0  0  0
 78 85  1  0  0  0
 78151  1  0  0  0
 78152  1  0  0  0
 78153  1  0  0  0
 79 86  1  0  0  0
 79154  1  0  0  0
 79155  1  0  0  0
 79156  1  0  0  0
 80 88  1  0  0  0
 80157  1  0  0  0
 80158  1  0  0  0
 80159  1  0  0  0
 81 86  1  0  0  0
 81160  1  0  0  0
 81161  1  0  0  0
 82 83  1  0  0  0
 82162  1  0  0  0
 82163  1  0  0  0
 83 84  1  0  0  0
 83164  1  0  0  0
 83165  1  0  0  0
 84166  1  0  0  0
 84167  1  0  0  0
M  ISO  4   1 100  68 101  84 101  85 100
M  END
> <chiral flag>
0

> <version>
0

> <s_m_source_file>
/data/baiqing/PycharmProjects/Reinvent-master-3.2/result/LINK_invent/BTK/process_docking_weight1_custom_product_contain_oxygen_bond_distance_aromatic_linkinvent_7_9_3/rearranged_h_0102.sdf

> <i_m_source_file_index>
62

> <r_mmod_Potential_Energy-OPLS-2005>
15147.26953125

> <r_mmod_Stretch_Energy-OPLS-2005>
5356.1083984375

> <r_mmod_Bend_Energy-OPLS-2005>
2522.99853515625

> <r_mmod_Torsional_Energy-OPLS-2005>
732.082580566406

> <r_mmod_Improper_Torsional_Energy-OPLS-2005>
80.2084732055664

> <r_mmod_Van_der_Waal_Energy-OPLS-2005>
1633.86767578125

> <r_mmod_Electrostatic_Energy-OPLS-2005>
-328.921661376953

> <r_mmod_Solvation_Energy-OPLS-2005>
-195.334426879883

> <b_mmod_Minimization_Converged-OPLS-2005>
0

> <r_mmod_RMS_Derivative-OPLS-2005>
58.6728668212891

$$$$
63
                    3D
 Structure written by MMmdl.
158167  0  0  1  0            999 V2000
  -30.6789  -14.4732   20.5973 C   0  0  0  0  0  0
  -30.4327  -12.3144   19.4214 C   0  0  0  0  0  0
  -29.4987  -12.4991   18.2058 C   0  0  0  0  0  0
  -28.0176  -12.3682   18.6146 C   0  0  0  0  0  0
  -27.6650  -13.2014   19.8767 C   0  0  2  0  0  0
  -28.7033  -12.9554   20.9944 C   0  0  0  0  0  0
  -25.2585  -13.8145   20.5666 C   0  0  0  0  0  0
  -24.1844  -13.0444   20.9188 C   0  0  0  0  0  0
  -24.6394  -11.6908   20.8774 C   0  0  0  0  0  0
  -23.9065  -10.4306   21.0438 C   0  0  0  0  0  0
  -24.3623   -9.4212   21.9187 C   0  0  0  0  0  0
  -23.6313   -8.2244   22.0739 C   0  0  0  0  0  0
  -22.4288   -8.0291   21.3552 C   0  0  0  0  0  0
  -21.9922   -9.0265   20.4647 C   0  0  0  0  0  0
  -22.7246  -10.2149   20.3070 C   0  0  0  0  0  0
  -21.6841   -6.0752   22.5295 C   0  0  0  0  0  0
  -21.4013   -6.5648   23.8234 C   0  0  0  0  0  0
  -21.3663   -5.6789   24.9187 C   0  0  0  0  0  0
  -21.6032   -4.3053   24.7226 C   0  0  0  0  0  0
  -21.8823   -3.8160   23.4347 C   0  0  0  0  0  0
  -21.9190   -4.6981   22.3411 C   0  0  0  0  0  0
  -22.7866  -13.5259   21.1840 C   0  0  0  0  0  0
  -22.1655   -4.2167   21.0987 F   0  0  0  0  0  0
  -21.5623   -3.4538   25.7739 F   0  0  0  0  0  0
  -30.0365  -13.2802   20.4584 N   0  0  0  0  0  0
  -26.3021  -12.9315   20.3357 N   0  0  0  0  0  0
  -25.9308  -11.6479   20.5792 N   0  0  0  0  0  0
  -22.0500  -12.8294   22.0416 N   0  0  0  0  0  0
  -25.4287  -15.1861   20.4047 N   0  0  0  0  0  0
  -31.7785  -14.6871   20.0813 O   0  0  0  0  0  0
  -21.6631   -6.8908   21.4265 O   0  0  0  0  0  0
  -22.3572  -14.5563   20.6650 O   0  0  0  0  0  0
  -24.6168  -31.8659   23.2068 C   0  0  0  0  0  0
  -25.9051  -32.4817   23.8373 C   0  0  1  0  0  0
  -27.2316  -27.4134   20.1201 C   0  0  0  0  0  0
  -25.5905  -33.8613   24.2306 N   0  0  0  0  0  0
  -23.4062  -30.4886   21.5441 C   0  0  2  0  0  0
  -24.8551  -28.9444   20.1173 C   0  0  0  0  0  0
  -22.7414  -29.4669   22.4961 C   0  0  0  0  0  0
  -18.0276  -28.1383   22.8494 C   0  0  0  0  0  0
  -24.1486  -36.7304   23.2642 C   0  0  0  0  0  0
  -25.9357  -30.8227   21.3645 C   0  0  0  0  0  0
  -26.0132  -29.4533   20.7197 C   0  0  0  0  0  0
  -27.2070  -28.6937   20.7213 C   0  0  0  0  0  0
  -26.0641  -26.9214   19.5062 C   0  0  0  0  0  0
  -24.8751  -27.6767   19.5068 C   0  0  0  0  0  0
  -23.6190  -29.8149   20.1610 C   0  0  0  0  0  0
  -25.4111  -36.3102   24.0342 C   0  0  1  0  0  0
  -20.5872  -28.3680   23.1314 C   0  0  2  0  0  0
  -20.6772  -26.9416   22.5421 C   0  0  0  0  0  0
  -19.5754  -26.6397   21.5211 C   0  0  0  0  0  0
  -18.1931  -26.7933   22.1619 C   0  0  0  0  0  0
  -19.1526  -28.8849   23.2903 C   0  0  0  0  0  0
  -18.9459  -30.1457   23.8916 C   0  0  0  0  0  0
  -17.6468  -30.6592   24.0574 C   0  0  0  0  0  0
  -25.9036  -34.9471   23.5113 C   0  0  0  0  0  0
  -16.5359  -29.9095   23.6335 C   0  0  0  0  0  0
  -16.7270  -28.6512   23.0352 C   0  0  0  0  0  0
  -26.4481  -31.6598   25.0707 C   0  0  0  0  0  0
  -25.3766  -31.3715   26.1471 C   0  0  0  0  0  0
  -27.0307  -30.3037   24.6083 C   0  0  0  0  0  0
  -27.6046  -32.4333   25.7487 C   0  0  0  0  0  0
  -27.5575  -37.1810   24.8467 C   0  0  0  0  0  0
  -21.4144  -29.3040   22.3708 N   0  0  0  0  0  0
  -26.4289  -37.3793   23.9413 N   0  0  0  0  0  0
  -24.6704  -31.0754   22.0965 N   0  0  0  0  0  0
  -23.4174  -28.8224   23.3025 O   0  0  0  0  0  0
  -28.3742  -26.6425   20.1039 O   0  0  0  0  0  0
  -26.5602  -34.8937   22.4674 O   0  0  0  0  0  0
  -23.5353  -32.1418   23.7448 O   0  0  0  0  0  0
  -28.6594  -18.8714   20.5575 C   0  0  0  0  0  0
  -28.7251  -17.4888   20.8628 C   0  0  0  0  0  0
  -31.0821  -18.9779   20.6062 C   0  0  0  0  0  0
  -29.8436  -19.6331   20.4054 C   0  0  0  0  0  0
  -29.9695  -16.8279   21.0137 C   0  0  0  0  0  0
  -31.1508  -17.6064   20.9355 C   0  0  0  0  0  0
  -29.8411  -21.0650   19.8997 C   0  0  0  0  0  0
  -28.0483  -23.3760   22.1871 C   0  0  0  0  0  0
  -28.2960  -21.9288   21.7194 C   0  0  0  0  0  0
  -29.1512  -23.4486   20.0711 C   0  0  0  0  0  0
  -28.1491  -24.2456   20.9278 C   0  0  2  0  0  0
  -28.5165  -25.7358   21.2141 C   0  0  0  0  0  0
  -29.1029  -22.0370   20.5038 N   0  0  0  0  0  0
  -29.9758  -15.4156   21.2635 N   0  0  0  0  0  0
  -30.5678  -21.3270   18.9373 O   0  0  0  0  0  0
  -32.3622  -17.0596   21.1901 F   0  0  0  0  0  0
  -31.4735  -12.4295   19.1170 H   0  0  0  0  0  0
  -30.3531  -11.2988   19.8111 H   0  0  0  0  0  0
  -29.7368  -11.7613   17.4380 H   0  0  0  0  0  0
  -29.6672  -13.4772   17.7547 H   0  0  0  0  0  0
  -27.8210  -11.3135   18.8053 H   0  0  0  0  0  0
  -27.3709  -12.6467   17.7819 H   0  0  0  0  0  0
  -27.7219  -14.2548   19.5970 H   0  0  0  0  0  0
  -28.6794  -11.9079   21.2966 H   0  0  0  0  0  0
  -28.4497  -13.5162   21.8962 H   0  0  0  0  0  0
  -25.2782   -9.5677   22.4740 H   0  0  0  0  0  0
  -24.0017   -7.4638   22.7448 H   0  0  0  0  0  0
  -21.0842   -8.8804   19.8977 H   0  0  0  0  0  0
  -22.3719  -10.9679   19.6175 H   0  0  0  0  0  0
  -21.2011   -7.6156   23.9758 H   0  0  0  0  0  0
  -21.1466   -6.0506   25.9090 H   0  0  0  0  0  0
  -22.0597   -2.7623   23.2841 H   0  0  0  0  0  0
  -22.4096  -11.9984   22.4862 H   0  0  0  0  0  0
  -21.1110  -13.1322   22.2591 H   0  0  0  0  0  0
  -24.6548  -15.8333   20.5063 H   0  0  0  0  0  0
  -26.2607  -15.6185   20.0262 H   0  0  0  0  0  0
  -26.7118  -32.5521   23.1131 H   0  0  0  0  0  0
  -25.0097  -33.9769   25.0477 H   0  0  0  0  0  0
  -22.6965  -31.3065   21.3990 H   0  0  0  0  0  0
  -23.3742  -35.9643   23.3332 H   0  0  0  0  0  0
  -24.3580  -36.8876   22.2048 H   0  0  0  0  0  0
  -23.7251  -37.6525   23.6633 H   0  0  0  0  0  0
  -26.0539  -31.5824   20.5906 H   0  0  0  0  0  0
  -26.8225  -30.8787   21.9840 H   0  0  0  0  0  0
  -28.1036  -29.0789   21.1873 H   0  0  0  0  0  0
  -26.0749  -25.9490   19.0349 H   0  0  0  0  0  0
  -23.9859  -27.2767   19.0389 H   0  0  0  0  0  0
  -23.7337  -30.5845   19.3982 H   0  0  0  0  0  0
  -22.7436  -29.2358   19.8626 H   0  0  0  0  0  0
  -25.1288  -36.1959   25.0838 H   0  0  0  0  0  0
  -20.9985  -28.3244   24.1418 H   0  0  0  0  0  0
  -20.5664  -26.2283   23.3609 H   0  0  0  0  0  0
  -21.6644  -26.7440   22.1217 H   0  0  0  0  0  0
  -19.6911  -25.6305   21.1228 H   0  0  0  0  0  0
  -19.6689  -27.3218   20.6757 H   0  0  0  0  0  0
  -17.4199  -26.6692   21.4016 H   0  0  0  0  0  0
  -18.0320  -26.0067   22.9009 H   0  0  0  0  0  0
  -19.7943  -30.7265   24.2274 H   0  0  0  0  0  0
  -17.5028  -31.6267   24.5171 H   0  0  0  0  0  0
  -15.5360  -30.3000   23.7660 H   0  0  0  0  0  0
  -15.8670  -28.0845   22.7045 H   0  0  0  0  0  0
  -24.5934  -30.7049   25.7828 H   0  0  0  0  0  0
  -24.8979  -32.2874   26.4940 H   0  0  0  0  0  0
  -25.8159  -30.8887   27.0204 H   0  0  0  0  0  0
  -26.2828  -29.6821   24.1133 H   0  0  0  0  0  0
  -27.4057  -29.7267   25.4541 H   0  0  0  0  0  0
  -27.8687  -30.4355   23.9238 H   0  0  0  0  0  0
  -27.2626  -33.3603   26.2114 H   0  0  0  0  0  0
  -28.3850  -32.6945   25.0321 H   0  0  0  0  0  0
  -28.0721  -31.8428   26.5373 H   0  0  0  0  0  0
  -28.2611  -38.0091   24.7506 H   0  0  0  0  0  0
  -28.1056  -36.2623   24.6300 H   0  0  0  0  0  0
  -27.2302  -37.1468   25.8875 H   0  0  0  0  0  0
  -20.9300  -29.8765   21.6937 H   0  0  0  0  0  0
  -26.0174  -38.2869   24.1402 H   0  0  0  0  0  0
  -27.6942  -19.3272   20.3800 H   0  0  0  0  0  0
  -27.8024  -16.9300   20.9455 H   0  0  0  0  0  0
  -32.0033  -19.5308   20.4937 H   0  0  0  0  0  0
  -28.8242  -23.6655   22.8988 H   0  0  0  0  0  0
  -27.0889  -23.4902   22.6929 H   0  0  0  0  0  0
  -27.3498  -21.4419   21.4777 H   0  0  0  0  0  0
  -28.7929  -21.3327   22.4887 H   0  0  0  0  0  0
  -30.1643  -23.8214   20.2266 H   0  0  0  0  0  0
  -28.9229  -23.5419   19.0074 H   0  0  0  0  0  0
  -27.1767  -24.2126   20.4358 H   0  0  0  0  0  0
  -29.5525  -25.7874   21.5504 H   0  0  0  0  0  0
  -27.9267  -26.0931   22.0609 H   0  0  0  0  0  0
  -29.1325  -15.0483   21.6741 H   0  0  0  0  0  0
  1 25  1  0  0  0
  1 30  2  0  0  0
  1 84  1  0  0  0
  2  3  1  0  0  0
  2 25  1  0  0  0
  2 87  1  0  0  0
  2 88  1  0  0  0
  3  4  1  0  0  0
  3 89  1  0  0  0
  3 90  1  0  0  0
  4  5  1  0  0  0
  4 91  1  0  0  0
  4 92  1  0  0  0
  5  6  1  0  0  0
  5 26  1  0  0  0
  5 93  1  0  0  0
  6 25  1  0  0  0
  6 94  1  0  0  0
  6 95  1  0  0  0
  7  8  2  0  0  0
  7 26  1  0  0  0
  7 29  1  0  0  0
  8  9  1  0  0  0
  8 22  1  0  0  0
  9 10  1  0  0  0
  9 27  2  0  0  0
 10 11  2  0  0  0
 10 15  1  0  0  0
 11 12  1  0  0  0
 11 96  1  0  0  0
 12 13  2  0  0  0
 12 97  1  0  0  0
 13 14  1  0  0  0
 13 31  1  0  0  0
 14 15  2  0  0  0
 14 98  1  0  0  0
 15 99  1  0  0  0
 16 17  2  0  0  0
 16 21  1  0  0  0
 16 31  1  0  0  0
 17 18  1  0  0  0
 17100  1  0  0  0
 18 19  2  0  0  0
 18101  1  0  0  0
 19 20  1  0  0  0
 19 24  1  0  0  0
 20 21  2  0  0  0
 20102  1  0  0  0
 21 23  1  0  0  0
 22 28  1  0  0  0
 22 32  2  0  0  0
 26 27  1  0  0  0
 28103  1  0  0  0
 28104  1  0  0  0
 29105  1  0  0  0
 29106  1  0  0  0
 33 34  1  0  0  0
 33 66  1  0  0  0
 33 70  2  0  0  0
 34 36  1  0  0  0
 34 59  1  0  0  0
 34107  1  0  0  0
 35 44  2  0  0  0
 35 45  1  0  0  0
 35 68  1  0  0  0
 36 56  1  0  0  0
 36108  1  0  0  0
 37 39  1  0  0  0
 37 47  1  0  0  0
 37 66  1  0  0  0
 37109  1  0  0  0
 38 43  2  0  0  0
 38 46  1  0  0  0
 38 47  1  0  0  0
 39 64  1  0  0  0
 39 67  2  0  0  0
 40 52  1  0  0  0
 40 53  2  0  0  0
 40 58  1  0  0  0
 41110  1  0  0  0
 41111  1  0  0  0
 41112  1  0  0  0
 41 48  1  0  0  0
 42 43  1  0  0  0
 42 66  1  0  0  0
 42113  1  0  0  0
 42114  1  0  0  0
 43 44  1  0  0  0
 44115  1  0  0  0
 45 46  2  0  0  0
 45116  1  0  0  0
 46117  1  0  0  0
 47118  1  0  0  0
 47119  1  0  0  0
 48 56  1  0  0  0
 48 65  1  0  0  0
 48120  1  0  0  0
 49 50  1  0  0  0
 49 53  1  0  0  0
 49 64  1  0  0  0
 49121  1  0  0  0
 50 51  1  0  0  0
 50122  1  0  0  0
 50123  1  0  0  0
 51 52  1  0  0  0
 51124  1  0  0  0
 51125  1  0  0  0
 52126  1  0  0  0
 52127  1  0  0  0
 53 54  1  0  0  0
 54 55  2  0  0  0
 54128  1  0  0  0
 55 57  1  0  0  0
 55129  1  0  0  0
 56 69  2  0  0  0
 57 58  2  0  0  0
 57130  1  0  0  0
 58131  1  0  0  0
 59 60  1  0  0  0
 59 61  1  0  0  0
 59 62  1  0  0  0
 60132  1  0  0  0
 60133  1  0  0  0
 60134  1  0  0  0
 61135  1  0  0  0
 61136  1  0  0  0
 61137  1  0  0  0
 62138  1  0  0  0
 62139  1  0  0  0
 62140  1  0  0  0
 63 65  1  0  0  0
 63141  1  0  0  0
 63142  1  0  0  0
 63143  1  0  0  0
 64144  1  0  0  0
 65145  1  0  0  0
 68 82  1  0  0  0
 71 72  2  0  0  0
 71 74  1  0  0  0
 71146  1  0  0  0
 72 75  1  0  0  0
 72147  1  0  0  0
 73 74  2  0  0  0
 73 76  1  0  0  0
 73148  1  0  0  0
 74 77  1  0  0  0
 75 76  2  0  0  0
 75 84  1  0  0  0
 76 86  1  0  0  0
 77 83  1  0  0  0
 77 85  2  0  0  0
 78 79  1  0  0  0
 78 81  1  0  0  0
 78149  1  0  0  0
 78150  1  0  0  0
 79 83  1  0  0  0
 79151  1  0  0  0
 79152  1  0  0  0
 80 81  1  0  0  0
 80 83  1  0  0  0
 80153  1  0  0  0
 80154  1  0  0  0
 81 82  1  0  0  0
 81155  1  0  0  0
 82156  1  0  0  0
 82157  1  0  0  0
 84158  1  0  0  0
M  ISO  4   1 100  68 101  82 101  84 100
M  END
> <chiral flag>
0

> <version>
0

> <s_m_source_file>
/data/baiqing/PycharmProjects/Reinvent-master-3.2/result/LINK_invent/BTK/process_docking_weight1_custom_product_contain_oxygen_bond_distance_aromatic_linkinvent_7_9_3/rearranged_h_0102.sdf

> <i_m_source_file_index>
63

> <r_mmod_Potential_Energy-OPLS-2005>
61.5994758605957

> <r_mmod_Stretch_Energy-OPLS-2005>
42.0884399414062

> <r_mmod_Bend_Energy-OPLS-2005>
121.888999938965

> <r_mmod_Torsional_Energy-OPLS-2005>
345.329681396484

> <r_mmod_Improper_Torsional_Energy-OPLS-2005>
5.24740695953369

> <r_mmod_Van_der_Waal_Energy-OPLS-2005>
143.141616821289

> <r_mmod_Electrostatic_Energy-OPLS-2005>
-371.111633300781

> <r_mmod_Solvation_Energy-OPLS-2005>
-238.52311706543

> <b_mmod_Minimization_Converged-OPLS-2005>
0

> <r_mmod_RMS_Derivative-OPLS-2005>
3.09271645545959

$$$$
64
                    3D
 Structure written by MMmdl.
164173  0  0  1  0            999 V2000
  -30.7333  -14.6041   20.7122 C   0  0  0  0  0  0
  -30.4437  -12.4596   19.4401 C   0  0  0  0  0  0
  -29.4907  -12.5704   18.2273 C   0  0  0  0  0  0
  -28.0377  -12.3465   18.6682 C   0  0  0  0  0  0
  -27.6637  -13.2231   19.8887 C   0  0  2  0  0  0
  -28.7080  -13.0818   21.0171 C   0  0  0  0  0  0
  -25.2638  -13.8176   20.5686 C   0  0  0  0  0  0
  -24.1870  -13.0428   20.9112 C   0  0  0  0  0  0
  -24.6453  -11.6901   20.8748 C   0  0  0  0  0  0
  -23.9150  -10.4267   21.0400 C   0  0  0  0  0  0
  -24.3684   -9.4175   21.9190 C   0  0  0  0  0  0
  -23.6308   -8.2241   22.0760 C   0  0  0  0  0  0
  -22.4296   -8.0298   21.3542 C   0  0  0  0  0  0
  -21.9969   -9.0286   20.4655 C   0  0  0  0  0  0
  -22.7334  -10.2134   20.3045 C   0  0  0  0  0  0
  -21.6854   -6.0754   22.5273 C   0  0  0  0  0  0
  -21.4006   -6.5640   23.8217 C   0  0  0  0  0  0
  -21.3665   -5.6791   24.9176 C   0  0  0  0  0  0
  -21.6031   -4.3051   24.7213 C   0  0  0  0  0  0
  -21.8819   -3.8154   23.4333 C   0  0  0  0  0  0
  -21.9184   -4.6978   22.3397 C   0  0  0  0  0  0
  -22.7920  -13.5243   21.1749 C   0  0  0  0  0  0
  -22.1664   -4.2176   21.0972 F   0  0  0  0  0  0
  -21.5638   -3.4530   25.7721 F   0  0  0  0  0  0
  -30.0349  -13.4370   20.4823 N   0  0  0  0  0  0
  -26.3074  -12.9360   20.3454 N   0  0  0  0  0  0
  -25.9393  -11.6512   20.5852 N   0  0  0  0  0  0
  -22.0540  -12.8263   22.0319 N   0  0  0  0  0  0
  -25.4347  -15.1881   20.4153 N   0  0  0  0  0  0
  -31.7816  -14.8241   20.0937 O   0  0  0  0  0  0
  -21.6621   -6.8911   21.4245 O   0  0  0  0  0  0
  -22.3632  -14.5570   20.6603 O   0  0  0  0  0  0
  -24.6191  -31.8574   23.2061 C   0  0  0  0  0  0
  -25.9042  -32.4757   23.8384 C   0  0  1  0  0  0
  -27.2442  -27.2967   20.1515 C   0  0  0  0  0  0
  -25.5859  -33.8567   24.2272 N   0  0  0  0  0  0
  -23.4188  -30.4734   21.5368 C   0  0  2  0  0  0
  -24.8829  -28.9273   20.1049 C   0  0  0  0  0  0
  -22.7415  -29.4598   22.4894 C   0  0  0  0  0  0
  -18.0155  -28.1452   22.8697 C   0  0  0  0  0  0
  -24.1481  -36.7298   23.2659 C   0  0  0  0  0  0
  -25.9563  -30.7694   21.3941 C   0  0  0  0  0  0
  -26.0339  -29.3858   20.7625 C   0  0  0  0  0  0
  -27.2072  -28.5746   20.7941 C   0  0  0  0  0  0
  -26.0954  -26.9165   19.4283 C   0  0  0  0  0  0
  -24.9248  -27.7014   19.4173 C   0  0  0  0  0  0
  -23.6421  -29.7949   20.1537 C   0  0  0  0  0  0
  -25.4111  -36.3077   24.0348 C   0  0  1  0  0  0
  -20.5795  -28.3722   23.1158 C   0  0  2  0  0  0
  -20.6561  -26.9527   22.5075 C   0  0  0  0  0  0
  -19.5294  -26.6847   21.5037 C   0  0  0  0  0  0
  -18.1768  -26.7897   22.2054 C   0  0  0  0  0  0
  -19.1474  -28.8954   23.2886 C   0  0  0  0  0  0
  -18.9532  -30.1586   23.8808 C   0  0  0  0  0  0
  -17.6530  -30.6650   24.0714 C   0  0  0  0  0  0
  -25.9054  -34.9438   23.5106 C   0  0  0  0  0  0
  -16.5339  -29.9156   23.6727 C   0  0  0  0  0  0
  -16.7156  -28.6610   23.0656 C   0  0  0  0  0  0
  -26.4449  -31.6623   25.0814 C   0  0  0  0  0  0
  -25.3711  -31.3764   26.1568 C   0  0  0  0  0  0
  -27.0274  -30.3027   24.6333 C   0  0  0  0  0  0
  -27.5949  -32.4402   25.7654 C   0  0  0  0  0  0
  -27.5550  -37.1825   24.8456 C   0  0  0  0  0  0
  -21.4150  -29.3007   22.3541 N   0  0  0  0  0  0
  -26.4270  -37.3782   23.9408 N   0  0  0  0  0  0
  -24.6826  -31.0543   22.1006 N   0  0  0  0  0  0
  -23.4082  -28.8211   23.3071 O   0  0  0  0  0  0
  -28.4162  -26.5254   20.0226 O   0  0  0  0  0  0
  -26.5612  -34.8892   22.4685 O   0  0  0  0  0  0
  -23.5325  -32.1396   23.7335 O   0  0  0  0  0  0
  -28.7267  -18.9955   22.2463 C   0  0  0  0  0  0
  -30.0605  -19.1481   20.2742 C   0  0  0  0  0  0
  -29.1448  -17.6339   22.4283 C   0  0  0  0  0  0
  -30.4724  -17.7754   20.4541 C   0  0  0  0  0  0
  -29.1273  -19.8018   21.1382 C   0  0  0  0  0  0
  -29.9898  -16.9435   21.5115 C   0  0  0  0  0  0
  -27.1109  -21.0104   20.5407 C   0  0  0  0  0  0
  -26.1849  -22.2417   20.5339 C   0  0  0  0  0  0
  -26.7874  -23.6460   20.5268 C   0  0  0  0  0  0
  -29.0507  -22.5044   20.9102 C   0  0  0  0  0  0
  -28.2822  -23.7777   20.2310 C   0  0  1  0  0  0
  -28.4957  -23.7115   18.7092 C   0  0  0  0  0  0
  -30.3447  -14.9359   23.0707 C   0  0  0  0  0  0
  -28.7085  -25.2587   20.7473 C   0  0  0  0  0  0
  -28.4395  -21.1038   20.8247 N   0  0  0  0  0  0
  -30.2940  -15.4882   21.6881 N   0  0  0  0  0  0
  -26.5587  -19.9323   20.2880 O   0  0  0  0  0  0
  -31.4693  -12.6242   19.1033 H   0  0  0  0  0  0
  -30.4204  -11.4503   19.8488 H   0  0  0  0  0  0
  -29.7690  -11.8478   17.4623 H   0  0  0  0  0  0
  -29.5780  -13.5578   17.7707 H   0  0  0  0  0  0
  -27.9328  -11.2929   18.9245 H   0  0  0  0  0  0
  -27.3527  -12.5278   17.8397 H   0  0  0  0  0  0
  -27.6830  -14.2575   19.5490 H   0  0  0  0  0  0
  -28.7289  -12.0592   21.3965 H   0  0  0  0  0  0
  -28.4060  -13.6981   21.8603 H   0  0  0  0  0  0
  -25.2827   -9.5606   22.4778 H   0  0  0  0  0  0
  -23.9967   -7.4631   22.7504 H   0  0  0  0  0  0
  -21.0888   -8.8818   19.9001 H   0  0  0  0  0  0
  -22.3805  -10.9660   19.6147 H   0  0  0  0  0  0
  -21.1983   -7.6149   23.9718 H   0  0  0  0  0  0
  -21.1515   -6.0525   25.9081 H   0  0  0  0  0  0
  -22.0597   -2.7612   23.2806 H   0  0  0  0  0  0
  -22.4155  -11.9961   22.4763 H   0  0  0  0  0  0
  -21.1169  -13.1330   22.2456 H   0  0  0  0  0  0
  -24.6794  -15.8513   20.5431 H   0  0  0  0  0  0
  -26.3129  -15.6339   20.1716 H   0  0  0  0  0  0
  -26.7082  -32.5439   23.1110 H   0  0  0  0  0  0
  -24.9986  -33.9684   25.0385 H   0  0  0  0  0  0
  -22.7084  -31.2865   21.3822 H   0  0  0  0  0  0
  -23.3715  -35.9654   23.3355 H   0  0  0  0  0  0
  -24.3517  -36.8876   22.2046 H   0  0  0  0  0  0
  -23.7263  -37.6539   23.6659 H   0  0  0  0  0  0
  -26.0890  -31.5144   20.6096 H   0  0  0  0  0  0
  -26.8351  -30.8322   22.0210 H   0  0  0  0  0  0
  -28.0850  -28.9302   21.3138 H   0  0  0  0  0  0
  -26.1141  -26.0354   18.8067 H   0  0  0  0  0  0
  -24.0775  -27.3787   18.8349 H   0  0  0  0  0  0
  -23.7296  -30.5596   19.3778 H   0  0  0  0  0  0
  -22.7752  -29.1897   19.8804 H   0  0  0  0  0  0
  -25.1292  -36.1952   25.0841 H   0  0  0  0  0  0
  -20.9962  -28.3099   24.1237 H   0  0  0  0  0  0
  -20.5488  -26.2297   23.3188 H   0  0  0  0  0  0
  -21.6342  -26.7715   22.0586 H   0  0  0  0  0  0
  -19.6390  -25.7101   21.0401 H   0  0  0  0  0  0
  -19.5816  -27.4216   20.6970 H   0  0  0  0  0  0
  -17.3574  -26.6016   21.5079 H   0  0  0  0  0  0
  -18.0977  -26.0236   22.9779 H   0  0  0  0  0  0
  -19.8048  -30.7543   24.1794 H   0  0  0  0  0  0
  -17.5229  -31.6320   24.5301 H   0  0  0  0  0  0
  -15.5362  -30.3075   23.8392 H   0  0  0  0  0  0
  -15.8484  -28.0975   22.7515 H   0  0  0  0  0  0
  -24.5843  -30.7158   25.7900 H   0  0  0  0  0  0
  -24.8992  -32.2945   26.5092 H   0  0  0  0  0  0
  -25.8080  -30.8873   27.0288 H   0  0  0  0  0  0
  -26.2858  -29.6876   24.1224 H   0  0  0  0  0  0
  -27.3709  -29.7247   25.4912 H   0  0  0  0  0  0
  -27.8856  -30.4230   23.9723 H   0  0  0  0  0  0
  -27.2446  -33.3632   26.2301 H   0  0  0  0  0  0
  -28.3802  -32.7100   25.0587 H   0  0  0  0  0  0
  -28.0609  -31.8545   26.5591 H   0  0  0  0  0  0
  -28.2634  -38.0064   24.7464 H   0  0  0  0  0  0
  -28.0989  -36.2600   24.6361 H   0  0  0  0  0  0
  -27.2237  -37.1560   25.8851 H   0  0  0  0  0  0
  -20.9369  -29.8639   21.6649 H   0  0  0  0  0  0
  -26.0143  -38.2857   24.1431 H   0  0  0  0  0  0
  -28.0069  -19.3955   22.9498 H   0  0  0  0  0  0
  -30.4151  -19.6725   19.4006 H   0  0  0  0  0  0
  -28.7460  -17.0986   23.2785 H   0  0  0  0  0  0
  -31.1676  -17.3616   19.7384 H   0  0  0  0  0  0
  -25.5475  -22.1609   21.4158 H   0  0  0  0  0  0
  -25.5202  -22.1568   19.6728 H   0  0  0  0  0  0
  -26.5688  -24.1142   21.4860 H   0  0  0  0  0  0
  -26.2178  -24.2128   19.7983 H   0  0  0  0  0  0
  -29.1748  -22.7226   21.9702 H   0  0  0  0  0  0
  -30.0599  -22.4469   20.5012 H   0  0  0  0  0  0
  -29.5462  -23.8752   18.4473 H   0  0  0  0  0  0
  -27.9183  -24.4802   18.1939 H   0  0  0  0  0  0
  -28.1846  -22.7441   18.3096 H   0  0  0  0  0  0
  -29.3455  -14.7003   23.4427 H   0  0  0  0  0  0
  -30.7918  -15.6236   23.7845 H   0  0  0  0  0  0
  -30.9282  -14.0109   23.1496 H   0  0  0  0  0  0
  -29.7985  -25.2699   20.7854 H   0  0  0  0  0  0
  -28.4282  -25.3890   21.7933 H   0  0  0  0  0  0
  1 25  1  0  0  0
  1 30  2  0  0  0
  1 86  1  0  0  0
  2  3  1  0  0  0
  2 25  1  0  0  0
  2 88  1  0  0  0
  2 89  1  0  0  0
  3  4  1  0  0  0
  3 90  1  0  0  0
  3 91  1  0  0  0
  4  5  1  0  0  0
  4 92  1  0  0  0
  4 93  1  0  0  0
  5  6  1  0  0  0
  5 26  1  0  0  0
  5 94  1  0  0  0
  6 25  1  0  0  0
  6 95  1  0  0  0
  6 96  1  0  0  0
  7  8  2  0  0  0
  7 26  1  0  0  0
  7 29  1  0  0  0
  8  9  1  0  0  0
  8 22  1  0  0  0
  9 10  1  0  0  0
  9 27  2  0  0  0
 10 11  2  0  0  0
 10 15  1  0  0  0
 11 12  1  0  0  0
 11 97  1  0  0  0
 12 13  2  0  0  0
 12 98  1  0  0  0
 13 14  1  0  0  0
 13 31  1  0  0  0
 14 15  2  0  0  0
 14 99  1  0  0  0
 15100  1  0  0  0
 16 17  2  0  0  0
 16 21  1  0  0  0
 16 31  1  0  0  0
 17 18  1  0  0  0
 17101  1  0  0  0
 18 19  2  0  0  0
 18102  1  0  0  0
 19 20  1  0  0  0
 19 24  1  0  0  0
 20 21  2  0  0  0
 20103  1  0  0  0
 21 23  1  0  0  0
 22 28  1  0  0  0
 22 32  2  0  0  0
 26 27  1  0  0  0
 28104  1  0  0  0
 28105  1  0  0  0
 29106  1  0  0  0
 29107  1  0  0  0
 33 34  1  0  0  0
 33 66  1  0  0  0
 33 70  2  0  0  0
 34 36  1  0  0  0
 34 59  1  0  0  0
 34108  1  0  0  0
 35 44  2  0  0  0
 35 45  1  0  0  0
 35 68  1  0  0  0
 36 56  1  0  0  0
 36109  1  0  0  0
 37 39  1  0  0  0
 37 47  1  0  0  0
 37 66  1  0  0  0
 37110  1  0  0  0
 38 43  2  0  0  0
 38 46  1  0  0  0
 38 47  1  0  0  0
 39 64  1  0  0  0
 39 67  2  0  0  0
 40 52  1  0  0  0
 40 53  2  0  0  0
 40 58  1  0  0  0
 41111  1  0  0  0
 41112  1  0  0  0
 41113  1  0  0  0
 41 48  1  0  0  0
 42 43  1  0  0  0
 42 66  1  0  0  0
 42114  1  0  0  0
 42115  1  0  0  0
 43 44  1  0  0  0
 44116  1  0  0  0
 45 46  2  0  0  0
 45117  1  0  0  0
 46118  1  0  0  0
 47119  1  0  0  0
 47120  1  0  0  0
 48 56  1  0  0  0
 48 65  1  0  0  0
 48121  1  0  0  0
 49 50  1  0  0  0
 49 53  1  0  0  0
 49 64  1  0  0  0
 49122  1  0  0  0
 50 51  1  0  0  0
 50123  1  0  0  0
 50124  1  0  0  0
 51 52  1  0  0  0
 51125  1  0  0  0
 51126  1  0  0  0
 52127  1  0  0  0
 52128  1  0  0  0
 53 54  1  0  0  0
 54 55  2  0  0  0
 54129  1  0  0  0
 55 57  1  0  0  0
 55130  1  0  0  0
 56 69  2  0  0  0
 57 58  2  0  0  0
 57131  1  0  0  0
 58132  1  0  0  0
 59 60  1  0  0  0
 59 61  1  0  0  0
 59 62  1  0  0  0
 60133  1  0  0  0
 60134  1  0  0  0
 60135  1  0  0  0
 61136  1  0  0  0
 61137  1  0  0  0
 61138  1  0  0  0
 62139  1  0  0  0
 62140  1  0  0  0
 62141  1  0  0  0
 63 65  1  0  0  0
 63142  1  0  0  0
 63143  1  0  0  0
 63144  1  0  0  0
 64145  1  0  0  0
 65146  1  0  0  0
 68 84  1  0  0  0
 71 73  2  0  0  0
 71 75  1  0  0  0
 71147  1  0  0  0
 72 74  1  0  0  0
 72 75  2  0  0  0
 72148  1  0  0  0
 73 76  1  0  0  0
 73149  1  0  0  0
 74 76  2  0  0  0
 74150  1  0  0  0
 75 85  1  0  0  0
 76 86  1  0  0  0
 77 78  1  0  0  0
 77 85  1  0  0  0
 77 87  2  0  0  0
 78 79  1  0  0  0
 78151  1  0  0  0
 78152  1  0  0  0
 79 81  1  0  0  0
 79153  1  0  0  0
 79154  1  0  0  0
 80 81  1  0  0  0
 80 85  1  0  0  0
 80155  1  0  0  0
 80156  1  0  0  0
 81 82  1  0  0  0
 81 84  1  0  0  0
 82157  1  0  0  0
 82158  1  0  0  0
 82159  1  0  0  0
 83 86  1  0  0  0
 83160  1  0  0  0
 83161  1  0  0  0
 83162  1  0  0  0
 84163  1  0  0  0
 84164  1  0  0  0
M  ISO  4   1 100  68 101  84 101  86 100
M  END
> <chiral flag>
0

> <version>
0

> <s_m_source_file>
/data/baiqing/PycharmProjects/Reinvent-master-3.2/result/LINK_invent/BTK/process_docking_weight1_custom_product_contain_oxygen_bond_distance_aromatic_linkinvent_7_9_3/rearranged_h_0102.sdf

> <i_m_source_file_index>
64

> <r_mmod_Potential_Energy-OPLS-2005>
463.777954101562

> <r_mmod_Stretch_Energy-OPLS-2005>
133.549163818359

> <r_mmod_Bend_Energy-OPLS-2005>
199.520874023438

> <r_mmod_Torsional_Energy-OPLS-2005>
411.277862548828

> <r_mmod_Improper_Torsional_Energy-OPLS-2005>
4.63583898544312

> <r_mmod_Van_der_Waal_Energy-OPLS-2005>
151.044570922852

> <r_mmod_Electrostatic_Energy-OPLS-2005>
-287.311614990234

> <r_mmod_Solvation_Energy-OPLS-2005>
-196.234878540039

> <b_mmod_Minimization_Converged-OPLS-2005>
0

> <r_mmod_RMS_Derivative-OPLS-2005>
11.2286930084229

$$$$
65
                    3D
 Structure written by MMmdl.
154162  0  0  1  0            999 V2000
  -30.7161  -14.4519   20.5216 C   0  0  0  0  0  0
  -30.4163  -12.2735   19.4397 C   0  0  0  0  0  0
  -29.5039  -12.4826   18.2155 C   0  0  0  0  0  0
  -28.0189  -12.3661   18.6153 C   0  0  0  0  0  0
  -27.6619  -13.2069   19.8705 C   0  0  2  0  0  0
  -28.7047  -13.0101   20.9997 C   0  0  0  0  0  0
  -25.2581  -13.8189   20.5670 C   0  0  0  0  0  0
  -24.1836  -13.0471   20.9203 C   0  0  0  0  0  0
  -24.6385  -11.6940   20.8742 C   0  0  0  0  0  0
  -23.9071  -10.4327   21.0398 C   0  0  0  0  0  0
  -24.3631   -9.4243   21.9176 C   0  0  0  0  0  0
  -23.6315   -8.2275   22.0738 C   0  0  0  0  0  0
  -22.4288   -8.0301   21.3534 C   0  0  0  0  0  0
  -21.9931   -9.0288   20.4645 C   0  0  0  0  0  0
  -22.7254  -10.2171   20.3058 C   0  0  0  0  0  0
  -21.6855   -6.0748   22.5292 C   0  0  0  0  0  0
  -21.4017   -6.5645   23.8227 C   0  0  0  0  0  0
  -21.3671   -5.6775   24.9188 C   0  0  0  0  0  0
  -21.6051   -4.3047   24.7226 C   0  0  0  0  0  0
  -21.8828   -3.8146   23.4340 C   0  0  0  0  0  0
  -21.9193   -4.6965   22.3394 C   0  0  0  0  0  0
  -22.7848  -13.5263   21.1865 C   0  0  0  0  0  0
  -22.1645   -4.2157   21.0965 F   0  0  0  0  0  0
  -21.5653   -3.4536   25.7730 F   0  0  0  0  0  0
  -30.0426  -13.2759   20.4485 N   0  0  0  0  0  0
  -26.3018  -12.9360   20.3349 N   0  0  0  0  0  0
  -25.9318  -11.6518   20.5780 N   0  0  0  0  0  0
  -22.0463  -12.8262   22.0415 N   0  0  0  0  0  0
  -25.4283  -15.1904   20.4094 N   0  0  0  0  0  0
  -31.8680  -14.6001   20.1106 O   0  0  0  0  0  0
  -21.6646   -6.8892   21.4265 O   0  0  0  0  0  0
  -22.3569  -14.5561   20.6664 O   0  0  0  0  0  0
  -24.6089  -31.8701   23.2108 C   0  0  0  0  0  0
  -25.8986  -32.4837   23.8402 C   0  0  1  0  0  0
  -27.2542  -27.4720   20.0897 C   0  0  0  0  0  0
  -25.5814  -33.8630   24.2351 N   0  0  0  0  0  0
  -23.3990  -30.4924   21.5462 C   0  0  2  0  0  0
  -24.8507  -28.9629   20.1130 C   0  0  0  0  0  0
  -22.7419  -29.4654   22.4962 C   0  0  0  0  0  0
  -18.0272  -28.1382   22.8504 C   0  0  0  0  0  0
  -24.1475  -36.7346   23.2648 C   0  0  0  0  0  0
  -25.9205  -30.8486   21.3576 C   0  0  0  0  0  0
  -26.0020  -29.4794   20.7190 C   0  0  0  0  0  0
  -27.1977  -28.7328   20.7196 C   0  0  0  0  0  0
  -26.0862  -26.9637   19.4783 C   0  0  0  0  0  0
  -24.8849  -27.6994   19.4961 C   0  0  0  0  0  0
  -23.6092  -29.8215   20.1614 C   0  0  0  0  0  0
  -25.4095  -36.3137   24.0363 C   0  0  1  0  0  0
  -20.5867  -28.3660   23.1316 C   0  0  2  0  0  0
  -20.6747  -26.9394   22.5425 C   0  0  0  0  0  0
  -19.5731  -26.6388   21.5216 C   0  0  0  0  0  0
  -18.1916  -26.7925   22.1641 C   0  0  0  0  0  0
  -19.1533  -28.8842   23.2919 C   0  0  0  0  0  0
  -18.9459  -30.1426   23.8952 C   0  0  0  0  0  0
  -17.6457  -30.6582   24.0568 C   0  0  0  0  0  0
  -25.8999  -34.9485   23.5172 C   0  0  0  0  0  0
  -16.5348  -29.9106   23.6286 C   0  0  0  0  0  0
  -16.7267  -28.6514   23.0334 C   0  0  0  0  0  0
  -26.4411  -31.6582   25.0708 C   0  0  0  0  0  0
  -25.3675  -31.3682   26.1472 C   0  0  0  0  0  0
  -27.0228  -30.3036   24.6012 C   0  0  0  0  0  0
  -27.6030  -32.4262   25.7435 C   0  0  0  0  0  0
  -27.5574  -37.1853   24.8495 C   0  0  0  0  0  0
  -21.4145  -29.3036   22.3728 N   0  0  0  0  0  0
  -26.4305  -37.3803   23.9382 N   0  0  0  0  0  0
  -24.6606  -31.0852   22.0978 N   0  0  0  0  0  0
  -23.4218  -28.8196   23.2984 O   0  0  0  0  0  0
  -28.4546  -26.8004   20.1316 O   0  0  0  0  0  0
  -26.5604  -34.8925   22.4751 O   0  0  0  0  0  0
  -23.5283  -32.1414   23.7515 O   0  0  0  0  0  0
  -31.1425  -18.6572   21.2379 C   0  0  0  0  0  0
  -30.8677  -20.0093   21.6099 C   0  0  0  0  0  0
  -30.0667  -18.0329   20.6620 C   0  0  0  0  0  0
  -29.5833  -20.4054   21.3179 C   0  0  0  0  0  0
  -29.5105  -22.7810   20.9651 C   0  0  0  0  0  0
  -30.0309  -16.7226   19.9362 C   0  0  0  0  0  0
  -28.5315  -23.9480   20.8439 C   0  0  0  0  0  0
  -28.3588  -24.4289   19.3821 C   0  0  0  0  0  0
  -28.8158  -25.8751   19.1119 C   0  0  0  0  0  0
  -29.0016  -21.6257   21.4210 N   0  0  0  0  0  0
  -29.9394  -15.5168   20.7672 N   0  0  0  0  0  0
  -30.6938  -22.9423   20.6520 O   0  0  0  0  0  0
  -28.6640  -19.0621   20.6939 S   0  0  0  0  0  0
  -31.4650  -12.3441   19.1503 H   0  0  0  0  0  0
  -30.2883  -11.2707   19.8504 H   0  0  0  0  0  0
  -29.7407  -11.7481   17.4438 H   0  0  0  0  0  0
  -29.6938  -13.4616   17.7737 H   0  0  0  0  0  0
  -27.8150  -11.3136   18.8060 H   0  0  0  0  0  0
  -27.3793  -12.6486   17.7760 H   0  0  0  0  0  0
  -27.6993  -14.2511   19.5639 H   0  0  0  0  0  0
  -28.6638  -11.9894   21.3790 H   0  0  0  0  0  0
  -28.4773  -13.6562   21.8484 H   0  0  0  0  0  0
  -25.2786   -9.5724   22.4750 H   0  0  0  0  0  0
  -24.0039   -7.4669   22.7439 H   0  0  0  0  0  0
  -21.0868   -8.8806   19.8970 H   0  0  0  0  0  0
  -22.3690  -10.9710   19.6165 H   0  0  0  0  0  0
  -21.1962   -7.6141   23.9726 H   0  0  0  0  0  0
  -21.1504   -6.0505   25.9091 H   0  0  0  0  0  0
  -22.0576   -2.7612   23.2826 H   0  0  0  0  0  0
  -22.4054  -11.9947   22.4862 H   0  0  0  0  0  0
  -21.1075  -13.1340   22.2564 H   0  0  0  0  0  0
  -24.6625  -15.8447   20.5220 H   0  0  0  0  0  0
  -26.2812  -15.6363   20.0943 H   0  0  0  0  0  0
  -26.7073  -32.5592   23.1208 H   0  0  0  0  0  0
  -24.9856  -33.9754   25.0414 H   0  0  0  0  0  0
  -22.6844  -31.3076   21.4060 H   0  0  0  0  0  0
  -23.3687  -35.9740   23.3415 H   0  0  0  0  0  0
  -24.3562  -36.8831   22.2043 H   0  0  0  0  0  0
  -23.7300  -37.6618   23.6570 H   0  0  0  0  0  0
  -26.0126  -31.6051   20.5756 H   0  0  0  0  0  0
  -26.8155  -30.9213   21.9626 H   0  0  0  0  0  0
  -28.0843  -29.1325   21.1914 H   0  0  0  0  0  0
  -26.0814  -26.0039   18.9896 H   0  0  0  0  0  0
  -24.0023  -27.2961   19.0205 H   0  0  0  0  0  0
  -23.7134  -30.5902   19.3946 H   0  0  0  0  0  0
  -22.7370  -29.2347   19.8713 H   0  0  0  0  0  0
  -25.1272  -36.2044   25.0866 H   0  0  0  0  0  0
  -20.9988  -28.3225   24.1424 H   0  0  0  0  0  0
  -20.5594  -26.2296   23.3629 H   0  0  0  0  0  0
  -21.6620  -26.7387   22.1254 H   0  0  0  0  0  0
  -19.6872  -25.6312   21.1219 H   0  0  0  0  0  0
  -19.6639  -27.3218   20.6762 H   0  0  0  0  0  0
  -17.4171  -26.6664   21.4046 H   0  0  0  0  0  0
  -18.0314  -26.0067   22.9040 H   0  0  0  0  0  0
  -19.7924  -30.7218   24.2378 H   0  0  0  0  0  0
  -17.5006  -31.6261   24.5173 H   0  0  0  0  0  0
  -15.5350  -30.3029   23.7552 H   0  0  0  0  0  0
  -15.8669  -28.0832   22.7027 H   0  0  0  0  0  0
  -24.5878  -30.6990   25.7819 H   0  0  0  0  0  0
  -24.8813  -32.2828   26.4873 H   0  0  0  0  0  0
  -25.8019  -30.8900   27.0261 H   0  0  0  0  0  0
  -26.2765  -29.6848   24.1031 H   0  0  0  0  0  0
  -27.4007  -29.7212   25.4417 H   0  0  0  0  0  0
  -27.8575  -30.4387   23.9138 H   0  0  0  0  0  0
  -27.2713  -33.3585   26.2017 H   0  0  0  0  0  0
  -28.3815  -32.6780   25.0216 H   0  0  0  0  0  0
  -28.0721  -31.8369   26.5323 H   0  0  0  0  0  0
  -28.2696  -38.0036   24.7393 H   0  0  0  0  0  0
  -28.0954  -36.2581   24.6509 H   0  0  0  0  0  0
  -27.2283  -37.1759   25.8894 H   0  0  0  0  0  0
  -20.9302  -29.8841   21.7012 H   0  0  0  0  0  0
  -26.0228  -38.2906   24.1268 H   0  0  0  0  0  0
  -32.1291  -18.2252   21.3408 H   0  0  0  0  0  0
  -31.6319  -20.6501   22.0306 H   0  0  0  0  0  0
  -30.8847  -16.6893   19.2557 H   0  0  0  0  0  0
  -29.1600  -16.7066   19.2798 H   0  0  0  0  0  0
  -28.8785  -24.7488   21.4978 H   0  0  0  0  0  0
  -27.5553  -23.6553   21.2345 H   0  0  0  0  0  0
  -27.3196  -24.3014   19.0920 H   0  0  0  0  0  0
  -28.9037  -23.7803   18.6952 H   0  0  0  0  0  0
  -28.4667  -26.2176   18.1362 H   0  0  0  0  0  0
  -29.9036  -25.8928   19.0621 H   0  0  0  0  0  0
  -28.0070  -21.6325   21.5977 H   0  0  0  0  0  0
  -29.0243  -15.3067   21.1373 H   0  0  0  0  0  0
  1 25  1  0  0  0
  1 30  2  0  0  0
  1 81  1  0  0  0
  2  3  1  0  0  0
  2 25  1  0  0  0
  2 84  1  0  0  0
  2 85  1  0  0  0
  3  4  1  0  0  0
  3 86  1  0  0  0
  3 87  1  0  0  0
  4  5  1  0  0  0
  4 88  1  0  0  0
  4 89  1  0  0  0
  5  6  1  0  0  0
  5 26  1  0  0  0
  5 90  1  0  0  0
  6 25  1  0  0  0
  6 91  1  0  0  0
  6 92  1  0  0  0
  7  8  2  0  0  0
  7 26  1  0  0  0
  7 29  1  0  0  0
  8  9  1  0  0  0
  8 22  1  0  0  0
  9 10  1  0  0  0
  9 27  2  0  0  0
 10 11  2  0  0  0
 10 15  1  0  0  0
 11 12  1  0  0  0
 11 93  1  0  0  0
 12 13  2  0  0  0
 12 94  1  0  0  0
 13 14  1  0  0  0
 13 31  1  0  0  0
 14 15  2  0  0  0
 14 95  1  0  0  0
 15 96  1  0  0  0
 16 17  2  0  0  0
 16 21  1  0  0  0
 16 31  1  0  0  0
 17 18  1  0  0  0
 17 97  1  0  0  0
 18 19  2  0  0  0
 18 98  1  0  0  0
 19 20  1  0  0  0
 19 24  1  0  0  0
 20 21  2  0  0  0
 20 99  1  0  0  0
 21 23  1  0  0  0
 22 28  1  0  0  0
 22 32  2  0  0  0
 26 27  1  0  0  0
 28100  1  0  0  0
 28101  1  0  0  0
 29102  1  0  0  0
 29103  1  0  0  0
 33 34  1  0  0  0
 33 66  1  0  0  0
 33 70  2  0  0  0
 34 36  1  0  0  0
 34 59  1  0  0  0
 34104  1  0  0  0
 35 44  2  0  0  0
 35 45  1  0  0  0
 35 68  1  0  0  0
 36 56  1  0  0  0
 36105  1  0  0  0
 37 39  1  0  0  0
 37 47  1  0  0  0
 37 66  1  0  0  0
 37106  1  0  0  0
 38 43  2  0  0  0
 38 46  1  0  0  0
 38 47  1  0  0  0
 39 64  1  0  0  0
 39 67  2  0  0  0
 40 52  1  0  0  0
 40 53  2  0  0  0
 40 58  1  0  0  0
 41107  1  0  0  0
 41108  1  0  0  0
 41109  1  0  0  0
 41 48  1  0  0  0
 42 43  1  0  0  0
 42 66  1  0  0  0
 42110  1  0  0  0
 42111  1  0  0  0
 43 44  1  0  0  0
 44112  1  0  0  0
 45 46  2  0  0  0
 45113  1  0  0  0
 46114  1  0  0  0
 47115  1  0  0  0
 47116  1  0  0  0
 48 56  1  0  0  0
 48 65  1  0  0  0
 48117  1  0  0  0
 49 50  1  0  0  0
 49 53  1  0  0  0
 49 64  1  0  0  0
 49118  1  0  0  0
 50 51  1  0  0  0
 50119  1  0  0  0
 50120  1  0  0  0
 51 52  1  0  0  0
 51121  1  0  0  0
 51122  1  0  0  0
 52123  1  0  0  0
 52124  1  0  0  0
 53 54  1  0  0  0
 54 55  2  0  0  0
 54125  1  0  0  0
 55 57  1  0  0  0
 55126  1  0  0  0
 56 69  2  0  0  0
 57 58  2  0  0  0
 57127  1  0  0  0
 58128  1  0  0  0
 59 60  1  0  0  0
 59 61  1  0  0  0
 59 62  1  0  0  0
 60129  1  0  0  0
 60130  1  0  0  0
 60131  1  0  0  0
 61132  1  0  0  0
 61133  1  0  0  0
 61134  1  0  0  0
 62135  1  0  0  0
 62136  1  0  0  0
 62137  1  0  0  0
 63 65  1  0  0  0
 63138  1  0  0  0
 63139  1  0  0  0
 63140  1  0  0  0
 64141  1  0  0  0
 65142  1  0  0  0
 68 79  1  0  0  0
 71 72  1  0  0  0
 71 73  2  0  0  0
 71143  1  0  0  0
 72 74  2  0  0  0
 72144  1  0  0  0
 73 76  1  0  0  0
 73 83  1  0  0  0
 74 80  1  0  0  0
 74 83  1  0  0  0
 75 77  1  0  0  0
 75 80  1  0  0  0
 75 82  2  0  0  0
 76 81  1  0  0  0
 76145  1  0  0  0
 76146  1  0  0  0
 77 78  1  0  0  0
 77147  1  0  0  0
 77148  1  0  0  0
 78 79  1  0  0  0
 78149  1  0  0  0
 78150  1  0  0  0
 79151  1  0  0  0
 79152  1  0  0  0
 80153  1  0  0  0
 81154  1  0  0  0
M  ISO  4   1 100  68 101  79 101  81 100
M  END
> <chiral flag>
0

> <version>
0

> <s_m_source_file>
/data/baiqing/PycharmProjects/Reinvent-master-3.2/result/LINK_invent/BTK/process_docking_weight1_custom_product_contain_oxygen_bond_distance_aromatic_linkinvent_7_9_3/rearranged_h_0102.sdf

> <i_m_source_file_index>
65

> <r_mmod_Potential_Energy-OPLS-2005>
-147.791397094727

> <r_mmod_Stretch_Energy-OPLS-2005>
30.9425430297852

> <r_mmod_Bend_Energy-OPLS-2005>
107.148750305176

> <r_mmod_Torsional_Energy-OPLS-2005>
256.141937255859

> <r_mmod_Improper_Torsional_Energy-OPLS-2005>
11.9639339447021

> <r_mmod_Van_der_Waal_Energy-OPLS-2005>
132.919662475586

> <r_mmod_Electrostatic_Energy-OPLS-2005>
-467.635986328125

> <r_mmod_Solvation_Energy-OPLS-2005>
-233.401962280273

> <b_mmod_Minimization_Converged-OPLS-2005>
0

> <r_mmod_RMS_Derivative-OPLS-2005>
4.33993005752563

$$$$
66
                    3D
 Structure written by MMmdl.
161170  0  0  1  0            999 V2000
  -30.6305  -14.6340   20.5093 C   0  0  0  0  0  0
  -30.4381  -12.3892   19.4558 C   0  0  0  0  0  0
  -29.5091  -12.5074   18.2271 C   0  0  0  0  0  0
  -28.0312  -12.3485   18.6376 C   0  0  0  0  0  0
  -27.6542  -13.2177   19.8670 C   0  0  2  0  0  0
  -28.6988  -13.0707   20.9967 C   0  0  0  0  0  0
  -25.2528  -13.8130   20.5621 C   0  0  0  0  0  0
  -24.1807  -13.0406   20.9151 C   0  0  0  0  0  0
  -24.6397  -11.6887   20.8737 C   0  0  0  0  0  0
  -23.9067  -10.4277   21.0406 C   0  0  0  0  0  0
  -24.3617   -9.4195   21.9185 C   0  0  0  0  0  0
  -23.6287   -8.2236   22.0757 C   0  0  0  0  0  0
  -22.4270   -8.0278   21.3547 C   0  0  0  0  0  0
  -21.9905   -9.0252   20.4650 C   0  0  0  0  0  0
  -22.7239  -10.2126   20.3057 C   0  0  0  0  0  0
  -21.6850   -6.0732   22.5279 C   0  0  0  0  0  0
  -21.4014   -6.5637   23.8212 C   0  0  0  0  0  0
  -21.3657   -5.6790   24.9174 C   0  0  0  0  0  0
  -21.6043   -4.3053   24.7225 C   0  0  0  0  0  0
  -21.8820   -3.8144   23.4346 C   0  0  0  0  0  0
  -21.9193   -4.6960   22.3402 C   0  0  0  0  0  0
  -22.7837  -13.5212   21.1829 C   0  0  0  0  0  0
  -22.1661   -4.2146   21.0978 F   0  0  0  0  0  0
  -21.5627   -3.4535   25.7737 F   0  0  0  0  0  0
  -30.0159  -13.4108   20.4349 N   0  0  0  0  0  0
  -26.2997  -12.9342   20.3347 N   0  0  0  0  0  0
  -25.9338  -11.6495   20.5793 N   0  0  0  0  0  0
  -22.0484  -12.8221   22.0403 N   0  0  0  0  0  0
  -25.4162  -15.1828   20.3960 N   0  0  0  0  0  0
  -31.7914  -14.7893   20.1190 O   0  0  0  0  0  0
  -21.6635   -6.8875   21.4241 O   0  0  0  0  0  0
  -22.3528  -14.5529   20.6693 O   0  0  0  0  0  0
  -24.6258  -31.8609   23.2042 C   0  0  0  0  0  0
  -25.9109  -32.4785   23.8365 C   0  0  1  0  0  0
  -27.2234  -27.3244   20.1143 C   0  0  0  0  0  0
  -25.5926  -33.8585   24.2292 N   0  0  0  0  0  0
  -23.4188  -30.4860   21.5471 C   0  0  2  0  0  0
  -24.8643  -28.9435   20.1142 C   0  0  0  0  0  0
  -22.7471  -29.4632   22.4942 C   0  0  0  0  0  0
  -18.0287  -28.1385   22.8487 C   0  0  0  0  0  0
  -24.1489  -36.7296   23.2636 C   0  0  0  0  0  0
  -25.9604  -30.7935   21.3751 C   0  0  0  0  0  0
  -26.0343  -29.4217   20.7172 C   0  0  0  0  0  0
  -27.2173  -28.6246   20.7063 C   0  0  0  0  0  0
  -26.0282  -26.9017   19.4857 C   0  0  0  0  0  0
  -24.8631  -27.6885   19.4904 C   0  0  0  0  0  0
  -23.6331  -29.8232   20.1621 C   0  0  0  0  0  0
  -25.4111  -36.3086   24.0331 C   0  0  1  0  0  0
  -20.5886  -28.3688   23.1284 C   0  0  2  0  0  0
  -20.6778  -26.9412   22.5408 C   0  0  0  0  0  0
  -19.5753  -26.6386   21.5212 C   0  0  0  0  0  0
  -18.1934  -26.7929   22.1626 C   0  0  0  0  0  0
  -19.1539  -28.8853   23.2883 C   0  0  0  0  0  0
  -18.9461  -30.1455   23.8901 C   0  0  0  0  0  0
  -17.6461  -30.6587   24.0564 C   0  0  0  0  0  0
  -25.9048  -34.9454   23.5111 C   0  0  0  0  0  0
  -16.5353  -29.9086   23.6329 C   0  0  0  0  0  0
  -16.7274  -28.6502   23.0351 C   0  0  0  0  0  0
  -26.4495  -31.6589   25.0729 C   0  0  0  0  0  0
  -25.3732  -31.3724   26.1458 C   0  0  0  0  0  0
  -27.0335  -30.3014   24.6176 C   0  0  0  0  0  0
  -27.6060  -32.4318   25.7495 C   0  0  0  0  0  0
  -27.5583  -37.1798   24.8461 C   0  0  0  0  0  0
  -21.4185  -29.3044   22.3680 N   0  0  0  0  0  0
  -26.4289  -37.3781   23.9413 N   0  0  0  0  0  0
  -24.6873  -31.0628   22.0992 N   0  0  0  0  0  0
  -23.4197  -28.8167   23.3016 O   0  0  0  0  0  0
  -28.3496  -26.4864   20.1430 O   0  0  0  0  0  0
  -26.5614  -34.8919   22.4676 O   0  0  0  0  0  0
  -23.5424  -32.1402   23.7377 O   0  0  0  0  0  0
  -31.1250  -19.2526   20.2337 C   0  0  0  0  0  0
  -31.1210  -17.8381   20.4000 C   0  0  0  0  0  0
  -28.7688  -19.3361   20.6542 C   0  0  0  0  0  0
  -29.9478  -20.0596   20.3184 C   0  0  0  0  0  0
  -29.9329  -17.1298   20.7030 C   0  0  0  0  0  0
  -28.7578  -17.9153   20.8701 C   0  0  0  0  0  0
  -30.7272  -23.0745   18.1934 C   0  0  0  0  0  0
  -29.1306  -22.5036   20.5051 C   0  0  0  0  0  0
  -30.0724  -24.3035   18.8004 C   0  0  0  0  0  0
  -31.1165  -21.9706   19.1744 C   0  0  0  0  0  0
  -29.3776  -24.0482   20.1621 C   0  0  1  0  0  0
  -26.5299  -17.9818   21.7583 C   0  0  0  0  0  0
  -28.1291  -25.0245   20.2725 C   0  0  0  0  0  0
  -29.9857  -21.5183   20.0181 N   0  0  0  0  0  0
  -29.8319  -15.6810   20.8827 N   0  0  0  0  0  0
  -30.9451  -22.9877   16.9830 O   0  0  0  0  0  0
  -28.1702  -22.2349   21.2312 O   0  0  0  0  0  0
  -27.6194  -17.2273   21.2363 O   0  0  0  0  0  0
  -31.4799  -12.5110   19.1545 H   0  0  0  0  0  0
  -30.3700  -11.3936   19.8969 H   0  0  0  0  0  0
  -29.7722  -11.7552   17.4823 H   0  0  0  0  0  0
  -29.6549  -13.4765   17.7473 H   0  0  0  0  0  0
  -27.8654  -11.2953   18.8668 H   0  0  0  0  0  0
  -27.3783  -12.5813   17.7957 H   0  0  0  0  0  0
  -27.6720  -14.2542   19.5294 H   0  0  0  0  0  0
  -28.7078  -12.0491   21.3792 H   0  0  0  0  0  0
  -28.4442  -13.7031   21.8486 H   0  0  0  0  0  0
  -25.2763   -9.5669   22.4759 H   0  0  0  0  0  0
  -23.9993   -7.4627   22.7477 H   0  0  0  0  0  0
  -21.0834   -8.8775   19.8958 H   0  0  0  0  0  0
  -22.3702  -10.9666   19.6166 H   0  0  0  0  0  0
  -21.2008   -7.6146   23.9715 H   0  0  0  0  0  0
  -21.1477   -6.0520   25.9077 H   0  0  0  0  0  0
  -22.0601   -2.7606   23.2847 H   0  0  0  0  0  0
  -22.4095  -11.9878   22.4790 H   0  0  0  0  0  0
  -21.1116  -13.1271   22.2628 H   0  0  0  0  0  0
  -24.6441  -15.8294   20.5084 H   0  0  0  0  0  0
  -26.2884  -15.6436   20.1654 H   0  0  0  0  0  0
  -26.7176  -32.5457   23.1113 H   0  0  0  0  0  0
  -25.0076  -33.9732   25.0439 H   0  0  0  0  0  0
  -22.7126  -31.3067   21.4056 H   0  0  0  0  0  0
  -23.3752  -35.9627   23.3293 H   0  0  0  0  0  0
  -24.3585  -36.8920   22.2052 H   0  0  0  0  0  0
  -23.7239  -37.6497   23.6659 H   0  0  0  0  0  0
  -26.0910  -31.5574   20.6073 H   0  0  0  0  0  0
  -26.8414  -30.8417   22.0035 H   0  0  0  0  0  0
  -28.1162  -28.9884   21.1841 H   0  0  0  0  0  0
  -25.9571  -25.9574   18.9709 H   0  0  0  0  0  0
  -23.9680  -27.3197   19.0083 H   0  0  0  0  0  0
  -23.7534  -30.6005   19.4066 H   0  0  0  0  0  0
  -22.7529  -29.2534   19.8586 H   0  0  0  0  0  0
  -25.1288  -36.1940   25.0823 H   0  0  0  0  0  0
  -20.9980  -28.3262   24.1404 H   0  0  0  0  0  0
  -20.5684  -26.2296   23.3606 H   0  0  0  0  0  0
  -21.6647  -26.7447   22.1198 H   0  0  0  0  0  0
  -19.6915  -25.6297   21.1241 H   0  0  0  0  0  0
  -19.6691  -27.3196   20.6741 H   0  0  0  0  0  0
  -17.4201  -26.6672   21.4031 H   0  0  0  0  0  0
  -18.0338  -26.0071   22.9024 H   0  0  0  0  0  0
  -19.7937  -30.7270   24.2273 H   0  0  0  0  0  0
  -17.5015  -31.6268   24.5163 H   0  0  0  0  0  0
  -15.5353  -30.2988   23.7651 H   0  0  0  0  0  0
  -15.8674  -28.0822   22.7066 H   0  0  0  0  0  0
  -24.5909  -30.7069   25.7789 H   0  0  0  0  0  0
  -24.8920  -32.2889   26.4884 H   0  0  0  0  0  0
  -25.8060  -30.8904   27.0232 H   0  0  0  0  0  0
  -26.2906  -29.6768   24.1202 H   0  0  0  0  0  0
  -27.4037  -29.7267   25.4676 H   0  0  0  0  0  0
  -27.8774  -30.4304   23.9394 H   0  0  0  0  0  0
  -27.2677  -33.3616   26.2081 H   0  0  0  0  0  0
  -28.3864  -32.6882   25.0316 H   0  0  0  0  0  0
  -28.0735  -31.8436   26.5402 H   0  0  0  0  0  0
  -28.2587  -38.0109   24.7530 H   0  0  0  0  0  0
  -28.1092  -36.2642   24.6256 H   0  0  0  0  0  0
  -27.2306  -37.1409   25.8864 H   0  0  0  0  0  0
  -20.9360  -29.8767   21.6892 H   0  0  0  0  0  0
  -26.0172  -38.2853   24.1429 H   0  0  0  0  0  0
  -32.0840  -19.7038   20.0251 H   0  0  0  0  0  0
  -32.0564  -17.3078   20.2966 H   0  0  0  0  0  0
  -27.8427  -19.8830   20.7220 H   0  0  0  0  0  0
  -29.3469  -24.6752   18.0769 H   0  0  0  0  0  0
  -30.8264  -25.0826   18.9087 H   0  0  0  0  0  0
  -31.9314  -22.3225   19.8076 H   0  0  0  0  0  0
  -31.5080  -21.1633   18.5574 H   0  0  0  0  0  0
  -30.0804  -24.3672   20.9321 H   0  0  0  0  0  0
  -26.0161  -18.5326   20.9695 H   0  0  0  0  0  0
  -26.8516  -18.6791   22.5337 H   0  0  0  0  0  0
  -25.8043  -17.3090   22.2149 H   0  0  0  0  0  0
  -27.6309  -24.8593   21.2289 H   0  0  0  0  0  0
  -27.4362  -24.6713   19.5131 H   0  0  0  0  0  0
  -28.9154  -15.3864   21.1850 H   0  0  0  0  0  0
  1 25  1  0  0  0
  1 30  2  0  0  0
  1 85  1  0  0  0
  2  3  1  0  0  0
  2 25  1  0  0  0
  2 89  1  0  0  0
  2 90  1  0  0  0
  3  4  1  0  0  0
  3 91  1  0  0  0
  3 92  1  0  0  0
  4  5  1  0  0  0
  4 93  1  0  0  0
  4 94  1  0  0  0
  5  6  1  0  0  0
  5 26  1  0  0  0
  5 95  1  0  0  0
  6 25  1  0  0  0
  6 96  1  0  0  0
  6 97  1  0  0  0
  7  8  2  0  0  0
  7 26  1  0  0  0
  7 29  1  0  0  0
  8  9  1  0  0  0
  8 22  1  0  0  0
  9 10  1  0  0  0
  9 27  2  0  0  0
 10 11  2  0  0  0
 10 15  1  0  0  0
 11 12  1  0  0  0
 11 98  1  0  0  0
 12 13  2  0  0  0
 12 99  1  0  0  0
 13 14  1  0  0  0
 13 31  1  0  0  0
 14 15  2  0  0  0
 14100  1  0  0  0
 15101  1  0  0  0
 16 17  2  0  0  0
 16 21  1  0  0  0
 16 31  1  0  0  0
 17 18  1  0  0  0
 17102  1  0  0  0
 18 19  2  0  0  0
 18103  1  0  0  0
 19 20  1  0  0  0
 19 24  1  0  0  0
 20 21  2  0  0  0
 20104  1  0  0  0
 21 23  1  0  0  0
 22 28  1  0  0  0
 22 32  2  0  0  0
 26 27  1  0  0  0
 28105  1  0  0  0
 28106  1  0  0  0
 29107  1  0  0  0
 29108  1  0  0  0
 33 34  1  0  0  0
 33 66  1  0  0  0
 33 70  2  0  0  0
 34 36  1  0  0  0
 34 59  1  0  0  0
 34109  1  0  0  0
 35 44  2  0  0  0
 35 45  1  0  0  0
 35 68  1  0  0  0
 36 56  1  0  0  0
 36110  1  0  0  0
 37 39  1  0  0  0
 37 47  1  0  0  0
 37 66  1  0  0  0
 37111  1  0  0  0
 38 43  2  0  0  0
 38 46  1  0  0  0
 38 47  1  0  0  0
 39 64  1  0  0  0
 39 67  2  0  0  0
 40 52  1  0  0  0
 40 53  2  0  0  0
 40 58  1  0  0  0
 41112  1  0  0  0
 41113  1  0  0  0
 41114  1  0  0  0
 41 48  1  0  0  0
 42 43  1  0  0  0
 42 66  1  0  0  0
 42115  1  0  0  0
 42116  1  0  0  0
 43 44  1  0  0  0
 44117  1  0  0  0
 45 46  2  0  0  0
 45118  1  0  0  0
 46119  1  0  0  0
 47120  1  0  0  0
 47121  1  0  0  0
 48 56  1  0  0  0
 48 65  1  0  0  0
 48122  1  0  0  0
 49 50  1  0  0  0
 49 53  1  0  0  0
 49 64  1  0  0  0
 49123  1  0  0  0
 50 51  1  0  0  0
 50124  1  0  0  0
 50125  1  0  0  0
 51 52  1  0  0  0
 51126  1  0  0  0
 51127  1  0  0  0
 52128  1  0  0  0
 52129  1  0  0  0
 53 54  1  0  0  0
 54 55  2  0  0  0
 54130  1  0  0  0
 55 57  1  0  0  0
 55131  1  0  0  0
 56 69  2  0  0  0
 57 58  2  0  0  0
 57132  1  0  0  0
 58133  1  0  0  0
 59 60  1  0  0  0
 59 61  1  0  0  0
 59 62  1  0  0  0
 60134  1  0  0  0
 60135  1  0  0  0
 60136  1  0  0  0
 61137  1  0  0  0
 61138  1  0  0  0
 61139  1  0  0  0
 62140  1  0  0  0
 62141  1  0  0  0
 62142  1  0  0  0
 63 65  1  0  0  0
 63143  1  0  0  0
 63144  1  0  0  0
 63145  1  0  0  0
 64146  1  0  0  0
 65147  1  0  0  0
 68 83  1  0  0  0
 71 72  2  0  0  0
 71 74  1  0  0  0
 71148  1  0  0  0
 72 75  1  0  0  0
 72149  1  0  0  0
 73 74  2  0  0  0
 73 76  1  0  0  0
 73150  1  0  0  0
 74 84  1  0  0  0
 75 76  2  0  0  0
 75 85  1  0  0  0
 76 88  1  0  0  0
 77 79  1  0  0  0
 77 80  1  0  0  0
 77 86  2  0  0  0
 78 81  1  0  0  0
 78 84  1  0  0  0
 78 87  2  0  0  0
 79 81  1  0  0  0
 79151  1  0  0  0
 79152  1  0  0  0
 80 84  1  0  0  0
 80153  1  0  0  0
 80154  1  0  0  0
 81 83  1  0  0  0
 81155  1  0  0  0
 82 88  1  0  0  0
 82156  1  0  0  0
 82157  1  0  0  0
 82158  1  0  0  0
 83159  1  0  0  0
 83160  1  0  0  0
 85161  1  0  0  0
M  ISO  4   1 100  68 101  83 101  85 100
M  END
> <chiral flag>
0

> <version>
0

> <s_m_source_file>
/data/baiqing/PycharmProjects/Reinvent-master-3.2/result/LINK_invent/BTK/process_docking_weight1_custom_product_contain_oxygen_bond_distance_aromatic_linkinvent_7_9_3/rearranged_h_0102.sdf

> <i_m_source_file_index>
66

> <r_mmod_Potential_Energy-OPLS-2005>
30.7486515045166

> <r_mmod_Stretch_Energy-OPLS-2005>
93.4345016479492

> <r_mmod_Bend_Energy-OPLS-2005>
149.83283996582

> <r_mmod_Torsional_Energy-OPLS-2005>
271.246063232422

> <r_mmod_Improper_Torsional_Energy-OPLS-2005>
4.1169261932373

> <r_mmod_Van_der_Waal_Energy-OPLS-2005>
179.757873535156

> <r_mmod_Electrostatic_Energy-OPLS-2005>
-483.326690673828

> <r_mmod_Solvation_Energy-OPLS-2005>
-229.440353393555

> <b_mmod_Minimization_Converged-OPLS-2005>
0

> <r_mmod_RMS_Derivative-OPLS-2005>
0.327941983938217

$$$$
67
                    3D
 Structure written by MMmdl.
163172  0  0  1  0            999 V2000
  -30.6822  -14.5071   20.5268 C   0  0  0  0  0  0
  -30.4248  -12.3107   19.4446 C   0  0  0  0  0  0
  -29.5050  -12.4976   18.2197 C   0  0  0  0  0  0
  -28.0224  -12.3649   18.6223 C   0  0  0  0  0  0
  -27.6615  -13.2126   19.8725 C   0  0  2  0  0  0
  -28.7000  -13.0145   21.0009 C   0  0  0  0  0  0
  -25.2597  -13.8185   20.5666 C   0  0  0  0  0  0
  -24.1851  -13.0455   20.9176 C   0  0  0  0  0  0
  -24.6401  -11.6924   20.8717 C   0  0  0  0  0  0
  -23.9062  -10.4306   21.0389 C   0  0  0  0  0  0
  -24.3611   -9.4221   21.9164 C   0  0  0  0  0  0
  -23.6295   -8.2251   22.0742 C   0  0  0  0  0  0
  -22.4278   -8.0285   21.3538 C   0  0  0  0  0  0
  -21.9908   -9.0256   20.4644 C   0  0  0  0  0  0
  -22.7229  -10.2142   20.3044 C   0  0  0  0  0  0
  -21.6856   -6.0737   22.5284 C   0  0  0  0  0  0
  -21.4015   -6.5639   23.8217 C   0  0  0  0  0  0
  -21.3657   -5.6789   24.9177 C   0  0  0  0  0  0
  -21.6049   -4.3054   24.7222 C   0  0  0  0  0  0
  -21.8820   -3.8144   23.4345 C   0  0  0  0  0  0
  -21.9195   -4.6964   22.3404 C   0  0  0  0  0  0
  -22.7868  -13.5245   21.1834 C   0  0  0  0  0  0
  -22.1658   -4.2146   21.0978 F   0  0  0  0  0  0
  -21.5633   -3.4536   25.7734 F   0  0  0  0  0  0
  -30.0339  -13.3104   20.4537 N   0  0  0  0  0  0
  -26.3029  -12.9357   20.3346 N   0  0  0  0  0  0
  -25.9329  -11.6514   20.5751 N   0  0  0  0  0  0
  -22.0489  -12.8265   22.0391 N   0  0  0  0  0  0
  -25.4369  -15.1901   20.4099 N   0  0  0  0  0  0
  -31.8263  -14.6690   20.0914 O   0  0  0  0  0  0
  -21.6646   -6.8880   21.4243 O   0  0  0  0  0  0
  -22.3552  -14.5537   20.6650 O   0  0  0  0  0  0
  -24.6183  -31.8675   23.2098 C   0  0  0  0  0  0
  -25.9068  -32.4812   23.8398 C   0  0  1  0  0  0
  -27.2224  -27.3933   20.0974 C   0  0  0  0  0  0
  -25.5909  -33.8610   24.2325 N   0  0  0  0  0  0
  -23.4068  -30.4950   21.5509 C   0  0  2  0  0  0
  -24.8492  -28.9627   20.1105 C   0  0  0  0  0  0
  -22.7430  -29.4670   22.4968 C   0  0  0  0  0  0
  -18.0279  -28.1386   22.8496 C   0  0  0  0  0  0
  -24.1486  -36.7317   23.2638 C   0  0  0  0  0  0
  -25.9414  -30.8183   21.3728 C   0  0  0  0  0  0
  -26.0123  -29.4517   20.7165 C   0  0  0  0  0  0
  -27.1977  -28.6734   20.7109 C   0  0  0  0  0  0
  -26.0400  -26.9498   19.4544 C   0  0  0  0  0  0
  -24.8603  -27.7124   19.4767 C   0  0  0  0  0  0
  -23.6163  -29.8361   20.1630 C   0  0  0  0  0  0
  -25.4106  -36.3111   24.0340 C   0  0  1  0  0  0
  -20.5872  -28.3687   23.1298 C   0  0  2  0  0  0
  -20.6766  -26.9419   22.5416 C   0  0  0  0  0  0
  -19.5745  -26.6390   21.5214 C   0  0  0  0  0  0
  -18.1925  -26.7929   22.1624 C   0  0  0  0  0  0
  -19.1529  -28.8854   23.2893 C   0  0  0  0  0  0
  -18.9456  -30.1451   23.8916 C   0  0  0  0  0  0
  -17.6463  -30.6593   24.0570 C   0  0  0  0  0  0
  -25.9042  -34.9474   23.5131 C   0  0  0  0  0  0
  -16.5353  -29.9104   23.6319 C   0  0  0  0  0  0
  -16.7270  -28.6515   23.0351 C   0  0  0  0  0  0
  -26.4482  -31.6593   25.0734 C   0  0  0  0  0  0
  -25.3739  -31.3720   26.1483 C   0  0  0  0  0  0
  -27.0308  -30.3020   24.6139 C   0  0  0  0  0  0
  -27.6063  -32.4313   25.7490 C   0  0  0  0  0  0
  -27.5586  -37.1809   24.8466 C   0  0  0  0  0  0
  -21.4156  -29.3049   22.3701 N   0  0  0  0  0  0
  -26.4292  -37.3797   23.9416 N   0  0  0  0  0  0
  -24.6740  -31.0754   22.1018 N   0  0  0  0  0  0
  -23.4192  -28.8206   23.3014 O   0  0  0  0  0  0
  -28.3777  -26.6197   20.1608 O   0  0  0  0  0  0
  -26.5609  -34.8928   22.4698 O   0  0  0  0  0  0
  -23.5365  -32.1449   23.7468 O   0  0  0  0  0  0
  -29.7342  -18.1262   18.2015 C   0  0  0  0  0  0
  -29.4530  -19.2997   18.9244 C   0  0  0  0  0  0
  -29.9389  -16.9075   18.8720 C   0  0  0  0  0  0
  -29.5956  -18.0351   21.0043 C   0  0  0  0  0  0
  -29.4105  -19.2825   20.3348 C   0  0  0  0  0  0
  -29.8588  -16.8347   20.2839 C   0  0  0  0  0  0
  -31.7702  -22.5853   19.4315 C   0  0  0  0  0  0
  -30.4425  -22.9200   18.7570 C   0  0  0  0  0  0
  -31.3917  -21.5624   20.5058 C   0  0  0  0  0  0
  -29.4140  -22.8420   19.8985 C   0  0  2  0  0  0
  -29.1183  -20.5889   21.1148 C   0  0  0  0  0  0
  -29.2325  -24.2570   20.5593 C   0  0  0  0  0  0
  -28.3302  -25.2299   19.7428 C   0  0  0  0  0  0
  -29.9487  -15.5626   20.9503 N   0  0  0  0  0  0
  -29.9634  -21.8085   20.8422 N   0  3  1  0  0  0
  -31.4710  -12.4030   19.1483 H   0  0  0  0  0  0
  -30.3229  -11.3032   19.8510 H   0  0  0  0  0  0
  -29.7513  -11.7637   17.4512 H   0  0  0  0  0  0
  -29.6811  -13.4779   17.7749 H   0  0  0  0  0  0
  -27.8296  -11.3097   18.8211 H   0  0  0  0  0  0
  -27.3782  -12.6357   17.7846 H   0  0  0  0  0  0
  -27.6990  -14.2577   19.5635 H   0  0  0  0  0  0
  -28.6734  -11.9866   21.3656 H   0  0  0  0  0  0
  -28.4627  -13.6408   21.8615 H   0  0  0  0  0  0
  -25.2749   -9.5705   22.4742 H   0  0  0  0  0  0
  -24.0008   -7.4649   22.7463 H   0  0  0  0  0  0
  -21.0833   -8.8773   19.8960 H   0  0  0  0  0  0
  -22.3671  -10.9674   19.6159 H   0  0  0  0  0  0
  -21.1998   -7.6145   23.9718 H   0  0  0  0  0  0
  -21.1480   -6.0517   25.9084 H   0  0  0  0  0  0
  -22.0597   -2.7605   23.2845 H   0  0  0  0  0  0
  -22.4077  -11.9938   22.4829 H   0  0  0  0  0  0
  -21.1098  -13.1308   22.2541 H   0  0  0  0  0  0
  -24.6785  -15.8545   20.5218 H   0  0  0  0  0  0
  -26.3000  -15.6215   20.1029 H   0  0  0  0  0  0
  -26.7137  -32.5511   23.1158 H   0  0  0  0  0  0
  -25.0044  -33.9768   25.0457 H   0  0  0  0  0  0
  -22.6977  -31.3143   21.4146 H   0  0  0  0  0  0
  -23.3745  -35.9651   23.3292 H   0  0  0  0  0  0
  -24.3590  -36.8942   22.2056 H   0  0  0  0  0  0
  -23.7231  -37.6518   23.6653 H   0  0  0  0  0  0
  -26.0653  -31.5841   20.6060 H   0  0  0  0  0  0
  -26.8256  -30.8648   21.9970 H   0  0  0  0  0  0
  -28.0899  -29.0440   21.1964 H   0  0  0  0  0  0
  -25.9859  -26.0166   18.9167 H   0  0  0  0  0  0
  -23.9704  -27.3368   18.9906 H   0  0  0  0  0  0
  -23.7347  -30.6157   19.4097 H   0  0  0  0  0  0
  -22.7376  -29.2652   19.8584 H   0  0  0  0  0  0
  -25.1274  -36.1983   25.0830 H   0  0  0  0  0  0
  -20.9963  -28.3262   24.1419 H   0  0  0  0  0  0
  -20.5665  -26.2310   23.3615 H   0  0  0  0  0  0
  -21.6639  -26.7463   22.1211 H   0  0  0  0  0  0
  -19.6909  -25.6303   21.1242 H   0  0  0  0  0  0
  -19.6671  -27.3202   20.6743 H   0  0  0  0  0  0
  -17.4195  -26.6687   21.4023 H   0  0  0  0  0  0
  -18.0321  -26.0064   22.9015 H   0  0  0  0  0  0
  -19.7940  -30.7251   24.2298 H   0  0  0  0  0  0
  -17.5027  -31.6271   24.5178 H   0  0  0  0  0  0
  -15.5355  -30.3021   23.7620 H   0  0  0  0  0  0
  -15.8665  -28.0835   22.7060 H   0  0  0  0  0  0
  -24.5899  -30.7082   25.7822 H   0  0  0  0  0  0
  -24.8947  -32.2885   26.4933 H   0  0  0  0  0  0
  -25.8083  -30.8883   27.0241 H   0  0  0  0  0  0
  -26.2858  -29.6783   24.1183 H   0  0  0  0  0  0
  -27.4045  -29.7258   25.4616 H   0  0  0  0  0  0
  -27.8713  -30.4314   23.9318 H   0  0  0  0  0  0
  -27.2684  -33.3604   26.2091 H   0  0  0  0  0  0
  -28.3852  -32.6888   25.0300 H   0  0  0  0  0  0
  -28.0752  -31.8422   26.5385 H   0  0  0  0  0  0
  -28.2604  -38.0107   24.7518 H   0  0  0  0  0  0
  -28.1079  -36.2642   24.6269 H   0  0  0  0  0  0
  -27.2315  -37.1437   25.8871 H   0  0  0  0  0  0
  -20.9326  -29.8801   21.6943 H   0  0  0  0  0  0
  -26.0185  -38.2878   24.1411 H   0  0  0  0  0  0
  -29.7791  -18.1581   17.1214 H   0  0  0  0  0  0
  -29.2746  -20.2138   18.3795 H   0  0  0  0  0  0
  -30.1281  -16.0245   18.2780 H   0  0  0  0  0  0
  -29.5239  -17.9952   22.0832 H   0  0  0  0  0  0
  -32.1892  -23.4769   19.8997 H   0  0  0  0  0  0
  -32.5113  -22.1999   18.7294 H   0  0  0  0  0  0
  -30.2169  -22.1761   17.9935 H   0  0  0  0  0  0
  -30.4676  -23.8873   18.2547 H   0  0  0  0  0  0
  -32.0184  -21.6540   21.3931 H   0  0  0  0  0  0
  -31.5694  -20.5663   20.1061 H   0  0  0  0  0  0
  -28.4494  -22.5154   19.5060 H   0  0  0  0  0  0
  -29.2489  -20.3652   22.1737 H   0  0  0  0  0  0
  -28.0611  -20.8346   21.0111 H   0  0  0  0  0  0
  -30.2068  -24.7171   20.7258 H   0  0  0  0  0  0
  -28.7844  -24.1446   21.5475 H   0  0  0  0  0  0
  -27.3361  -24.7965   19.8283 H   0  0  0  0  0  0
  -28.5971  -25.2029   18.6869 H   0  0  0  0  0  0
  -29.1689  -15.3328   21.5484 H   0  0  0  0  0  0
  -29.9780  -22.2793   21.7339 H   0  0  0  0  0  0
  1 25  1  0  0  0
  1 30  2  0  0  0
  1 84  1  0  0  0
  2  3  1  0  0  0
  2 25  1  0  0  0
  2 86  1  0  0  0
  2 87  1  0  0  0
  3  4  1  0  0  0
  3 88  1  0  0  0
  3 89  1  0  0  0
  4  5  1  0  0  0
  4 90  1  0  0  0
  4 91  1  0  0  0
  5  6  1  0  0  0
  5 26  1  0  0  0
  5 92  1  0  0  0
  6 25  1  0  0  0
  6 93  1  0  0  0
  6 94  1  0  0  0
  7  8  2  0  0  0
  7 26  1  0  0  0
  7 29  1  0  0  0
  8  9  1  0  0  0
  8 22  1  0  0  0
  9 10  1  0  0  0
  9 27  2  0  0  0
 10 11  2  0  0  0
 10 15  1  0  0  0
 11 12  1  0  0  0
 11 95  1  0  0  0
 12 13  2  0  0  0
 12 96  1  0  0  0
 13 14  1  0  0  0
 13 31  1  0  0  0
 14 15  2  0  0  0
 14 97  1  0  0  0
 15 98  1  0  0  0
 16 17  2  0  0  0
 16 21  1  0  0  0
 16 31  1  0  0  0
 17 18  1  0  0  0
 17 99  1  0  0  0
 18 19  2  0  0  0
 18100  1  0  0  0
 19 20  1  0  0  0
 19 24  1  0  0  0
 20 21  2  0  0  0
 20101  1  0  0  0
 21 23  1  0  0  0
 22 28  1  0  0  0
 22 32  2  0  0  0
 26 27  1  0  0  0
 28102  1  0  0  0
 28103  1  0  0  0
 29104  1  0  0  0
 29105  1  0  0  0
 33 34  1  0  0  0
 33 66  1  0  0  0
 33 70  2  0  0  0
 34 36  1  0  0  0
 34 59  1  0  0  0
 34106  1  0  0  0
 35 44  2  0  0  0
 35 45  1  0  0  0
 35 68  1  0  0  0
 36 56  1  0  0  0
 36107  1  0  0  0
 37 39  1  0  0  0
 37 47  1  0  0  0
 37 66  1  0  0  0
 37108  1  0  0  0
 38 43  2  0  0  0
 38 46  1  0  0  0
 38 47  1  0  0  0
 39 64  1  0  0  0
 39 67  2  0  0  0
 40 52  1  0  0  0
 40 53  2  0  0  0
 40 58  1  0  0  0
 41109  1  0  0  0
 41110  1  0  0  0
 41111  1  0  0  0
 41 48  1  0  0  0
 42 43  1  0  0  0
 42 66  1  0  0  0
 42112  1  0  0  0
 42113  1  0  0  0
 43 44  1  0  0  0
 44114  1  0  0  0
 45 46  2  0  0  0
 45115  1  0  0  0
 46116  1  0  0  0
 47117  1  0  0  0
 47118  1  0  0  0
 48 56  1  0  0  0
 48 65  1  0  0  0
 48119  1  0  0  0
 49 50  1  0  0  0
 49 53  1  0  0  0
 49 64  1  0  0  0
 49120  1  0  0  0
 50 51  1  0  0  0
 50121  1  0  0  0
 50122  1  0  0  0
 51 52  1  0  0  0
 51123  1  0  0  0
 51124  1  0  0  0
 52125  1  0  0  0
 52126  1  0  0  0
 53 54  1  0  0  0
 54 55  2  0  0  0
 54127  1  0  0  0
 55 57  1  0  0  0
 55128  1  0  0  0
 56 69  2  0  0  0
 57 58  2  0  0  0
 57129  1  0  0  0
 58130  1  0  0  0
 59 60  1  0  0  0
 59 61  1  0  0  0
 59 62  1  0  0  0
 60131  1  0  0  0
 60132  1  0  0  0
 60133  1  0  0  0
 61134  1  0  0  0
 61135  1  0  0  0
 61136  1  0  0  0
 62137  1  0  0  0
 62138  1  0  0  0
 62139  1  0  0  0
 63 65  1  0  0  0
 63140  1  0  0  0
 63141  1  0  0  0
 63142  1  0  0  0
 64143  1  0  0  0
 65144  1  0  0  0
 68 83  1  0  0  0
 71 72  2  0  0  0
 71 73  1  0  0  0
 71145  1  0  0  0
 72 75  1  0  0  0
 72146  1  0  0  0
 73 76  2  0  0  0
 73147  1  0  0  0
 74 75  2  0  0  0
 74 76  1  0  0  0
 74148  1  0  0  0
 75 81  1  0  0  0
 76 84  1  0  0  0
 77 78  1  0  0  0
 77 79  1  0  0  0
 77149  1  0  0  0
 77150  1  0  0  0
 78 80  1  0  0  0
 78151  1  0  0  0
 78152  1  0  0  0
 79 85  1  0  0  0
 79153  1  0  0  0
 79154  1  0  0  0
 80 82  1  0  0  0
 80 85  1  0  0  0
 80155  1  0  0  0
 81156  1  0  0  0
 81157  1  0  0  0
 81 85  1  0  0  0
 82 83  1  0  0  0
 82158  1  0  0  0
 82159  1  0  0  0
 83160  1  0  0  0
 83161  1  0  0  0
 84162  1  0  0  0
 85163  1  0  0  0
M  CHG  1  85   1
M  ISO  4   1 100  68 101  83 101  84 100
M  END
> <chiral flag>
0

> <version>
0

> <s_m_source_file>
/data/baiqing/PycharmProjects/Reinvent-master-3.2/result/LINK_invent/BTK/process_docking_weight1_custom_product_contain_oxygen_bond_distance_aromatic_linkinvent_7_9_3/rearranged_h_0102.sdf

> <i_m_source_file_index>
67

> <r_mmod_Potential_Energy-OPLS-2005>
-38.0251083374023

> <r_mmod_Stretch_Energy-OPLS-2005>
49.9390830993652

> <r_mmod_Bend_Energy-OPLS-2005>
133.971496582031

> <r_mmod_Torsional_Energy-OPLS-2005>
306.734161376953

> <r_mmod_Improper_Torsional_Energy-OPLS-2005>
5.41689300537109

> <r_mmod_Van_der_Waal_Energy-OPLS-2005>
152.348709106445

> <r_mmod_Electrostatic_Energy-OPLS-2005>
-256.033569335938

> <r_mmod_Solvation_Energy-OPLS-2005>
-451.326446533203

> <b_mmod_Minimization_Converged-OPLS-2005>
0

> <r_mmod_RMS_Derivative-OPLS-2005>
1.61807644367218

$$$$
68
                    3D
 Structure written by MMmdl.
163172  0  0  1  0            999 V2000
  -30.5975  -14.7370   20.5161 C   0  0  0  0  0  0
  -30.4540  -12.4789   19.4184 C   0  0  0  0  0  0
  -29.4818  -12.5007   18.2123 C   0  0  0  0  0  0
  -28.0294  -12.2270   18.6619 C   0  0  0  0  0  0
  -27.6423  -13.1202   19.8553 C   0  0  2  0  0  0
  -28.7202  -13.0129   20.9724 C   0  0  0  0  0  0
  -25.2495  -13.7890   20.5540 C   0  0  0  0  0  0
  -24.1738  -13.0263   20.9240 C   0  0  0  0  0  0
  -24.6281  -11.6751   20.8906 C   0  0  0  0  0  0
  -23.8952  -10.4204   21.0553 C   0  0  0  0  0  0
  -24.3541   -9.4126   21.9292 C   0  0  0  0  0  0
  -23.6220   -8.2165   22.0797 C   0  0  0  0  0  0
  -22.4208   -8.0255   21.3566 C   0  0  0  0  0  0
  -21.9856   -9.0215   20.4649 C   0  0  0  0  0  0
  -22.7189  -10.2093   20.3111 C   0  0  0  0  0  0
  -21.6837   -6.0716   22.5274 C   0  0  0  0  0  0
  -21.4041   -6.5638   23.8213 C   0  0  0  0  0  0
  -21.3660   -5.6783   24.9170 C   0  0  0  0  0  0
  -21.6028   -4.3044   24.7218 C   0  0  0  0  0  0
  -21.8804   -3.8140   23.4345 C   0  0  0  0  0  0
  -21.9171   -4.6947   22.3404 C   0  0  0  0  0  0
  -22.7801  -13.5173   21.1912 C   0  0  0  0  0  0
  -22.1653   -4.2151   21.0973 F   0  0  0  0  0  0
  -21.5603   -3.4530   25.7728 F   0  0  0  0  0  0
  -29.9786  -13.4987   20.3888 N   0  0  0  0  0  0
  -26.2897  -12.8894   20.3349 N   0  0  0  0  0  0
  -25.9171  -11.6198   20.5928 N   0  0  0  0  0  0
  -22.0442  -12.8171   22.0503 N   0  0  0  0  0  0
  -25.3926  -15.1589   20.3618 N   0  0  0  0  0  0
  -31.8065  -14.8028   20.2693 O   0  0  0  0  0  0
  -21.6589   -6.8858   21.4234 O   0  0  0  0  0  0
  -22.3492  -14.5475   20.6752 O   0  0  0  0  0  0
  -24.6189  -31.8621   23.2050 C   0  0  0  0  0  0
  -25.9090  -32.4793   23.8339 C   0  0  1  0  0  0
  -27.2156  -27.3390   20.1541 C   0  0  0  0  0  0
  -25.5914  -33.8609   24.2278 N   0  0  0  0  0  0
  -23.4140  -30.4778   21.5433 C   0  0  2  0  0  0
  -24.8643  -28.9421   20.1131 C   0  0  0  0  0  0
  -22.7437  -29.4594   22.4925 C   0  0  0  0  0  0
  -18.0277  -28.1367   22.8491 C   0  0  0  0  0  0
  -24.1486  -36.7307   23.2625 C   0  0  0  0  0  0
  -25.9477  -30.8088   21.3631 C   0  0  0  0  0  0
  -26.0293  -29.4344   20.7170 C   0  0  0  0  0  0
  -27.2154  -28.6495   20.7152 C   0  0  0  0  0  0
  -26.0346  -26.8875   19.5268 C   0  0  0  0  0  0
  -24.8700  -27.6773   19.5031 C   0  0  0  0  0  0
  -23.6283  -29.8149   20.1574 C   0  0  0  0  0  0
  -25.4124  -36.3109   24.0291 C   0  0  1  0  0  0
  -20.5861  -28.3667   23.1314 C   0  0  2  0  0  0
  -20.6762  -26.9398   22.5418 C   0  0  0  0  0  0
  -19.5739  -26.6366   21.5222 C   0  0  0  0  0  0
  -18.1919  -26.7906   22.1643 C   0  0  0  0  0  0
  -19.1516  -28.8845   23.2898 C   0  0  0  0  0  0
  -18.9437  -30.1438   23.8901 C   0  0  0  0  0  0
  -17.6437  -30.6577   24.0548 C   0  0  0  0  0  0
  -25.9056  -34.9467   23.5096 C   0  0  0  0  0  0
  -16.5344  -29.9053   23.6328 C   0  0  0  0  0  0
  -16.7264  -28.6480   23.0360 C   0  0  0  0  0  0
  -26.4507  -31.6584   25.0681 C   0  0  0  0  0  0
  -25.3723  -31.3730   26.1379 C   0  0  0  0  0  0
  -27.0271  -30.2975   24.6107 C   0  0  0  0  0  0
  -27.6042  -32.4319   25.7495 C   0  0  0  0  0  0
  -27.5591  -37.1832   24.8487 C   0  0  0  0  0  0
  -21.4163  -29.3031   22.3732 N   0  0  0  0  0  0
  -26.4323  -37.3780   23.9393 N   0  0  0  0  0  0
  -24.6783  -31.0662   22.0975 N   0  0  0  0  0  0
  -23.4183  -28.8121   23.2989 O   0  0  0  0  0  0
  -28.3347  -26.5121   20.1906 O   0  0  0  0  0  0
  -26.5626  -34.8922   22.4662 O   0  0  0  0  0  0
  -23.5366  -32.1442   23.7401 O   0  0  0  0  0  0
  -29.9421  -19.6268   21.4957 C   0  0  0  0  0  0
  -30.0201  -18.2112   21.6504 C   0  0  0  0  0  0
  -30.5257  -19.3578   19.1820 C   0  0  0  0  0  0
  -30.6265  -17.9390   19.3312 C   0  0  0  0  0  0
  -30.1726  -20.2494   20.2421 C   0  0  0  0  0  0
  -30.3120  -17.3145   20.5761 C   0  0  0  0  0  0
  -31.3450  -22.2575   19.5958 C   0  0  0  0  0  0
  -29.0608  -22.5349   20.2467 C   0  0  0  0  0  0
  -31.4026  -23.6732   19.0116 C   0  0  0  0  0  0
  -30.4577  -24.6349   19.7108 C   0  0  0  0  0  0
  -29.0418  -24.0698   19.8114 C   0  0  2  0  0  0
  -31.0653  -17.1418   18.1081 C   0  0  0  0  0  0
  -28.3815  -16.0104   20.7648 C   0  0  0  0  0  0
  -28.1685  -25.1055   20.6227 C   0  0  0  0  0  0
  -30.1718  -21.7200   20.0443 N   0  0  0  0  0  0
  -29.8494  -15.9213   20.6891 N   0  0  0  0  0  0
  -32.4178  -21.6428   19.6385 O   0  0  0  0  0  0
  -28.0238  -22.0830   20.7484 O   0  0  0  0  0  0
  -31.4735  -12.6697   19.0735 H   0  0  0  0  0  0
  -30.4884  -11.4890   19.8805 H   0  0  0  0  0  0
  -29.7803  -11.7793   17.4516 H   0  0  0  0  0  0
  -29.5314  -13.4814   17.7327 H   0  0  0  0  0  0
  -27.9428  -11.1781   18.9515 H   0  0  0  0  0  0
  -27.3340  -12.3732   17.8372 H   0  0  0  0  0  0
  -27.6177  -14.0881   19.3870 H   0  0  0  0  0  0
  -28.8268  -11.9692   21.2700 H   0  0  0  0  0  0
  -28.4887  -13.5036   21.9133 H   0  0  0  0  0  0
  -25.2687   -9.5586   22.4900 H   0  0  0  0  0  0
  -23.9940   -7.4515   22.7483 H   0  0  0  0  0  0
  -21.0830   -8.8728   19.8892 H   0  0  0  0  0  0
  -22.3717  -10.9657   19.6230 H   0  0  0  0  0  0
  -21.2112   -7.6163   23.9744 H   0  0  0  0  0  0
  -21.1489   -6.0513   25.9076 H   0  0  0  0  0  0
  -22.0594   -2.7608   23.2819 H   0  0  0  0  0  0
  -22.4018  -11.9783   22.4823 H   0  0  0  0  0  0
  -21.1115  -13.1241   22.2824 H   0  0  0  0  0  0
  -24.5901  -15.7770   20.4162 H   0  0  0  0  0  0
  -26.2043  -15.6001   19.9517 H   0  0  0  0  0  0
  -26.7136  -32.5448   23.1053 H   0  0  0  0  0  0
  -25.0052  -33.9790   25.0422 H   0  0  0  0  0  0
  -22.7077  -31.2940   21.3984 H   0  0  0  0  0  0
  -23.3738  -35.9660   23.3375 H   0  0  0  0  0  0
  -24.3569  -36.8861   22.2032 H   0  0  0  0  0  0
  -23.7272  -37.6537   23.6609 H   0  0  0  0  0  0
  -26.0742  -31.5748   20.5954 H   0  0  0  0  0  0
  -26.8307  -30.8586   21.9858 H   0  0  0  0  0  0
  -28.1186  -29.0296   21.1762 H   0  0  0  0  0  0
  -26.0134  -25.9116   19.0618 H   0  0  0  0  0  0
  -23.9760  -27.3006   19.0255 H   0  0  0  0  0  0
  -23.7408  -30.5912   19.3963 H   0  0  0  0  0  0
  -22.7516  -29.2344   19.8647 H   0  0  0  0  0  0
  -25.1333  -36.1955   25.0778 H   0  0  0  0  0  0
  -20.9965  -28.3201   24.1428 H   0  0  0  0  0  0
  -20.5684  -26.2253   23.3590 H   0  0  0  0  0  0
  -21.6621  -26.7415   22.1212 H   0  0  0  0  0  0
  -19.6908  -25.6287   21.1245 H   0  0  0  0  0  0
  -19.6681  -27.3171   20.6747 H   0  0  0  0  0  0
  -17.4198  -26.6656   21.4043 H   0  0  0  0  0  0
  -18.0317  -26.0025   22.9026 H   0  0  0  0  0  0
  -19.7907  -30.7246   24.2281 H   0  0  0  0  0  0
  -17.4994  -31.6259   24.5139 H   0  0  0  0  0  0
  -15.5355  -30.2964   23.7637 H   0  0  0  0  0  0
  -15.8662  -28.0791   22.7082 H   0  0  0  0  0  0
  -24.5929  -30.7039   25.7755 H   0  0  0  0  0  0
  -24.8839  -32.2853   26.4779 H   0  0  0  0  0  0
  -25.8002  -30.8968   27.0185 H   0  0  0  0  0  0
  -26.2762  -29.6796   24.1127 H   0  0  0  0  0  0
  -27.3944  -29.7203   25.4614 H   0  0  0  0  0  0
  -27.8696  -30.4287   23.9299 H   0  0  0  0  0  0
  -27.2638  -33.3628   26.2056 H   0  0  0  0  0  0
  -28.3861  -32.6859   25.0336 H   0  0  0  0  0  0
  -28.0651  -31.8419   26.5427 H   0  0  0  0  0  0
  -28.2662  -38.0083   24.7445 H   0  0  0  0  0  0
  -28.1015  -36.2592   24.6415 H   0  0  0  0  0  0
  -27.2266  -37.1614   25.8882 H   0  0  0  0  0  0
  -20.9334  -29.8773   21.6972 H   0  0  0  0  0  0
  -26.0206  -38.2867   24.1330 H   0  0  0  0  0  0
  -29.6813  -20.2328   22.3509 H   0  0  0  0  0  0
  -29.7086  -17.8027   22.6005 H   0  0  0  0  0  0
  -30.7342  -19.7757   18.2041 H   0  0  0  0  0  0
  -31.1649  -23.6121   17.9487 H   0  0  0  0  0  0
  -32.4223  -24.0577   19.0816 H   0  0  0  0  0  0
  -30.4403  -25.5728   19.1537 H   0  0  0  0  0  0
  -30.8361  -24.8763   20.7023 H   0  0  0  0  0  0
  -28.6068  -24.0729   18.8123 H   0  0  0  0  0  0
  -32.1572  -17.1589   18.0456 H   0  0  0  0  0  0
  -30.6763  -17.5940   17.1967 H   0  0  0  0  0  0
  -30.7337  -16.1059   18.1072 H   0  0  0  0  0  0
  -27.9948  -16.9415   21.1752 H   0  0  0  0  0  0
  -27.8763  -15.3084   21.4069 H   0  0  0  0  0  0
  -28.0082  -16.0143   19.7428 H   0  0  0  0  0  0
  -28.4709  -25.0615   21.6692 H   0  0  0  0  0  0
  -27.1275  -24.7818   20.6414 H   0  0  0  0  0  0
  1 25  1  0  0  0
  1 30  2  0  0  0
  1 86  1  0  0  0
  2  3  1  0  0  0
  2 25  1  0  0  0
  2 89  1  0  0  0
  2 90  1  0  0  0
  3  4  1  0  0  0
  3 91  1  0  0  0
  3 92  1  0  0  0
  4  5  1  0  0  0
  4 93  1  0  0  0
  4 94  1  0  0  0
  5  6  1  0  0  0
  5 26  1  0  0  0
  5 95  1  0  0  0
  6 25  1  0  0  0
  6 96  1  0  0  0
  6 97  1  0  0  0
  7  8  2  0  0  0
  7 26  1  0  0  0
  7 29  1  0  0  0
  8  9  1  0  0  0
  8 22  1  0  0  0
  9 10  1  0  0  0
  9 27  2  0  0  0
 10 11  2  0  0  0
 10 15  1  0  0  0
 11 12  1  0  0  0
 11 98  1  0  0  0
 12 13  2  0  0  0
 12 99  1  0  0  0
 13 14  1  0  0  0
 13 31  1  0  0  0
 14 15  2  0  0  0
 14100  1  0  0  0
 15101  1  0  0  0
 16 17  2  0  0  0
 16 21  1  0  0  0
 16 31  1  0  0  0
 17 18  1  0  0  0
 17102  1  0  0  0
 18 19  2  0  0  0
 18103  1  0  0  0
 19 20  1  0  0  0
 19 24  1  0  0  0
 20 21  2  0  0  0
 20104  1  0  0  0
 21 23  1  0  0  0
 22 28  1  0  0  0
 22 32  2  0  0  0
 26 27  1  0  0  0
 28105  1  0  0  0
 28106  1  0  0  0
 29107  1  0  0  0
 29108  1  0  0  0
 33 34  1  0  0  0
 33 66  1  0  0  0
 33 70  2  0  0  0
 34 36  1  0  0  0
 34 59  1  0  0  0
 34109  1  0  0  0
 35 44  2  0  0  0
 35 45  1  0  0  0
 35 68  1  0  0  0
 36 56  1  0  0  0
 36110  1  0  0  0
 37 39  1  0  0  0
 37 47  1  0  0  0
 37 66  1  0  0  0
 37111  1  0  0  0
 38 43  2  0  0  0
 38 46  1  0  0  0
 38 47  1  0  0  0
 39 64  1  0  0  0
 39 67  2  0  0  0
 40 52  1  0  0  0
 40 53  2  0  0  0
 40 58  1  0  0  0
 41112  1  0  0  0
 41113  1  0  0  0
 41114  1  0  0  0
 41 48  1  0  0  0
 42 43  1  0  0  0
 42 66  1  0  0  0
 42115  1  0  0  0
 42116  1  0  0  0
 43 44  1  0  0  0
 44117  1  0  0  0
 45 46  2  0  0  0
 45118  1  0  0  0
 46119  1  0  0  0
 47120  1  0  0  0
 47121  1  0  0  0
 48 56  1  0  0  0
 48 65  1  0  0  0
 48122  1  0  0  0
 49 50  1  0  0  0
 49 53  1  0  0  0
 49 64  1  0  0  0
 49123  1  0  0  0
 50 51  1  0  0  0
 50124  1  0  0  0
 50125  1  0  0  0
 51 52  1  0  0  0
 51126  1  0  0  0
 51127  1  0  0  0
 52128  1  0  0  0
 52129  1  0  0  0
 53 54  1  0  0  0
 54 55  2  0  0  0
 54130  1  0  0  0
 55 57  1  0  0  0
 55131  1  0  0  0
 56 69  2  0  0  0
 57 58  2  0  0  0
 57132  1  0  0  0
 58133  1  0  0  0
 59 60  1  0  0  0
 59 61  1  0  0  0
 59 62  1  0  0  0
 60134  1  0  0  0
 60135  1  0  0  0
 60136  1  0  0  0
 61137  1  0  0  0
 61138  1  0  0  0
 61139  1  0  0  0
 62140  1  0  0  0
 62141  1  0  0  0
 62142  1  0  0  0
 63 65  1  0  0  0
 63143  1  0  0  0
 63144  1  0  0  0
 63145  1  0  0  0
 64146  1  0  0  0
 65147  1  0  0  0
 68 84  1  0  0  0
 71 72  2  0  0  0
 71 75  1  0  0  0
 71148  1  0  0  0
 72 76  1  0  0  0
 72149  1  0  0  0
 73 74  1  0  0  0
 73 75  2  0  0  0
 73150  1  0  0  0
 74 76  2  0  0  0
 74 82  1  0  0  0
 75 85  1  0  0  0
 76 86  1  0  0  0
 77 79  1  0  0  0
 77 85  1  0  0  0
 77 87  2  0  0  0
 78 81  1  0  0  0
 78 85  1  0  0  0
 78 88  2  0  0  0
 79 80  1  0  0  0
 79151  1  0  0  0
 79152  1  0  0  0
 80 81  1  0  0  0
 80153  1  0  0  0
 80154  1  0  0  0
 81 84  1  0  0  0
 81155  1  0  0  0
 82156  1  0  0  0
 82157  1  0  0  0
 82158  1  0  0  0
 83 86  1  0  0  0
 83159  1  0  0  0
 83160  1  0  0  0
 83161  1  0  0  0
 84162  1  0  0  0
 84163  1  0  0  0
M  ISO  4   1 100  68 101  84 101  86 100
M  END
> <chiral flag>
0

> <version>
0

> <s_m_source_file>
/data/baiqing/PycharmProjects/Reinvent-master-3.2/result/LINK_invent/BTK/process_docking_weight1_custom_product_contain_oxygen_bond_distance_aromatic_linkinvent_7_9_3/rearranged_h_0102.sdf

> <i_m_source_file_index>
68

> <r_mmod_Potential_Energy-OPLS-2005>
433.023529052734

> <r_mmod_Stretch_Energy-OPLS-2005>
104.090057373047

> <r_mmod_Bend_Energy-OPLS-2005>
188.667358398438

> <r_mmod_Torsional_Energy-OPLS-2005>
379.325988769531

> <r_mmod_Improper_Torsional_Energy-OPLS-2005>
10.7633924484253

> <r_mmod_Van_der_Waal_Energy-OPLS-2005>
195.053161621094

> <r_mmod_Electrostatic_Energy-OPLS-2005>
-293.093566894531

> <r_mmod_Solvation_Energy-OPLS-2005>
-219.678573608398

> <b_mmod_Minimization_Converged-OPLS-2005>
0

> <r_mmod_RMS_Derivative-OPLS-2005>
6.75239372253418

$$$$
69
                    3D
 Structure written by MMmdl.
166174  0  0  1  0            999 V2000
  -30.7059  -14.5563   20.4814 C   0  0  0  0  0  0
  -30.4037  -12.3335   19.4672 C   0  0  0  0  0  0
  -29.5008  -12.4698   18.2248 C   0  0  0  0  0  0
  -28.0191  -12.3449   18.6258 C   0  0  0  0  0  0
  -27.6452  -13.2259   19.8511 C   0  0  2  0  0  0
  -28.6818  -13.1053   20.9878 C   0  0  0  0  0  0
  -25.2526  -13.8205   20.5684 C   0  0  0  0  0  0
  -24.1805  -13.0462   20.9207 C   0  0  0  0  0  0
  -24.6380  -11.6938   20.8744 C   0  0  0  0  0  0
  -23.9050  -10.4314   21.0420 C   0  0  0  0  0  0
  -24.3605   -9.4232   21.9204 C   0  0  0  0  0  0
  -23.6291   -8.2250   22.0754 C   0  0  0  0  0  0
  -22.4273   -8.0284   21.3545 C   0  0  0  0  0  0
  -21.9910   -9.0257   20.4641 C   0  0  0  0  0  0
  -22.7224  -10.2147   20.3066 C   0  0  0  0  0  0
  -21.6853   -6.0731   22.5280 C   0  0  0  0  0  0
  -21.4003   -6.5635   23.8207 C   0  0  0  0  0  0
  -21.3662   -5.6795   24.9173 C   0  0  0  0  0  0
  -21.6044   -4.3055   24.7230 C   0  0  0  0  0  0
  -21.8823   -3.8145   23.4351 C   0  0  0  0  0  0
  -21.9197   -4.6960   22.3408 C   0  0  0  0  0  0
  -22.7829  -13.5246   21.1880 C   0  0  0  0  0  0
  -22.1668   -4.2142   21.0984 F   0  0  0  0  0  0
  -21.5638   -3.4543   25.7744 F   0  0  0  0  0  0
  -30.0038  -13.3860   20.4232 N   0  0  0  0  0  0
  -26.2943  -12.9402   20.3257 N   0  0  0  0  0  0
  -25.9310  -11.6554   20.5740 N   0  0  0  0  0  0
  -22.0454  -12.8230   22.0409 N   0  0  0  0  0  0
  -25.4295  -15.1910   20.4113 N   0  0  0  0  0  0
  -31.8980  -14.5520   20.1610 O   0  0  0  0  0  0
  -21.6642   -6.8878   21.4240 O   0  0  0  0  0  0
  -22.3552  -14.5585   20.6773 O   0  0  0  0  0  0
  -24.6151  -31.8650   23.2054 C   0  0  0  0  0  0
  -25.9048  -32.4797   23.8352 C   0  0  1  0  0  0
  -27.2273  -27.3957   20.1246 C   0  0  0  0  0  0
  -25.5907  -33.8593   24.2303 N   0  0  0  0  0  0
  -23.4069  -30.4877   21.5447 C   0  0  2  0  0  0
  -24.8558  -28.9439   20.1153 C   0  0  0  0  0  0
  -22.7410  -29.4634   22.4931 C   0  0  0  0  0  0
  -18.0306  -28.1367   22.8477 C   0  0  0  0  0  0
  -24.1514  -36.7320   23.2632 C   0  0  0  0  0  0
  -25.9395  -30.8185   21.3678 C   0  0  0  0  0  0
  -26.0169  -29.4498   20.7156 C   0  0  0  0  0  0
  -27.2083  -28.6851   20.7119 C   0  0  0  0  0  0
  -26.0518  -26.9077   19.5216 C   0  0  0  0  0  0
  -24.8715  -27.6752   19.5101 C   0  0  0  0  0  0
  -23.6220  -29.8196   20.1595 C   0  0  0  0  0  0
  -25.4127  -36.3080   24.0329 C   0  0  1  0  0  0
  -20.5882  -28.3673   23.1275 C   0  0  2  0  0  0
  -20.6797  -26.9404   22.5384 C   0  0  0  0  0  0
  -19.5786  -26.6360   21.5189 C   0  0  0  0  0  0
  -18.1961  -26.7910   22.1595 C   0  0  0  0  0  0
  -19.1546  -28.8827   23.2892 C   0  0  0  0  0  0
  -18.9484  -30.1442   23.8896 C   0  0  0  0  0  0
  -17.6478  -30.6567   24.0559 C   0  0  0  0  0  0
  -25.9044  -34.9453   23.5110 C   0  0  0  0  0  0
  -16.5373  -29.9073   23.6313 C   0  0  0  0  0  0
  -16.7292  -28.6501   23.0305 C   0  0  0  0  0  0
  -26.4478  -31.6575   25.0690 C   0  0  0  0  0  0
  -25.3701  -31.3722   26.1414 C   0  0  0  0  0  0
  -27.0348  -30.3005   24.6131 C   0  0  0  0  0  0
  -27.6050  -32.4304   25.7456 C   0  0  0  0  0  0
  -27.5599  -37.1803   24.8458 C   0  0  0  0  0  0
  -21.4132  -29.3035   22.3673 N   0  0  0  0  0  0
  -26.4318  -37.3756   23.9399 N   0  0  0  0  0  0
  -24.6721  -31.0704   22.0979 N   0  0  0  0  0  0
  -23.4169  -28.8131   23.2962 O   0  0  0  0  0  0
  -28.3737  -26.6278   20.0974 O   0  0  0  0  0  0
  -26.5565  -34.8902   22.4651 O   0  0  0  0  0  0
  -23.5336  -32.1436   23.7418 O   0  0  0  0  0  0
  -31.5101  -19.1340   19.6346 C   0  0  0  0  0  0
  -30.4832  -21.3073   19.8708 C   0  0  0  0  0  0
  -30.3936  -18.4714   20.1999 C   0  0  0  0  0  0
  -29.2943  -19.2892   20.6276 C   0  0  0  0  0  0
  -31.5739  -20.5234   19.4756 C   0  0  0  0  0  0
  -29.3396  -20.7209   20.4618 C   0  0  0  0  0  0
  -30.6056  -16.9744   20.2456 C   0  0  0  0  0  0
  -29.9934  -15.8443   20.7172 C   0  0  0  0  0  0
  -28.0758  -18.6482   21.2703 C   0  0  0  0  0  0
  -36.2650  -20.0195   19.5713 C   0  0  0  0  0  0
  -34.8402  -19.9454   19.0024 C   0  0  0  0  0  0
  -28.2313  -24.0631   20.3126 C   0  0  0  0  0  0
  -33.8944  -20.9870   19.6339 C   0  0  0  0  0  0
  -28.4022  -25.4722   20.9706 C   0  0  0  0  0  0
  -28.5283  -22.8880   21.3035 C   0  0  0  0  0  0
  -32.6716  -21.1301   18.9123 O   0  0  0  0  0  0
  -28.2753  -21.5333   20.8416 O   0  0  0  0  0  0
  -31.4520  -12.3953   19.1700 H   0  0  0  0  0  0
  -30.2877  -11.3494   19.9211 H   0  0  0  0  0  0
  -29.7538  -11.7014   17.4927 H   0  0  0  0  0  0
  -29.6742  -13.4286   17.7364 H   0  0  0  0  0  0
  -27.8306  -11.2959   18.8564 H   0  0  0  0  0  0
  -27.3794  -12.5916   17.7765 H   0  0  0  0  0  0
  -27.6623  -14.2580   19.5014 H   0  0  0  0  0  0
  -28.6708  -12.1015   21.4174 H   0  0  0  0  0  0
  -28.4448  -13.7857   21.8068 H   0  0  0  0  0  0
  -25.2746   -9.5711   22.4786 H   0  0  0  0  0  0
  -24.0010   -7.4634   22.7471 H   0  0  0  0  0  0
  -21.0843   -8.8769   19.8939 H   0  0  0  0  0  0
  -22.3688  -10.9687   19.6168 H   0  0  0  0  0  0
  -21.1983   -7.6142   23.9711 H   0  0  0  0  0  0
  -21.1477   -6.0520   25.9075 H   0  0  0  0  0  0
  -22.0605   -2.7604   23.2855 H   0  0  0  0  0  0
  -22.4070  -11.9857   22.4758 H   0  0  0  0  0  0
  -21.1075  -13.1267   22.2612 H   0  0  0  0  0  0
  -24.6747  -15.8561   20.5332 H   0  0  0  0  0  0
  -26.2840  -15.6158   20.0716 H   0  0  0  0  0  0
  -26.7114  -32.5516   23.1102 H   0  0  0  0  0  0
  -25.0096  -33.9782   25.0467 H   0  0  0  0  0  0
  -22.6980  -31.3045   21.3962 H   0  0  0  0  0  0
  -23.3761  -35.9671   23.3290 H   0  0  0  0  0  0
  -24.3605  -36.8947   22.2053 H   0  0  0  0  0  0
  -23.7303  -37.6541   23.6654 H   0  0  0  0  0  0
  -26.0625  -31.5825   20.5994 H   0  0  0  0  0  0
  -26.8208  -30.8684   21.9961 H   0  0  0  0  0  0
  -28.1079  -29.0686   21.1746 H   0  0  0  0  0  0
  -26.0520  -25.9290   19.0641 H   0  0  0  0  0  0
  -23.9798  -27.2796   19.0418 H   0  0  0  0  0  0
  -23.7381  -30.5981   19.4040 H   0  0  0  0  0  0
  -22.7426  -29.2478   19.8570 H   0  0  0  0  0  0
  -25.1305  -36.1929   25.0816 H   0  0  0  0  0  0
  -21.0038  -28.3282   24.1369 H   0  0  0  0  0  0
  -20.5724  -26.2285   23.3585 H   0  0  0  0  0  0
  -21.6664  -26.7431   22.1164 H   0  0  0  0  0  0
  -19.6960  -25.6258   21.1255 H   0  0  0  0  0  0
  -19.6740  -27.3133   20.6697 H   0  0  0  0  0  0
  -17.4219  -26.6647   21.4007 H   0  0  0  0  0  0
  -18.0397  -26.0043   22.8981 H   0  0  0  0  0  0
  -19.7962  -30.7288   24.2214 H   0  0  0  0  0  0
  -17.5036  -31.6242   24.5183 H   0  0  0  0  0  0
  -15.5384  -30.2976   23.7633 H   0  0  0  0  0  0
  -15.8698  -28.0862   22.6935 H   0  0  0  0  0  0
  -24.5853  -30.7099   25.7741 H   0  0  0  0  0  0
  -24.8908  -32.2914   26.4807 H   0  0  0  0  0  0
  -25.7981  -30.8896   27.0208 H   0  0  0  0  0  0
  -26.2936  -29.6738   24.1163 H   0  0  0  0  0  0
  -27.4083  -29.7290   25.4637 H   0  0  0  0  0  0
  -27.8769  -30.4302   23.9332 H   0  0  0  0  0  0
  -27.2654  -33.3592   26.2050 H   0  0  0  0  0  0
  -28.3848  -32.6875   25.0279 H   0  0  0  0  0  0
  -28.0734  -31.8413   26.5367 H   0  0  0  0  0  0
  -28.2559  -38.0139   24.7495 H   0  0  0  0  0  0
  -28.1141  -36.2655   24.6275 H   0  0  0  0  0  0
  -27.2318  -37.1456   25.8859 H   0  0  0  0  0  0
  -20.9271  -29.8823   21.6955 H   0  0  0  0  0  0
  -26.0215  -38.2847   24.1348 H   0  0  0  0  0  0
  -32.3569  -18.5659   19.2889 H   0  0  0  0  0  0
  -30.5443  -22.3725   19.7126 H   0  0  0  0  0  0
  -31.5287  -16.7554   19.7321 H   0  0  0  0  0  0
  -29.0478  -15.8867   21.2389 H   0  0  0  0  0  0
  -28.3286  -18.2543   22.2541 H   0  0  0  0  0  0
  -27.7053  -17.8283   20.6564 H   0  0  0  0  0  0
  -27.2590  -19.3574   21.4011 H   0  0  0  0  0  0
  -36.9010  -19.2484   19.1337 H   0  0  0  0  0  0
  -36.2746  -19.8864   20.6534 H   0  0  0  0  0  0
  -36.7270  -20.9829   19.3543 H   0  0  0  0  0  0
  -34.4619  -18.9346   19.1485 H   0  0  0  0  0  0
  -34.8844  -20.0973   17.9236 H   0  0  0  0  0  0
  -28.8892  -23.9899   19.4473 H   0  0  0  0  0  0
  -27.2158  -23.9575   19.9329 H   0  0  0  0  0  0
  -34.3746  -21.9657   19.6226 H   0  0  0  0  0  0
  -33.7109  -20.7538   20.6849 H   0  0  0  0  0  0
  -29.3845  -25.4863   21.4445 H   0  0  0  0  0  0
  -27.6841  -25.5944   21.7844 H   0  0  0  0  0  0
  -27.8826  -23.0235   22.1719 H   0  0  0  0  0  0
  -29.5389  -22.9821   21.7038 H   0  0  0  0  0  0
  1 25  1  0  0  0
  1 30  2  0  0  0
  1 78  1  0  0  0
  2  3  1  0  0  0
  2 25  1  0  0  0
  2 88  1  0  0  0
  2 89  1  0  0  0
  3  4  1  0  0  0
  3 90  1  0  0  0
  3 91  1  0  0  0
  4  5  1  0  0  0
  4 92  1  0  0  0
  4 93  1  0  0  0
  5  6  1  0  0  0
  5 26  1  0  0  0
  5 94  1  0  0  0
  6 25  1  0  0  0
  6 95  1  0  0  0
  6 96  1  0  0  0
  7  8  2  0  0  0
  7 26  1  0  0  0
  7 29  1  0  0  0
  8  9  1  0  0  0
  8 22  1  0  0  0
  9 10  1  0  0  0
  9 27  2  0  0  0
 10 11  2  0  0  0
 10 15  1  0  0  0
 11 12  1  0  0  0
 11 97  1  0  0  0
 12 13  2  0  0  0
 12 98  1  0  0  0
 13 14  1  0  0  0
 13 31  1  0  0  0
 14 15  2  0  0  0
 14 99  1  0  0  0
 15100  1  0  0  0
 16 17  2  0  0  0
 16 21  1  0  0  0
 16 31  1  0  0  0
 17 18  1  0  0  0
 17101  1  0  0  0
 18 19  2  0  0  0
 18102  1  0  0  0
 19 20  1  0  0  0
 19 24  1  0  0  0
 20 21  2  0  0  0
 20103  1  0  0  0
 21 23  1  0  0  0
 22 28  1  0  0  0
 22 32  2  0  0  0
 26 27  1  0  0  0
 28104  1  0  0  0
 28105  1  0  0  0
 29106  1  0  0  0
 29107  1  0  0  0
 33 34  1  0  0  0
 33 66  1  0  0  0
 33 70  2  0  0  0
 34 36  1  0  0  0
 34 59  1  0  0  0
 34108  1  0  0  0
 35 44  2  0  0  0
 35 45  1  0  0  0
 35 68  1  0  0  0
 36 56  1  0  0  0
 36109  1  0  0  0
 37 39  1  0  0  0
 37 47  1  0  0  0
 37 66  1  0  0  0
 37110  1  0  0  0
 38 43  2  0  0  0
 38 46  1  0  0  0
 38 47  1  0  0  0
 39 64  1  0  0  0
 39 67  2  0  0  0
 40 52  1  0  0  0
 40 53  2  0  0  0
 40 58  1  0  0  0
 41111  1  0  0  0
 41112  1  0  0  0
 41113  1  0  0  0
 41 48  1  0  0  0
 42 43  1  0  0  0
 42 66  1  0  0  0
 42114  1  0  0  0
 42115  1  0  0  0
 43 44  1  0  0  0
 44116  1  0  0  0
 45 46  2  0  0  0
 45117  1  0  0  0
 46118  1  0  0  0
 47119  1  0  0  0
 47120  1  0  0  0
 48 56  1  0  0  0
 48 65  1  0  0  0
 48121  1  0  0  0
 49 50  1  0  0  0
 49 53  1  0  0  0
 49 64  1  0  0  0
 49122  1  0  0  0
 50 51  1  0  0  0
 50123  1  0  0  0
 50124  1  0  0  0
 51 52  1  0  0  0
 51125  1  0  0  0
 51126  1  0  0  0
 52127  1  0  0  0
 52128  1  0  0  0
 53 54  1  0  0  0
 54 55  2  0  0  0
 54129  1  0  0  0
 55 57  1  0  0  0
 55130  1  0  0  0
 56 69  2  0  0  0
 57 58  2  0  0  0
 57131  1  0  0  0
 58132  1  0  0  0
 59 60  1  0  0  0
 59 61  1  0  0  0
 59 62  1  0  0  0
 60133  1  0  0  0
 60134  1  0  0  0
 60135  1  0  0  0
 61136  1  0  0  0
 61137  1  0  0  0
 61138  1  0  0  0
 62139  1  0  0  0
 62140  1  0  0  0
 62141  1  0  0  0
 63 65  1  0  0  0
 63142  1  0  0  0
 63143  1  0  0  0
 63144  1  0  0  0
 64145  1  0  0  0
 65146  1  0  0  0
 68 84  1  0  0  0
 71 73  2  0  0  0
 71 75  1  0  0  0
 71147  1  0  0  0
 72 75  2  0  0  0
 72 76  1  0  0  0
 72148  1  0  0  0
 73 74  1  0  0  0
 73 77  1  0  0  0
 74 76  2  0  0  0
 74 79  1  0  0  0
 75 86  1  0  0  0
 76 87  1  0  0  0
 77 78  2  0  0  0
 77149  1  0  0  0
 78150  1  0  0  0
 79151  1  0  0  0
 79152  1  0  0  0
 79153  1  0  0  0
 80 81  1  0  0  0
 80154  1  0  0  0
 80155  1  0  0  0
 80156  1  0  0  0
 81 83  1  0  0  0
 81157  1  0  0  0
 81158  1  0  0  0
 82 84  1  0  0  0
 82 85  1  0  0  0
 82159  1  0  0  0
 82160  1  0  0  0
 83 86  1  0  0  0
 83161  1  0  0  0
 83162  1  0  0  0
 84163  1  0  0  0
 84164  1  0  0  0
 85 87  1  0  0  0
 85165  1  0  0  0
 85166  1  0  0  0
M  ISO  4   1 100  68 101  78 100  84 101
M  END
> <chiral flag>
0

> <version>
0

> <s_m_source_file>
/data/baiqing/PycharmProjects/Reinvent-master-3.2/result/LINK_invent/BTK/process_docking_weight1_custom_product_contain_oxygen_bond_distance_aromatic_linkinvent_7_9_3/rearranged_h_0102.sdf

> <i_m_source_file_index>
69

> <r_mmod_Potential_Energy-OPLS-2005>
103.019775390625

> <r_mmod_Stretch_Energy-OPLS-2005>
56.9152450561523

> <r_mmod_Bend_Energy-OPLS-2005>
162.508392333984

> <r_mmod_Torsional_Energy-OPLS-2005>
240.433731079102

> <r_mmod_Improper_Torsional_Energy-OPLS-2005>
4.42051410675049

> <r_mmod_Van_der_Waal_Energy-OPLS-2005>
162.313186645508

> <r_mmod_Electrostatic_Energy-OPLS-2005>
-356.880615234375

> <r_mmod_Solvation_Energy-OPLS-2005>
-197.385894775391

> <b_mmod_Minimization_Converged-OPLS-2005>
0

> <r_mmod_RMS_Derivative-OPLS-2005>
3.4149796962738

$$$$
70
                    3D
 Structure written by MMmdl.
171180  0  0  1  0            999 V2000
  -30.7501  -14.3353   20.6455 C   0  0  0  0  0  0
  -30.4024  -12.2708   19.3574 C   0  0  0  0  0  0
  -29.4668  -12.5577   18.1652 C   0  0  0  0  0  0
  -27.9832  -12.4731   18.5743 C   0  0  0  0  0  0
  -27.6623  -13.2200   19.8933 C   0  0  2  0  0  0
  -28.7082  -12.8918   20.9824 C   0  0  0  0  0  0
  -25.2526  -13.8214   20.5725 C   0  0  0  0  0  0
  -24.1793  -13.0442   20.9208 C   0  0  0  0  0  0
  -24.6380  -11.6932   20.8781 C   0  0  0  0  0  0
  -23.9067  -10.4298   21.0477 C   0  0  0  0  0  0
  -24.3645   -9.4196   21.9214 C   0  0  0  0  0  0
  -23.6323   -8.2216   22.0754 C   0  0  0  0  0  0
  -22.4296   -8.0261   21.3535 C   0  0  0  0  0  0
  -21.9930   -9.0255   20.4649 C   0  0  0  0  0  0
  -22.7267  -10.2132   20.3112 C   0  0  0  0  0  0
  -21.6833   -6.0729   22.5273 C   0  0  0  0  0  0
  -21.4001   -6.5650   23.8206 C   0  0  0  0  0  0
  -21.3665   -5.6818   24.9187 C   0  0  0  0  0  0
  -21.6054   -4.3075   24.7217 C   0  0  0  0  0  0
  -21.8829   -3.8138   23.4340 C   0  0  0  0  0  0
  -21.9193   -4.6959   22.3393 C   0  0  0  0  0  0
  -22.7805  -13.5202   21.1864 C   0  0  0  0  0  0
  -22.1682   -4.2144   21.0962 F   0  0  0  0  0  0
  -21.5646   -3.4565   25.7728 F   0  0  0  0  0  0
  -30.0464  -13.1949   20.4416 N   0  0  0  0  0  0
  -26.3005  -12.9411   20.3477 N   0  0  0  0  0  0
  -25.9295  -11.6540   20.5761 N   0  0  0  0  0  0
  -22.0476  -12.8156   22.0415 N   0  0  0  0  0  0
  -25.4192  -15.1918   20.4100 N   0  0  0  0  0  0
  -31.7886  -14.6140   20.0404 O   0  0  0  0  0  0
  -21.6633   -6.8862   21.4246 O   0  0  0  0  0  0
  -22.3452  -14.5511   20.6761 O   0  0  0  0  0  0
  -24.6157  -31.8649   23.2045 C   0  0  0  0  0  0
  -25.9048  -32.4799   23.8346 C   0  0  1  0  0  0
  -27.2470  -27.4119   20.0661 C   0  0  0  0  0  0
  -25.5900  -33.8604   24.2283 N   0  0  0  0  0  0
  -23.4067  -30.4846   21.5474 C   0  0  2  0  0  0
  -24.8531  -28.9441   20.1177 C   0  0  0  0  0  0
  -22.7407  -29.4649   22.4991 C   0  0  0  0  0  0
  -18.0277  -28.1358   22.8481 C   0  0  0  0  0  0
  -24.1493  -36.7296   23.2636 C   0  0  0  0  0  0
  -25.9400  -30.8140   21.3674 C   0  0  0  0  0  0
  -26.0171  -29.4480   20.7107 C   0  0  0  0  0  0
  -27.2127  -28.6878   20.6837 C   0  0  0  0  0  0
  -26.0534  -26.9256   19.4806 C   0  0  0  0  0  0
  -24.8671  -27.6808   19.5060 C   0  0  0  0  0  0
  -23.6143  -29.8091   20.1667 C   0  0  0  0  0  0
  -25.4123  -36.3097   24.0326 C   0  0  1  0  0  0
  -20.5855  -28.3664   23.1300 C   0  0  2  0  0  0
  -20.6764  -26.9397   22.5420 C   0  0  0  0  0  0
  -19.5762  -26.6355   21.5207 C   0  0  0  0  0  0
  -18.1930  -26.7917   22.1599 C   0  0  0  0  0  0
  -19.1517  -28.8832   23.2887 C   0  0  0  0  0  0
  -18.9452  -30.1443   23.8888 C   0  0  0  0  0  0
  -17.6451  -30.6586   24.0543 C   0  0  0  0  0  0
  -25.9048  -34.9464   23.5114 C   0  0  0  0  0  0
  -16.5350  -29.9075   23.6329 C   0  0  0  0  0  0
  -16.7259  -28.6490   23.0360 C   0  0  0  0  0  0
  -26.4441  -31.6603   25.0715 C   0  0  0  0  0  0
  -25.3674  -31.3717   26.1444 C   0  0  0  0  0  0
  -27.0304  -30.3050   24.6141 C   0  0  0  0  0  0
  -27.6008  -32.4310   25.7494 C   0  0  0  0  0  0
  -27.5588  -37.1808   24.8451 C   0  0  0  0  0  0
  -21.4127  -29.3031   22.3705 N   0  0  0  0  0  0
  -26.4303  -37.3789   23.9393 N   0  0  0  0  0  0
  -24.6727  -31.0696   22.0959 N   0  0  0  0  0  0
  -23.4169  -28.8205   23.3052 O   0  0  0  0  0  0
  -28.4328  -26.6892   20.0493 O   0  0  0  0  0  0
  -26.5621  -34.8918   22.4675 O   0  0  0  0  0  0
  -23.5340  -32.1412   23.7411 O   0  0  0  0  0  0
  -30.8265  -18.8860   21.1709 C   0  0  0  0  0  0
  -29.3927  -19.8314   19.4388 C   0  0  0  0  0  0
  -29.2239  -17.4678   20.0245 C   0  0  0  0  0  0
  -30.4131  -19.9909   20.4065 C   0  0  0  0  0  0
  -30.2372  -17.6221   21.0001 C   0  0  0  0  0  0
  -28.8123  -18.5543   19.2184 C   0  0  0  0  0  0
  -29.9061  -23.4613   20.4998 C   0  0  0  0  0  0
  -30.3484  -24.0387   18.2390 C   0  0  0  0  0  0
  -31.2379  -22.8729   18.6917 C   0  0  0  0  0  0
  -29.8212  -24.6621   19.5493 C   0  0  1  0  0  0
  -26.5838  -19.5001   14.8753 C   0  0  0  0  0  0
  -31.1637  -21.2953   20.6558 C   0  0  0  0  0  0
  -30.7507  -16.4791   21.8708 C   0  0  0  0  0  0
  -28.4350  -25.3655   19.4667 C   0  0  0  0  0  0
  -26.7974  -18.6130   16.1145 C   0  0  0  0  0  0
  -27.6239  -19.2666   17.2371 C   0  0  0  0  0  0
  -30.6784  -22.4959   19.9761 N   0  0  0  0  0  0
  -30.2182  -15.1655   21.5424 N   0  0  0  0  0  0
  -29.3590  -23.4211   21.6036 O   0  0  0  0  0  0
  -27.8652  -18.2889   18.2491 O   0  0  0  0  0  0
  -31.4472  -12.3599   19.0549 H   0  0  0  0  0  0
  -30.2817  -11.2429   19.6968 H   0  0  0  0  0  0
  -29.6610  -11.8684   17.3416 H   0  0  0  0  0  0
  -29.6695  -13.5562   17.7742 H   0  0  0  0  0  0
  -27.6958  -11.4242   18.6495 H   0  0  0  0  0  0
  -27.3747  -12.8946   17.7726 H   0  0  0  0  0  0
  -27.7318  -14.2861   19.6764 H   0  0  0  0  0  0
  -28.6641  -11.8313   21.2328 H   0  0  0  0  0  0
  -28.4808  -13.4052   21.9158 H   0  0  0  0  0  0
  -25.2818   -9.5665   22.4756 H   0  0  0  0  0  0
  -24.0044   -7.4603   22.7461 H   0  0  0  0  0  0
  -21.0863   -8.8815   19.8927 H   0  0  0  0  0  0
  -22.3787  -10.9695   19.6212 H   0  0  0  0  0  0
  -21.2002   -7.6167   23.9707 H   0  0  0  0  0  0
  -21.1486   -6.0550   25.9079 H   0  0  0  0  0  0
  -22.0603   -2.7609   23.2847 H   0  0  0  0  0  0
  -22.4160  -11.9841   22.4792 H   0  0  0  0  0  0
  -21.1093  -13.1146   22.2633 H   0  0  0  0  0  0
  -24.6520  -15.8499   20.4994 H   0  0  0  0  0  0
  -26.2747  -15.6302   20.0896 H   0  0  0  0  0  0
  -26.7127  -32.5484   23.1099 H   0  0  0  0  0  0
  -25.0033  -33.9766   25.0418 H   0  0  0  0  0  0
  -22.6991  -31.3019   21.4014 H   0  0  0  0  0  0
  -23.3785  -35.9598   23.3248 H   0  0  0  0  0  0
  -24.3585  -36.8973   22.2061 H   0  0  0  0  0  0
  -23.7205  -37.6461   23.6694 H   0  0  0  0  0  0
  -26.0654  -31.5811   20.6018 H   0  0  0  0  0  0
  -26.8225  -30.8608   21.9943 H   0  0  0  0  0  0
  -28.1119  -29.0795   21.1381 H   0  0  0  0  0  0
  -26.0091  -25.9636   18.9915 H   0  0  0  0  0  0
  -23.9740  -27.2812   19.0482 H   0  0  0  0  0  0
  -23.7128  -30.5756   19.3968 H   0  0  0  0  0  0
  -22.7413  -29.2179   19.8828 H   0  0  0  0  0  0
  -25.1303  -36.1953   25.0819 H   0  0  0  0  0  0
  -20.9946  -28.3230   24.1421 H   0  0  0  0  0  0
  -20.5655  -26.2264   23.3606 H   0  0  0  0  0  0
  -21.6641  -26.7419   22.1228 H   0  0  0  0  0  0
  -19.6921  -25.6249   21.1272 H   0  0  0  0  0  0
  -19.6724  -27.3127   20.6708 H   0  0  0  0  0  0
  -17.4201  -26.6658   21.3993 H   0  0  0  0  0  0
  -18.0330  -26.0061   22.8995 H   0  0  0  0  0  0
  -19.7926  -30.7259   24.2250 H   0  0  0  0  0  0
  -17.5014  -31.6278   24.5125 H   0  0  0  0  0  0
  -15.5353  -30.2974   23.7669 H   0  0  0  0  0  0
  -15.8659  -28.0810   22.7082 H   0  0  0  0  0  0
  -24.5831  -30.7111   25.7722 H   0  0  0  0  0  0
  -24.8893  -32.2895   26.4890 H   0  0  0  0  0  0
  -25.7996  -30.8836   27.0196 H   0  0  0  0  0  0
  -26.2902  -29.6814   24.1127 H   0  0  0  0  0  0
  -27.3989  -29.7284   25.4631 H   0  0  0  0  0  0
  -27.8750  -30.4364   23.9373 H   0  0  0  0  0  0
  -27.2653  -33.3640   26.2028 H   0  0  0  0  0  0
  -28.3855  -32.6814   25.0344 H   0  0  0  0  0  0
  -28.0626  -31.8442   26.5442 H   0  0  0  0  0  0
  -28.2574  -38.0136   24.7550 H   0  0  0  0  0  0
  -28.1121  -36.2666   24.6231 H   0  0  0  0  0  0
  -27.2304  -37.1404   25.8853 H   0  0  0  0  0  0
  -20.9289  -29.8733   21.6903 H   0  0  0  0  0  0
  -26.0182  -38.2860   24.1418 H   0  0  0  0  0  0
  -31.6235  -19.0071   21.8922 H   0  0  0  0  0  0
  -29.0746  -20.6870   18.8579 H   0  0  0  0  0  0
  -28.7627  -16.5031   19.8720 H   0  0  0  0  0  0
  -29.5233  -23.6488   17.6399 H   0  0  0  0  0  0
  -30.8983  -24.7493   17.6223 H   0  0  0  0  0  0
  -32.2667  -23.2041   18.8518 H   0  0  0  0  0  0
  -31.2503  -22.0444   17.9814 H   0  0  0  0  0  0
  -30.5602  -25.3803   19.9004 H   0  0  0  0  0  0
  -25.9867  -18.9736   14.1277 H   0  0  0  0  0  0
  -27.5299  -19.7571   14.3954 H   0  0  0  0  0  0
  -26.0669  -20.4285   15.1182 H   0  0  0  0  0  0
  -32.1958  -21.1177   20.3504 H   0  0  0  0  0  0
  -31.2051  -21.4731   21.7315 H   0  0  0  0  0  0
  -30.5160  -16.6867   22.9161 H   0  0  0  0  0  0
  -31.8420  -16.4561   21.8139 H   0  0  0  0  0  0
  -27.6850  -24.7487   19.9640 H   0  0  0  0  0  0
  -28.1348  -25.4315   18.4199 H   0  0  0  0  0  0
  -27.2883  -17.6939   15.7928 H   0  0  0  0  0  0
  -25.8299  -18.3101   16.5155 H   0  0  0  0  0  0
  -27.0789  -20.1084   17.6690 H   0  0  0  0  0  0
  -28.5628  -19.6406   16.8249 H   0  0  0  0  0  0
  -29.3896  -14.8639   22.0265 H   0  0  0  0  0  0
  1 25  1  0  0  0
  1 30  2  0  0  0
  1 88  1  0  0  0
  2  3  1  0  0  0
  2 25  1  0  0  0
  2 91  1  0  0  0
  2 92  1  0  0  0
  3  4  1  0  0  0
  3 93  1  0  0  0
  3 94  1  0  0  0
  4  5  1  0  0  0
  4 95  1  0  0  0
  4 96  1  0  0  0
  5  6  1  0  0  0
  5 26  1  0  0  0
  5 97  1  0  0  0
  6 25  1  0  0  0
  6 98  1  0  0  0
  6 99  1  0  0  0
  7  8  2  0  0  0
  7 26  1  0  0  0
  7 29  1  0  0  0
  8  9  1  0  0  0
  8 22  1  0  0  0
  9 10  1  0  0  0
  9 27  2  0  0  0
 10 11  2  0  0  0
 10 15  1  0  0  0
 11 12  1  0  0  0
 11100  1  0  0  0
 12 13  2  0  0  0
 12101  1  0  0  0
 13 14  1  0  0  0
 13 31  1  0  0  0
 14 15  2  0  0  0
 14102  1  0  0  0
 15103  1  0  0  0
 16 17  2  0  0  0
 16 21  1  0  0  0
 16 31  1  0  0  0
 17 18  1  0  0  0
 17104  1  0  0  0
 18 19  2  0  0  0
 18105  1  0  0  0
 19 20  1  0  0  0
 19 24  1  0  0  0
 20 21  2  0  0  0
 20106  1  0  0  0
 21 23  1  0  0  0
 22 28  1  0  0  0
 22 32  2  0  0  0
 26 27  1  0  0  0
 28107  1  0  0  0
 28108  1  0  0  0
 29109  1  0  0  0
 29110  1  0  0  0
 33 34  1  0  0  0
 33 66  1  0  0  0
 33 70  2  0  0  0
 34 36  1  0  0  0
 34 59  1  0  0  0
 34111  1  0  0  0
 35 44  2  0  0  0
 35 45  1  0  0  0
 35 68  1  0  0  0
 36 56  1  0  0  0
 36112  1  0  0  0
 37 39  1  0  0  0
 37 47  1  0  0  0
 37 66  1  0  0  0
 37113  1  0  0  0
 38 43  2  0  0  0
 38 46  1  0  0  0
 38 47  1  0  0  0
 39 64  1  0  0  0
 39 67  2  0  0  0
 40 52  1  0  0  0
 40 53  2  0  0  0
 40 58  1  0  0  0
 41114  1  0  0  0
 41115  1  0  0  0
 41116  1  0  0  0
 41 48  1  0  0  0
 42 43  1  0  0  0
 42 66  1  0  0  0
 42117  1  0  0  0
 42118  1  0  0  0
 43 44  1  0  0  0
 44119  1  0  0  0
 45 46  2  0  0  0
 45120  1  0  0  0
 46121  1  0  0  0
 47122  1  0  0  0
 47123  1  0  0  0
 48 56  1  0  0  0
 48 65  1  0  0  0
 48124  1  0  0  0
 49 50  1  0  0  0
 49 53  1  0  0  0
 49 64  1  0  0  0
 49125  1  0  0  0
 50 51  1  0  0  0
 50126  1  0  0  0
 50127  1  0  0  0
 51 52  1  0  0  0
 51128  1  0  0  0
 51129  1  0  0  0
 52130  1  0  0  0
 52131  1  0  0  0
 53 54  1  0  0  0
 54 55  2  0  0  0
 54132  1  0  0  0
 55 57  1  0  0  0
 55133  1  0  0  0
 56 69  2  0  0  0
 57 58  2  0  0  0
 57134  1  0  0  0
 58135  1  0  0  0
 59 60  1  0  0  0
 59 61  1  0  0  0
 59 62  1  0  0  0
 60136  1  0  0  0
 60137  1  0  0  0
 60138  1  0  0  0
 61139  1  0  0  0
 61140  1  0  0  0
 61141  1  0  0  0
 62142  1  0  0  0
 62143  1  0  0  0
 62144  1  0  0  0
 63 65  1  0  0  0
 63145  1  0  0  0
 63146  1  0  0  0
 63147  1  0  0  0
 64148  1  0  0  0
 65149  1  0  0  0
 68 84  1  0  0  0
 71 74  2  0  0  0
 71 75  1  0  0  0
 71150  1  0  0  0
 72 74  1  0  0  0
 72 76  2  0  0  0
 72151  1  0  0  0
 73 75  2  0  0  0
 73 76  1  0  0  0
 73152  1  0  0  0
 74 82  1  0  0  0
 75 83  1  0  0  0
 76 90  1  0  0  0
 77 80  1  0  0  0
 77 87  1  0  0  0
 77 89  2  0  0  0
 78 79  1  0  0  0
 78 80  1  0  0  0
 78153  1  0  0  0
 78154  1  0  0  0
 79 87  1  0  0  0
 79155  1  0  0  0
 79156  1  0  0  0
 80 84  1  0  0  0
 80157  1  0  0  0
 81 85  1  0  0  0
 81158  1  0  0  0
 81159  1  0  0  0
 81160  1  0  0  0
 82 87  1  0  0  0
 82161  1  0  0  0
 82162  1  0  0  0
 83 88  1  0  0  0
 83163  1  0  0  0
 83164  1  0  0  0
 84165  1  0  0  0
 84166  1  0  0  0
 85 86  1  0  0  0
 85167  1  0  0  0
 85168  1  0  0  0
 86 90  1  0  0  0
 86169  1  0  0  0
 86170  1  0  0  0
 88171  1  0  0  0
M  ISO  4   1 100  68 101  84 101  88 100
M  END
> <chiral flag>
0

> <version>
0

> <s_m_source_file>
/data/baiqing/PycharmProjects/Reinvent-master-3.2/result/LINK_invent/BTK/process_docking_weight1_custom_product_contain_oxygen_bond_distance_aromatic_linkinvent_7_9_3/rearranged_h_0102.sdf

> <i_m_source_file_index>
70

> <r_mmod_Potential_Energy-OPLS-2005>
-101.089935302734

> <r_mmod_Stretch_Energy-OPLS-2005>
38.5108032226562

> <r_mmod_Bend_Energy-OPLS-2005>
139.866989135742

> <r_mmod_Torsional_Energy-OPLS-2005>
205.14762878418

> <r_mmod_Improper_Torsional_Energy-OPLS-2005>
2.44909167289734

> <r_mmod_Van_der_Waal_Energy-OPLS-2005>
153.920654296875

> <r_mmod_Electrostatic_Energy-OPLS-2005>
-412.087921142578

> <r_mmod_Solvation_Energy-OPLS-2005>
-240.261566162109

> <b_mmod_Minimization_Converged-OPLS-2005>
0

> <r_mmod_RMS_Derivative-OPLS-2005>
5.13263750076294

$$$$
71
                    3D
 Structure written by MMmdl.
162171  0  0  1  0            999 V2000
  -30.6172  -14.6647   20.5012 C   0  0  0  0  0  0
  -30.4444  -12.4106   19.4545 C   0  0  0  0  0  0
  -29.5108  -12.5138   18.2270 C   0  0  0  0  0  0
  -28.0349  -12.3436   18.6409 C   0  0  0  0  0  0
  -27.6552  -13.2182   19.8647 C   0  0  2  0  0  0
  -28.7013  -13.0808   20.9942 C   0  0  0  0  0  0
  -25.2574  -13.8169   20.5692 C   0  0  0  0  0  0
  -24.1838  -13.0429   20.9182 C   0  0  0  0  0  0
  -24.6406  -11.6898   20.8733 C   0  0  0  0  0  0
  -23.9074  -10.4278   21.0401 C   0  0  0  0  0  0
  -24.3617   -9.4195   21.9186 C   0  0  0  0  0  0
  -23.6287   -8.2234   22.0755 C   0  0  0  0  0  0
  -22.4274   -8.0276   21.3545 C   0  0  0  0  0  0
  -21.9913   -9.0250   20.4649 C   0  0  0  0  0  0
  -22.7240  -10.2124   20.3058 C   0  0  0  0  0  0
  -21.6855   -6.0734   22.5278 C   0  0  0  0  0  0
  -21.4017   -6.5637   23.8209 C   0  0  0  0  0  0
  -21.3657   -5.6794   24.9171 C   0  0  0  0  0  0
  -21.6043   -4.3054   24.7226 C   0  0  0  0  0  0
  -21.8819   -3.8147   23.4348 C   0  0  0  0  0  0
  -21.9190   -4.6964   22.3403 C   0  0  0  0  0  0
  -22.7858  -13.5225   21.1841 C   0  0  0  0  0  0
  -22.1662   -4.2143   21.0981 F   0  0  0  0  0  0
  -21.5623   -3.4543   25.7743 F   0  0  0  0  0  0
  -30.0150  -13.4330   20.4309 N   0  0  0  0  0  0
  -26.3005  -12.9353   20.3334 N   0  0  0  0  0  0
  -25.9340  -11.6504   20.5766 N   0  0  0  0  0  0
  -22.0501  -12.8221   22.0400 N   0  0  0  0  0  0
  -25.4289  -15.1887   20.4100 N   0  0  0  0  0  0
  -31.7772  -14.8306   20.1134 O   0  0  0  0  0  0
  -21.6639   -6.8875   21.4240 O   0  0  0  0  0  0
  -22.3539  -14.5526   20.6682 O   0  0  0  0  0  0
  -24.6247  -31.8591   23.2019 C   0  0  0  0  0  0
  -25.9094  -32.4776   23.8342 C   0  0  1  0  0  0
  -27.2286  -27.3164   20.1238 C   0  0  0  0  0  0
  -25.5918  -33.8574   24.2255 N   0  0  0  0  0  0
  -23.4191  -30.4812   21.5447 C   0  0  2  0  0  0
  -24.8690  -28.9413   20.1086 C   0  0  0  0  0  0
  -22.7479  -29.4595   22.4937 C   0  0  0  0  0  0
  -18.0287  -28.1382   22.8470 C   0  0  0  0  0  0
  -24.1498  -36.7289   23.2636 C   0  0  0  0  0  0
  -25.9603  -30.7906   21.3745 C   0  0  0  0  0  0
  -26.0363  -29.4189   20.7171 C   0  0  0  0  0  0
  -27.2177  -28.6175   20.7165 C   0  0  0  0  0  0
  -26.0371  -26.8978   19.4850 C   0  0  0  0  0  0
  -24.8723  -27.6858   19.4830 C   0  0  0  0  0  0
  -23.6350  -29.8185   20.1596 C   0  0  0  0  0  0
  -25.4117  -36.3063   24.0321 C   0  0  1  0  0  0
  -20.5889  -28.3668   23.1303 C   0  0  2  0  0  0
  -20.6783  -26.9395   22.5423 C   0  0  0  0  0  0
  -19.5761  -26.6375   21.5225 C   0  0  0  0  0  0
  -18.1933  -26.7924   22.1621 C   0  0  0  0  0  0
  -19.1544  -28.8845   23.2875 C   0  0  0  0  0  0
  -18.9469  -30.1454   23.8877 C   0  0  0  0  0  0
  -17.6470  -30.6581   24.0558 C   0  0  0  0  0  0
  -25.9053  -34.9445   23.5079 C   0  0  0  0  0  0
  -16.5357  -29.9075   23.6349 C   0  0  0  0  0  0
  -16.7276  -28.6510   23.0331 C   0  0  0  0  0  0
  -26.4473  -31.6576   25.0710 C   0  0  0  0  0  0
  -25.3715  -31.3735   26.1448 C   0  0  0  0  0  0
  -27.0299  -30.2994   24.6150 C   0  0  0  0  0  0
  -27.6025  -32.4315   25.7488 C   0  0  0  0  0  0
  -27.5572  -37.1794   24.8452 C   0  0  0  0  0  0
  -21.4193  -29.3014   22.3696 N   0  0  0  0  0  0
  -26.4276  -37.3762   23.9410 N   0  0  0  0  0  0
  -24.6865  -31.0597   22.0979 N   0  0  0  0  0  0
  -23.4199  -28.8138   23.3021 O   0  0  0  0  0  0
  -28.3448  -26.4619   20.1910 O   0  0  0  0  0  0
  -26.5618  -34.8912   22.4641 O   0  0  0  0  0  0
  -23.5412  -32.1390   23.7346 O   0  0  0  0  0  0
  -29.6022  -19.3296   22.0527 C   0  0  0  0  0  0
  -30.0476  -19.3878   19.7007 C   0  0  0  0  0  0
  -29.6441  -17.9036   22.0382 C   0  0  0  0  0  0
  -30.1216  -17.9529   19.6709 C   0  0  0  0  0  0
  -29.7899  -20.1221   20.8899 C   0  0  0  0  0  0
  -29.9242  -17.1683   20.8513 C   0  0  0  0  0  0
  -29.0225  -22.5653   20.4152 C   0  0  0  0  0  0
  -29.1592  -23.9363   20.5501 C   0  0  0  0  0  0
  -30.3610  -24.4132   21.2824 C   0  0  0  0  0  0
  -31.4581  -23.3834   21.5786 C   0  0  0  0  0  0
  -30.8793  -22.0018   21.9394 C   0  0  0  0  0  0
  -29.3851  -17.1590   23.3362 C   0  0  0  0  0  0
  -30.3935  -17.2748   18.3407 C   0  0  0  0  0  0
  -28.1246  -25.0008   20.0165 C   0  0  0  0  0  0
  -29.8699  -21.5614   20.9711 N   0  0  0  0  0  0
  -29.8051  -15.7034   20.8828 N   0  0  0  0  0  0
  -30.5409  -25.5776   21.6524 O   0  0  0  0  0  0
  -31.4835  -12.5454   19.1498 H   0  0  0  0  0  0
  -30.3898  -11.4160   19.8995 H   0  0  0  0  0  0
  -29.7774  -11.7586   17.4863 H   0  0  0  0  0  0
  -29.6464  -13.4811   17.7405 H   0  0  0  0  0  0
  -27.8805  -11.2909   18.8807 H   0  0  0  0  0  0
  -27.3773  -12.5639   17.7994 H   0  0  0  0  0  0
  -27.6706  -14.2521   19.5189 H   0  0  0  0  0  0
  -28.7188  -12.0593   21.3772 H   0  0  0  0  0  0
  -28.4431  -13.7114   21.8463 H   0  0  0  0  0  0
  -25.2757   -9.5672   22.4766 H   0  0  0  0  0  0
  -23.9991   -7.4633   22.7477 H   0  0  0  0  0  0
  -21.0844   -8.8768   19.8960 H   0  0  0  0  0  0
  -22.3696  -10.9667   19.6170 H   0  0  0  0  0  0
  -21.2017   -7.6148   23.9712 H   0  0  0  0  0  0
  -21.1479   -6.0525   25.9072 H   0  0  0  0  0  0
  -22.0602   -2.7610   23.2854 H   0  0  0  0  0  0
  -22.4115  -11.9882   22.4792 H   0  0  0  0  0  0
  -21.1124  -13.1252   22.2607 H   0  0  0  0  0  0
  -24.6612  -15.8432   20.5145 H   0  0  0  0  0  0
  -26.2778  -15.6280   20.0773 H   0  0  0  0  0  0
  -26.7165  -32.5454   23.1096 H   0  0  0  0  0  0
  -25.0083  -33.9724   25.0413 H   0  0  0  0  0  0
  -22.7102  -31.3002   21.4031 H   0  0  0  0  0  0
  -23.3751  -35.9628   23.3280 H   0  0  0  0  0  0
  -24.3606  -36.8928   22.2054 H   0  0  0  0  0  0
  -23.7264  -37.6490   23.6680 H   0  0  0  0  0  0
  -26.0885  -31.5544   20.6063 H   0  0  0  0  0  0
  -26.8421  -30.8416   22.0020 H   0  0  0  0  0  0
  -28.1107  -28.9749   21.2096 H   0  0  0  0  0  0
  -25.9749  -25.9400   18.9912 H   0  0  0  0  0  0
  -23.9799  -27.3127   19.0004 H   0  0  0  0  0  0
  -23.7497  -30.5967   19.4047 H   0  0  0  0  0  0
  -22.7567  -29.2442   19.8585 H   0  0  0  0  0  0
  -25.1300  -36.1899   25.0815 H   0  0  0  0  0  0
  -20.9967  -28.3238   24.1424 H   0  0  0  0  0  0
  -20.5723  -26.2260   23.3608 H   0  0  0  0  0  0
  -21.6649  -26.7446   22.1192 H   0  0  0  0  0  0
  -19.6928  -25.6290   21.1239 H   0  0  0  0  0  0
  -19.6715  -27.3205   20.6772 H   0  0  0  0  0  0
  -17.4210  -26.6675   21.4012 H   0  0  0  0  0  0
  -18.0314  -26.0074   22.9026 H   0  0  0  0  0  0
  -19.7947  -30.7286   24.2214 H   0  0  0  0  0  0
  -17.5023  -31.6268   24.5155 H   0  0  0  0  0  0
  -15.5356  -30.2960   23.7705 H   0  0  0  0  0  0
  -15.8674  -28.0848   22.7011 H   0  0  0  0  0  0
  -24.5924  -30.7023   25.7808 H   0  0  0  0  0  0
  -24.8874  -32.2912   26.4800 H   0  0  0  0  0  0
  -25.8060  -30.8994   27.0262 H   0  0  0  0  0  0
  -26.2861  -29.6771   24.1163 H   0  0  0  0  0  0
  -27.3978  -29.7216   25.4635 H   0  0  0  0  0  0
  -27.8736  -30.4255   23.9367 H   0  0  0  0  0  0
  -27.2619  -33.3629   26.2026 H   0  0  0  0  0  0
  -28.3864  -32.6852   25.0341 H   0  0  0  0  0  0
  -28.0655  -31.8468   26.5446 H   0  0  0  0  0  0
  -28.2553  -38.0120   24.7517 H   0  0  0  0  0  0
  -28.1103  -36.2649   24.6251 H   0  0  0  0  0  0
  -27.2302  -37.1410   25.8856 H   0  0  0  0  0  0
  -20.9371  -29.8724   21.6903 H   0  0  0  0  0  0
  -26.0146  -38.2823   24.1453 H   0  0  0  0  0  0
  -29.4111  -19.8318   22.9902 H   0  0  0  0  0  0
  -30.2197  -19.9454   18.7911 H   0  0  0  0  0  0
  -28.1615  -22.1555   19.9039 H   0  0  0  0  0  0
  -32.0974  -23.7436   22.3841 H   0  0  0  0  0  0
  -32.0859  -23.2994   20.6917 H   0  0  0  0  0  0
  -30.4272  -22.0538   22.9316 H   0  0  0  0  0  0
  -31.6940  -21.2788   22.0052 H   0  0  0  0  0  0
  -29.2407  -17.8433   24.1727 H   0  0  0  0  0  0
  -30.2308  -16.5134   23.5755 H   0  0  0  0  0  0
  -28.4921  -16.5391   23.2514 H   0  0  0  0  0  0
  -30.3171  -17.9748   17.5084 H   0  0  0  0  0  0
  -29.6829  -16.4675   18.1630 H   0  0  0  0  0  0
  -31.4011  -16.8590   18.3318 H   0  0  0  0  0  0
  -27.1893  -24.7330   20.5107 H   0  0  0  0  0  0
  -27.9851  -24.7996   18.9537 H   0  0  0  0  0  0
  -28.9348  -15.3765   21.2733 H   0  0  0  0  0  0
  1 25  1  0  0  0
  1 30  2  0  0  0
  1 86  1  0  0  0
  2  3  1  0  0  0
  2 25  1  0  0  0
  2 88  1  0  0  0
  2 89  1  0  0  0
  3  4  1  0  0  0
  3 90  1  0  0  0
  3 91  1  0  0  0
  4  5  1  0  0  0
  4 92  1  0  0  0
  4 93  1  0  0  0
  5  6  1  0  0  0
  5 26  1  0  0  0
  5 94  1  0  0  0
  6 25  1  0  0  0
  6 95  1  0  0  0
  6 96  1  0  0  0
  7  8  2  0  0  0
  7 26  1  0  0  0
  7 29  1  0  0  0
  8  9  1  0  0  0
  8 22  1  0  0  0
  9 10  1  0  0  0
  9 27  2  0  0  0
 10 11  2  0  0  0
 10 15  1  0  0  0
 11 12  1  0  0  0
 11 97  1  0  0  0
 12 13  2  0  0  0
 12 98  1  0  0  0
 13 14  1  0  0  0
 13 31  1  0  0  0
 14 15  2  0  0  0
 14 99  1  0  0  0
 15100  1  0  0  0
 16 17  2  0  0  0
 16 21  1  0  0  0
 16 31  1  0  0  0
 17 18  1  0  0  0
 17101  1  0  0  0
 18 19  2  0  0  0
 18102  1  0  0  0
 19 20  1  0  0  0
 19 24  1  0  0  0
 20 21  2  0  0  0
 20103  1  0  0  0
 21 23  1  0  0  0
 22 28  1  0  0  0
 22 32  2  0  0  0
 26 27  1  0  0  0
 28104  1  0  0  0
 28105  1  0  0  0
 29106  1  0  0  0
 29107  1  0  0  0
 33 34  1  0  0  0
 33 66  1  0  0  0
 33 70  2  0  0  0
 34 36  1  0  0  0
 34 59  1  0  0  0
 34108  1  0  0  0
 35 44  2  0  0  0
 35 45  1  0  0  0
 35 68  1  0  0  0
 36 56  1  0  0  0
 36109  1  0  0  0
 37 39  1  0  0  0
 37 47  1  0  0  0
 37 66  1  0  0  0
 37110  1  0  0  0
 38 43  2  0  0  0
 38 46  1  0  0  0
 38 47  1  0  0  0
 39 64  1  0  0  0
 39 67  2  0  0  0
 40 52  1  0  0  0
 40 53  2  0  0  0
 40 58  1  0  0  0
 41111  1  0  0  0
 41112  1  0  0  0
 41113  1  0  0  0
 41 48  1  0  0  0
 42 43  1  0  0  0
 42 66  1  0  0  0
 42114  1  0  0  0
 42115  1  0  0  0
 43 44  1  0  0  0
 44116  1  0  0  0
 45 46  2  0  0  0
 45117  1  0  0  0
 46118  1  0  0  0
 47119  1  0  0  0
 47120  1  0  0  0
 48 56  1  0  0  0
 48 65  1  0  0  0
 48121  1  0  0  0
 49 50  1  0  0  0
 49 53  1  0  0  0
 49 64  1  0  0  0
 49122  1  0  0  0
 50 51  1  0  0  0
 50123  1  0  0  0
 50124  1  0  0  0
 51 52  1  0  0  0
 51125  1  0  0  0
 51126  1  0  0  0
 52127  1  0  0  0
 52128  1  0  0  0
 53 54  1  0  0  0
 54 55  2  0  0  0
 54129  1  0  0  0
 55 57  1  0  0  0
 55130  1  0  0  0
 56 69  2  0  0  0
 57 58  2  0  0  0
 57131  1  0  0  0
 58132  1  0  0  0
 59 60  1  0  0  0
 59 61  1  0  0  0
 59 62  1  0  0  0
 60133  1  0  0  0
 60134  1  0  0  0
 60135  1  0  0  0
 61136  1  0  0  0
 61137  1  0  0  0
 61138  1  0  0  0
 62139  1  0  0  0
 62140  1  0  0  0
 62141  1  0  0  0
 63 65  1  0  0  0
 63142  1  0  0  0
 63143  1  0  0  0
 63144  1  0  0  0
 64145  1  0  0  0
 65146  1  0  0  0
 68 84  1  0  0  0
 71 73  2  0  0  0
 71 75  1  0  0  0
 71147  1  0  0  0
 72 74  1  0  0  0
 72 75  2  0  0  0
 72148  1  0  0  0
 73 76  1  0  0  0
 73 82  1  0  0  0
 74 76  2  0  0  0
 74 83  1  0  0  0
 75 85  1  0  0  0
 76 86  1  0  0  0
 77 78  2  0  0  0
 77 85  1  0  0  0
 77149  1  0  0  0
 78 79  1  0  0  0
 78 84  1  0  0  0
 79 80  1  0  0  0
 79 87  2  0  0  0
 80 81  1  0  0  0
 80150  1  0  0  0
 80151  1  0  0  0
 81 85  1  0  0  0
 81152  1  0  0  0
 81153  1  0  0  0
 82154  1  0  0  0
 82155  1  0  0  0
 82156  1  0  0  0
 83157  1  0  0  0
 83158  1  0  0  0
 83159  1  0  0  0
 84160  1  0  0  0
 84161  1  0  0  0
 86162  1  0  0  0
M  ISO  4   1 100  68 101  84 101  86 100
M  END
> <chiral flag>
0

> <version>
0

> <s_m_source_file>
/data/baiqing/PycharmProjects/Reinvent-master-3.2/result/LINK_invent/BTK/process_docking_weight1_custom_product_contain_oxygen_bond_distance_aromatic_linkinvent_7_9_3/rearranged_h_0102.sdf

> <i_m_source_file_index>
71

> <r_mmod_Potential_Energy-OPLS-2005>
61.8369407653809

> <r_mmod_Stretch_Energy-OPLS-2005>
86.4745635986328

> <r_mmod_Bend_Energy-OPLS-2005>
138.946517944336

> <r_mmod_Torsional_Energy-OPLS-2005>
239.520690917969

> <r_mmod_Improper_Torsional_Energy-OPLS-2005>
5.16910982131958

> <r_mmod_Van_der_Waal_Energy-OPLS-2005>
156.532821655273

> <r_mmod_Electrostatic_Energy-OPLS-2005>
-392.060394287109

> <r_mmod_Solvation_Energy-OPLS-2005>
-226.781936645508

> <b_mmod_Minimization_Converged-OPLS-2005>
0

> <r_mmod_RMS_Derivative-OPLS-2005>
1.71768033504486

$$$$
72
                    3D
 Structure written by MMmdl.
166174  0  0  1  0            999 V2000
  -30.7219  -14.5156   20.5772 C   0  0  0  0  0  0
  -30.4222  -12.3271   19.4595 C   0  0  0  0  0  0
  -29.5082  -12.4967   18.2286 C   0  0  0  0  0  0
  -28.0272  -12.3576   18.6308 C   0  0  0  0  0  0
  -27.6574  -13.2149   19.8703 C   0  0  2  0  0  0
  -28.6962  -13.0459   21.0009 C   0  0  0  0  0  0
  -25.2557  -13.8163   20.5658 C   0  0  0  0  0  0
  -24.1802  -13.0448   20.9156 C   0  0  0  0  0  0
  -24.6355  -11.6911   20.8709 C   0  0  0  0  0  0
  -23.9019  -10.4306   21.0403 C   0  0  0  0  0  0
  -24.3583   -9.4229   21.9188 C   0  0  0  0  0  0
  -23.6262   -8.2261   22.0761 C   0  0  0  0  0  0
  -22.4264   -8.0291   21.3534 C   0  0  0  0  0  0
  -21.9867   -9.0262   20.4669 C   0  0  0  0  0  0
  -22.7177  -10.2151   20.3077 C   0  0  0  0  0  0
  -21.6862   -6.0737   22.5280 C   0  0  0  0  0  0
  -21.4014   -6.5638   23.8213 C   0  0  0  0  0  0
  -21.3645   -5.6793   24.9171 C   0  0  0  0  0  0
  -21.6040   -4.3058   24.7215 C   0  0  0  0  0  0
  -21.8815   -3.8147   23.4333 C   0  0  0  0  0  0
  -21.9182   -4.6960   22.3389 C   0  0  0  0  0  0
  -22.7833  -13.5254   21.1846 C   0  0  0  0  0  0
  -22.1668   -4.2139   21.0967 F   0  0  0  0  0  0
  -21.5613   -3.4545   25.7728 F   0  0  0  0  0  0
  -30.0240  -13.3472   20.4493 N   0  0  0  0  0  0
  -26.2996  -12.9339   20.3327 N   0  0  0  0  0  0
  -25.9292  -11.6481   20.5725 N   0  0  0  0  0  0
  -22.0441  -12.8296   22.0429 N   0  0  0  0  0  0
  -25.4241  -15.1884   20.4068 N   0  0  0  0  0  0
  -31.8719  -14.6057   20.1418 O   0  0  0  0  0  0
  -21.6628   -6.8902   21.4249 O   0  0  0  0  0  0
  -22.3521  -14.5548   20.6706 O   0  0  0  0  0  0
  -24.6183  -31.8685   23.2056 C   0  0  0  0  0  0
  -25.9069  -32.4819   23.8355 C   0  0  1  0  0  0
  -27.2167  -27.3908   20.1524 C   0  0  0  0  0  0
  -25.5917  -33.8623   24.2287 N   0  0  0  0  0  0
  -23.4064  -30.4924   21.5463 C   0  0  2  0  0  0
  -24.8516  -28.9522   20.1123 C   0  0  0  0  0  0
  -22.7410  -29.4706   22.4963 C   0  0  0  0  0  0
  -18.0266  -28.1388   22.8503 C   0  0  0  0  0  0
  -24.1487  -36.7363   23.2636 C   0  0  0  0  0  0
  -25.9363  -30.8282   21.3575 C   0  0  0  0  0  0
  -26.0106  -29.4564   20.7128 C   0  0  0  0  0  0
  -27.1996  -28.6842   20.7256 C   0  0  0  0  0  0
  -26.0480  -26.9132   19.5231 C   0  0  0  0  0  0
  -24.8678  -27.6816   19.5073 C   0  0  0  0  0  0
  -23.6139  -29.8238   20.1608 C   0  0  0  0  0  0
  -25.4113  -36.3131   24.0317 C   0  0  1  0  0  0
  -20.5873  -28.3708   23.1300 C   0  0  2  0  0  0
  -20.6794  -26.9436   22.5429 C   0  0  0  0  0  0
  -19.5769  -26.6408   21.5230 C   0  0  0  0  0  0
  -18.1929  -26.7941   22.1627 C   0  0  0  0  0  0
  -19.1528  -28.8851   23.2913 C   0  0  0  0  0  0
  -18.9464  -30.1450   23.8926 C   0  0  0  0  0  0
  -17.6474  -30.6602   24.0561 C   0  0  0  0  0  0
  -25.9045  -34.9490   23.5106 C   0  0  0  0  0  0
  -16.5353  -29.9114   23.6327 C   0  0  0  0  0  0
  -16.7261  -28.6534   23.0346 C   0  0  0  0  0  0
  -26.4471  -31.6584   25.0704 C   0  0  0  0  0  0
  -25.3747  -31.3665   26.1470 C   0  0  0  0  0  0
  -27.0319  -30.3019   24.6096 C   0  0  0  0  0  0
  -27.6068  -32.4299   25.7437 C   0  0  0  0  0  0
  -27.5569  -37.1834   24.8453 C   0  0  0  0  0  0
  -21.4132  -29.3085   22.3699 N   0  0  0  0  0  0
  -26.4284  -37.3818   23.9391 N   0  0  0  0  0  0
  -24.6709  -31.0782   22.0942 N   0  0  0  0  0  0
  -23.4178  -28.8267   23.3036 O   0  0  0  0  0  0
  -28.3390  -26.5880   20.2397 O   0  0  0  0  0  0
  -26.5628  -34.8951   22.4675 O   0  0  0  0  0  0
  -23.5369  -32.1470   23.7429 O   0  0  0  0  0  0
  -28.9012  -18.6248   21.1089 C   0  0  0  0  0  0
  -30.3881  -20.5134   22.5403 C   0  0  0  0  0  0
  -30.1393  -18.2217   21.6470 C   0  0  0  0  0  0
  -30.8634  -19.1767   22.4092 C   0  0  0  0  0  0
  -28.4527  -19.9718   21.1890 C   0  0  0  0  0  0
  -29.2046  -20.9422   21.8843 C   0  0  0  0  0  0
  -30.6758  -16.8507   21.3604 C   0  0  0  0  0  0
  -29.9956  -15.7131   21.0537 C   0  0  0  0  0  0
  -32.1754  -18.7932   23.0755 C   0  0  0  0  0  0
  -26.6835  -20.4008   16.8979 C   0  0  0  0  0  0
  -26.9291  -20.9628   18.2983 C   0  0  0  0  0  0
  -29.4523  -24.5551   21.2005 C   0  0  0  0  0  0
  -26.9175  -19.8514   19.3484 C   0  0  0  0  0  0
  -28.1360  -25.3543   20.9855 C   0  0  0  0  0  0
  -29.4592  -23.3909   22.2496 C   0  0  0  0  0  0
  -27.2828  -20.4043   20.6058 O   0  0  0  0  0  0
  -28.6943  -22.2419   21.8446 O   0  0  0  0  0  0
  -31.4711  -12.4029   19.1662 H   0  0  0  0  0  0
  -30.3112  -11.3282   19.8835 H   0  0  0  0  0  0
  -29.7577  -11.7586   17.4662 H   0  0  0  0  0  0
  -29.6826  -13.4760   17.7798 H   0  0  0  0  0  0
  -27.8402  -11.3052   18.8365 H   0  0  0  0  0  0
  -27.3853  -12.6151   17.7871 H   0  0  0  0  0  0
  -27.6937  -14.2539   19.5435 H   0  0  0  0  0  0
  -28.6797  -12.0226   21.3795 H   0  0  0  0  0  0
  -28.4545  -13.6769   21.8579 H   0  0  0  0  0  0
  -25.2748   -9.5679   22.4746 H   0  0  0  0  0  0
  -23.9967   -7.4641   22.7473 H   0  0  0  0  0  0
  -21.0800   -8.8754   19.8982 H   0  0  0  0  0  0
  -22.3621  -10.9672   19.6167 H   0  0  0  0  0  0
  -21.2032   -7.6157   23.9709 H   0  0  0  0  0  0
  -21.1471   -6.0536   25.9074 H   0  0  0  0  0  0
  -22.0597   -2.7603   23.2838 H   0  0  0  0  0  0
  -22.4024  -11.9972   22.4878 H   0  0  0  0  0  0
  -21.1038  -13.1345   22.2586 H   0  0  0  0  0  0
  -24.6522  -15.8368   20.5254 H   0  0  0  0  0  0
  -26.2749  -15.6339   20.0887 H   0  0  0  0  0  0
  -26.7134  -32.5512   23.1111 H   0  0  0  0  0  0
  -24.9915  -33.9762   25.0310 H   0  0  0  0  0  0
  -22.6974  -31.3113   21.4057 H   0  0  0  0  0  0
  -23.3730  -35.9725   23.3345 H   0  0  0  0  0  0
  -24.3560  -36.8983   22.2047 H   0  0  0  0  0  0
  -23.7303  -37.6595   23.6654 H   0  0  0  0  0  0
  -26.0397  -31.5868   20.5798 H   0  0  0  0  0  0
  -26.8278  -30.8913   21.9691 H   0  0  0  0  0  0
  -28.0906  -29.0573   21.2068 H   0  0  0  0  0  0
  -26.0394  -25.9314   19.0698 H   0  0  0  0  0  0
  -23.9724  -27.2779   19.0559 H   0  0  0  0  0  0
  -23.7177  -30.6046   19.4056 H   0  0  0  0  0  0
  -22.7335  -29.2512   19.8647 H   0  0  0  0  0  0
  -25.1291  -36.1978   25.0817 H   0  0  0  0  0  0
  -20.9945  -28.3318   24.1431 H   0  0  0  0  0  0
  -20.5688  -26.2336   23.3653 H   0  0  0  0  0  0
  -21.6663  -26.7477   22.1211 H   0  0  0  0  0  0
  -19.6948  -25.6326   21.1260 H   0  0  0  0  0  0
  -19.6699  -27.3219   20.6766 H   0  0  0  0  0  0
  -17.4200  -26.6675   21.4033 H   0  0  0  0  0  0
  -18.0306  -26.0067   22.8995 H   0  0  0  0  0  0
  -19.7938  -30.7242   24.2337 H   0  0  0  0  0  0
  -17.5035  -31.6268   24.5171 H   0  0  0  0  0  0
  -15.5365  -30.3017   23.7685 H   0  0  0  0  0  0
  -15.8652  -28.0871   22.7056 H   0  0  0  0  0  0
  -24.5881  -30.7069   25.7775 H   0  0  0  0  0  0
  -24.8967  -32.2816   26.4987 H   0  0  0  0  0  0
  -25.8125  -30.8750   27.0179 H   0  0  0  0  0  0
  -26.2870  -29.6728   24.1214 H   0  0  0  0  0  0
  -27.4161  -29.7289   25.4547 H   0  0  0  0  0  0
  -27.8660  -30.4329   23.9205 H   0  0  0  0  0  0
  -27.2706  -33.3581   26.2065 H   0  0  0  0  0  0
  -28.3820  -32.6903   25.0216 H   0  0  0  0  0  0
  -28.0810  -31.8403   26.5301 H   0  0  0  0  0  0
  -28.2605  -38.0096   24.7465 H   0  0  0  0  0  0
  -28.1032  -36.2647   24.6299 H   0  0  0  0  0  0
  -27.2288  -37.1512   25.8847 H   0  0  0  0  0  0
  -20.9279  -29.8772   21.6884 H   0  0  0  0  0  0
  -26.0179  -38.2898   24.1388 H   0  0  0  0  0  0
  -28.3160  -17.8949   20.5743 H   0  0  0  0  0  0
  -30.9683  -21.2045   23.1318 H   0  0  0  0  0  0
  -31.7580  -16.8000   21.3205 H   0  0  0  0  0  0
  -28.9194  -15.7152   21.1057 H   0  0  0  0  0  0
  -32.5816  -19.6029   23.6857 H   0  0  0  0  0  0
  -32.9268  -18.5444   22.3256 H   0  0  0  0  0  0
  -32.0337  -17.9233   23.7195 H   0  0  0  0  0  0
  -26.6332  -21.1978   16.1563 H   0  0  0  0  0  0
  -25.7452  -19.8464   16.8678 H   0  0  0  0  0  0
  -27.4872  -19.7236   16.5983 H   0  0  0  0  0  0
  -26.1742  -21.7132   18.5392 H   0  0  0  0  0  0
  -27.8969  -21.4691   18.3163 H   0  0  0  0  0  0
  -30.2099  -25.2709   21.5172 H   0  0  0  0  0  0
  -29.7998  -24.1691   20.2448 H   0  0  0  0  0  0
  -27.5866  -19.0770   18.9871 H   0  0  0  0  0  0
  -25.9281  -19.4033   19.4410 H   0  0  0  0  0  0
  -27.7106  -25.6039   21.9621 H   0  0  0  0  0  0
  -27.4136  -24.7037   20.4880 H   0  0  0  0  0  0
  -29.0720  -23.7547   23.2037 H   0  0  0  0  0  0
  -30.5006  -23.1253   22.4223 H   0  0  0  0  0  0
  1 25  1  0  0  0
  1 30  2  0  0  0
  1 78  1  0  0  0
  2  3  1  0  0  0
  2 25  1  0  0  0
  2 88  1  0  0  0
  2 89  1  0  0  0
  3  4  1  0  0  0
  3 90  1  0  0  0
  3 91  1  0  0  0
  4  5  1  0  0  0
  4 92  1  0  0  0
  4 93  1  0  0  0
  5  6  1  0  0  0
  5 26  1  0  0  0
  5 94  1  0  0  0
  6 25  1  0  0  0
  6 95  1  0  0  0
  6 96  1  0  0  0
  7  8  2  0  0  0
  7 26  1  0  0  0
  7 29  1  0  0  0
  8  9  1  0  0  0
  8 22  1  0  0  0
  9 10  1  0  0  0
  9 27  2  0  0  0
 10 11  2  0  0  0
 10 15  1  0  0  0
 11 12  1  0  0  0
 11 97  1  0  0  0
 12 13  2  0  0  0
 12 98  1  0  0  0
 13 14  1  0  0  0
 13 31  1  0  0  0
 14 15  2  0  0  0
 14 99  1  0  0  0
 15100  1  0  0  0
 16 17  2  0  0  0
 16 21  1  0  0  0
 16 31  1  0  0  0
 17 18  1  0  0  0
 17101  1  0  0  0
 18 19  2  0  0  0
 18102  1  0  0  0
 19 20  1  0  0  0
 19 24  1  0  0  0
 20 21  2  0  0  0
 20103  1  0  0  0
 21 23  1  0  0  0
 22 28  1  0  0  0
 22 32  2  0  0  0
 26 27  1  0  0  0
 28104  1  0  0  0
 28105  1  0  0  0
 29106  1  0  0  0
 29107  1  0  0  0
 33 34  1  0  0  0
 33 66  1  0  0  0
 33 70  2  0  0  0
 34 36  1  0  0  0
 34 59  1  0  0  0
 34108  1  0  0  0
 35 44  2  0  0  0
 35 45  1  0  0  0
 35 68  1  0  0  0
 36 56  1  0  0  0
 36109  1  0  0  0
 37 39  1  0  0  0
 37 47  1  0  0  0
 37 66  1  0  0  0
 37110  1  0  0  0
 38 43  2  0  0  0
 38 46  1  0  0  0
 38 47  1  0  0  0
 39 64  1  0  0  0
 39 67  2  0  0  0
 40 52  1  0  0  0
 40 53  2  0  0  0
 40 58  1  0  0  0
 41111  1  0  0  0
 41112  1  0  0  0
 41113  1  0  0  0
 41 48  1  0  0  0
 42 43  1  0  0  0
 42 66  1  0  0  0
 42114  1  0  0  0
 42115  1  0  0  0
 43 44  1  0  0  0
 44116  1  0  0  0
 45 46  2  0  0  0
 45117  1  0  0  0
 46118  1  0  0  0
 47119  1  0  0  0
 47120  1  0  0  0
 48 56  1  0  0  0
 48 65  1  0  0  0
 48121  1  0  0  0
 49 50  1  0  0  0
 49 53  1  0  0  0
 49 64  1  0  0  0
 49122  1  0  0  0
 50 51  1  0  0  0
 50123  1  0  0  0
 50124  1  0  0  0
 51 52  1  0  0  0
 51125  1  0  0  0
 51126  1  0  0  0
 52127  1  0  0  0
 52128  1  0  0  0
 53 54  1  0  0  0
 54 55  2  0  0  0
 54129  1  0  0  0
 55 57  1  0  0  0
 55130  1  0  0  0
 56 69  2  0  0  0
 57 58  2  0  0  0
 57131  1  0  0  0
 58132  1  0  0  0
 59 60  1  0  0  0
 59 61  1  0  0  0
 59 62  1  0  0  0
 60133  1  0  0  0
 60134  1  0  0  0
 60135  1  0  0  0
 61136  1  0  0  0
 61137  1  0  0  0
 61138  1  0  0  0
 62139  1  0  0  0
 62140  1  0  0  0
 62141  1  0  0  0
 63 65  1  0  0  0
 63142  1  0  0  0
 63143  1  0  0  0
 63144  1  0  0  0
 64145  1  0  0  0
 65146  1  0  0  0
 68 84  1  0  0  0
 71 73  2  0  0  0
 71 75  1  0  0  0
 71147  1  0  0  0
 72 74  2  0  0  0
 72 76  1  0  0  0
 72148  1  0  0  0
 73 74  1  0  0  0
 73 77  1  0  0  0
 74 79  1  0  0  0
 75 76  2  0  0  0
 75 86  1  0  0  0
 76 87  1  0  0  0
 77 78  2  0  0  0
 77149  1  0  0  0
 78150  1  0  0  0
 79151  1  0  0  0
 79152  1  0  0  0
 79153  1  0  0  0
 80 81  1  0  0  0
 80154  1  0  0  0
 80155  1  0  0  0
 80156  1  0  0  0
 81 83  1  0  0  0
 81157  1  0  0  0
 81158  1  0  0  0
 82 84  1  0  0  0
 82 85  1  0  0  0
 82159  1  0  0  0
 82160  1  0  0  0
 83 86  1  0  0  0
 83161  1  0  0  0
 83162  1  0  0  0
 84163  1  0  0  0
 84164  1  0  0  0
 85 87  1  0  0  0
 85165  1  0  0  0
 85166  1  0  0  0
M  ISO  4   1 100  68 101  78 100  84 101
M  END
> <chiral flag>
0

> <version>
0

> <s_m_source_file>
/data/baiqing/PycharmProjects/Reinvent-master-3.2/result/LINK_invent/BTK/process_docking_weight1_custom_product_contain_oxygen_bond_distance_aromatic_linkinvent_7_9_3/rearranged_h_0102.sdf

> <i_m_source_file_index>
72

> <r_mmod_Potential_Energy-OPLS-2005>
41.9585151672363

> <r_mmod_Stretch_Energy-OPLS-2005>
49.8154983520508

> <r_mmod_Bend_Energy-OPLS-2005>
126.895874023438

> <r_mmod_Torsional_Energy-OPLS-2005>
224.42350769043

> <r_mmod_Improper_Torsional_Energy-OPLS-2005>
5.58051681518555

> <r_mmod_Van_der_Waal_Energy-OPLS-2005>
157.461013793945

> <r_mmod_Electrostatic_Energy-OPLS-2005>
-347.401519775391

> <r_mmod_Solvation_Energy-OPLS-2005>
-201.456695556641

> <b_mmod_Minimization_Converged-OPLS-2005>
0

> <r_mmod_RMS_Derivative-OPLS-2005>
5.67324447631836

$$$$
73
                    3D
 Structure written by MMmdl.
164172  0  0  1  0            999 V2000
  -30.7272  -14.5356   20.5505 C   0  0  0  0  0  0
  -30.4126  -12.3490   19.4348 C   0  0  0  0  0  0
  -29.4884  -12.4971   18.2111 C   0  0  0  0  0  0
  -28.0158  -12.3386   18.6313 C   0  0  0  0  0  0
  -27.6482  -13.2119   19.8597 C   0  0  2  0  0  0
  -28.6951  -13.0798   20.9883 C   0  0  0  0  0  0
  -25.2549  -13.8162   20.5703 C   0  0  0  0  0  0
  -24.1816  -13.0432   20.9202 C   0  0  0  0  0  0
  -24.6380  -11.6902   20.8756 C   0  0  0  0  0  0
  -23.9055  -10.4289   21.0415 C   0  0  0  0  0  0
  -24.3610   -9.4205   21.9191 C   0  0  0  0  0  0
  -23.6289   -8.2238   22.0755 C   0  0  0  0  0  0
  -22.4272   -8.0278   21.3542 C   0  0  0  0  0  0
  -21.9907   -9.0251   20.4645 C   0  0  0  0  0  0
  -22.7231  -10.2132   20.3060 C   0  0  0  0  0  0
  -21.6852   -6.0736   22.5280 C   0  0  0  0  0  0
  -21.4011   -6.5641   23.8213 C   0  0  0  0  0  0
  -21.3658   -5.6794   24.9177 C   0  0  0  0  0  0
  -21.6044   -4.3056   24.7227 C   0  0  0  0  0  0
  -21.8820   -3.8148   23.4347 C   0  0  0  0  0  0
  -21.9191   -4.6965   22.3404 C   0  0  0  0  0  0
  -22.7838  -13.5224   21.1857 C   0  0  0  0  0  0
  -22.1661   -4.2150   21.0981 F   0  0  0  0  0  0
  -21.5628   -3.4540   25.7740 F   0  0  0  0  0  0
  -30.0169  -13.3756   20.4168 N   0  0  0  0  0  0
  -26.2966  -12.9333   20.3335 N   0  0  0  0  0  0
  -25.9305  -11.6494   20.5780 N   0  0  0  0  0  0
  -22.0480  -12.8220   22.0411 N   0  0  0  0  0  0
  -25.4261  -15.1885   20.4111 N   0  0  0  0  0  0
  -31.8806  -14.6329   20.1255 O   0  0  0  0  0  0
  -21.6635   -6.8877   21.4241 O   0  0  0  0  0  0
  -22.3530  -14.5536   20.6707 O   0  0  0  0  0  0
  -24.6204  -31.8664   23.2099 C   0  0  0  0  0  0
  -25.9082  -32.4814   23.8397 C   0  0  1  0  0  0
  -27.2172  -27.3779   20.1003 C   0  0  0  0  0  0
  -25.5919  -33.8614   24.2321 N   0  0  0  0  0  0
  -23.4094  -30.4937   21.5519 C   0  0  2  0  0  0
  -24.8534  -28.9648   20.1083 C   0  0  0  0  0  0
  -22.7448  -29.4655   22.4969 C   0  0  0  0  0  0
  -18.0275  -28.1372   22.8492 C   0  0  0  0  0  0
  -24.1486  -36.7309   23.2634 C   0  0  0  0  0  0
  -25.9472  -30.8142   21.3751 C   0  0  0  0  0  0
  -26.0200  -29.4485   20.7142 C   0  0  0  0  0  0
  -27.2046  -28.6634   20.7082 C   0  0  0  0  0  0
  -26.0315  -26.9469   19.4551 C   0  0  0  0  0  0
  -24.8577  -27.7162   19.4729 C   0  0  0  0  0  0
  -23.6195  -29.8369   20.1636 C   0  0  0  0  0  0
  -25.4111  -36.3110   24.0332 C   0  0  1  0  0  0
  -20.5874  -28.3674   23.1296 C   0  0  2  0  0  0
  -20.6770  -26.9407   22.5405 C   0  0  0  0  0  0
  -19.5745  -26.6383   21.5206 C   0  0  0  0  0  0
  -18.1923  -26.7919   22.1619 C   0  0  0  0  0  0
  -19.1527  -28.8839   23.2890 C   0  0  0  0  0  0
  -18.9454  -30.1442   23.8907 C   0  0  0  0  0  0
  -17.6458  -30.6584   24.0560 C   0  0  0  0  0  0
  -25.9043  -34.9476   23.5124 C   0  0  0  0  0  0
  -16.5348  -29.9085   23.6326 C   0  0  0  0  0  0
  -16.7263  -28.6496   23.0358 C   0  0  0  0  0  0
  -26.4488  -31.6607   25.0746 C   0  0  0  0  0  0
  -25.3734  -31.3718   26.1482 C   0  0  0  0  0  0
  -27.0330  -30.3041   24.6167 C   0  0  0  0  0  0
  -27.6059  -32.4336   25.7509 C   0  0  0  0  0  0
  -27.5585  -37.1809   24.8464 C   0  0  0  0  0  0
  -21.4170  -29.3043   22.3708 N   0  0  0  0  0  0
  -26.4296  -37.3798   23.9409 N   0  0  0  0  0  0
  -24.6774  -31.0728   22.1028 N   0  0  0  0  0  0
  -23.4206  -28.8185   23.3015 O   0  0  0  0  0  0
  -28.3429  -26.5552   20.1661 O   0  0  0  0  0  0
  -26.5611  -34.8933   22.4689 O   0  0  0  0  0  0
  -23.5385  -32.1436   23.7465 O   0  0  0  0  0  0
  -31.1216  -19.4049   18.5601 C   0  0  0  0  0  0
  -29.3828  -19.1444   20.7250 C   0  0  0  0  0  0
  -30.6722  -18.1197   18.9333 C   0  0  0  0  0  0
  -29.8065  -17.9605   20.0484 C   0  0  0  0  0  0
  -30.7015  -20.5729   19.2403 C   0  0  0  0  0  0
  -29.7919  -20.4484   20.3160 C   0  0  0  0  0  0
  -31.1454  -16.9518   18.0834 C   0  0  0  0  0  0
  -30.8457  -16.2098   22.2923 C   0  0  0  0  0  0
  -32.0235  -21.9978   17.8137 C   0  0  0  0  0  0
  -29.2472  -16.5656   20.4609 C   0  0  0  0  0  0
  -29.1046  -24.0898   20.5537 C   0  0  0  0  0  0
  -28.1177  -25.1306   19.9379 C   0  0  0  0  0  0
  -28.6758  -22.6120   20.2471 C   0  0  0  0  0  0
  -30.1368  -15.5996   21.1661 N   0  0  0  0  0  0
  -31.1488  -21.8398   18.9229 O   0  0  0  0  0  0
  -29.3550  -21.5781   21.0013 O   0  0  0  0  0  0
  -31.4565  -12.4345   19.1282 H   0  0  0  0  0  0
  -30.3140  -11.3548   19.8737 H   0  0  0  0  0  0
  -29.7417  -11.7534   17.4544 H   0  0  0  0  0  0
  -29.6381  -13.4726   17.7454 H   0  0  0  0  0  0
  -27.8526  -11.2856   18.8650 H   0  0  0  0  0  0
  -27.3561  -12.5681   17.7936 H   0  0  0  0  0  0
  -27.6577  -14.2408   19.5088 H   0  0  0  0  0  0
  -28.6885  -12.0707   21.4035 H   0  0  0  0  0  0
  -28.4503  -13.7473   21.8160 H   0  0  0  0  0  0
  -25.2753   -9.5683   22.4768 H   0  0  0  0  0  0
  -23.9998   -7.4631   22.7474 H   0  0  0  0  0  0
  -21.0840   -8.8771   19.8950 H   0  0  0  0  0  0
  -22.3691  -10.9675   19.6173 H   0  0  0  0  0  0
  -21.2005   -7.6149   23.9717 H   0  0  0  0  0  0
  -21.1479   -6.0525   25.9080 H   0  0  0  0  0  0
  -22.0600   -2.7610   23.2849 H   0  0  0  0  0  0
  -22.4087  -11.9875   22.4800 H   0  0  0  0  0  0
  -21.1101  -13.1251   22.2620 H   0  0  0  0  0  0
  -24.6587  -15.8424   20.5228 H   0  0  0  0  0  0
  -26.2769  -15.6292   20.0883 H   0  0  0  0  0  0
  -26.7158  -32.5507   23.1157 H   0  0  0  0  0  0
  -25.0080  -33.9768   25.0477 H   0  0  0  0  0  0
  -22.6993  -31.3125   21.4164 H   0  0  0  0  0  0
  -23.3755  -35.9634   23.3296 H   0  0  0  0  0  0
  -24.3579  -36.8924   22.2048 H   0  0  0  0  0  0
  -23.7229  -37.6507   23.6657 H   0  0  0  0  0  0
  -26.0745  -31.5833   20.6118 H   0  0  0  0  0  0
  -26.8297  -30.8580   22.0020 H   0  0  0  0  0  0
  -28.0973  -29.0255   21.1988 H   0  0  0  0  0  0
  -25.9757  -26.0035   18.9327 H   0  0  0  0  0  0
  -23.9659  -27.3433   18.9881 H   0  0  0  0  0  0
  -23.7317  -30.6168   19.4092 H   0  0  0  0  0  0
  -22.7409  -29.2627   19.8638 H   0  0  0  0  0  0
  -25.1285  -36.1969   25.0822 H   0  0  0  0  0  0
  -20.9958  -28.3244   24.1419 H   0  0  0  0  0  0
  -20.5674  -26.2287   23.3599 H   0  0  0  0  0  0
  -21.6641  -26.7452   22.1195 H   0  0  0  0  0  0
  -19.6911  -25.6296   21.1229 H   0  0  0  0  0  0
  -19.6673  -27.3201   20.6742 H   0  0  0  0  0  0
  -17.4192  -26.6665   21.4021 H   0  0  0  0  0  0
  -18.0323  -26.0056   22.9008 H   0  0  0  0  0  0
  -19.7936  -30.7243   24.2296 H   0  0  0  0  0  0
  -17.5021  -31.6269   24.5154 H   0  0  0  0  0  0
  -15.5350  -30.2992   23.7650 H   0  0  0  0  0  0
  -15.8661  -28.0813   22.7085 H   0  0  0  0  0  0
  -24.5912  -30.7064   25.7808 H   0  0  0  0  0  0
  -24.8926  -32.2875   26.4937 H   0  0  0  0  0  0
  -25.8076  -30.8878   27.0239 H   0  0  0  0  0  0
  -26.2893  -29.6793   24.1208 H   0  0  0  0  0  0
  -27.4060  -29.7294   25.4653 H   0  0  0  0  0  0
  -27.8749  -30.4342   23.9362 H   0  0  0  0  0  0
  -27.2677  -33.3635   26.2097 H   0  0  0  0  0  0
  -28.3863  -32.6895   25.0328 H   0  0  0  0  0  0
  -28.0738  -31.8453   26.5413 H   0  0  0  0  0  0
  -28.2599  -38.0115   24.7538 H   0  0  0  0  0  0
  -28.1083  -36.2645   24.6257 H   0  0  0  0  0  0
  -27.2304  -37.1420   25.8868 H   0  0  0  0  0  0
  -20.9338  -29.8778   21.6935 H   0  0  0  0  0  0
  -26.0180  -38.2870   24.1424 H   0  0  0  0  0  0
  -31.8008  -19.4732   17.7235 H   0  0  0  0  0  0
  -28.7040  -19.0568   21.5614 H   0  0  0  0  0  0
  -31.3106  -17.2689   17.0530 H   0  0  0  0  0  0
  -30.4312  -16.1321   18.0422 H   0  0  0  0  0  0
  -32.0956  -16.5755   18.4606 H   0  0  0  0  0  0
  -30.1891  -16.8718   22.8580 H   0  0  0  0  0  0
  -31.6984  -16.7939   21.9424 H   0  0  0  0  0  0
  -31.2152  -15.4493   22.9826 H   0  0  0  0  0  0
  -32.2536  -23.0556   17.6873 H   0  0  0  0  0  0
  -31.5635  -21.6492   16.8883 H   0  0  0  0  0  0
  -32.9673  -21.4734   17.9687 H   0  0  0  0  0  0
  -28.8321  -16.1019   19.5676 H   0  0  0  0  0  0
  -28.3820  -16.7240   21.1059 H   0  0  0  0  0  0
  -29.1405  -24.2360   21.6337 H   0  0  0  0  0  0
  -30.1141  -24.2645   20.1816 H   0  0  0  0  0  0
  -27.1479  -24.8510   20.3521 H   0  0  0  0  0  0
  -28.0632  -24.9658   18.8606 H   0  0  0  0  0  0
  -28.7275  -22.4362   19.1721 H   0  0  0  0  0  0
  -27.6192  -22.5033   20.4939 H   0  0  0  0  0  0
  1 25  1  0  0  0
  1 30  2  0  0  0
  1 84  1  0  0  0
  2  3  1  0  0  0
  2 25  1  0  0  0
  2 87  1  0  0  0
  2 88  1  0  0  0
  3  4  1  0  0  0
  3 89  1  0  0  0
  3 90  1  0  0  0
  4  5  1  0  0  0
  4 91  1  0  0  0
  4 92  1  0  0  0
  5  6  1  0  0  0
  5 26  1  0  0  0
  5 93  1  0  0  0
  6 25  1  0  0  0
  6 94  1  0  0  0
  6 95  1  0  0  0
  7  8  2  0  0  0
  7 26  1  0  0  0
  7 29  1  0  0  0
  8  9  1  0  0  0
  8 22  1  0  0  0
  9 10  1  0  0  0
  9 27  2  0  0  0
 10 11  2  0  0  0
 10 15  1  0  0  0
 11 12  1  0  0  0
 11 96  1  0  0  0
 12 13  2  0  0  0
 12 97  1  0  0  0
 13 14  1  0  0  0
 13 31  1  0  0  0
 14 15  2  0  0  0
 14 98  1  0  0  0
 15 99  1  0  0  0
 16 17  2  0  0  0
 16 21  1  0  0  0
 16 31  1  0  0  0
 17 18  1  0  0  0
 17100  1  0  0  0
 18 19  2  0  0  0
 18101  1  0  0  0
 19 20  1  0  0  0
 19 24  1  0  0  0
 20 21  2  0  0  0
 20102  1  0  0  0
 21 23  1  0  0  0
 22 28  1  0  0  0
 22 32  2  0  0  0
 26 27  1  0  0  0
 28103  1  0  0  0
 28104  1  0  0  0
 29105  1  0  0  0
 29106  1  0  0  0
 33 34  1  0  0  0
 33 66  1  0  0  0
 33 70  2  0  0  0
 34 36  1  0  0  0
 34 59  1  0  0  0
 34107  1  0  0  0
 35 44  2  0  0  0
 35 45  1  0  0  0
 35 68  1  0  0  0
 36 56  1  0  0  0
 36108  1  0  0  0
 37 39  1  0  0  0
 37 47  1  0  0  0
 37 66  1  0  0  0
 37109  1  0  0  0
 38 43  2  0  0  0
 38 46  1  0  0  0
 38 47  1  0  0  0
 39 64  1  0  0  0
 39 67  2  0  0  0
 40 52  1  0  0  0
 40 53  2  0  0  0
 40 58  1  0  0  0
 41110  1  0  0  0
 41111  1  0  0  0
 41112  1  0  0  0
 41 48  1  0  0  0
 42 43  1  0  0  0
 42 66  1  0  0  0
 42113  1  0  0  0
 42114  1  0  0  0
 43 44  1  0  0  0
 44115  1  0  0  0
 45 46  2  0  0  0
 45116  1  0  0  0
 46117  1  0  0  0
 47118  1  0  0  0
 47119  1  0  0  0
 48 56  1  0  0  0
 48 65  1  0  0  0
 48120  1  0  0  0
 49 50  1  0  0  0
 49 53  1  0  0  0
 49 64  1  0  0  0
 49121  1  0  0  0
 50 51  1  0  0  0
 50122  1  0  0  0
 50123  1  0  0  0
 51 52  1  0  0  0
 51124  1  0  0  0
 51125  1  0  0  0
 52126  1  0  0  0
 52127  1  0  0  0
 53 54  1  0  0  0
 54 55  2  0  0  0
 54128  1  0  0  0
 55 57  1  0  0  0
 55129  1  0  0  0
 56 69  2  0  0  0
 57 58  2  0  0  0
 57130  1  0  0  0
 58131  1  0  0  0
 59 60  1  0  0  0
 59 61  1  0  0  0
 59 62  1  0  0  0
 60132  1  0  0  0
 60133  1  0  0  0
 60134  1  0  0  0
 61135  1  0  0  0
 61136  1  0  0  0
 61137  1  0  0  0
 62138  1  0  0  0
 62139  1  0  0  0
 62140  1  0  0  0
 63 65  1  0  0  0
 63141  1  0  0  0
 63142  1  0  0  0
 63143  1  0  0  0
 64144  1  0  0  0
 65145  1  0  0  0
 68 82  1  0  0  0
 71 73  2  0  0  0
 71 75  1  0  0  0
 71146  1  0  0  0
 72 74  2  0  0  0
 72 76  1  0  0  0
 72147  1  0  0  0
 73 74  1  0  0  0
 73 77  1  0  0  0
 74 80  1  0  0  0
 75 76  2  0  0  0
 75 85  1  0  0  0
 76 86  1  0  0  0
 77148  1  0  0  0
 77149  1  0  0  0
 77150  1  0  0  0
 78 84  1  0  0  0
 78151  1  0  0  0
 78152  1  0  0  0
 78153  1  0  0  0
 79 85  1  0  0  0
 79154  1  0  0  0
 79155  1  0  0  0
 79156  1  0  0  0
 80 84  1  0  0  0
 80157  1  0  0  0
 80158  1  0  0  0
 81 82  1  0  0  0
 81 83  1  0  0  0
 81159  1  0  0  0
 81160  1  0  0  0
 82161  1  0  0  0
 82162  1  0  0  0
 83 86  1  0  0  0
 83163  1  0  0  0
 83164  1  0  0  0
M  ISO  4   1 100  68 101  82 101  84 100
M  END
> <chiral flag>
0

> <version>
0

> <s_m_source_file>
/data/baiqing/PycharmProjects/Reinvent-master-3.2/result/LINK_invent/BTK/process_docking_weight1_custom_product_contain_oxygen_bond_distance_aromatic_linkinvent_7_9_3/rearranged_h_0102.sdf

> <i_m_source_file_index>
73

> <r_mmod_Potential_Energy-OPLS-2005>
141.291458129883

> <r_mmod_Stretch_Energy-OPLS-2005>
56.1050300598145

> <r_mmod_Bend_Energy-OPLS-2005>
126.948310852051

> <r_mmod_Torsional_Energy-OPLS-2005>
295.138519287109

> <r_mmod_Improper_Torsional_Energy-OPLS-2005>
4.09767150878906

> <r_mmod_Van_der_Waal_Energy-OPLS-2005>
159.09049987793

> <r_mmod_Electrostatic_Energy-OPLS-2005>
-323.437957763672

> <r_mmod_Solvation_Energy-OPLS-2005>
-205.984298706055

> <b_mmod_Minimization_Converged-OPLS-2005>
0

> <r_mmod_RMS_Derivative-OPLS-2005>
0.624109089374542

$$$$
74
                    3D
 Structure written by MMmdl.
167176  0  0  1  0            999 V2000
  -30.7207  -14.3961   20.6218 C   0  0  0  0  0  0
  -30.4165  -12.2837   19.3910 C   0  0  0  0  0  0
  -29.4821  -12.5118   18.1859 C   0  0  0  0  0  0
  -28.0054  -12.3635   18.6078 C   0  0  0  0  0  0
  -27.6614  -13.1956   19.8733 C   0  0  2  0  0  0
  -28.6998  -12.9342   20.9856 C   0  0  0  0  0  0
  -25.2593  -13.8152   20.5666 C   0  0  0  0  0  0
  -24.1831  -13.0429   20.9171 C   0  0  0  0  0  0
  -24.6377  -11.6891   20.8750 C   0  0  0  0  0  0
  -23.9058  -10.4282   21.0410 C   0  0  0  0  0  0
  -24.3611   -9.4200   21.9186 C   0  0  0  0  0  0
  -23.6279   -8.2240   22.0762 C   0  0  0  0  0  0
  -22.4255   -8.0289   21.3562 C   0  0  0  0  0  0
  -21.9888   -9.0261   20.4661 C   0  0  0  0  0  0
  -22.7230  -10.2134   20.3063 C   0  0  0  0  0  0
  -21.6834   -6.0735   22.5293 C   0  0  0  0  0  0
  -21.4006   -6.5644   23.8225 C   0  0  0  0  0  0
  -21.3650   -5.6796   24.9182 C   0  0  0  0  0  0
  -21.6037   -4.3060   24.7223 C   0  0  0  0  0  0
  -21.8818   -3.8154   23.4344 C   0  0  0  0  0  0
  -21.9186   -4.6969   22.3402 C   0  0  0  0  0  0
  -22.7867  -13.5252   21.1844 C   0  0  0  0  0  0
  -22.1662   -4.2165   21.0975 F   0  0  0  0  0  0
  -21.5622   -3.4536   25.7725 F   0  0  0  0  0  0
  -30.0341  -13.2393   20.4370 N   0  0  0  0  0  0
  -26.3004  -12.9293   20.3332 N   0  0  0  0  0  0
  -25.9283  -11.6464   20.5737 N   0  0  0  0  0  0
  -22.0487  -12.8262   22.0407 N   0  0  0  0  0  0
  -25.4360  -15.1860   20.4091 N   0  0  0  0  0  0
  -31.8081  -14.6345   20.0885 O   0  0  0  0  0  0
  -21.6634   -6.8876   21.4256 O   0  0  0  0  0  0
  -22.3567  -14.5566   20.6717 O   0  0  0  0  0  0
  -24.6104  -31.8683   23.2124 C   0  0  0  0  0  0
  -25.9019  -32.4811   23.8409 C   0  0  1  0  0  0
  -27.2335  -27.4643   20.0866 C   0  0  0  0  0  0
  -25.5892  -33.8606   24.2343 N   0  0  0  0  0  0
  -23.3986  -30.4935   21.5520 C   0  0  2  0  0  0
  -24.8477  -28.9641   20.1187 C   0  0  0  0  0  0
  -22.7384  -29.4658   22.4973 C   0  0  0  0  0  0
  -18.0242  -28.1358   22.8478 C   0  0  0  0  0  0
  -24.1492  -36.7339   23.2640 C   0  0  0  0  0  0
  -25.9252  -30.8393   21.3669 C   0  0  0  0  0  0
  -26.0068  -29.4748   20.7211 C   0  0  0  0  0  0
  -27.2055  -28.7283   20.7185 C   0  0  0  0  0  0
  -26.0660  -26.9669   19.4776 C   0  0  0  0  0  0
  -24.8686  -27.7021   19.5003 C   0  0  0  0  0  0
  -23.6101  -29.8277   20.1657 C   0  0  0  0  0  0
  -25.4088  -36.3096   24.0331 C   0  0  1  0  0  0
  -20.5838  -28.3662   23.1303 C   0  0  2  0  0  0
  -20.6762  -26.9400   22.5396 C   0  0  0  0  0  0
  -19.5735  -26.6374   21.5201 C   0  0  0  0  0  0
  -18.1904  -26.7910   22.1600 C   0  0  0  0  0  0
  -19.1492  -28.8829   23.2883 C   0  0  0  0  0  0
  -18.9441  -30.1442   23.8891 C   0  0  0  0  0  0
  -17.6442  -30.6577   24.0570 C   0  0  0  0  0  0
  -25.9004  -34.9456   23.5131 C   0  0  0  0  0  0
  -16.5333  -29.9084   23.6314 C   0  0  0  0  0  0
  -16.7232  -28.6489   23.0333 C   0  0  0  0  0  0
  -26.4477  -31.6557   25.0714 C   0  0  0  0  0  0
  -25.3776  -31.3641   26.1492 C   0  0  0  0  0  0
  -27.0252  -30.2983   24.6041 C   0  0  0  0  0  0
  -27.6078  -32.4250   25.7462 C   0  0  0  0  0  0
  -27.5547  -37.1806   24.8463 C   0  0  0  0  0  0
  -21.4106  -29.3039   22.3727 N   0  0  0  0  0  0
  -26.4271  -37.3774   23.9397 N   0  0  0  0  0  0
  -24.6624  -31.0799   22.1034 N   0  0  0  0  0  0
  -23.4161  -28.8176   23.3001 O   0  0  0  0  0  0
  -28.3558  -26.6878   19.9663 O   0  0  0  0  0  0
  -26.5561  -34.8892   22.4685 O   0  0  0  0  0  0
  -23.5315  -32.1435   23.7535 O   0  0  0  0  0  0
  -28.7474  -19.1628   19.8513 C   0  0  0  0  0  0
  -29.2235  -17.9137   20.3061 C   0  0  0  0  0  0
  -30.1206  -20.2900   21.5118 C   0  0  0  0  0  0
  -29.1889  -20.3642   20.4520 C   0  0  0  0  0  0
  -30.1588  -17.8462   21.3641 C   0  0  0  0  0  0
  -30.6235  -19.0419   21.9586 C   0  0  0  0  0  0
  -30.5664  -24.9224   19.5578 C   0  0  0  0  0  0
  -30.0706  -23.5546   19.0565 C   0  0  0  0  0  0
  -28.9503  -23.9307   21.0902 C   0  0  0  0  0  0
  -29.8861  -25.1454   20.9284 C   0  0  2  0  0  0
  -32.1797  -20.0839   23.4746 C   0  0  0  0  0  0
  -30.7084  -16.5232   21.9087 C   0  0  0  0  0  0
  -28.6242  -21.7078   19.9745 C   0  0  0  0  0  0
  -29.1949  -26.5197   21.0955 C   0  0  0  0  0  0
  -30.1100  -15.2901   21.4064 N   0  0  0  0  0  0
  -29.5236  -22.8650   20.2418 N   0  3  1  0  0  0
  -31.5548  -18.9133   22.9674 O   0  0  0  0  0  0
  -31.4601  -12.3880   19.0890 H   0  0  0  0  0  0
  -30.3167  -11.2624   19.7622 H   0  0  0  0  0  0
  -29.7138  -11.8018   17.3893 H   0  0  0  0  0  0
  -29.6476  -13.5060   17.7671 H   0  0  0  0  0  0
  -27.8260  -11.3048   18.8056 H   0  0  0  0  0  0
  -27.3436  -12.6338   17.7846 H   0  0  0  0  0  0
  -27.7207  -14.2492   19.5980 H   0  0  0  0  0  0
  -28.6686  -11.8875   21.2906 H   0  0  0  0  0  0
  -28.4553  -13.4973   21.8868 H   0  0  0  0  0  0
  -25.2750   -9.5666   22.4769 H   0  0  0  0  0  0
  -23.9986   -7.4623   22.7464 H   0  0  0  0  0  0
  -21.0821   -8.8784   19.8962 H   0  0  0  0  0  0
  -22.3690  -10.9682   19.6186 H   0  0  0  0  0  0
  -21.2022   -7.6156   23.9728 H   0  0  0  0  0  0
  -21.1466   -6.0527   25.9083 H   0  0  0  0  0  0
  -22.0605   -2.7623   23.2838 H   0  0  0  0  0  0
  -22.4081  -11.9915   22.4793 H   0  0  0  0  0  0
  -21.1116  -13.1344   22.2615 H   0  0  0  0  0  0
  -24.6719  -15.8440   20.5187 H   0  0  0  0  0  0
  -26.2968  -15.6235   20.1047 H   0  0  0  0  0  0
  -26.7081  -32.5549   23.1175 H   0  0  0  0  0  0
  -25.0099  -33.9775   25.0525 H   0  0  0  0  0  0
  -22.6893  -31.3128   21.4130 H   0  0  0  0  0  0
  -23.3713  -35.9711   23.3287 H   0  0  0  0  0  0
  -24.3563  -36.8948   22.2047 H   0  0  0  0  0  0
  -23.7337  -37.6588   23.6660 H   0  0  0  0  0  0
  -26.0377  -31.6060   20.5983 H   0  0  0  0  0  0
  -26.8142  -30.8979   21.9824 H   0  0  0  0  0  0
  -28.0993  -29.1300   21.1757 H   0  0  0  0  0  0
  -26.0922  -26.0083   18.9779 H   0  0  0  0  0  0
  -23.9801  -27.3027   19.0310 H   0  0  0  0  0  0
  -23.7239  -30.6076   19.4132 H   0  0  0  0  0  0
  -22.7366  -29.2479   19.8606 H   0  0  0  0  0  0
  -25.1272  -36.1959   25.0823 H   0  0  0  0  0  0
  -20.9916  -28.3261   24.1427 H   0  0  0  0  0  0
  -20.5673  -26.2275   23.3581 H   0  0  0  0  0  0
  -21.6644  -26.7437   22.1200 H   0  0  0  0  0  0
  -19.6910  -25.6287   21.1234 H   0  0  0  0  0  0
  -19.6689  -27.3183   20.6745 H   0  0  0  0  0  0
  -17.4181  -26.6627   21.3988 H   0  0  0  0  0  0
  -18.0299  -26.0059   22.9005 H   0  0  0  0  0  0
  -19.7937  -30.7250   24.2244 H   0  0  0  0  0  0
  -17.5014  -31.6251   24.5192 H   0  0  0  0  0  0
  -15.5337  -30.2985   23.7674 H   0  0  0  0  0  0
  -15.8627  -28.0841   22.7025 H   0  0  0  0  0  0
  -24.5948  -30.6996   25.7836 H   0  0  0  0  0  0
  -24.9013  -32.2790   26.5013 H   0  0  0  0  0  0
  -25.8194  -30.8803   27.0208 H   0  0  0  0  0  0
  -26.2765  -29.6785   24.1078 H   0  0  0  0  0  0
  -27.3977  -29.7180   25.4478 H   0  0  0  0  0  0
  -27.8675  -30.4251   23.9229 H   0  0  0  0  0  0
  -27.2748  -33.3550   26.2100 H   0  0  0  0  0  0
  -28.3892  -32.6759   25.0284 H   0  0  0  0  0  0
  -28.0791  -31.8312   26.5298 H   0  0  0  0  0  0
  -28.2561  -38.0093   24.7443 H   0  0  0  0  0  0
  -28.1084  -36.2635   24.6392 H   0  0  0  0  0  0
  -27.2251  -37.1508   25.8863 H   0  0  0  0  0  0
  -20.9263  -29.8754   21.6939 H   0  0  0  0  0  0
  -26.0158  -38.2857   24.1409 H   0  0  0  0  0  0
  -28.0244  -19.1866   19.0466 H   0  0  0  0  0  0
  -28.8637  -17.0117   19.8298 H   0  0  0  0  0  0
  -30.4430  -21.1981   21.9950 H   0  0  0  0  0  0
  -30.3328  -25.7012   18.8315 H   0  0  0  0  0  0
  -31.6503  -24.9215   19.6744 H   0  0  0  0  0  0
  -30.8596  -22.9709   18.5792 H   0  0  0  0  0  0
  -29.2810  -23.7107   18.3183 H   0  0  0  0  0  0
  -27.9519  -24.1810   20.7285 H   0  0  0  0  0  0
  -28.8597  -23.6096   22.1291 H   0  0  0  0  0  0
  -30.6564  -25.0695   21.6955 H   0  0  0  0  0  0
  -32.9429  -19.7927   24.1960 H   0  0  0  0  0  0
  -31.4657  -20.7263   23.9912 H   0  0  0  0  0  0
  -32.6756  -20.6513   22.6858 H   0  0  0  0  0  0
  -30.5595  -16.5152   22.9889 H   0  0  0  0  0  0
  -31.7901  -16.5162   21.7688 H   0  0  0  0  0  0
  -27.6552  -21.8544   20.4530 H   0  0  0  0  0  0
  -28.4107  -21.6444   18.9072 H   0  0  0  0  0  0
  -29.9301  -27.3261   21.1355 H   0  0  0  0  0  0
  -28.6203  -26.5422   22.0238 H   0  0  0  0  0  0
  -29.2104  -15.0243   21.7767 H   0  0  0  0  0  0
  -30.3155  -22.4889   20.7382 H   0  0  0  0  0  0
  1 25  1  0  0  0
  1 30  2  0  0  0
  1 85  1  0  0  0
  2  3  1  0  0  0
  2 25  1  0  0  0
  2 88  1  0  0  0
  2 89  1  0  0  0
  3  4  1  0  0  0
  3 90  1  0  0  0
  3 91  1  0  0  0
  4  5  1  0  0  0
  4 92  1  0  0  0
  4 93  1  0  0  0
  5  6  1  0  0  0
  5 26  1  0  0  0
  5 94  1  0  0  0
  6 25  1  0  0  0
  6 95  1  0  0  0
  6 96  1  0  0  0
  7  8  2  0  0  0
  7 26  1  0  0  0
  7 29  1  0  0  0
  8  9  1  0  0  0
  8 22  1  0  0  0
  9 10  1  0  0  0
  9 27  2  0  0  0
 10 11  2  0  0  0
 10 15  1  0  0  0
 11 12  1  0  0  0
 11 97  1  0  0  0
 12 13  2  0  0  0
 12 98  1  0  0  0
 13 14  1  0  0  0
 13 31  1  0  0  0
 14 15  2  0  0  0
 14 99  1  0  0  0
 15100  1  0  0  0
 16 17  2  0  0  0
 16 21  1  0  0  0
 16 31  1  0  0  0
 17 18  1  0  0  0
 17101  1  0  0  0
 18 19  2  0  0  0
 18102  1  0  0  0
 19 20  1  0  0  0
 19 24  1  0  0  0
 20 21  2  0  0  0
 20103  1  0  0  0
 21 23  1  0  0  0
 22 28  1  0  0  0
 22 32  2  0  0  0
 26 27  1  0  0  0
 28104  1  0  0  0
 28105  1  0  0  0
 29106  1  0  0  0
 29107  1  0  0  0
 33 34  1  0  0  0
 33 66  1  0  0  0
 33 70  2  0  0  0
 34 36  1  0  0  0
 34 59  1  0  0  0
 34108  1  0  0  0
 35 44  2  0  0  0
 35 45  1  0  0  0
 35 68  1  0  0  0
 36 56  1  0  0  0
 36109  1  0  0  0
 37 39  1  0  0  0
 37 47  1  0  0  0
 37 66  1  0  0  0
 37110  1  0  0  0
 38 43  2  0  0  0
 38 46  1  0  0  0
 38 47  1  0  0  0
 39 64  1  0  0  0
 39 67  2  0  0  0
 40 52  1  0  0  0
 40 53  2  0  0  0
 40 58  1  0  0  0
 41111  1  0  0  0
 41112  1  0  0  0
 41113  1  0  0  0
 41 48  1  0  0  0
 42 43  1  0  0  0
 42 66  1  0  0  0
 42114  1  0  0  0
 42115  1  0  0  0
 43 44  1  0  0  0
 44116  1  0  0  0
 45 46  2  0  0  0
 45117  1  0  0  0
 46118  1  0  0  0
 47119  1  0  0  0
 47120  1  0  0  0
 48 56  1  0  0  0
 48 65  1  0  0  0
 48121  1  0  0  0
 49 50  1  0  0  0
 49 53  1  0  0  0
 49 64  1  0  0  0
 49122  1  0  0  0
 50 51  1  0  0  0
 50123  1  0  0  0
 50124  1  0  0  0
 51 52  1  0  0  0
 51125  1  0  0  0
 51126  1  0  0  0
 52127  1  0  0  0
 52128  1  0  0  0
 53 54  1  0  0  0
 54 55  2  0  0  0
 54129  1  0  0  0
 55 57  1  0  0  0
 55130  1  0  0  0
 56 69  2  0  0  0
 57 58  2  0  0  0
 57131  1  0  0  0
 58132  1  0  0  0
 59 60  1  0  0  0
 59 61  1  0  0  0
 59 62  1  0  0  0
 60133  1  0  0  0
 60134  1  0  0  0
 60135  1  0  0  0
 61136  1  0  0  0
 61137  1  0  0  0
 61138  1  0  0  0
 62139  1  0  0  0
 62140  1  0  0  0
 62141  1  0  0  0
 63 65  1  0  0  0
 63142  1  0  0  0
 63143  1  0  0  0
 63144  1  0  0  0
 64145  1  0  0  0
 65146  1  0  0  0
 68 84  1  0  0  0
 71 72  2  0  0  0
 71 74  1  0  0  0
 71147  1  0  0  0
 72 75  1  0  0  0
 72148  1  0  0  0
 73 74  2  0  0  0
 73 76  1  0  0  0
 73149  1  0  0  0
 74 83  1  0  0  0
 75 76  2  0  0  0
 75 82  1  0  0  0
 76 87  1  0  0  0
 77 78  1  0  0  0
 77 80  1  0  0  0
 77150  1  0  0  0
 77151  1  0  0  0
 78 86  1  0  0  0
 78152  1  0  0  0
 78153  1  0  0  0
 79 80  1  0  0  0
 79 86  1  0  0  0
 79154  1  0  0  0
 79155  1  0  0  0
 80 84  1  0  0  0
 80156  1  0  0  0
 81 87  1  0  0  0
 81157  1  0  0  0
 81158  1  0  0  0
 81159  1  0  0  0
 82 85  1  0  0  0
 82160  1  0  0  0
 82161  1  0  0  0
 83162  1  0  0  0
 83163  1  0  0  0
 83 86  1  0  0  0
 84164  1  0  0  0
 84165  1  0  0  0
 85166  1  0  0  0
 86167  1  0  0  0
M  CHG  1  86   1
M  ISO  4   1 100  68 101  84 101  85 100
M  END
> <chiral flag>
0

> <version>
0

> <s_m_source_file>
/data/baiqing/PycharmProjects/Reinvent-master-3.2/result/LINK_invent/BTK/process_docking_weight1_custom_product_contain_oxygen_bond_distance_aromatic_linkinvent_7_9_3/rearranged_h_0102.sdf

> <i_m_source_file_index>
74

> <r_mmod_Potential_Energy-OPLS-2005>
-167.277816772461

> <r_mmod_Stretch_Energy-OPLS-2005>
34.3563003540039

> <r_mmod_Bend_Energy-OPLS-2005>
128.337921142578

> <r_mmod_Torsional_Energy-OPLS-2005>
275.491516113281

> <r_mmod_Improper_Torsional_Energy-OPLS-2005>
2.11331653594971

> <r_mmod_Van_der_Waal_Energy-OPLS-2005>
157.441040039062

> <r_mmod_Electrostatic_Energy-OPLS-2005>
-328.904876708984

> <r_mmod_Solvation_Energy-OPLS-2005>
-444.071350097656

> <b_mmod_Minimization_Converged-OPLS-2005>
0

> <r_mmod_RMS_Derivative-OPLS-2005>
3.55017924308777

$$$$
75
                    3D
 Structure written by MMmdl.
168177  0  0  1  0            999 V2000
  -30.7343  -14.4105   20.6706 C   0  0  0  0  0  0
  -30.4116  -12.3115   19.3974 C   0  0  0  0  0  0
  -29.4935  -12.5495   18.1812 C   0  0  0  0  0  0
  -28.0077  -12.4130   18.5780 C   0  0  0  0  0  0
  -27.6540  -13.2098   19.8614 C   0  0  2  0  0  0
  -28.6810  -12.9579   20.9750 C   0  0  0  0  0  0
  -25.2567  -13.8179   20.5628 C   0  0  0  0  0  0
  -24.1804  -13.0477   20.9120 C   0  0  0  0  0  0
  -24.6330  -11.6937   20.8683 C   0  0  0  0  0  0
  -23.9018  -10.4313   21.0437 C   0  0  0  0  0  0
  -24.3583   -9.4217   21.9215 C   0  0  0  0  0  0
  -23.6240   -8.2265   22.0802 C   0  0  0  0  0  0
  -22.4221   -8.0276   21.3578 C   0  0  0  0  0  0
  -21.9848   -9.0266   20.4695 C   0  0  0  0  0  0
  -22.7191  -10.2136   20.3091 C   0  0  0  0  0  0
  -21.6858   -6.0703   22.5271 C   0  0  0  0  0  0
  -21.4001   -6.5640   23.8212 C   0  0  0  0  0  0
  -21.3648   -5.6795   24.9167 C   0  0  0  0  0  0
  -21.6043   -4.3062   24.7217 C   0  0  0  0  0  0
  -21.8814   -3.8111   23.4357 C   0  0  0  0  0  0
  -21.9198   -4.6938   22.3388 C   0  0  0  0  0  0
  -22.7872  -13.5323   21.1830 C   0  0  0  0  0  0
  -22.1708   -4.2128   21.0990 F   0  0  0  0  0  0
  -21.5586   -3.4547   25.7729 F   0  0  0  0  0  0
  -30.0201  -13.2706   20.4461 N   0  0  0  0  0  0
  -26.2934  -12.9329   20.3168 N   0  0  0  0  0  0
  -25.9214  -11.6499   20.5546 N   0  0  0  0  0  0
  -22.0469  -12.8372   22.0395 N   0  0  0  0  0  0
  -25.4362  -15.1909   20.4182 N   0  0  0  0  0  0
  -31.8395  -14.5969   20.1467 O   0  0  0  0  0  0
  -21.6638   -6.8848   21.4225 O   0  0  0  0  0  0
  -22.3638  -14.5634   20.6659 O   0  0  0  0  0  0
  -24.6137  -31.8662   23.2131 C   0  0  0  0  0  0
  -25.9055  -32.4810   23.8388 C   0  0  1  0  0  0
  -27.2529  -27.4391   20.0750 C   0  0  0  0  0  0
  -25.5940  -33.8618   24.2346 N   0  0  0  0  0  0
  -23.4015  -30.4906   21.5547 C   0  0  2  0  0  0
  -24.8461  -28.9538   20.1234 C   0  0  0  0  0  0
  -22.7413  -29.4653   22.5038 C   0  0  0  0  0  0
  -18.0273  -28.1364   22.8499 C   0  0  0  0  0  0
  -24.1477  -36.7302   23.2628 C   0  0  0  0  0  0
  -25.9300  -30.8293   21.3649 C   0  0  0  0  0  0
  -26.0078  -29.4641   20.7130 C   0  0  0  0  0  0
  -27.2051  -28.7122   20.6907 C   0  0  0  0  0  0
  -26.0543  -26.9346   19.5061 C   0  0  0  0  0  0
  -24.8629  -27.6831   19.5295 C   0  0  0  0  0  0
  -23.6099  -29.8227   20.1700 C   0  0  0  0  0  0
  -25.4096  -36.3105   24.0330 C   0  0  1  0  0  0
  -20.5856  -28.3645   23.1337 C   0  0  2  0  0  0
  -20.6767  -26.9389   22.5418 C   0  0  0  0  0  0
  -19.5745  -26.6381   21.5216 C   0  0  0  0  0  0
  -18.1921  -26.7915   22.1631 C   0  0  0  0  0  0
  -19.1516  -28.8832   23.2911 C   0  0  0  0  0  0
  -18.9448  -30.1438   23.8907 C   0  0  0  0  0  0
  -17.6446  -30.6571   24.0565 C   0  0  0  0  0  0
  -25.9033  -34.9472   23.5138 C   0  0  0  0  0  0
  -16.5343  -29.9065   23.6330 C   0  0  0  0  0  0
  -16.7258  -28.6491   23.0346 C   0  0  0  0  0  0
  -26.4480  -31.6587   25.0718 C   0  0  0  0  0  0
  -25.3780  -31.3701   26.1511 C   0  0  0  0  0  0
  -27.0269  -30.3017   24.6078 C   0  0  0  0  0  0
  -27.6080  -32.4280   25.7472 C   0  0  0  0  0  0
  -27.5569  -37.1805   24.8466 C   0  0  0  0  0  0
  -21.4144  -29.3015   22.3759 N   0  0  0  0  0  0
  -26.4279  -37.3789   23.9411 N   0  0  0  0  0  0
  -24.6673  -31.0750   22.1027 N   0  0  0  0  0  0
  -23.4188  -28.8216   23.3091 O   0  0  0  0  0  0
  -28.4598  -26.7544   20.0927 O   0  0  0  0  0  0
  -26.5572  -34.8916   22.4681 O   0  0  0  0  0  0
  -23.5336  -32.1438   23.7520 O   0  0  0  0  0  0
  -30.0170  -18.3295   19.0072 C   0  0  0  0  0  0
  -30.1944  -17.0346   19.5135 C   0  0  0  0  0  0
  -29.3167  -17.7588   21.6594 C   0  0  0  0  0  0
  -29.4811  -19.3537   19.8093 C   0  0  0  0  0  0
  -29.8801  -16.7199   20.8611 C   0  0  0  0  0  0
  -29.1094  -19.0705   21.1449 C   0  0  0  0  0  0
  -31.0822  -22.0348   20.2037 C   0  0  0  0  0  0
  -31.6028  -23.3994   20.6907 C   0  0  0  0  0  0
  -30.9504  -24.6088   19.9929 C   0  0  0  0  0  0
  -29.0658  -23.1345   19.2585 C   0  0  0  0  0  0
  -29.4191  -24.4674   19.9489 C   0  0  2  0  0  0
  -30.0671  -15.2093   22.8553 C   0  0  0  0  0  0
  -27.8234  -19.8342   23.0570 C   0  0  0  0  0  0
  -29.2147  -20.7119   19.1537 C   0  0  0  0  0  0
  -28.7039  -25.6391   19.2196 C   0  0  0  0  0  0
  -29.8262  -21.9451   19.6989 N   0  0  0  0  0  0
  -30.1283  -15.3908   21.3968 N   0  0  0  0  0  0
  -31.8423  -21.0642   20.3175 O   0  0  0  0  0  0
  -28.5593  -20.1120   21.8690 O   0  0  0  0  0  0
  -31.4649  -12.3949   19.1107 H   0  0  0  0  0  0
  -30.2826  -11.2922   19.7617 H   0  0  0  0  0  0
  -29.7166  -11.8553   17.3721 H   0  0  0  0  0  0
  -29.6830  -13.5453   17.7769 H   0  0  0  0  0  0
  -27.7863  -11.3545   18.7227 H   0  0  0  0  0  0
  -27.3761  -12.7512   17.7536 H   0  0  0  0  0  0
  -27.7083  -14.2662   19.6034 H   0  0  0  0  0  0
  -28.6430  -11.9159   21.2888 H   0  0  0  0  0  0
  -28.3947  -13.5360   21.8510 H   0  0  0  0  0  0
  -25.2755   -9.5666   22.4766 H   0  0  0  0  0  0
  -23.9930   -7.4651   22.7531 H   0  0  0  0  0  0
  -21.0768   -8.8782   19.9051 H   0  0  0  0  0  0
  -22.3652  -10.9653   19.6168 H   0  0  0  0  0  0
  -21.2018   -7.6136   23.9699 H   0  0  0  0  0  0
  -21.1482   -6.0536   25.9083 H   0  0  0  0  0  0
  -22.0586   -2.7559   23.2881 H   0  0  0  0  0  0
  -22.4041  -12.0025   22.4776 H   0  0  0  0  0  0
  -21.1092  -13.1500   22.2580 H   0  0  0  0  0  0
  -24.6753  -15.8541   20.5167 H   0  0  0  0  0  0
  -26.2932  -15.6159   20.0867 H   0  0  0  0  0  0
  -26.7137  -32.5518   23.1153 H   0  0  0  0  0  0
  -25.0098  -33.9763   25.0506 H   0  0  0  0  0  0
  -22.6894  -31.3060   21.4175 H   0  0  0  0  0  0
  -23.3729  -35.9646   23.3316 H   0  0  0  0  0  0
  -24.3570  -36.8882   22.2036 H   0  0  0  0  0  0
  -23.7245  -37.6524   23.6624 H   0  0  0  0  0  0
  -26.0359  -31.5943   20.5946 H   0  0  0  0  0  0
  -26.8209  -30.8868   21.9763 H   0  0  0  0  0  0
  -28.1018  -29.1113   21.1455 H   0  0  0  0  0  0
  -25.9793  -25.9590   19.0560 H   0  0  0  0  0  0
  -23.9638  -27.2684   19.0927 H   0  0  0  0  0  0
  -23.7205  -30.5976   19.4105 H   0  0  0  0  0  0
  -22.7324  -29.2459   19.8742 H   0  0  0  0  0  0
  -25.1263  -36.1955   25.0816 H   0  0  0  0  0  0
  -20.9913  -28.3183   24.1472 H   0  0  0  0  0  0
  -20.5675  -26.2234   23.3580 H   0  0  0  0  0  0
  -21.6641  -26.7435   22.1215 H   0  0  0  0  0  0
  -19.6898  -25.6302   21.1215 H   0  0  0  0  0  0
  -19.6670  -27.3212   20.6759 H   0  0  0  0  0  0
  -17.4184  -26.6651   21.4039 H   0  0  0  0  0  0
  -18.0328  -26.0047   22.9014 H   0  0  0  0  0  0
  -19.7918  -30.7266   24.2269 H   0  0  0  0  0  0
  -17.4994  -31.6247   24.5161 H   0  0  0  0  0  0
  -15.5342  -30.2963   23.7657 H   0  0  0  0  0  0
  -15.8659  -28.0808   22.7052 H   0  0  0  0  0  0
  -24.5927  -30.7051   25.7901 H   0  0  0  0  0  0
  -24.8995  -32.2852   26.5004 H   0  0  0  0  0  0
  -25.8173  -30.8861   27.0245 H   0  0  0  0  0  0
  -26.2765  -29.6802   24.1168 H   0  0  0  0  0  0
  -27.4075  -29.7231   25.4507 H   0  0  0  0  0  0
  -27.8604  -30.4312   23.9168 H   0  0  0  0  0  0
  -27.2746  -33.3605   26.2026 H   0  0  0  0  0  0
  -28.3910  -32.6781   25.0312 H   0  0  0  0  0  0
  -28.0712  -31.8402   26.5404 H   0  0  0  0  0  0
  -28.2619  -38.0071   24.7509 H   0  0  0  0  0  0
  -28.1040  -36.2624   24.6305 H   0  0  0  0  0  0
  -27.2301  -37.1465   25.8870 H   0  0  0  0  0  0
  -20.9304  -29.8698   21.6950 H   0  0  0  0  0  0
  -26.0167  -38.2855   24.1447 H   0  0  0  0  0  0
  -30.2817  -18.5246   17.9805 H   0  0  0  0  0  0
  -30.5885  -16.3021   18.8245 H   0  0  0  0  0  0
  -29.0453  -17.5540   22.6841 H   0  0  0  0  0  0
  -32.6868  -23.4409   20.5595 H   0  0  0  0  0  0
  -31.4252  -23.4555   21.7671 H   0  0  0  0  0  0
  -31.3445  -24.6958   18.9779 H   0  0  0  0  0  0
  -31.2322  -25.5259   20.5132 H   0  0  0  0  0  0
  -29.2195  -23.2356   18.1806 H   0  0  0  0  0  0
  -27.9956  -22.9648   19.3933 H   0  0  0  0  0  0
  -29.0410  -24.4221   20.9727 H   0  0  0  0  0  0
  -29.0517  -15.3646   23.2239 H   0  0  0  0  0  0
  -30.7300  -15.9176   23.3558 H   0  0  0  0  0  0
  -30.3639  -14.2075   23.1745 H   0  0  0  0  0  0
  -27.3218  -20.7519   23.3683 H   0  0  0  0  0  0
  -28.4690  -19.5298   23.8836 H   0  0  0  0  0  0
  -27.0554  -19.0744   22.9084 H   0  0  0  0  0  0
  -28.1297  -20.8167   19.1643 H   0  0  0  0  0  0
  -29.4833  -20.6594   18.0982 H   0  0  0  0  0  0
  -27.8086  -25.2452   18.7467 H   0  0  0  0  0  0
  -29.3269  -25.9782   18.3898 H   0  0  0  0  0  0
  1 25  1  0  0  0
  1 30  2  0  0  0
  1 87  1  0  0  0
  2  3  1  0  0  0
  2 25  1  0  0  0
  2 90  1  0  0  0
  2 91  1  0  0  0
  3  4  1  0  0  0
  3 92  1  0  0  0
  3 93  1  0  0  0
  4  5  1  0  0  0
  4 94  1  0  0  0
  4 95  1  0  0  0
  5  6  1  0  0  0
  5 26  1  0  0  0
  5 96  1  0  0  0
  6 25  1  0  0  0
  6 97  1  0  0  0
  6 98  1  0  0  0
  7  8  2  0  0  0
  7 26  1  0  0  0
  7 29  1  0  0  0
  8  9  1  0  0  0
  8 22  1  0  0  0
  9 10  1  0  0  0
  9 27  2  0  0  0
 10 11  2  0  0  0
 10 15  1  0  0  0
 11 12  1  0  0  0
 11 99  1  0  0  0
 12 13  2  0  0  0
 12100  1  0  0  0
 13 14  1  0  0  0
 13 31  1  0  0  0
 14 15  2  0  0  0
 14101  1  0  0  0
 15102  1  0  0  0
 16 17  2  0  0  0
 16 21  1  0  0  0
 16 31  1  0  0  0
 17 18  1  0  0  0
 17103  1  0  0  0
 18 19  2  0  0  0
 18104  1  0  0  0
 19 20  1  0  0  0
 19 24  1  0  0  0
 20 21  2  0  0  0
 20105  1  0  0  0
 21 23  1  0  0  0
 22 28  1  0  0  0
 22 32  2  0  0  0
 26 27  1  0  0  0
 28106  1  0  0  0
 28107  1  0  0  0
 29108  1  0  0  0
 29109  1  0  0  0
 33 34  1  0  0  0
 33 66  1  0  0  0
 33 70  2  0  0  0
 34 36  1  0  0  0
 34 59  1  0  0  0
 34110  1  0  0  0
 35 44  2  0  0  0
 35 45  1  0  0  0
 35 68  1  0  0  0
 36 56  1  0  0  0
 36111  1  0  0  0
 37 39  1  0  0  0
 37 47  1  0  0  0
 37 66  1  0  0  0
 37112  1  0  0  0
 38 43  2  0  0  0
 38 46  1  0  0  0
 38 47  1  0  0  0
 39 64  1  0  0  0
 39 67  2  0  0  0
 40 52  1  0  0  0
 40 53  2  0  0  0
 40 58  1  0  0  0
 41113  1  0  0  0
 41114  1  0  0  0
 41115  1  0  0  0
 41 48  1  0  0  0
 42 43  1  0  0  0
 42 66  1  0  0  0
 42116  1  0  0  0
 42117  1  0  0  0
 43 44  1  0  0  0
 44118  1  0  0  0
 45 46  2  0  0  0
 45119  1  0  0  0
 46120  1  0  0  0
 47121  1  0  0  0
 47122  1  0  0  0
 48 56  1  0  0  0
 48 65  1  0  0  0
 48123  1  0  0  0
 49 50  1  0  0  0
 49 53  1  0  0  0
 49 64  1  0  0  0
 49124  1  0  0  0
 50 51  1  0  0  0
 50125  1  0  0  0
 50126  1  0  0  0
 51 52  1  0  0  0
 51127  1  0  0  0
 51128  1  0  0  0
 52129  1  0  0  0
 52130  1  0  0  0
 53 54  1  0  0  0
 54 55  2  0  0  0
 54131  1  0  0  0
 55 57  1  0  0  0
 55132  1  0  0  0
 56 69  2  0  0  0
 57 58  2  0  0  0
 57133  1  0  0  0
 58134  1  0  0  0
 59 60  1  0  0  0
 59 61  1  0  0  0
 59 62  1  0  0  0
 60135  1  0  0  0
 60136  1  0  0  0
 60137  1  0  0  0
 61138  1  0  0  0
 61139  1  0  0  0
 61140  1  0  0  0
 62141  1  0  0  0
 62142  1  0  0  0
 62143  1  0  0  0
 63 65  1  0  0  0
 63144  1  0  0  0
 63145  1  0  0  0
 63146  1  0  0  0
 64147  1  0  0  0
 65148  1  0  0  0
 68 85  1  0  0  0
 71 72  2  0  0  0
 71 74  1  0  0  0
 71149  1  0  0  0
 72 75  1  0  0  0
 72150  1  0  0  0
 73 75  2  0  0  0
 73 76  1  0  0  0
 73151  1  0  0  0
 74 76  2  0  0  0
 74 84  1  0  0  0
 75 87  1  0  0  0
 76 89  1  0  0  0
 77 78  1  0  0  0
 77 86  1  0  0  0
 77 88  2  0  0  0
 78 79  1  0  0  0
 78152  1  0  0  0
 78153  1  0  0  0
 79 81  1  0  0  0
 79154  1  0  0  0
 79155  1  0  0  0
 80 81  1  0  0  0
 80 86  1  0  0  0
 80156  1  0  0  0
 80157  1  0  0  0
 81 85  1  0  0  0
 81158  1  0  0  0
 82 87  1  0  0  0
 82159  1  0  0  0
 82160  1  0  0  0
 82161  1  0  0  0
 83 89  1  0  0  0
 83162  1  0  0  0
 83163  1  0  0  0
 83164  1  0  0  0
 84 86  1  0  0  0
 84165  1  0  0  0
 84166  1  0  0  0
 85167  1  0  0  0
 85168  1  0  0  0
M  ISO  4   1 100  68 101  85 101  87 100
M  END
> <chiral flag>
0

> <version>
0

> <s_m_source_file>
/data/baiqing/PycharmProjects/Reinvent-master-3.2/result/LINK_invent/BTK/process_docking_weight1_custom_product_contain_oxygen_bond_distance_aromatic_linkinvent_7_9_3/rearranged_h_0102.sdf

> <i_m_source_file_index>
75

> <r_mmod_Potential_Energy-OPLS-2005>
173.021087646484

> <r_mmod_Stretch_Energy-OPLS-2005>
49.1786994934082

> <r_mmod_Bend_Energy-OPLS-2005>
137.05680847168

> <r_mmod_Torsional_Energy-OPLS-2005>
300.149963378906

> <r_mmod_Improper_Torsional_Energy-OPLS-2005>
4.52020692825317

> <r_mmod_Van_der_Waal_Energy-OPLS-2005>
181.100967407227

> <r_mmod_Electrostatic_Energy-OPLS-2005>
-290.239440917969

> <r_mmod_Solvation_Energy-OPLS-2005>
-220.553192138672

> <b_mmod_Minimization_Converged-OPLS-2005>
0

> <r_mmod_RMS_Derivative-OPLS-2005>
7.22345685958862

$$$$
76
                    3D
 Structure written by MMmdl.
158166  0  0  1  0            999 V2000
  -30.7066  -14.4047   20.6740 C   0  0  0  0  0  0
  -30.4367  -12.3071   19.3799 C   0  0  0  0  0  0
  -29.4874  -12.5332   18.1857 C   0  0  0  0  0  0
  -28.0098  -12.3834   18.6057 C   0  0  0  0  0  0
  -27.6717  -13.1881   19.8886 C   0  0  2  0  0  0
  -28.7187  -12.8882   20.9850 C   0  0  0  0  0  0
  -25.2640  -13.8106   20.5689 C   0  0  0  0  0  0
  -24.1862  -13.0413   20.9167 C   0  0  0  0  0  0
  -24.6393  -11.6878   20.8726 C   0  0  0  0  0  0
  -23.9051  -10.4279   21.0404 C   0  0  0  0  0  0
  -24.3606   -9.4197   21.9183 C   0  0  0  0  0  0
  -23.6283   -8.2235   22.0753 C   0  0  0  0  0  0
  -22.4265   -8.0275   21.3543 C   0  0  0  0  0  0
  -21.9898   -9.0248   20.4645 C   0  0  0  0  0  0
  -22.7227  -10.2127   20.3053 C   0  0  0  0  0  0
  -21.6849   -6.0730   22.5279 C   0  0  0  0  0  0
  -21.4013   -6.5638   23.8212 C   0  0  0  0  0  0
  -21.3657   -5.6789   24.9172 C   0  0  0  0  0  0
  -21.6046   -4.3050   24.7225 C   0  0  0  0  0  0
  -21.8820   -3.8144   23.4344 C   0  0  0  0  0  0
  -21.9195   -4.6959   22.3402 C   0  0  0  0  0  0
  -22.7890  -13.5235   21.1837 C   0  0  0  0  0  0
  -22.1663   -4.2148   21.0977 F   0  0  0  0  0  0
  -21.5630   -3.4534   25.7736 F   0  0  0  0  0  0
  -30.0464  -13.2366   20.4481 N   0  0  0  0  0  0
  -26.3081  -12.9252   20.3441 N   0  0  0  0  0  0
  -25.9319  -11.6426   20.5776 N   0  0  0  0  0  0
  -22.0524  -12.8230   22.0391 N   0  0  0  0  0  0
  -25.4364  -15.1820   20.4098 N   0  0  0  0  0  0
  -31.7689  -14.6843   20.1044 O   0  0  0  0  0  0
  -21.6632   -6.8873   21.4240 O   0  0  0  0  0  0
  -22.3583  -14.5550   20.6695 O   0  0  0  0  0  0
  -24.6106  -31.8696   23.2115 C   0  0  0  0  0  0
  -25.9009  -32.4833   23.8405 C   0  0  1  0  0  0
  -27.2464  -27.4728   20.0924 C   0  0  0  0  0  0
  -25.5880  -33.8627   24.2338 N   0  0  0  0  0  0
  -23.3986  -30.4903   21.5507 C   0  0  2  0  0  0
  -24.8482  -28.9523   20.1232 C   0  0  0  0  0  0
  -22.7393  -29.4653   22.5011 C   0  0  0  0  0  0
  -18.0272  -28.1368   22.8507 C   0  0  0  0  0  0
  -24.1486  -36.7318   23.2635 C   0  0  0  0  0  0
  -25.9217  -30.8459   21.3587 C   0  0  0  0  0  0
  -26.0038  -29.4782   20.7160 C   0  0  0  0  0  0
  -27.2081  -28.7433   20.7014 C   0  0  0  0  0  0
  -26.0788  -26.9456   19.5062 C   0  0  0  0  0  0
  -24.8766  -27.6818   19.5196 C   0  0  0  0  0  0
  -23.6077  -29.8160   20.1673 C   0  0  0  0  0  0
  -25.4102  -36.3120   24.0346 C   0  0  1  0  0  0
  -20.5862  -28.3643   23.1339 C   0  0  2  0  0  0
  -20.6762  -26.9382   22.5427 C   0  0  0  0  0  0
  -19.5745  -26.6384   21.5218 C   0  0  0  0  0  0
  -18.1921  -26.7924   22.1627 C   0  0  0  0  0  0
  -19.1521  -28.8822   23.2920 C   0  0  0  0  0  0
  -18.9449  -30.1435   23.8922 C   0  0  0  0  0  0
  -17.6452  -30.6581   24.0570 C   0  0  0  0  0  0
  -25.9023  -34.9483   23.5141 C   0  0  0  0  0  0
  -16.5343  -29.9088   23.6323 C   0  0  0  0  0  0
  -16.7260  -28.6502   23.0348 C   0  0  0  0  0  0
  -26.4453  -31.6603   25.0715 C   0  0  0  0  0  0
  -25.3731  -31.3704   26.1471 C   0  0  0  0  0  0
  -27.0277  -30.3062   24.6047 C   0  0  0  0  0  0
  -27.6039  -32.4308   25.7474 C   0  0  0  0  0  0
  -27.5584  -37.1802   24.8459 C   0  0  0  0  0  0
  -21.4126  -29.3017   22.3748 N   0  0  0  0  0  0
  -26.4289  -37.3805   23.9418 N   0  0  0  0  0  0
  -24.6614  -31.0824   22.0999 N   0  0  0  0  0  0
  -23.4175  -28.8189   23.3042 O   0  0  0  0  0  0
  -28.4267  -26.7824   20.0002 O   0  0  0  0  0  0
  -26.5586  -34.8935   22.4702 O   0  0  0  0  0  0
  -23.5311  -32.1427   23.7536 O   0  0  0  0  0  0
  -29.8196  -19.0368   20.3443 C   0  0  0  0  0  0
  -31.2287  -19.0060   22.3228 C   0  0  0  0  0  0
  -29.7413  -17.6278   20.3647 C   0  0  0  0  0  0
  -30.3784  -16.9006   21.4050 C   0  0  0  0  0  0
  -30.5240  -19.7423   21.3485 C   0  0  0  0  0  0
  -31.1610  -17.5996   22.3511 C   0  0  0  0  0  0
  -29.9680  -22.0911   20.6710 C   0  0  0  0  0  0
  -28.8984  -16.9408   19.3018 C   0  0  0  0  0  0
  -30.0770  -15.4204   21.6515 C   0  0  0  0  0  0
  -29.6496  -23.4494   21.3097 C   0  0  0  0  0  0
  -29.1749  -24.5228   20.3089 C   0  0  0  0  0  0
  -28.6380  -25.7889   20.9939 C   0  0  0  0  0  0
  -30.4664  -21.1595   21.5023 N   0  0  0  0  0  0
  -29.8018  -21.9168   19.4613 O   0  0  0  0  0  0
  -31.7929  -16.9287   23.3445 F   0  0  0  0  0  0
  -31.4749  -12.4398   19.0702 H   0  0  0  0  0  0
  -30.3648  -11.2779   19.7351 H   0  0  0  0  0  0
  -29.7199  -11.8311   17.3838 H   0  0  0  0  0  0
  -29.6492  -13.5315   17.7754 H   0  0  0  0  0  0
  -27.8173  -11.3232   18.7738 H   0  0  0  0  0  0
  -27.3524  -12.6833   17.7888 H   0  0  0  0  0  0
  -27.7370  -14.2448   19.6363 H   0  0  0  0  0  0
  -28.7003  -11.8244   21.2261 H   0  0  0  0  0  0
  -28.4750  -13.3733   21.9284 H   0  0  0  0  0  0
  -25.2755   -9.5672   22.4749 H   0  0  0  0  0  0
  -23.9997   -7.4622   22.7464 H   0  0  0  0  0  0
  -21.0832   -8.8759   19.8946 H   0  0  0  0  0  0
  -22.3687  -10.9662   19.6153 H   0  0  0  0  0  0
  -21.2003   -7.6146   23.9715 H   0  0  0  0  0  0
  -21.1480   -6.0519   25.9076 H   0  0  0  0  0  0
  -22.0604   -2.7608   23.2841 H   0  0  0  0  0  0
  -22.4130  -11.9875   22.4761 H   0  0  0  0  0  0
  -21.1146  -13.1261   22.2611 H   0  0  0  0  0  0
  -24.6709  -15.8379   20.5208 H   0  0  0  0  0  0
  -26.2946  -15.6220   20.1072 H   0  0  0  0  0  0
  -26.7076  -32.5570   23.1176 H   0  0  0  0  0  0
  -25.0045  -33.9795   25.0495 H   0  0  0  0  0  0
  -22.6869  -31.3061   21.4091 H   0  0  0  0  0  0
  -23.3747  -35.9650   23.3306 H   0  0  0  0  0  0
  -24.3592  -36.8919   22.2047 H   0  0  0  0  0  0
  -23.7239  -37.6529   23.6639 H   0  0  0  0  0  0
  -26.0248  -31.6093   20.5859 H   0  0  0  0  0  0
  -26.8122  -30.9069   21.9720 H   0  0  0  0  0  0
  -28.1070  -29.1525   21.1416 H   0  0  0  0  0  0
  -26.1085  -25.9768   19.0274 H   0  0  0  0  0  0
  -23.9883  -27.2720   19.0590 H   0  0  0  0  0  0
  -23.7130  -30.5875   19.4033 H   0  0  0  0  0  0
  -22.7344  -29.2300   19.8755 H   0  0  0  0  0  0
  -25.1279  -36.1983   25.0841 H   0  0  0  0  0  0
  -20.9954  -28.3191   24.1459 H   0  0  0  0  0  0
  -20.5667  -26.2241   23.3603 H   0  0  0  0  0  0
  -21.6631  -26.7430   22.1211 H   0  0  0  0  0  0
  -19.6905  -25.6302   21.1224 H   0  0  0  0  0  0
  -19.6693  -27.3214   20.6765 H   0  0  0  0  0  0
  -17.4196  -26.6686   21.4019 H   0  0  0  0  0  0
  -18.0313  -26.0061   22.9015 H   0  0  0  0  0  0
  -19.7922  -30.7252   24.2298 H   0  0  0  0  0  0
  -17.5006  -31.6266   24.5162 H   0  0  0  0  0  0
  -15.5343  -30.2998   23.7637 H   0  0  0  0  0  0
  -15.8664  -28.0833   22.7041 H   0  0  0  0  0  0
  -24.5903  -30.7053   25.7810 H   0  0  0  0  0  0
  -24.8916  -32.2856   26.4926 H   0  0  0  0  0  0
  -25.8090  -30.8871   27.0221 H   0  0  0  0  0  0
  -26.2812  -29.6840   24.1101 H   0  0  0  0  0  0
  -27.4077  -29.7281   25.4476 H   0  0  0  0  0  0
  -27.8627  -30.4411   23.9173 H   0  0  0  0  0  0
  -27.2667  -33.3593   26.2097 H   0  0  0  0  0  0
  -28.3823  -32.6888   25.0281 H   0  0  0  0  0  0
  -28.0731  -31.8401   26.5351 H   0  0  0  0  0  0
  -28.2581  -38.0118   24.7537 H   0  0  0  0  0  0
  -28.1101  -36.2654   24.6240 H   0  0  0  0  0  0
  -27.2316  -37.1393   25.8864 H   0  0  0  0  0  0
  -20.9280  -29.8748   21.6982 H   0  0  0  0  0  0
  -26.0184  -38.2882   24.1440 H   0  0  0  0  0  0
  -29.2662  -19.5651   19.5826 H   0  0  0  0  0  0
  -31.7825  -19.5139   23.0995 H   0  0  0  0  0  0
  -28.6731  -17.6175   18.4768 H   0  0  0  0  0  0
  -27.9520  -16.6099   19.7259 H   0  0  0  0  0  0
  -29.4115  -16.0816   18.8718 H   0  0  0  0  0  0
  -28.9919  -15.3707   21.6278 H   0  0  0  0  0  0
  -30.3658  -15.1332   22.6620 H   0  0  0  0  0  0
  -30.5256  -23.8087   21.8519 H   0  0  0  0  0  0
  -28.8689  -23.2825   22.0532 H   0  0  0  0  0  0
  -28.3919  -24.1221   19.6633 H   0  0  0  0  0  0
  -30.0073  -24.7861   19.6538 H   0  0  0  0  0  0
  -29.3670  -26.1728   21.7085 H   0  0  0  0  0  0
  -27.7293  -25.5596   21.5546 H   0  0  0  0  0  0
  -30.7225  -21.5048   22.4176 H   0  0  0  0  0  0
  1 25  1  0  0  0
  1 30  2  0  0  0
  1 79  1  0  0  0
  2  3  1  0  0  0
  2 25  1  0  0  0
  2 86  1  0  0  0
  2 87  1  0  0  0
  3  4  1  0  0  0
  3 88  1  0  0  0
  3 89  1  0  0  0
  4  5  1  0  0  0
  4 90  1  0  0  0
  4 91  1  0  0  0
  5  6  1  0  0  0
  5 26  1  0  0  0
  5 92  1  0  0  0
  6 25  1  0  0  0
  6 93  1  0  0  0
  6 94  1  0  0  0
  7  8  2  0  0  0
  7 26  1  0  0  0
  7 29  1  0  0  0
  8  9  1  0  0  0
  8 22  1  0  0  0
  9 10  1  0  0  0
  9 27  2  0  0  0
 10 11  2  0  0  0
 10 15  1  0  0  0
 11 12  1  0  0  0
 11 95  1  0  0  0
 12 13  2  0  0  0
 12 96  1  0  0  0
 13 14  1  0  0  0
 13 31  1  0  0  0
 14 15  2  0  0  0
 14 97  1  0  0  0
 15 98  1  0  0  0
 16 17  2  0  0  0
 16 21  1  0  0  0
 16 31  1  0  0  0
 17 18  1  0  0  0
 17 99  1  0  0  0
 18 19  2  0  0  0
 18100  1  0  0  0
 19 20  1  0  0  0
 19 24  1  0  0  0
 20 21  2  0  0  0
 20101  1  0  0  0
 21 23  1  0  0  0
 22 28  1  0  0  0
 22 32  2  0  0  0
 26 27  1  0  0  0
 28102  1  0  0  0
 28103  1  0  0  0
 29104  1  0  0  0
 29105  1  0  0  0
 33 34  1  0  0  0
 33 66  1  0  0  0
 33 70  2  0  0  0
 34 36  1  0  0  0
 34 59  1  0  0  0
 34106  1  0  0  0
 35 44  2  0  0  0
 35 45  1  0  0  0
 35 68  1  0  0  0
 36 56  1  0  0  0
 36107  1  0  0  0
 37 39  1  0  0  0
 37 47  1  0  0  0
 37 66  1  0  0  0
 37108  1  0  0  0
 38 43  2  0  0  0
 38 46  1  0  0  0
 38 47  1  0  0  0
 39 64  1  0  0  0
 39 67  2  0  0  0
 40 52  1  0  0  0
 40 53  2  0  0  0
 40 58  1  0  0  0
 41109  1  0  0  0
 41110  1  0  0  0
 41111  1  0  0  0
 41 48  1  0  0  0
 42 43  1  0  0  0
 42 66  1  0  0  0
 42112  1  0  0  0
 42113  1  0  0  0
 43 44  1  0  0  0
 44114  1  0  0  0
 45 46  2  0  0  0
 45115  1  0  0  0
 46116  1  0  0  0
 47117  1  0  0  0
 47118  1  0  0  0
 48 56  1  0  0  0
 48 65  1  0  0  0
 48119  1  0  0  0
 49 50  1  0  0  0
 49 53  1  0  0  0
 49 64  1  0  0  0
 49120  1  0  0  0
 50 51  1  0  0  0
 50121  1  0  0  0
 50122  1  0  0  0
 51 52  1  0  0  0
 51123  1  0  0  0
 51124  1  0  0  0
 52125  1  0  0  0
 52126  1  0  0  0
 53 54  1  0  0  0
 54 55  2  0  0  0
 54127  1  0  0  0
 55 57  1  0  0  0
 55128  1  0  0  0
 56 69  2  0  0  0
 57 58  2  0  0  0
 57129  1  0  0  0
 58130  1  0  0  0
 59 60  1  0  0  0
 59 61  1  0  0  0
 59 62  1  0  0  0
 60131  1  0  0  0
 60132  1  0  0  0
 60133  1  0  0  0
 61134  1  0  0  0
 61135  1  0  0  0
 61136  1  0  0  0
 62137  1  0  0  0
 62138  1  0  0  0
 62139  1  0  0  0
 63 65  1  0  0  0
 63140  1  0  0  0
 63141  1  0  0  0
 63142  1  0  0  0
 64143  1  0  0  0
 65144  1  0  0  0
 68 82  1  0  0  0
 71 73  2  0  0  0
 71 75  1  0  0  0
 71145  1  0  0  0
 72 75  2  0  0  0
 72 76  1  0  0  0
 72146  1  0  0  0
 73 74  1  0  0  0
 73 78  1  0  0  0
 74 76  2  0  0  0
 74 79  1  0  0  0
 75 83  1  0  0  0
 76 85  1  0  0  0
 77 80  1  0  0  0
 77 83  1  0  0  0
 77 84  2  0  0  0
 78147  1  0  0  0
 78148  1  0  0  0
 78149  1  0  0  0
 79150  1  0  0  0
 79151  1  0  0  0
 80 81  1  0  0  0
 80152  1  0  0  0
 80153  1  0  0  0
 81 82  1  0  0  0
 81154  1  0  0  0
 81155  1  0  0  0
 82156  1  0  0  0
 82157  1  0  0  0
 83158  1  0  0  0
M  ISO  4   1 100  68 101  79 100  82 101
M  END
> <chiral flag>
0

> <version>
0

> <s_m_source_file>
/data/baiqing/PycharmProjects/Reinvent-master-3.2/result/LINK_invent/BTK/process_docking_weight1_custom_product_contain_oxygen_bond_distance_aromatic_linkinvent_7_9_3/rearranged_h_0102.sdf

> <i_m_source_file_index>
76

> <r_mmod_Potential_Energy-OPLS-2005>
-73.4824371337891

> <r_mmod_Stretch_Energy-OPLS-2005>
33.6370964050293

> <r_mmod_Bend_Energy-OPLS-2005>
98.3023681640625

> <r_mmod_Torsional_Energy-OPLS-2005>
216.072692871094

> <r_mmod_Improper_Torsional_Energy-OPLS-2005>
3.77443218231201

> <r_mmod_Van_der_Waal_Energy-OPLS-2005>
153.345520019531

> <r_mmod_Electrostatic_Energy-OPLS-2005>
-367.671752929688

> <r_mmod_Solvation_Energy-OPLS-2005>
-218.840240478516

> <b_mmod_Minimization_Converged-OPLS-2005>
0

> <r_mmod_RMS_Derivative-OPLS-2005>
1.16895890235901

$$$$
77
                    3D
 Structure written by MMmdl.
163172  0  0  1  0            999 V2000
  -30.6577  -14.5663   20.4978 C   0  0  0  0  0  0
  -30.4289  -12.3305   19.4183 C   0  0  0  0  0  0
  -29.4942  -12.5082   18.2017 C   0  0  0  0  0  0
  -28.0158  -12.3625   18.6150 C   0  0  0  0  0  0
  -27.6542  -13.2133   19.8614 C   0  0  2  0  0  0
  -28.6922  -13.0272   20.9877 C   0  0  0  0  0  0
  -25.2557  -13.8160   20.5661 C   0  0  0  0  0  0
  -24.1824  -13.0427   20.9147 C   0  0  0  0  0  0
  -24.6400  -11.6895   20.8695 C   0  0  0  0  0  0
  -23.9082  -10.4285   21.0390 C   0  0  0  0  0  0
  -24.3642   -9.4206   21.9173 C   0  0  0  0  0  0
  -23.6312   -8.2241   22.0760 C   0  0  0  0  0  0
  -22.4289   -8.0281   21.3550 C   0  0  0  0  0  0
  -21.9928   -9.0250   20.4636 C   0  0  0  0  0  0
  -22.7254  -10.2134   20.3041 C   0  0  0  0  0  0
  -21.6867   -6.0740   22.5295 C   0  0  0  0  0  0
  -21.4014   -6.5644   23.8226 C   0  0  0  0  0  0
  -21.3656   -5.6801   24.9190 C   0  0  0  0  0  0
  -21.6055   -4.3066   24.7231 C   0  0  0  0  0  0
  -21.8819   -3.8147   23.4350 C   0  0  0  0  0  0
  -21.9200   -4.6967   22.3410 C   0  0  0  0  0  0
  -22.7847  -13.5209   21.1837 C   0  0  0  0  0  0
  -22.1672   -4.2140   21.0989 F   0  0  0  0  0  0
  -21.5632   -3.4552   25.7742 F   0  0  0  0  0  0
  -30.0213  -13.3119   20.4346 N   0  0  0  0  0  0
  -26.2997  -12.9353   20.3307 N   0  0  0  0  0  0
  -25.9327  -11.6493   20.5704 N   0  0  0  0  0  0
  -22.0526  -12.8145   22.0369 N   0  0  0  0  0  0
  -25.4268  -15.1879   20.4092 N   0  0  0  0  0  0
  -31.8021  -14.7835   20.0909 O   0  0  0  0  0  0
  -21.6642   -6.8887   21.4259 O   0  0  0  0  0  0
  -22.3512  -14.5541   20.6743 O   0  0  0  0  0  0
  -24.6209  -31.8663   23.2138 C   0  0  0  0  0  0
  -25.9102  -32.4806   23.8425 C   0  0  1  0  0  0
  -27.2111  -27.3872   20.0870 C   0  0  0  0  0  0
  -25.5954  -33.8606   24.2333 N   0  0  0  0  0  0
  -23.4084  -30.4958   21.5552 C   0  0  2  0  0  0
  -24.8480  -28.9697   20.1085 C   0  0  0  0  0  0
  -22.7441  -29.4644   22.4972 C   0  0  0  0  0  0
  -18.0299  -28.1366   22.8489 C   0  0  0  0  0  0
  -24.1484  -36.7281   23.2636 C   0  0  0  0  0  0
  -25.9476  -30.8163   21.3792 C   0  0  0  0  0  0
  -26.0154  -29.4551   20.7089 C   0  0  0  0  0  0
  -27.2030  -28.6754   20.6882 C   0  0  0  0  0  0
  -26.0186  -26.9390   19.4707 C   0  0  0  0  0  0
  -24.8478  -27.7160   19.4817 C   0  0  0  0  0  0
  -23.6161  -29.8423   20.1654 C   0  0  0  0  0  0
  -25.4121  -36.3086   24.0322 C   0  0  1  0  0  0
  -20.5887  -28.3668   23.1313 C   0  0  2  0  0  0
  -20.6791  -26.9408   22.5412 C   0  0  0  0  0  0
  -19.5774  -26.6395   21.5198 C   0  0  0  0  0  0
  -18.1941  -26.7925   22.1589 C   0  0  0  0  0  0
  -19.1540  -28.8831   23.2902 C   0  0  0  0  0  0
  -18.9445  -30.1432   23.8923 C   0  0  0  0  0  0
  -17.6434  -30.6567   24.0560 C   0  0  0  0  0  0
  -25.9062  -34.9457   23.5116 C   0  0  0  0  0  0
  -16.5339  -29.9060   23.6309 C   0  0  0  0  0  0
  -16.7276  -28.6477   23.0341 C   0  0  0  0  0  0
  -26.4538  -31.6594   25.0753 C   0  0  0  0  0  0
  -25.3799  -31.3650   26.1472 C   0  0  0  0  0  0
  -27.0416  -30.3039   24.6179 C   0  0  0  0  0  0
  -27.6078  -32.4342   25.7537 C   0  0  0  0  0  0
  -27.5582  -37.1804   24.8461 C   0  0  0  0  0  0
  -21.4161  -29.3029   22.3710 N   0  0  0  0  0  0
  -26.4291  -37.3785   23.9409 N   0  0  0  0  0  0
  -24.6771  -31.0746   22.1056 N   0  0  0  0  0  0
  -23.4196  -28.8190   23.3021 O   0  0  0  0  0  0
  -28.3515  -26.5898   20.1160 O   0  0  0  0  0  0
  -26.5591  -34.8907   22.4656 O   0  0  0  0  0  0
  -23.5387  -32.1419   23.7513 O   0  0  0  0  0  0
  -30.0141  -18.9865   19.3200 C   0  0  0  0  0  0
  -30.5784  -17.6983   21.7404 C   0  0  0  0  0  0
  -30.6391  -19.7397   20.3461 C   0  0  0  0  0  0
  -29.7170  -17.6016   19.4805 C   0  0  0  0  0  0
  -30.8887  -19.0745   21.5821 C   0  0  0  0  0  0
  -30.0517  -16.9228   20.6846 C   0  0  0  0  0  0
  -31.3362  -21.0546   20.0143 C   0  0  0  0  0  0
  -30.5959  -24.6338   19.3694 C   0  0  0  0  0  0
  -31.5356  -23.4438   19.5305 C   0  0  0  0  0  0
  -29.3429  -22.7402   20.1639 C   0  0  0  0  0  0
  -29.4267  -24.3048   20.2785 C   0  0  2  0  0  0
  -29.0651  -16.8479   18.3320 C   0  0  0  0  0  0
  -31.5517  -19.7970   22.7472 C   0  0  0  0  0  0
  -28.1624  -25.1554   19.9524 C   0  0  0  0  0  0
  -30.7197  -22.2722   19.8862 N   0  0  0  0  0  0
  -32.5578  -20.9649   19.8411 O   0  0  0  0  0  0
  -29.7767  -15.5700   20.8832 O   0  0  0  0  0  0
  -31.4690  -12.4594   19.1140 H   0  0  0  0  0  0
  -30.3537  -11.3195   19.8195 H   0  0  0  0  0  0
  -29.7370  -11.7780   17.4276 H   0  0  0  0  0  0
  -29.6533  -13.4877   17.7487 H   0  0  0  0  0  0
  -27.8291  -11.3070   18.8190 H   0  0  0  0  0  0
  -27.3668  -12.6312   17.7806 H   0  0  0  0  0  0
  -27.6900  -14.2558   19.5470 H   0  0  0  0  0  0
  -28.6667  -12.0032   21.3615 H   0  0  0  0  0  0
  -28.4605  -13.6638   21.8419 H   0  0  0  0  0  0
  -25.2808   -9.5675   22.4718 H   0  0  0  0  0  0
  -24.0019   -7.4641   22.7496 H   0  0  0  0  0  0
  -21.0868   -8.8761   19.8933 H   0  0  0  0  0  0
  -22.3728  -10.9663   19.6116 H   0  0  0  0  0  0
  -21.2006   -7.6154   23.9719 H   0  0  0  0  0  0
  -21.1484   -6.0542   25.9095 H   0  0  0  0  0  0
  -22.0604   -2.7606   23.2872 H   0  0  0  0  0  0
  -22.4188  -11.9782   22.4663 H   0  0  0  0  0  0
  -21.1149  -13.1128   22.2643 H   0  0  0  0  0  0
  -24.6577  -15.8415   20.5109 H   0  0  0  0  0  0
  -26.2952  -15.6342   20.1446 H   0  0  0  0  0  0
  -26.7154  -32.5502   23.1168 H   0  0  0  0  0  0
  -25.0202  -33.9784   25.0542 H   0  0  0  0  0  0
  -22.6993  -31.3164   21.4241 H   0  0  0  0  0  0
  -23.3762  -35.9595   23.3280 H   0  0  0  0  0  0
  -24.3572  -36.8919   22.2052 H   0  0  0  0  0  0
  -23.7208  -37.6462   23.6680 H   0  0  0  0  0  0
  -26.0858  -31.5946   20.6268 H   0  0  0  0  0  0
  -26.8236  -30.8455   22.0155 H   0  0  0  0  0  0
  -28.1056  -29.0463   21.1528 H   0  0  0  0  0  0
  -25.9575  -25.9862   18.9670 H   0  0  0  0  0  0
  -23.9516  -27.3468   19.0029 H   0  0  0  0  0  0
  -23.7331  -30.6241   19.4144 H   0  0  0  0  0  0
  -22.7367  -29.2723   19.8632 H   0  0  0  0  0  0
  -25.1294  -36.1947   25.0813 H   0  0  0  0  0  0
  -20.9975  -28.3233   24.1435 H   0  0  0  0  0  0
  -20.5722  -26.2263   23.3593 H   0  0  0  0  0  0
  -21.6669  -26.7482   22.1204 H   0  0  0  0  0  0
  -19.6961  -25.6318   21.1207 H   0  0  0  0  0  0
  -19.6722  -27.3223   20.6742 H   0  0  0  0  0  0
  -17.4243  -26.6708   21.3953 H   0  0  0  0  0  0
  -18.0315  -26.0040   22.8949 H   0  0  0  0  0  0
  -19.7912  -30.7245   24.2317 H   0  0  0  0  0  0
  -17.4984  -31.6251   24.5168 H   0  0  0  0  0  0
  -15.5338  -30.2963   23.7616 H   0  0  0  0  0  0
  -15.8682  -28.0798   22.7040 H   0  0  0  0  0  0
  -24.6057  -30.6904   25.7794 H   0  0  0  0  0  0
  -24.8895  -32.2769   26.4886 H   0  0  0  0  0  0
  -25.8174  -30.8877   27.0251 H   0  0  0  0  0  0
  -26.2989  -29.6750   24.1256 H   0  0  0  0  0  0
  -27.4190  -29.7323   25.4672 H   0  0  0  0  0  0
  -27.8824  -30.4342   23.9356 H   0  0  0  0  0  0
  -27.2661  -33.3611   26.2168 H   0  0  0  0  0  0
  -28.3881  -32.6969   25.0375 H   0  0  0  0  0  0
  -28.0788  -31.8458   26.5427 H   0  0  0  0  0  0
  -28.2587  -38.0113   24.7537 H   0  0  0  0  0  0
  -28.1083  -36.2642   24.6264 H   0  0  0  0  0  0
  -27.2297  -37.1428   25.8860 H   0  0  0  0  0  0
  -20.9332  -29.8730   21.6914 H   0  0  0  0  0  0
  -26.0160  -38.2852   24.1429 H   0  0  0  0  0  0
  -29.8354  -19.4578   18.3625 H   0  0  0  0  0  0
  -30.7881  -17.2105   22.6823 H   0  0  0  0  0  0
  -30.2606  -24.7066   18.3320 H   0  0  0  0  0  0
  -31.0699  -25.5807   19.6340 H   0  0  0  0  0  0
  -32.2365  -23.6391   20.3434 H   0  0  0  0  0  0
  -32.1233  -23.2855   18.6250 H   0  0  0  0  0  0
  -28.6957  -22.4438   19.3375 H   0  0  0  0  0  0
  -28.9442  -22.2953   21.0769 H   0  0  0  0  0  0
  -29.7253  -24.5378   21.3023 H   0  0  0  0  0  0
  -29.0000  -17.4633   17.4356 H   0  0  0  0  0  0
  -28.0526  -16.5402   18.5944 H   0  0  0  0  0  0
  -29.6363  -15.9569   18.0722 H   0  0  0  0  0  0
  -31.4899  -19.2124   23.6672 H   0  0  0  0  0  0
  -31.0696  -20.7564   22.9404 H   0  0  0  0  0  0
  -32.6050  -19.9796   22.5371 H   0  0  0  0  0  0
  -27.3544  -24.8261   20.6064 H   0  0  0  0  0  0
  -27.8569  -24.9395   18.9274 H   0  0  0  0  0  0
  1 25  1  0  0  0
  1 30  2  0  0  0
  1 87  1  0  0  0
  2  3  1  0  0  0
  2 25  1  0  0  0
  2 88  1  0  0  0
  2 89  1  0  0  0
  3  4  1  0  0  0
  3 90  1  0  0  0
  3 91  1  0  0  0
  4  5  1  0  0  0
  4 92  1  0  0  0
  4 93  1  0  0  0
  5  6  1  0  0  0
  5 26  1  0  0  0
  5 94  1  0  0  0
  6 25  1  0  0  0
  6 95  1  0  0  0
  6 96  1  0  0  0
  7  8  2  0  0  0
  7 26  1  0  0  0
  7 29  1  0  0  0
  8  9  1  0  0  0
  8 22  1  0  0  0
  9 10  1  0  0  0
  9 27  2  0  0  0
 10 11  2  0  0  0
 10 15  1  0  0  0
 11 12  1  0  0  0
 11 97  1  0  0  0
 12 13  2  0  0  0
 12 98  1  0  0  0
 13 14  1  0  0  0
 13 31  1  0  0  0
 14 15  2  0  0  0
 14 99  1  0  0  0
 15100  1  0  0  0
 16 17  2  0  0  0
 16 21  1  0  0  0
 16 31  1  0  0  0
 17 18  1  0  0  0
 17101  1  0  0  0
 18 19  2  0  0  0
 18102  1  0  0  0
 19 20  1  0  0  0
 19 24  1  0  0  0
 20 21  2  0  0  0
 20103  1  0  0  0
 21 23  1  0  0  0
 22 28  1  0  0  0
 22 32  2  0  0  0
 26 27  1  0  0  0
 28104  1  0  0  0
 28105  1  0  0  0
 29106  1  0  0  0
 29107  1  0  0  0
 33 34  1  0  0  0
 33 66  1  0  0  0
 33 70  2  0  0  0
 34 36  1  0  0  0
 34 59  1  0  0  0
 34108  1  0  0  0
 35 44  2  0  0  0
 35 45  1  0  0  0
 35 68  1  0  0  0
 36 56  1  0  0  0
 36109  1  0  0  0
 37 39  1  0  0  0
 37 47  1  0  0  0
 37 66  1  0  0  0
 37110  1  0  0  0
 38 43  2  0  0  0
 38 46  1  0  0  0
 38 47  1  0  0  0
 39 64  1  0  0  0
 39 67  2  0  0  0
 40 52  1  0  0  0
 40 53  2  0  0  0
 40 58  1  0  0  0
 41111  1  0  0  0
 41112  1  0  0  0
 41113  1  0  0  0
 41 48  1  0  0  0
 42 43  1  0  0  0
 42 66  1  0  0  0
 42114  1  0  0  0
 42115  1  0  0  0
 43 44  1  0  0  0
 44116  1  0  0  0
 45 46  2  0  0  0
 45117  1  0  0  0
 46118  1  0  0  0
 47119  1  0  0  0
 47120  1  0  0  0
 48 56  1  0  0  0
 48 65  1  0  0  0
 48121  1  0  0  0
 49 50  1  0  0  0
 49 53  1  0  0  0
 49 64  1  0  0  0
 49122  1  0  0  0
 50 51  1  0  0  0
 50123  1  0  0  0
 50124  1  0  0  0
 51 52  1  0  0  0
 51125  1  0  0  0
 51126  1  0  0  0
 52127  1  0  0  0
 52128  1  0  0  0
 53 54  1  0  0  0
 54 55  2  0  0  0
 54129  1  0  0  0
 55 57  1  0  0  0
 55130  1  0  0  0
 56 69  2  0  0  0
 57 58  2  0  0  0
 57131  1  0  0  0
 58132  1  0  0  0
 59 60  1  0  0  0
 59 61  1  0  0  0
 59 62  1  0  0  0
 60133  1  0  0  0
 60134  1  0  0  0
 60135  1  0  0  0
 61136  1  0  0  0
 61137  1  0  0  0
 61138  1  0  0  0
 62139  1  0  0  0
 62140  1  0  0  0
 62141  1  0  0  0
 63 65  1  0  0  0
 63142  1  0  0  0
 63143  1  0  0  0
 63144  1  0  0  0
 64145  1  0  0  0
 65146  1  0  0  0
 68 84  1  0  0  0
 71 73  2  0  0  0
 71 74  1  0  0  0
 71147  1  0  0  0
 72 75  2  0  0  0
 72 76  1  0  0  0
 72148  1  0  0  0
 73 75  1  0  0  0
 73 77  1  0  0  0
 74 76  2  0  0  0
 74 82  1  0  0  0
 75 83  1  0  0  0
 76 87  1  0  0  0
 77 85  1  0  0  0
 77 86  2  0  0  0
 78 79  1  0  0  0
 78 81  1  0  0  0
 78149  1  0  0  0
 78150  1  0  0  0
 79 85  1  0  0  0
 79151  1  0  0  0
 79152  1  0  0  0
 80 81  1  0  0  0
 80 85  1  0  0  0
 80153  1  0  0  0
 80154  1  0  0  0
 81 84  1  0  0  0
 81155  1  0  0  0
 82156  1  0  0  0
 82157  1  0  0  0
 82158  1  0  0  0
 83159  1  0  0  0
 83160  1  0  0  0
 83161  1  0  0  0
 84162  1  0  0  0
 84163  1  0  0  0
M  ISO  4   1 100  68 101  84 101  87 100
M  END
> <chiral flag>
0

> <version>
0

> <s_m_source_file>
/data/baiqing/PycharmProjects/Reinvent-master-3.2/result/LINK_invent/BTK/process_docking_weight1_custom_product_contain_oxygen_bond_distance_aromatic_linkinvent_7_9_3/rearranged_h_0102.sdf

> <i_m_source_file_index>
77

> <r_mmod_Potential_Energy-OPLS-2005>
210.331176757812

> <r_mmod_Stretch_Energy-OPLS-2005>
55.4045562744141

> <r_mmod_Bend_Energy-OPLS-2005>
143.161712646484

> <r_mmod_Torsional_Energy-OPLS-2005>
291.637176513672

> <r_mmod_Improper_Torsional_Energy-OPLS-2005>
7.6438045501709

> <r_mmod_Van_der_Waal_Energy-OPLS-2005>
141.6650390625

> <r_mmod_Electrostatic_Energy-OPLS-2005>
-241.71630859375

> <r_mmod_Solvation_Energy-OPLS-2005>
-213.55940246582

> <b_mmod_Minimization_Converged-OPLS-2005>
0

> <r_mmod_RMS_Derivative-OPLS-2005>
3.16103744506836

$$$$
78
                    3D
 Structure written by MMmdl.
163172  0  0  1  0            999 V2000
  -30.6654  -14.4611   20.5681 C   0  0  0  0  0  0
  -30.4366  -12.2951   19.4183 C   0  0  0  0  0  0
  -29.5009  -12.5181   18.2070 C   0  0  0  0  0  0
  -28.0177  -12.3781   18.6109 C   0  0  0  0  0  0
  -27.6694  -13.1932   19.8836 C   0  0  2  0  0  0
  -28.7127  -12.9295   20.9945 C   0  0  0  0  0  0
  -25.2647  -13.8125   20.5690 C   0  0  0  0  0  0
  -24.1870  -13.0417   20.9160 C   0  0  0  0  0  0
  -24.6403  -11.6885   20.8729 C   0  0  0  0  0  0
  -23.9057  -10.4284   21.0415 C   0  0  0  0  0  0
  -24.3625   -9.4210   21.9193 C   0  0  0  0  0  0
  -23.6305   -8.2242   22.0754 C   0  0  0  0  0  0
  -22.4287   -8.0284   21.3542 C   0  0  0  0  0  0
  -21.9916   -9.0253   20.4644 C   0  0  0  0  0  0
  -22.7236  -10.2135   20.3057 C   0  0  0  0  0  0
  -21.6846   -6.0743   22.5281 C   0  0  0  0  0  0
  -21.4017   -6.5649   23.8217 C   0  0  0  0  0  0
  -21.3656   -5.6801   24.9175 C   0  0  0  0  0  0
  -21.6037   -4.3062   24.7227 C   0  0  0  0  0  0
  -21.8817   -3.8156   23.4345 C   0  0  0  0  0  0
  -21.9200   -4.6974   22.3405 C   0  0  0  0  0  0
  -22.7898  -13.5245   21.1818 C   0  0  0  0  0  0
  -22.1664   -4.2162   21.0984 F   0  0  0  0  0  0
  -21.5629   -3.4546   25.7738 F   0  0  0  0  0  0
  -30.0460  -13.2531   20.4616 N   0  0  0  0  0  0
  -26.3074  -12.9263   20.3400 N   0  0  0  0  0  0
  -25.9327  -11.6434   20.5750 N   0  0  0  0  0  0
  -22.0531  -12.8230   22.0372 N   0  0  0  0  0  0
  -25.4378  -15.1835   20.4123 N   0  0  0  0  0  0
  -31.8111  -14.6472   20.1377 O   0  0  0  0  0  0
  -21.6634   -6.8889   21.4245 O   0  0  0  0  0  0
  -22.3595  -14.5551   20.6671 O   0  0  0  0  0  0
  -24.6122  -31.8702   23.2164 C   0  0  0  0  0  0
  -25.9035  -32.4825   23.8440 C   0  0  1  0  0  0
  -27.2231  -27.4595   20.1011 C   0  0  0  0  0  0
  -25.5909  -33.8629   24.2337 N   0  0  0  0  0  0
  -23.3989  -30.4974   21.5539 C   0  0  2  0  0  0
  -24.8448  -28.9672   20.1165 C   0  0  0  0  0  0
  -22.7415  -29.4674   22.4995 C   0  0  0  0  0  0
  -18.0288  -28.1382   22.8486 C   0  0  0  0  0  0
  -24.1497  -36.7298   23.2647 C   0  0  0  0  0  0
  -25.9295  -30.8381   21.3770 C   0  0  0  0  0  0
  -26.0024  -29.4790   20.7185 C   0  0  0  0  0  0
  -27.1991  -28.7304   20.7122 C   0  0  0  0  0  0
  -26.0579  -26.9577   19.4893 C   0  0  0  0  0  0
  -24.8635  -27.7026   19.5036 C   0  0  0  0  0  0
  -23.6076  -29.8338   20.1663 C   0  0  0  0  0  0
  -25.4123  -36.3090   24.0332 C   0  0  1  0  0  0
  -20.5879  -28.3656   23.1304 C   0  0  2  0  0  0
  -20.6771  -26.9389   22.5407 C   0  0  0  0  0  0
  -19.5750  -26.6369   21.5209 C   0  0  0  0  0  0
  -18.1934  -26.7931   22.1613 C   0  0  0  0  0  0
  -19.1534  -28.8845   23.2886 C   0  0  0  0  0  0
  -18.9468  -30.1462   23.8885 C   0  0  0  0  0  0
  -17.6464  -30.6586   24.0568 C   0  0  0  0  0  0
  -25.9047  -34.9466   23.5130 C   0  0  0  0  0  0
  -16.5359  -29.9078   23.6343 C   0  0  0  0  0  0
  -16.7279  -28.6502   23.0355 C   0  0  0  0  0  0
  -26.4479  -31.6627   25.0782 C   0  0  0  0  0  0
  -25.3744  -31.3745   26.1530 C   0  0  0  0  0  0
  -27.0370  -30.3072   24.6220 C   0  0  0  0  0  0
  -27.6034  -32.4400   25.7525 C   0  0  0  0  0  0
  -27.5587  -37.1797   24.8463 C   0  0  0  0  0  0
  -21.4148  -29.3014   22.3710 N   0  0  0  0  0  0
  -26.4303  -37.3777   23.9400 N   0  0  0  0  0  0
  -24.6636  -31.0826   22.1059 N   0  0  0  0  0  0
  -23.4207  -28.8220   23.3025 O   0  0  0  0  0  0
  -28.3646  -26.7024   20.0607 O   0  0  0  0  0  0
  -26.5600  -34.8904   22.4683 O   0  0  0  0  0  0
  -23.5310  -32.1459   23.7548 O   0  0  0  0  0  0
  -31.1296  -20.6446   24.0406 C   0  0  0  0  0  0
  -29.9547  -21.4179   24.1589 C   0  0  0  0  0  0
  -31.1426  -19.4804   23.2435 C   0  0  0  0  0  0
  -28.8033  -19.8718   22.6764 C   0  0  0  0  0  0
  -28.7843  -21.0409   23.4637 C   0  0  0  0  0  0
  -29.9670  -19.0829   22.5688 C   0  0  0  0  0  0
  -27.5015  -21.8180   23.5926 C   0  0  0  0  0  0
  -30.4620  -16.7338   21.8258 C   0  0  0  0  0  0
  -26.6527  -25.2804   22.5981 C   0  0  0  0  0  0
  -26.2743  -23.9388   23.2387 C   0  0  0  0  0  0
  -28.5693  -23.8601   22.5612 C   0  0  0  0  0  0
  -27.8640  -24.9397   21.7284 C   0  0  2  0  0  0
  -29.7875  -15.6908   20.9169 C   0  0  0  0  0  0
  -28.7628  -26.1293   21.3073 C   0  0  0  0  0  0
  -27.4906  -23.1209   23.2234 N   0  0  0  0  0  0
  -29.8727  -17.9399   21.7366 N   0  0  0  0  0  0
  -26.4893  -21.2334   23.9929 O   0  0  0  0  0  0
  -31.3948  -16.4665   22.5900 O   0  0  0  0  0  0
  -31.4802  -12.4101   19.1201 H   0  0  0  0  0  0
  -30.3489  -11.2749   19.7956 H   0  0  0  0  0  0
  -29.7399  -11.8121   17.4123 H   0  0  0  0  0  0
  -29.6695  -13.5118   17.7878 H   0  0  0  0  0  0
  -27.8119  -11.3211   18.7813 H   0  0  0  0  0  0
  -27.3714  -12.6830   17.7867 H   0  0  0  0  0  0
  -27.7220  -14.2439   19.6036 H   0  0  0  0  0  0
  -28.6875  -11.8772   21.2814 H   0  0  0  0  0  0
  -28.4807  -13.4659   21.9133 H   0  0  0  0  0  0
  -25.2775   -9.5674   22.4764 H   0  0  0  0  0  0
  -24.0008   -7.4627   22.7470 H   0  0  0  0  0  0
  -21.0844   -8.8781   19.8945 H   0  0  0  0  0  0
  -22.3710  -10.9686   19.6168 H   0  0  0  0  0  0
  -21.2011   -7.6156   23.9727 H   0  0  0  0  0  0
  -21.1472   -6.0526   25.9079 H   0  0  0  0  0  0
  -22.0602   -2.7615   23.2841 H   0  0  0  0  0  0
  -22.4150  -11.9898   22.4758 H   0  0  0  0  0  0
  -21.1145  -13.1250   22.2572 H   0  0  0  0  0  0
  -24.6702  -15.8369   20.5223 H   0  0  0  0  0  0
  -26.2895  -15.6240   20.0882 H   0  0  0  0  0  0
  -26.7124  -32.5531   23.1211 H   0  0  0  0  0  0
  -25.0092  -33.9820   25.0501 H   0  0  0  0  0  0
  -22.6858  -31.3119   21.4177 H   0  0  0  0  0  0
  -23.3754  -35.9641   23.3339 H   0  0  0  0  0  0
  -24.3557  -36.8890   22.2047 H   0  0  0  0  0  0
  -23.7271  -37.6514   23.6659 H   0  0  0  0  0  0
  -26.0691  -31.6138   20.6230 H   0  0  0  0  0  0
  -26.8057  -30.8641   22.0124 H   0  0  0  0  0  0
  -28.0998  -29.1229   21.1641 H   0  0  0  0  0  0
  -26.0683  -25.9857   19.0170 H   0  0  0  0  0  0
  -23.9721  -27.3012   19.0422 H   0  0  0  0  0  0
  -23.7166  -30.6097   19.4083 H   0  0  0  0  0  0
  -22.7309  -29.2556   19.8696 H   0  0  0  0  0  0
  -25.1310  -36.1958   25.0826 H   0  0  0  0  0  0
  -20.9991  -28.3223   24.1412 H   0  0  0  0  0  0
  -20.5703  -26.2260   23.3599 H   0  0  0  0  0  0
  -21.6645  -26.7446   22.1191 H   0  0  0  0  0  0
  -19.6916  -25.6279   21.1243 H   0  0  0  0  0  0
  -19.6704  -27.3180   20.6746 H   0  0  0  0  0  0
  -17.4214  -26.6712   21.4002 H   0  0  0  0  0  0
  -18.0307  -26.0071   22.8998 H   0  0  0  0  0  0
  -19.7952  -30.7279   24.2237 H   0  0  0  0  0  0
  -17.5031  -31.6273   24.5159 H   0  0  0  0  0  0
  -15.5362  -30.2976   23.7693 H   0  0  0  0  0  0
  -15.8671  -28.0825   22.7065 H   0  0  0  0  0  0
  -24.5839  -30.7204   25.7831 H   0  0  0  0  0  0
  -24.9043  -32.2933   26.5056 H   0  0  0  0  0  0
  -25.8066  -30.8803   27.0246 H   0  0  0  0  0  0
  -26.2950  -29.6734   24.1352 H   0  0  0  0  0  0
  -27.4216  -29.7398   25.4708 H   0  0  0  0  0  0
  -27.8747  -30.4393   23.9369 H   0  0  0  0  0  0
  -27.2618  -33.3665   26.2155 H   0  0  0  0  0  0
  -28.3791  -32.7043   25.0328 H   0  0  0  0  0  0
  -28.0798  -31.8546   26.5398 H   0  0  0  0  0  0
  -28.2601  -38.0096   24.7499 H   0  0  0  0  0  0
  -28.1085  -36.2621   24.6315 H   0  0  0  0  0  0
  -27.2284  -37.1460   25.8860 H   0  0  0  0  0  0
  -20.9335  -29.8691   21.6877 H   0  0  0  0  0  0
  -26.0186  -38.2853   24.1412 H   0  0  0  0  0  0
  -32.0247  -20.9439   24.5664 H   0  0  0  0  0  0
  -29.9540  -22.2925   24.7949 H   0  0  0  0  0  0
  -32.0553  -18.9081   23.1569 H   0  0  0  0  0  0
  -27.9001  -19.5776   22.1582 H   0  0  0  0  0  0
  -26.9357  -25.9842   23.3828 H   0  0  0  0  0  0
  -25.8295  -25.7292   22.0407 H   0  0  0  0  0  0
  -25.4969  -23.4439   22.6549 H   0  0  0  0  0  0
  -25.8915  -24.0658   24.2523 H   0  0  0  0  0  0
  -29.2089  -24.3110   23.3227 H   0  0  0  0  0  0
  -29.1907  -23.2273   21.9263 H   0  0  0  0  0  0
  -27.5068  -24.4465   20.8207 H   0  0  0  0  0  0
  -29.5297  -16.1650   19.9699 H   0  0  0  0  0  0
  -28.8413  -15.4500   21.3899 H   0  0  0  0  0  0
  -29.7787  -25.7662   21.1495 H   0  0  0  0  0  0
  -28.8345  -26.8826   22.0928 H   0  0  0  0  0  0
  -29.1133  -17.9709   21.0723 H   0  0  0  0  0  0
  1 25  1  0  0  0
  1 30  2  0  0  0
  1 83  1  0  0  0
  2  3  1  0  0  0
  2 25  1  0  0  0
  2 89  1  0  0  0
  2 90  1  0  0  0
  3  4  1  0  0  0
  3 91  1  0  0  0
  3 92  1  0  0  0
  4  5  1  0  0  0
  4 93  1  0  0  0
  4 94  1  0  0  0
  5  6  1  0  0  0
  5 26  1  0  0  0
  5 95  1  0  0  0
  6 25  1  0  0  0
  6 96  1  0  0  0
  6 97  1  0  0  0
  7  8  2  0  0  0
  7 26  1  0  0  0
  7 29  1  0  0  0
  8  9  1  0  0  0
  8 22  1  0  0  0
  9 10  1  0  0  0
  9 27  2  0  0  0
 10 11  2  0  0  0
 10 15  1  0  0  0
 11 12  1  0  0  0
 11 98  1  0  0  0
 12 13  2  0  0  0
 12 99  1  0  0  0
 13 14  1  0  0  0
 13 31  1  0  0  0
 14 15  2  0  0  0
 14100  1  0  0  0
 15101  1  0  0  0
 16 17  2  0  0  0
 16 21  1  0  0  0
 16 31  1  0  0  0
 17 18  1  0  0  0
 17102  1  0  0  0
 18 19  2  0  0  0
 18103  1  0  0  0
 19 20  1  0  0  0
 19 24  1  0  0  0
 20 21  2  0  0  0
 20104  1  0  0  0
 21 23  1  0  0  0
 22 28  1  0  0  0
 22 32  2  0  0  0
 26 27  1  0  0  0
 28105  1  0  0  0
 28106  1  0  0  0
 29107  1  0  0  0
 29108  1  0  0  0
 33 34  1  0  0  0
 33 66  1  0  0  0
 33 70  2  0  0  0
 34 36  1  0  0  0
 34 59  1  0  0  0
 34109  1  0  0  0
 35 44  2  0  0  0
 35 45  1  0  0  0
 35 68  1  0  0  0
 36 56  1  0  0  0
 36110  1  0  0  0
 37 39  1  0  0  0
 37 47  1  0  0  0
 37 66  1  0  0  0
 37111  1  0  0  0
 38 43  2  0  0  0
 38 46  1  0  0  0
 38 47  1  0  0  0
 39 64  1  0  0  0
 39 67  2  0  0  0
 40 52  1  0  0  0
 40 53  2  0  0  0
 40 58  1  0  0  0
 41112  1  0  0  0
 41113  1  0  0  0
 41114  1  0  0  0
 41 48  1  0  0  0
 42 43  1  0  0  0
 42 66  1  0  0  0
 42115  1  0  0  0
 42116  1  0  0  0
 43 44  1  0  0  0
 44117  1  0  0  0
 45 46  2  0  0  0
 45118  1  0  0  0
 46119  1  0  0  0
 47120  1  0  0  0
 47121  1  0  0  0
 48 56  1  0  0  0
 48 65  1  0  0  0
 48122  1  0  0  0
 49 50  1  0  0  0
 49 53  1  0  0  0
 49 64  1  0  0  0
 49123  1  0  0  0
 50 51  1  0  0  0
 50124  1  0  0  0
 50125  1  0  0  0
 51 52  1  0  0  0
 51126  1  0  0  0
 51127  1  0  0  0
 52128  1  0  0  0
 52129  1  0  0  0
 53 54  1  0  0  0
 54 55  2  0  0  0
 54130  1  0  0  0
 55 57  1  0  0  0
 55131  1  0  0  0
 56 69  2  0  0  0
 57 58  2  0  0  0
 57132  1  0  0  0
 58133  1  0  0  0
 59 60  1  0  0  0
 59 61  1  0  0  0
 59 62  1  0  0  0
 60134  1  0  0  0
 60135  1  0  0  0
 60136  1  0  0  0
 61137  1  0  0  0
 61138  1  0  0  0
 61139  1  0  0  0
 62140  1  0  0  0
 62141  1  0  0  0
 62142  1  0  0  0
 63 65  1  0  0  0
 63143  1  0  0  0
 63144  1  0  0  0
 63145  1  0  0  0
 64146  1  0  0  0
 65147  1  0  0  0
 68 84  1  0  0  0
 71 72  2  0  0  0
 71 73  1  0  0  0
 71148  1  0  0  0
 72 75  1  0  0  0
 72149  1  0  0  0
 73 76  2  0  0  0
 73150  1  0  0  0
 74 75  2  0  0  0
 74 76  1  0  0  0
 74151  1  0  0  0
 75 77  1  0  0  0
 76 86  1  0  0  0
 77 85  1  0  0  0
 77 87  2  0  0  0
 78 83  1  0  0  0
 78 86  1  0  0  0
 78 88  2  0  0  0
 79 80  1  0  0  0
 79 82  1  0  0  0
 79152  1  0  0  0
 79153  1  0  0  0
 80 85  1  0  0  0
 80154  1  0  0  0
 80155  1  0  0  0
 81 82  1  0  0  0
 81 85  1  0  0  0
 81156  1  0  0  0
 81157  1  0  0  0
 82 84  1  0  0  0
 82158  1  0  0  0
 83159  1  0  0  0
 83160  1  0  0  0
 84161  1  0  0  0
 84162  1  0  0  0
 86163  1  0  0  0
M  ISO  4   1 100  68 101  83 100  84 101
M  END
> <chiral flag>
0

> <version>
0

> <s_m_source_file>
/data/baiqing/PycharmProjects/Reinvent-master-3.2/result/LINK_invent/BTK/process_docking_weight1_custom_product_contain_oxygen_bond_distance_aromatic_linkinvent_7_9_3/rearranged_h_0102.sdf

> <i_m_source_file_index>
78

> <r_mmod_Potential_Energy-OPLS-2005>
95.7106399536133

> <r_mmod_Stretch_Energy-OPLS-2005>
35.1423797607422

> <r_mmod_Bend_Energy-OPLS-2005>
141.77001953125

> <r_mmod_Torsional_Energy-OPLS-2005>
312.433410644531

> <r_mmod_Improper_Torsional_Energy-OPLS-2005>
9.07561492919922

> <r_mmod_Van_der_Waal_Energy-OPLS-2005>
147.043441772461

> <r_mmod_Electrostatic_Energy-OPLS-2005>
-305.498992919922

> <r_mmod_Solvation_Energy-OPLS-2005>
-255.756988525391

> <b_mmod_Minimization_Converged-OPLS-2005>
0

> <r_mmod_RMS_Derivative-OPLS-2005>
2.51926827430725

$$$$
79
                    3D
 Structure written by MMmdl.
163171  0  0  1  0            999 V2000
  -30.5219  -15.0114   20.4564 C   0  0  0  0  0  0
  -30.4222  -12.6497   19.4849 C   0  0  0  0  0  0
  -29.5076  -12.6034   18.2414 C   0  0  0  0  0  0
  -28.0488  -12.3501   18.6614 C   0  0  0  0  0  0
  -27.6207  -13.2640   19.8406 C   0  0  2  0  0  0
  -28.6586  -13.2711   20.9807 C   0  0  0  0  0  0
  -25.2399  -13.8250   20.5698 C   0  0  0  0  0  0
  -24.1736  -13.0416   20.9210 C   0  0  0  0  0  0
  -24.6392  -11.6896   20.8735 C   0  0  0  0  0  0
  -23.9099  -10.4242   21.0399 C   0  0  0  0  0  0
  -24.3654   -9.4152   21.9177 C   0  0  0  0  0  0
  -23.6331   -8.2175   22.0726 C   0  0  0  0  0  0
  -22.4313   -8.0245   21.3510 C   0  0  0  0  0  0
  -21.9933   -9.0210   20.4603 C   0  0  0  0  0  0
  -22.7266  -10.2096   20.3033 C   0  0  0  0  0  0
  -21.6845   -6.0733   22.5299 C   0  0  0  0  0  0
  -21.4001   -6.5645   23.8229 C   0  0  0  0  0  0
  -21.3651   -5.6797   24.9194 C   0  0  0  0  0  0
  -21.6050   -4.3061   24.7238 C   0  0  0  0  0  0
  -21.8812   -3.8147   23.4356 C   0  0  0  0  0  0
  -21.9174   -4.6966   22.3419 C   0  0  0  0  0  0
  -22.7757  -13.5167   21.1903 C   0  0  0  0  0  0
  -22.1647   -4.2142   21.0999 F   0  0  0  0  0  0
  -21.5629   -3.4545   25.7752 F   0  0  0  0  0  0
  -29.9280  -13.7375   20.3976 N   0  0  0  0  0  0
  -26.2822  -12.9497   20.3214 N   0  0  0  0  0  0
  -25.9314  -11.6593   20.5649 N   0  0  0  0  0  0
  -22.0407  -12.8131   22.0478 N   0  0  0  0  0  0
  -25.4064  -15.1956   20.4171 N   0  0  0  0  0  0
  -31.6946  -15.0611   20.0576 O   0  0  0  0  0  0
  -21.6639   -6.8863   21.4246 O   0  0  0  0  0  0
  -22.3388  -14.5428   20.6715 O   0  0  0  0  0  0
  -24.6536  -31.8371   23.1800 C   0  0  0  0  0  0
  -25.9277  -32.4646   23.8218 C   0  0  1  0  0  0
  -27.2157  -27.0633   20.2007 C   0  0  0  0  0  0
  -25.6002  -33.8448   24.2130 N   0  0  0  0  0  0
  -23.4602  -30.4506   21.5292 C   0  0  2  0  0  0
  -24.9129  -28.8652   20.1140 C   0  0  0  0  0  0
  -22.7634  -29.4502   22.4861 C   0  0  0  0  0  0
  -18.0300  -28.1390   22.8481 C   0  0  0  0  0  0
  -24.1489  -36.7209   23.2652 C   0  0  0  0  0  0
  -26.0224  -30.6910   21.3897 C   0  0  0  0  0  0
  -26.0927  -29.2951   20.7354 C   0  0  0  0  0  0
  -27.2507  -28.4183   20.7437 C   0  0  0  0  0  0
  -26.0121  -26.7468   19.5381 C   0  0  0  0  0  0
  -24.8939  -27.6085   19.4897 C   0  0  0  0  0  0
  -23.6903  -29.7717   20.1516 C   0  0  0  0  0  0
  -25.4129  -36.2988   24.0306 C   0  0  1  0  0  0
  -20.5937  -28.3709   23.1225 C   0  0  2  0  0  0
  -20.6783  -26.9402   22.5417 C   0  0  0  0  0  0
  -19.5763  -26.6372   21.5224 C   0  0  0  0  0  0
  -18.1937  -26.7936   22.1619 C   0  0  0  0  0  0
  -19.1570  -28.8868   23.2840 C   0  0  0  0  0  0
  -18.9491  -30.1479   23.8840 C   0  0  0  0  0  0
  -17.6474  -30.6585   24.0550 C   0  0  0  0  0  0
  -25.9100  -34.9366   23.5030 C   0  0  0  0  0  0
  -16.5360  -29.9055   23.6361 C   0  0  0  0  0  0
  -16.7287  -28.6493   23.0360 C   0  0  0  0  0  0
  -26.4561  -31.6558   25.0707 C   0  0  0  0  0  0
  -25.3697  -31.3773   26.1381 C   0  0  0  0  0  0
  -27.0471  -30.2946   24.6380 C   0  0  0  0  0  0
  -27.6077  -32.4352   25.7483 C   0  0  0  0  0  0
  -27.5567  -37.1752   24.8469 C   0  0  0  0  0  0
  -21.4314  -29.3018   22.3597 N   0  0  0  0  0  0
  -26.4265  -37.3727   23.9415 N   0  0  0  0  0  0
  -24.7316  -31.0165   22.0861 N   0  0  0  0  0  0
  -23.4259  -28.8074   23.3055 O   0  0  0  0  0  0
  -28.2421  -26.0322   20.2492 O   0  0  0  0  0  0
  -26.5698  -34.8895   22.4616 O   0  0  0  0  0  0
  -23.5641  -32.1259   23.7009 O   0  0  0  0  0  0
  -29.3560  -18.9794   20.8129 C   0  0  0  0  0  0
  -29.0233  -18.7584   18.1189 C   0  0  0  0  0  0
  -29.0054  -20.2584   20.0964 C   0  0  0  0  0  0
  -29.5501  -17.5916   20.2296 C   0  0  0  0  0  0
  -28.8842  -20.0370   18.6993 C   0  0  0  0  0  0
  -29.2878  -17.5613   18.8395 C   0  0  0  0  0  0
  -28.6616  -21.7636   20.6662 C   0  0  0  0  0  0
  -28.5727  -23.1031   20.1327 C   0  0  0  0  0  0
  -31.3168  -17.1010   24.3830 C   0  0  0  0  0  0
  -28.2989  -16.2212   17.1314 C   0  0  0  0  0  0
  -27.9296  -24.5449   20.7005 C   0  0  0  0  0  0
  -31.2353  -16.9854   22.8609 C   0  0  0  0  0  0
  -29.9270  -16.3141   22.3923 C   0  0  0  0  0  0
  -28.5221  -21.0612   17.8286 N   0  0  0  0  0  0
  -29.8615  -16.2199   20.9274 N   0  0  0  0  0  0
  -29.2219  -16.3351   18.2121 O   0  0  0  0  0  0
  -31.4536  -12.8103   19.1695 H   0  0  0  0  0  0
  -30.4195  -11.6788   19.9850 H   0  0  0  0  0  0
  -29.8408  -11.8475   17.5296 H   0  0  0  0  0  0
  -29.5725  -13.5575   17.7148 H   0  0  0  0  0  0
  -27.9655  -11.3025   18.9506 H   0  0  0  0  0  0
  -27.3784  -12.4756   17.8088 H   0  0  0  0  0  0
  -27.5827  -14.2785   19.4446 H   0  0  0  0  0  0
  -28.7595  -12.2632   21.3897 H   0  0  0  0  0  0
  -28.3313  -13.9084   21.8004 H   0  0  0  0  0  0
  -25.2805   -9.5631   22.4730 H   0  0  0  0  0  0
  -24.0034   -7.4570   22.7443 H   0  0  0  0  0  0
  -21.0838   -8.8722   19.8934 H   0  0  0  0  0  0
  -22.3708  -10.9623   19.6121 H   0  0  0  0  0  0
  -21.1979   -7.6142   23.9750 H   0  0  0  0  0  0
  -21.1503   -6.0518   25.9108 H   0  0  0  0  0  0
  -22.0596   -2.7600   23.2868 H   0  0  0  0  0  0
  -22.4056  -11.9855   22.4951 H   0  0  0  0  0  0
  -21.0951  -13.1053   22.2532 H   0  0  0  0  0  0
  -24.6482  -15.8588   20.5439 H   0  0  0  0  0  0
  -26.2796  -15.6347   20.1570 H   0  0  0  0  0  0
  -26.7341  -32.5228   23.0938 H   0  0  0  0  0  0
  -25.0096  -33.9538   25.0254 H   0  0  0  0  0  0
  -22.7686  -31.2798   21.3709 H   0  0  0  0  0  0
  -23.3770  -35.9530   23.3291 H   0  0  0  0  0  0
  -24.3585  -36.8871   22.2077 H   0  0  0  0  0  0
  -23.7225  -37.6377   23.6705 H   0  0  0  0  0  0
  -26.1994  -31.4405   20.6170 H   0  0  0  0  0  0
  -26.8846  -30.7350   22.0422 H   0  0  0  0  0  0
  -28.1534  -28.7577   21.2315 H   0  0  0  0  0  0
  -25.9164  -25.7736   19.0758 H   0  0  0  0  0  0
  -24.0006  -27.2710   18.9827 H   0  0  0  0  0  0
  -23.8230  -30.5434   19.3927 H   0  0  0  0  0  0
  -22.8056  -29.2100   19.8448 H   0  0  0  0  0  0
  -25.1325  -36.1778   25.0793 H   0  0  0  0  0  0
  -21.0013  -28.3261   24.1349 H   0  0  0  0  0  0
  -20.5678  -26.2302   23.3622 H   0  0  0  0  0  0
  -21.6627  -26.7401   22.1196 H   0  0  0  0  0  0
  -19.6908  -25.6288   21.1229 H   0  0  0  0  0  0
  -19.6689  -27.3189   20.6756 H   0  0  0  0  0  0
  -17.4214  -26.6712   21.4001 H   0  0  0  0  0  0
  -18.0311  -26.0071   22.9007 H   0  0  0  0  0  0
  -19.7958  -30.7331   24.2170 H   0  0  0  0  0  0
  -17.5016  -31.6268   24.5156 H   0  0  0  0  0  0
  -15.5357  -30.2932   23.7738 H   0  0  0  0  0  0
  -15.8692  -28.0798   22.7098 H   0  0  0  0  0  0
  -24.5885  -30.7129   25.7661 H   0  0  0  0  0  0
  -24.8892  -32.2963   26.4720 H   0  0  0  0  0  0
  -25.7944  -30.8965   27.0210 H   0  0  0  0  0  0
  -26.3134  -29.6618   24.1368 H   0  0  0  0  0  0
  -27.4029  -29.7303   25.5019 H   0  0  0  0  0  0
  -27.9054  -30.4175   23.9777 H   0  0  0  0  0  0
  -27.2660  -33.3692   26.1953 H   0  0  0  0  0  0
  -28.3909  -32.6858   25.0310 H   0  0  0  0  0  0
  -28.0713  -31.8553   26.5469 H   0  0  0  0  0  0
  -28.2561  -38.0077   24.7544 H   0  0  0  0  0  0
  -28.1076  -36.2599   24.6236 H   0  0  0  0  0  0
  -27.2298  -37.1327   25.8880 H   0  0  0  0  0  0
  -20.9567  -29.8669   21.6689 H   0  0  0  0  0  0
  -26.0116  -38.2779   24.1442 H   0  0  0  0  0  0
  -29.4493  -19.0829   21.8846 H   0  0  0  0  0  0
  -28.8665  -18.7023   17.0522 H   0  0  0  0  0  0
  -28.3309  -21.6996   21.6938 H   0  0  0  0  0  0
  -28.9204  -23.2250   19.1190 H   0  0  0  0  0  0
  -32.2216  -17.6361   24.6728 H   0  0  0  0  0  0
  -31.3526  -16.1231   24.8629 H   0  0  0  0  0  0
  -30.4586  -17.6431   24.7870 H   0  0  0  0  0  0
  -27.3993  -16.8248   17.2770 H   0  0  0  0  0  0
  -27.9654  -15.1887   17.0396 H   0  0  0  0  0  0
  -28.7641  -16.5191   16.1929 H   0  0  0  0  0  0
  -28.0150  -24.5244   21.7896 H   0  0  0  0  0  0
  -26.8626  -24.3973   20.5338 H   0  0  0  0  0  0
  -32.0988  -16.4258   22.4984 H   0  0  0  0  0  0
  -31.3284  -17.9833   22.4331 H   0  0  0  0  0  0
  -29.0665  -16.8770   22.7471 H   0  0  0  0  0  0
  -29.8376  -15.3348   22.8691 H   0  0  0  0  0  0
  -28.1204  -20.7980   16.9339 H   0  0  0  0  0  0
  -28.0434  -21.8472   18.2548 H   0  0  0  0  0  0
  1 25  1  0  0  0
  1 30  2  0  0  0
  1 85  1  0  0  0
  2  3  1  0  0  0
  2 25  1  0  0  0
  2 87  1  0  0  0
  2 88  1  0  0  0
  3  4  1  0  0  0
  3 89  1  0  0  0
  3 90  1  0  0  0
  4  5  1  0  0  0
  4 91  1  0  0  0
  4 92  1  0  0  0
  5  6  1  0  0  0
  5 26  1  0  0  0
  5 93  1  0  0  0
  6 25  1  0  0  0
  6 94  1  0  0  0
  6 95  1  0  0  0
  7  8  2  0  0  0
  7 26  1  0  0  0
  7 29  1  0  0  0
  8  9  1  0  0  0
  8 22  1  0  0  0
  9 10  1  0  0  0
  9 27  2  0  0  0
 10 11  2  0  0  0
 10 15  1  0  0  0
 11 12  1  0  0  0
 11 96  1  0  0  0
 12 13  2  0  0  0
 12 97  1  0  0  0
 13 14  1  0  0  0
 13 31  1  0  0  0
 14 15  2  0  0  0
 14 98  1  0  0  0
 15 99  1  0  0  0
 16 17  2  0  0  0
 16 21  1  0  0  0
 16 31  1  0  0  0
 17 18  1  0  0  0
 17100  1  0  0  0
 18 19  2  0  0  0
 18101  1  0  0  0
 19 20  1  0  0  0
 19 24  1  0  0  0
 20 21  2  0  0  0
 20102  1  0  0  0
 21 23  1  0  0  0
 22 28  1  0  0  0
 22 32  2  0  0  0
 26 27  1  0  0  0
 28103  1  0  0  0
 28104  1  0  0  0
 29105  1  0  0  0
 29106  1  0  0  0
 33 34  1  0  0  0
 33 66  1  0  0  0
 33 70  2  0  0  0
 34 36  1  0  0  0
 34 59  1  0  0  0
 34107  1  0  0  0
 35 44  2  0  0  0
 35 45  1  0  0  0
 35 68  1  0  0  0
 36 56  1  0  0  0
 36108  1  0  0  0
 37 39  1  0  0  0
 37 47  1  0  0  0
 37 66  1  0  0  0
 37109  1  0  0  0
 38 43  2  0  0  0
 38 46  1  0  0  0
 38 47  1  0  0  0
 39 64  1  0  0  0
 39 67  2  0  0  0
 40 52  1  0  0  0
 40 53  2  0  0  0
 40 58  1  0  0  0
 41110  1  0  0  0
 41111  1  0  0  0
 41112  1  0  0  0
 41 48  1  0  0  0
 42 43  1  0  0  0
 42 66  1  0  0  0
 42113  1  0  0  0
 42114  1  0  0  0
 43 44  1  0  0  0
 44115  1  0  0  0
 45 46  2  0  0  0
 45116  1  0  0  0
 46117  1  0  0  0
 47118  1  0  0  0
 47119  1  0  0  0
 48 56  1  0  0  0
 48 65  1  0  0  0
 48120  1  0  0  0
 49 50  1  0  0  0
 49 53  1  0  0  0
 49 64  1  0  0  0
 49121  1  0  0  0
 50 51  1  0  0  0
 50122  1  0  0  0
 50123  1  0  0  0
 51 52  1  0  0  0
 51124  1  0  0  0
 51125  1  0  0  0
 52126  1  0  0  0
 52127  1  0  0  0
 53 54  1  0  0  0
 54 55  2  0  0  0
 54128  1  0  0  0
 55 57  1  0  0  0
 55129  1  0  0  0
 56 69  2  0  0  0
 57 58  2  0  0  0
 57130  1  0  0  0
 58131  1  0  0  0
 59 60  1  0  0  0
 59 61  1  0  0  0
 59 62  1  0  0  0
 60132  1  0  0  0
 60133  1  0  0  0
 60134  1  0  0  0
 61135  1  0  0  0
 61136  1  0  0  0
 61137  1  0  0  0
 62138  1  0  0  0
 62139  1  0  0  0
 62140  1  0  0  0
 63 65  1  0  0  0
 63141  1  0  0  0
 63142  1  0  0  0
 63143  1  0  0  0
 64144  1  0  0  0
 65145  1  0  0  0
 68 81  1  0  0  0
 71 73  2  0  0  0
 71 74  1  0  0  0
 71146  1  0  0  0
 72 75  2  0  0  0
 72 76  1  0  0  0
 72147  1  0  0  0
 73 75  1  0  0  0
 73 77  1  0  0  0
 74 76  2  0  0  0
 74 85  1  0  0  0
 75 84  1  0  0  0
 76 86  1  0  0  0
 77 78  2  0  0  0
 77148  1  0  0  0
 78 81  1  0  0  0
 78149  1  0  0  0
 79 82  1  0  0  0
 79150  1  0  0  0
 79151  1  0  0  0
 79152  1  0  0  0
 80 86  1  0  0  0
 80153  1  0  0  0
 80154  1  0  0  0
 80155  1  0  0  0
 81156  1  0  0  0
 81157  1  0  0  0
 82 83  1  0  0  0
 82158  1  0  0  0
 82159  1  0  0  0
 83 85  1  0  0  0
 83160  1  0  0  0
 83161  1  0  0  0
 84162  1  0  0  0
 84163  1  0  0  0
M  ISO  4   1 100  68 101  81 101  85 100
M  END
> <chiral flag>
0

> <version>
0

> <s_m_source_file>
/data/baiqing/PycharmProjects/Reinvent-master-3.2/result/LINK_invent/BTK/process_docking_weight1_custom_product_contain_oxygen_bond_distance_aromatic_linkinvent_7_9_3/rearranged_h_0102.sdf

> <i_m_source_file_index>
79

> <r_mmod_Potential_Energy-OPLS-2005>
833.4638671875

> <r_mmod_Stretch_Energy-OPLS-2005>
350.742126464844

> <r_mmod_Bend_Energy-OPLS-2005>
287.028015136719

> <r_mmod_Torsional_Energy-OPLS-2005>
321.892547607422

> <r_mmod_Improper_Torsional_Energy-OPLS-2005>
9.29410266876221

> <r_mmod_Van_der_Waal_Energy-OPLS-2005>
141.504699707031

> <r_mmod_Electrostatic_Energy-OPLS-2005>
-321.360412597656

> <r_mmod_Solvation_Energy-OPLS-2005>
-202.955688476562

> <b_mmod_Minimization_Converged-OPLS-2005>
0

> <r_mmod_RMS_Derivative-OPLS-2005>
5.42478084564209

$$$$
80
                    3D
 Structure written by MMmdl.
160168  0  0  1  0            999 V2000
  -30.7496  -14.4864   20.6357 C   0  0  0  0  0  0
  -30.4181  -12.3458   19.4186 C   0  0  0  0  0  0
  -29.4905  -12.5154   18.1996 C   0  0  0  0  0  0
  -28.0160  -12.3512   18.6110 C   0  0  0  0  0  0
  -27.6528  -13.1961   19.8581 C   0  0  2  0  0  0
  -28.6925  -13.0241   20.9822 C   0  0  0  0  0  0
  -25.2583  -13.8133   20.5665 C   0  0  0  0  0  0
  -24.1826  -13.0416   20.9150 C   0  0  0  0  0  0
  -24.6373  -11.6884   20.8697 C   0  0  0  0  0  0
  -23.9041  -10.4280   21.0383 C   0  0  0  0  0  0
  -24.3599   -9.4206   21.9171 C   0  0  0  0  0  0
  -23.6273   -8.2242   22.0751 C   0  0  0  0  0  0
  -22.4254   -8.0273   21.3543 C   0  0  0  0  0  0
  -21.9884   -9.0242   20.4640 C   0  0  0  0  0  0
  -22.7213  -10.2119   20.3043 C   0  0  0  0  0  0
  -21.6849   -6.0720   22.5271 C   0  0  0  0  0  0
  -21.4007   -6.5626   23.8200 C   0  0  0  0  0  0
  -21.3665   -5.6785   24.9168 C   0  0  0  0  0  0
  -21.6039   -4.3046   24.7219 C   0  0  0  0  0  0
  -21.8827   -3.8138   23.4344 C   0  0  0  0  0  0
  -21.9199   -4.6951   22.3397 C   0  0  0  0  0  0
  -22.7862  -13.5235   21.1836 C   0  0  0  0  0  0
  -22.1663   -4.2139   21.0976 F   0  0  0  0  0  0
  -21.5639   -3.4535   25.7738 F   0  0  0  0  0  0
  -30.0311  -13.3355   20.4425 N   0  0  0  0  0  0
  -26.2977  -12.9262   20.3285 N   0  0  0  0  0  0
  -25.9290  -11.6433   20.5704 N   0  0  0  0  0  0
  -22.0500  -12.8234   22.0401 N   0  0  0  0  0  0
  -25.4335  -15.1851   20.4154 N   0  0  0  0  0  0
  -31.8068  -14.7009   20.0357 O   0  0  0  0  0  0
  -21.6636   -6.8861   21.4230 O   0  0  0  0  0  0
  -22.3568  -14.5559   20.6711 O   0  0  0  0  0  0
  -24.6173  -31.8675   23.2092 C   0  0  0  0  0  0
  -25.9065  -32.4816   23.8398 C   0  0  1  0  0  0
  -27.2307  -27.4094   20.1095 C   0  0  0  0  0  0
  -25.5923  -33.8620   24.2332 N   0  0  0  0  0  0
  -23.4075  -30.4907   21.5493 C   0  0  2  0  0  0
  -24.8529  -28.9543   20.1160 C   0  0  0  0  0  0
  -22.7422  -29.4659   22.4970 C   0  0  0  0  0  0
  -18.0279  -28.1368   22.8494 C   0  0  0  0  0  0
  -24.1480  -36.7305   23.2639 C   0  0  0  0  0  0
  -25.9375  -30.8269   21.3638 C   0  0  0  0  0  0
  -26.0158  -29.4596   20.7112 C   0  0  0  0  0  0
  -27.2099  -28.6966   20.7007 C   0  0  0  0  0  0
  -26.0500  -26.9329   19.4953 C   0  0  0  0  0  0
  -24.8657  -27.6903   19.5047 C   0  0  0  0  0  0
  -23.6178  -29.8252   20.1630 C   0  0  0  0  0  0
  -25.4107  -36.3112   24.0332 C   0  0  1  0  0  0
  -20.5864  -28.3673   23.1306 C   0  0  2  0  0  0
  -20.6767  -26.9407   22.5421 C   0  0  0  0  0  0
  -19.5738  -26.6387   21.5212 C   0  0  0  0  0  0
  -18.1914  -26.7926   22.1620 C   0  0  0  0  0  0
  -19.1527  -28.8836   23.2903 C   0  0  0  0  0  0
  -18.9457  -30.1438   23.8917 C   0  0  0  0  0  0
  -17.6463  -30.6586   24.0549 C   0  0  0  0  0  0
  -25.9040  -34.9478   23.5133 C   0  0  0  0  0  0
  -16.5353  -29.9086   23.6322 C   0  0  0  0  0  0
  -16.7268  -28.6494   23.0362 C   0  0  0  0  0  0
  -26.4497  -31.6585   25.0723 C   0  0  0  0  0  0
  -25.3765  -31.3680   26.1473 C   0  0  0  0  0  0
  -27.0350  -30.3039   24.6087 C   0  0  0  0  0  0
  -27.6066  -32.4315   25.7495 C   0  0  0  0  0  0
  -27.5572  -37.1816   24.8470 C   0  0  0  0  0  0
  -21.4145  -29.3039   22.3709 N   0  0  0  0  0  0
  -26.4285  -37.3804   23.9412 N   0  0  0  0  0  0
  -24.6726  -31.0753   22.0998 N   0  0  0  0  0  0
  -23.4170  -28.8211   23.3039 O   0  0  0  0  0  0
  -28.3830  -26.6418   20.1212 O   0  0  0  0  0  0
  -26.5588  -34.8937   22.4684 O   0  0  0  0  0  0
  -23.5366  -32.1431   23.7477 O   0  0  0  0  0  0
  -29.4982  -18.8524   19.9494 C   0  0  0  0  0  0
  -30.7309  -17.7552   22.1921 C   0  0  0  0  0  0
  -29.5794  -17.4387   20.0882 C   0  0  0  0  0  0
  -30.1972  -16.8450   21.2374 C   0  0  0  0  0  0
  -30.0236  -19.7403   20.9188 C   0  0  0  0  0  0
  -30.6569  -19.1568   22.0347 C   0  0  0  0  0  0
  -28.9270  -16.6324   18.9786 C   0  0  0  0  0  0
  -30.3876  -14.9997   22.9268 C   0  0  0  0  0  0
  -29.5140  -24.4195   20.4357 C   0  0  0  0  0  0
  -29.4149  -23.1653   19.5176 C   0  0  0  0  0  0
  -28.2204  -25.2715   20.5591 C   0  0  0  0  0  0
  -28.9432  -21.8227   20.1505 C   0  0  0  0  0  0
  -30.2595  -15.4075   21.5150 N   0  0  0  0  0  0
  -30.0072  -21.1320   20.8312 O   0  0  0  0  0  0
  -31.1927  -19.9583   22.9879 F   0  0  0  0  0  0
  -31.4609  -12.4424   19.1114 H   0  0  0  0  0  0
  -30.3271  -11.3374   19.8245 H   0  0  0  0  0  0
  -29.7442  -11.7863   17.4290 H   0  0  0  0  0  0
  -29.6430  -13.4971   17.7488 H   0  0  0  0  0  0
  -27.8436  -11.2934   18.8143 H   0  0  0  0  0  0
  -27.3635  -12.6116   17.7766 H   0  0  0  0  0  0
  -27.6798  -14.2312   19.5390 H   0  0  0  0  0  0
  -28.6803  -12.0016   21.3612 H   0  0  0  0  0  0
  -28.4028  -13.6571   21.8190 H   0  0  0  0  0  0
  -25.2742   -9.5687   22.4750 H   0  0  0  0  0  0
  -23.9974   -7.4634   22.7475 H   0  0  0  0  0  0
  -21.0812   -8.8738   19.8956 H   0  0  0  0  0  0
  -22.3648  -10.9640   19.6149 H   0  0  0  0  0  0
  -21.1989   -7.6133   23.9690 H   0  0  0  0  0  0
  -21.1486   -6.0525   25.9066 H   0  0  0  0  0  0
  -22.0607   -2.7601   23.2849 H   0  0  0  0  0  0
  -22.4098  -11.9885   22.4768 H   0  0  0  0  0  0
  -21.1137  -13.1293   22.2634 H   0  0  0  0  0  0
  -24.6765  -15.8471   20.5436 H   0  0  0  0  0  0
  -26.3086  -15.6256   20.1655 H   0  0  0  0  0  0
  -26.7142  -32.5536   23.1164 H   0  0  0  0  0  0
  -25.0110  -33.9790   25.0499 H   0  0  0  0  0  0
  -22.6988  -31.3089   21.4084 H   0  0  0  0  0  0
  -23.3748  -35.9631   23.3315 H   0  0  0  0  0  0
  -24.3573  -36.8909   22.2052 H   0  0  0  0  0  0
  -23.7220  -37.6502   23.6663 H   0  0  0  0  0  0
  -26.0502  -31.5936   20.5958 H   0  0  0  0  0  0
  -26.8242  -30.8822   21.9836 H   0  0  0  0  0  0
  -28.1076  -29.0837   21.1612 H   0  0  0  0  0  0
  -26.0280  -25.9763   18.9943 H   0  0  0  0  0  0
  -23.9746  -27.2952   19.0367 H   0  0  0  0  0  0
  -23.7312  -30.6022   19.4058 H   0  0  0  0  0  0
  -22.7401  -29.2503   19.8605 H   0  0  0  0  0  0
  -25.1276  -36.1993   25.0822 H   0  0  0  0  0  0
  -20.9948  -28.3246   24.1424 H   0  0  0  0  0  0
  -20.5675  -26.2276   23.3608 H   0  0  0  0  0  0
  -21.6641  -26.7458   22.1200 H   0  0  0  0  0  0
  -19.6901  -25.6300   21.1234 H   0  0  0  0  0  0
  -19.6674  -27.3205   20.6742 H   0  0  0  0  0  0
  -17.4187  -26.6690   21.4014 H   0  0  0  0  0  0
  -18.0304  -26.0061   22.9008 H   0  0  0  0  0  0
  -19.7946  -30.7243   24.2285 H   0  0  0  0  0  0
  -17.5030  -31.6275   24.5151 H   0  0  0  0  0  0
  -15.5355  -30.2994   23.7637 H   0  0  0  0  0  0
  -15.8669  -28.0813   22.7069 H   0  0  0  0  0  0
  -24.5947  -30.7007   25.7819 H   0  0  0  0  0  0
  -24.8930  -32.2818   26.4946 H   0  0  0  0  0  0
  -25.8116  -30.8854   27.0229 H   0  0  0  0  0  0
  -26.2891  -29.6780   24.1169 H   0  0  0  0  0  0
  -27.4167  -29.7301   25.4539 H   0  0  0  0  0  0
  -27.8707  -30.4354   23.9204 H   0  0  0  0  0  0
  -27.2672  -33.3614   26.2077 H   0  0  0  0  0  0
  -28.3888  -32.6873   25.0328 H   0  0  0  0  0  0
  -28.0723  -31.8431   26.5412 H   0  0  0  0  0  0
  -28.2603  -38.0105   24.7531 H   0  0  0  0  0  0
  -28.1060  -36.2642   24.6293 H   0  0  0  0  0  0
  -27.2292  -37.1453   25.8874 H   0  0  0  0  0  0
  -20.9306  -29.8769   21.6935 H   0  0  0  0  0  0
  -26.0179  -38.2874   24.1449 H   0  0  0  0  0  0
  -29.0290  -19.2449   19.0614 H   0  0  0  0  0  0
  -31.2214  -17.4066   23.0875 H   0  0  0  0  0  0
  -28.8295  -17.2266   18.0695 H   0  0  0  0  0  0
  -27.9172  -16.3586   19.2761 H   0  0  0  0  0  0
  -29.4861  -15.7453   18.6942 H   0  0  0  0  0  0
  -29.6430  -15.5062   23.5425 H   0  0  0  0  0  0
  -31.3812  -15.2325   23.3130 H   0  0  0  0  0  0
  -30.2547  -13.9286   23.0864 H   0  0  0  0  0  0
  -30.2995  -25.0661   20.0435 H   0  0  0  0  0  0
  -29.8595  -24.1189   21.4261 H   0  0  0  0  0  0
  -30.3854  -22.9898   19.0531 H   0  0  0  0  0  0
  -28.7526  -23.4109   18.6852 H   0  0  0  0  0  0
  -27.9183  -25.2960   21.6086 H   0  0  0  0  0  0
  -27.4151  -24.7601   20.0361 H   0  0  0  0  0  0
  -28.5167  -21.2274   19.3470 H   0  0  0  0  0  0
  -28.1270  -22.0026   20.8508 H   0  0  0  0  0  0
  1 25  1  0  0  0
  1 30  2  0  0  0
  1 83  1  0  0  0
  2  3  1  0  0  0
  2 25  1  0  0  0
  2 86  1  0  0  0
  2 87  1  0  0  0
  3  4  1  0  0  0
  3 88  1  0  0  0
  3 89  1  0  0  0
  4  5  1  0  0  0
  4 90  1  0  0  0
  4 91  1  0  0  0
  5  6  1  0  0  0
  5 26  1  0  0  0
  5 92  1  0  0  0
  6 25  1  0  0  0
  6 93  1  0  0  0
  6 94  1  0  0  0
  7  8  2  0  0  0
  7 26  1  0  0  0
  7 29  1  0  0  0
  8  9  1  0  0  0
  8 22  1  0  0  0
  9 10  1  0  0  0
  9 27  2  0  0  0
 10 11  2  0  0  0
 10 15  1  0  0  0
 11 12  1  0  0  0
 11 95  1  0  0  0
 12 13  2  0  0  0
 12 96  1  0  0  0
 13 14  1  0  0  0
 13 31  1  0  0  0
 14 15  2  0  0  0
 14 97  1  0  0  0
 15 98  1  0  0  0
 16 17  2  0  0  0
 16 21  1  0  0  0
 16 31  1  0  0  0
 17 18  1  0  0  0
 17 99  1  0  0  0
 18 19  2  0  0  0
 18100  1  0  0  0
 19 20  1  0  0  0
 19 24  1  0  0  0
 20 21  2  0  0  0
 20101  1  0  0  0
 21 23  1  0  0  0
 22 28  1  0  0  0
 22 32  2  0  0  0
 26 27  1  0  0  0
 28102  1  0  0  0
 28103  1  0  0  0
 29104  1  0  0  0
 29105  1  0  0  0
 33 34  1  0  0  0
 33 66  1  0  0  0
 33 70  2  0  0  0
 34 36  1  0  0  0
 34 59  1  0  0  0
 34106  1  0  0  0
 35 44  2  0  0  0
 35 45  1  0  0  0
 35 68  1  0  0  0
 36 56  1  0  0  0
 36107  1  0  0  0
 37 39  1  0  0  0
 37 47  1  0  0  0
 37 66  1  0  0  0
 37108  1  0  0  0
 38 43  2  0  0  0
 38 46  1  0  0  0
 38 47  1  0  0  0
 39 64  1  0  0  0
 39 67  2  0  0  0
 40 52  1  0  0  0
 40 53  2  0  0  0
 40 58  1  0  0  0
 41109  1  0  0  0
 41110  1  0  0  0
 41111  1  0  0  0
 41 48  1  0  0  0
 42 43  1  0  0  0
 42 66  1  0  0  0
 42112  1  0  0  0
 42113  1  0  0  0
 43 44  1  0  0  0
 44114  1  0  0  0
 45 46  2  0  0  0
 45115  1  0  0  0
 46116  1  0  0  0
 47117  1  0  0  0
 47118  1  0  0  0
 48 56  1  0  0  0
 48 65  1  0  0  0
 48119  1  0  0  0
 49 50  1  0  0  0
 49 53  1  0  0  0
 49 64  1  0  0  0
 49120  1  0  0  0
 50 51  1  0  0  0
 50121  1  0  0  0
 50122  1  0  0  0
 51 52  1  0  0  0
 51123  1  0  0  0
 51124  1  0  0  0
 52125  1  0  0  0
 52126  1  0  0  0
 53 54  1  0  0  0
 54 55  2  0  0  0
 54127  1  0  0  0
 55 57  1  0  0  0
 55128  1  0  0  0
 56 69  2  0  0  0
 57 58  2  0  0  0
 57129  1  0  0  0
 58130  1  0  0  0
 59 60  1  0  0  0
 59 61  1  0  0  0
 59 62  1  0  0  0
 60131  1  0  0  0
 60132  1  0  0  0
 60133  1  0  0  0
 61134  1  0  0  0
 61135  1  0  0  0
 61136  1  0  0  0
 62137  1  0  0  0
 62138  1  0  0  0
 62139  1  0  0  0
 63 65  1  0  0  0
 63140  1  0  0  0
 63141  1  0  0  0
 63142  1  0  0  0
 64143  1  0  0  0
 65144  1  0  0  0
 68 81  1  0  0  0
 71 73  2  0  0  0
 71 75  1  0  0  0
 71145  1  0  0  0
 72 74  2  0  0  0
 72 76  1  0  0  0
 72146  1  0  0  0
 73 74  1  0  0  0
 73 77  1  0  0  0
 74 83  1  0  0  0
 75 76  2  0  0  0
 75 84  1  0  0  0
 76 85  1  0  0  0
 77147  1  0  0  0
 77148  1  0  0  0
 77149  1  0  0  0
 78 83  1  0  0  0
 78150  1  0  0  0
 78151  1  0  0  0
 78152  1  0  0  0
 79 80  1  0  0  0
 79 81  1  0  0  0
 79153  1  0  0  0
 79154  1  0  0  0
 80 82  1  0  0  0
 80155  1  0  0  0
 80156  1  0  0  0
 81157  1  0  0  0
 81158  1  0  0  0
 82 84  1  0  0  0
 82159  1  0  0  0
 82160  1  0  0  0
M  ISO  4   1 100  68 101  81 101  83 100
M  END
> <chiral flag>
0

> <version>
0

> <s_m_source_file>
/data/baiqing/PycharmProjects/Reinvent-master-3.2/result/LINK_invent/BTK/process_docking_weight1_custom_product_contain_oxygen_bond_distance_aromatic_linkinvent_7_9_3/rearranged_h_0102.sdf

> <i_m_source_file_index>
80

> <r_mmod_Potential_Energy-OPLS-2005>
199.090942382812

> <r_mmod_Stretch_Energy-OPLS-2005>
53.0196151733398

> <r_mmod_Bend_Energy-OPLS-2005>
125.762107849121

> <r_mmod_Torsional_Energy-OPLS-2005>
322.353881835938

> <r_mmod_Improper_Torsional_Energy-OPLS-2005>
3.43582534790039

> <r_mmod_Van_der_Waal_Energy-OPLS-2005>
162.446990966797

> <r_mmod_Electrostatic_Energy-OPLS-2005>
-290.958435058594

> <r_mmod_Solvation_Energy-OPLS-2005>
-192.64924621582

> <b_mmod_Minimization_Converged-OPLS-2005>
0

> <r_mmod_RMS_Derivative-OPLS-2005>
1.96186554431915

$$$$
81
                    3D
 Structure written by MMmdl.
157165  0  0  1  0            999 V2000
  -30.7168  -14.4748   20.6011 C   0  0  0  0  0  0
  -30.4253  -12.3179   19.4312 C   0  0  0  0  0  0
  -29.4994  -12.5016   18.2105 C   0  0  0  0  0  0
  -28.0213  -12.3541   18.6246 C   0  0  0  0  0  0
  -27.6611  -13.2081   19.8686 C   0  0  2  0  0  0
  -28.6996  -13.0044   20.9944 C   0  0  0  0  0  0
  -25.2592  -13.8180   20.5674 C   0  0  0  0  0  0
  -24.1840  -13.0458   20.9172 C   0  0  0  0  0  0
  -24.6402  -11.6923   20.8734 C   0  0  0  0  0  0
  -23.9081  -10.4305   21.0407 C   0  0  0  0  0  0
  -24.3639   -9.4219   21.9177 C   0  0  0  0  0  0
  -23.6310   -8.2256   22.0755 C   0  0  0  0  0  0
  -22.4277   -8.0305   21.3565 C   0  0  0  0  0  0
  -21.9912   -9.0278   20.4664 C   0  0  0  0  0  0
  -22.7252  -10.2150   20.3063 C   0  0  0  0  0  0
  -21.6849   -6.0754   22.5286 C   0  0  0  0  0  0
  -21.4015   -6.5649   23.8227 C   0  0  0  0  0  0
  -21.3656   -5.6791   24.9175 C   0  0  0  0  0  0
  -21.6043   -4.3059   24.7227 C   0  0  0  0  0  0
  -21.8810   -3.8161   23.4344 C   0  0  0  0  0  0
  -21.9191   -4.6980   22.3403 C   0  0  0  0  0  0
  -22.7859  -13.5259   21.1845 C   0  0  0  0  0  0
  -22.1652   -4.2172   21.0981 F   0  0  0  0  0  0
  -21.5640   -3.4540   25.7744 F   0  0  0  0  0  0
  -30.0334  -13.3070   20.4480 N   0  0  0  0  0  0
  -26.3018  -12.9344   20.3323 N   0  0  0  0  0  0
  -25.9328  -11.6508   20.5752 N   0  0  0  0  0  0
  -22.0479  -12.8270   22.0400 N   0  0  0  0  0  0
  -25.4338  -15.1896   20.4133 N   0  0  0  0  0  0
  -31.8215  -14.6709   20.0895 O   0  0  0  0  0  0
  -21.6645   -6.8903   21.4256 O   0  0  0  0  0  0
  -22.3548  -14.5561   20.6692 O   0  0  0  0  0  0
  -24.6188  -31.8657   23.2092 C   0  0  0  0  0  0
  -25.9072  -32.4805   23.8393 C   0  0  1  0  0  0
  -27.2218  -27.3890   20.0954 C   0  0  0  0  0  0
  -25.5906  -33.8604   24.2324 N   0  0  0  0  0  0
  -23.4078  -30.4948   21.5490 C   0  0  2  0  0  0
  -24.8522  -28.9651   20.1078 C   0  0  0  0  0  0
  -22.7419  -29.4666   22.4932 C   0  0  0  0  0  0
  -18.0278  -28.1370   22.8483 C   0  0  0  0  0  0
  -24.1487  -36.7315   23.2634 C   0  0  0  0  0  0
  -25.9442  -30.8174   21.3731 C   0  0  0  0  0  0
  -26.0163  -29.4513   20.7148 C   0  0  0  0  0  0
  -27.2005  -28.6690   20.7107 C   0  0  0  0  0  0
  -26.0389  -26.9525   19.4489 C   0  0  0  0  0  0
  -24.8613  -27.7170   19.4707 C   0  0  0  0  0  0
  -23.6183  -29.8360   20.1609 C   0  0  0  0  0  0
  -25.4097  -36.3097   24.0339 C   0  0  1  0  0  0
  -20.5872  -28.3675   23.1278 C   0  0  2  0  0  0
  -20.6773  -26.9404   22.5394 C   0  0  0  0  0  0
  -19.5753  -26.6382   21.5190 C   0  0  0  0  0  0
  -18.1932  -26.7916   22.1613 C   0  0  0  0  0  0
  -19.1528  -28.8833   23.2889 C   0  0  0  0  0  0
  -18.9458  -30.1432   23.8912 C   0  0  0  0  0  0
  -17.6463  -30.6582   24.0556 C   0  0  0  0  0  0
  -25.9024  -34.9463   23.5126 C   0  0  0  0  0  0
  -16.5355  -29.9085   23.6318 C   0  0  0  0  0  0
  -16.7267  -28.6495   23.0351 C   0  0  0  0  0  0
  -26.4490  -31.6588   25.0732 C   0  0  0  0  0  0
  -25.3767  -31.3718   26.1495 C   0  0  0  0  0  0
  -27.0308  -30.3016   24.6137 C   0  0  0  0  0  0
  -27.6072  -32.4298   25.7483 C   0  0  0  0  0  0
  -27.5574  -37.1803   24.8458 C   0  0  0  0  0  0
  -21.4140  -29.3054   22.3678 N   0  0  0  0  0  0
  -26.4285  -37.3781   23.9405 N   0  0  0  0  0  0
  -24.6753  -31.0735   22.1016 N   0  0  0  0  0  0
  -23.4179  -28.8191   23.2970 O   0  0  0  0  0  0
  -28.3637  -26.5925   20.1539 O   0  0  0  0  0  0
  -26.5584  -34.8918   22.4685 O   0  0  0  0  0  0
  -23.5370  -32.1428   23.7461 O   0  0  0  0  0  0
  -29.1041  -17.6190   19.5575 C   0  0  0  0  0  0
  -28.6694  -19.9909   19.1622 C   0  0  0  0  0  0
  -30.0318  -19.3084   21.0515 C   0  0  0  0  0  0
  -28.4966  -18.6380   18.8011 C   0  0  0  0  0  0
  -29.8759  -17.9390   20.6923 C   0  0  0  0  0  0
  -29.4379  -20.3571   20.2946 C   0  0  0  0  0  0
  -27.6603  -18.2774   17.5919 C   0  0  0  0  0  0
  -30.5556  -16.8272   21.5108 C   0  0  0  0  0  0
  -29.2011  -24.1759   20.4741 C   0  0  0  0  0  0
  -28.2184  -25.1861   19.8135 C   0  0  0  0  0  0
  -28.9966  -22.7295   19.9260 C   0  0  0  0  0  0
  -30.0741  -15.4512   21.2725 N   0  0  0  0  0  0
  -29.6337  -21.6813   20.6890 O   0  0  0  0  0  0
  -31.4718  -12.4112   19.1357 H   0  0  0  0  0  0
  -30.3269  -11.3118   19.8410 H   0  0  0  0  0  0
  -29.7468  -11.7714   17.4397 H   0  0  0  0  0  0
  -29.6623  -13.4837   17.7627 H   0  0  0  0  0  0
  -27.8463  -11.2999   18.8431 H   0  0  0  0  0  0
  -27.3672  -12.6048   17.7894 H   0  0  0  0  0  0
  -27.7031  -14.2527   19.5583 H   0  0  0  0  0  0
  -28.6766  -11.9743   21.3527 H   0  0  0  0  0  0
  -28.4510  -13.6131   21.8627 H   0  0  0  0  0  0
  -25.2789   -9.5700   22.4746 H   0  0  0  0  0  0
  -24.0036   -7.4639   22.7457 H   0  0  0  0  0  0
  -21.0849   -8.8812   19.8963 H   0  0  0  0  0  0
  -22.3729  -10.9696   19.6181 H   0  0  0  0  0  0
  -21.2006   -7.6159   23.9737 H   0  0  0  0  0  0
  -21.1480   -6.0520   25.9083 H   0  0  0  0  0  0
  -22.0592   -2.7628   23.2827 H   0  0  0  0  0  0
  -22.4077  -11.9959   22.4839 H   0  0  0  0  0  0
  -21.1103  -13.1321   22.2614 H   0  0  0  0  0  0
  -24.6741  -15.8495   20.5402 H   0  0  0  0  0  0
  -26.2980  -15.6304   20.1265 H   0  0  0  0  0  0
  -26.7132  -32.5498   23.1137 H   0  0  0  0  0  0
  -25.0070  -33.9765   25.0481 H   0  0  0  0  0  0
  -22.6993  -31.3138   21.4096 H   0  0  0  0  0  0
  -23.3741  -35.9655   23.3287 H   0  0  0  0  0  0
  -24.3596  -36.8947   22.2052 H   0  0  0  0  0  0
  -23.7261  -37.6524   23.6660 H   0  0  0  0  0  0
  -26.0645  -31.5831   20.6053 H   0  0  0  0  0  0
  -26.8302  -30.8668   21.9947 H   0  0  0  0  0  0
  -28.0923  -29.0327   21.2011 H   0  0  0  0  0  0
  -25.9877  -26.0152   18.9160 H   0  0  0  0  0  0
  -23.9709  -27.3445   18.9825 H   0  0  0  0  0  0
  -23.7301  -30.6142   19.4049 H   0  0  0  0  0  0
  -22.7420  -29.2594   19.8608 H   0  0  0  0  0  0
  -25.1273  -36.1952   25.0835 H   0  0  0  0  0  0
  -20.9978  -28.3252   24.1390 H   0  0  0  0  0  0
  -20.5657  -26.2284   23.3587 H   0  0  0  0  0  0
  -21.6647  -26.7432   22.1200 H   0  0  0  0  0  0
  -19.6921  -25.6289   21.1229 H   0  0  0  0  0  0
  -19.6698  -27.3181   20.6710 H   0  0  0  0  0  0
  -17.4194  -26.6640   21.4029 H   0  0  0  0  0  0
  -18.0362  -26.0060   22.9015 H   0  0  0  0  0  0
  -19.7932  -30.7231   24.2309 H   0  0  0  0  0  0
  -17.5023  -31.6270   24.5142 H   0  0  0  0  0  0
  -15.5361  -30.2999   23.7627 H   0  0  0  0  0  0
  -15.8662  -28.0813   22.7082 H   0  0  0  0  0  0
  -24.5895  -30.7115   25.7839 H   0  0  0  0  0  0
  -24.9020  -32.2895   26.4977 H   0  0  0  0  0  0
  -25.8130  -30.8846   27.0226 H   0  0  0  0  0  0
  -26.2854  -29.6773   24.1200 H   0  0  0  0  0  0
  -27.4063  -29.7257   25.4602 H   0  0  0  0  0  0
  -27.8699  -30.4299   23.9299 H   0  0  0  0  0  0
  -27.2704  -33.3586   26.2090 H   0  0  0  0  0  0
  -28.3868  -32.6874   25.0304 H   0  0  0  0  0  0
  -28.0758  -31.8406   26.5376 H   0  0  0  0  0  0
  -28.2584  -38.0102   24.7487 H   0  0  0  0  0  0
  -28.1077  -36.2633   24.6288 H   0  0  0  0  0  0
  -27.2296  -37.1464   25.8864 H   0  0  0  0  0  0
  -20.9281  -29.8797   21.6925 H   0  0  0  0  0  0
  -26.0170  -38.2856   24.1412 H   0  0  0  0  0  0
  -28.9758  -16.5894   19.2509 H   0  0  0  0  0  0
  -28.1965  -20.7340   18.5390 H   0  0  0  0  0  0
  -30.6230  -19.5626   21.9211 H   0  0  0  0  0  0
  -27.3944  -17.2201   17.5945 H   0  0  0  0  0  0
  -28.2118  -18.4863   16.6743 H   0  0  0  0  0  0
  -26.7348  -18.8537   17.5790 H   0  0  0  0  0  0
  -30.4118  -17.0468   22.5692 H   0  0  0  0  0  0
  -31.6331  -16.8909   21.3443 H   0  0  0  0  0  0
  -29.0314  -24.1766   21.5509 H   0  0  0  0  0  0
  -30.2336  -24.4909   20.3200 H   0  0  0  0  0  0
  -27.2383  -24.8217   20.1219 H   0  0  0  0  0  0
  -28.2725  -25.0918   18.7278 H   0  0  0  0  0  0
  -29.3757  -22.6992   18.9034 H   0  0  0  0  0  0
  -27.9244  -22.5266   19.8791 H   0  0  0  0  0  0
  -29.1745  -15.2124   21.6603 H   0  0  0  0  0  0
  1 25  1  0  0  0
  1 30  2  0  0  0
  1 82  1  0  0  0
  2  3  1  0  0  0
  2 25  1  0  0  0
  2 84  1  0  0  0
  2 85  1  0  0  0
  3  4  1  0  0  0
  3 86  1  0  0  0
  3 87  1  0  0  0
  4  5  1  0  0  0
  4 88  1  0  0  0
  4 89  1  0  0  0
  5  6  1  0  0  0
  5 26  1  0  0  0
  5 90  1  0  0  0
  6 25  1  0  0  0
  6 91  1  0  0  0
  6 92  1  0  0  0
  7  8  2  0  0  0
  7 26  1  0  0  0
  7 29  1  0  0  0
  8  9  1  0  0  0
  8 22  1  0  0  0
  9 10  1  0  0  0
  9 27  2  0  0  0
 10 11  2  0  0  0
 10 15  1  0  0  0
 11 12  1  0  0  0
 11 93  1  0  0  0
 12 13  2  0  0  0
 12 94  1  0  0  0
 13 14  1  0  0  0
 13 31  1  0  0  0
 14 15  2  0  0  0
 14 95  1  0  0  0
 15 96  1  0  0  0
 16 17  2  0  0  0
 16 21  1  0  0  0
 16 31  1  0  0  0
 17 18  1  0  0  0
 17 97  1  0  0  0
 18 19  2  0  0  0
 18 98  1  0  0  0
 19 20  1  0  0  0
 19 24  1  0  0  0
 20 21  2  0  0  0
 20 99  1  0  0  0
 21 23  1  0  0  0
 22 28  1  0  0  0
 22 32  2  0  0  0
 26 27  1  0  0  0
 28100  1  0  0  0
 28101  1  0  0  0
 29102  1  0  0  0
 29103  1  0  0  0
 33 34  1  0  0  0
 33 66  1  0  0  0
 33 70  2  0  0  0
 34 36  1  0  0  0
 34 59  1  0  0  0
 34104  1  0  0  0
 35 44  2  0  0  0
 35 45  1  0  0  0
 35 68  1  0  0  0
 36 56  1  0  0  0
 36105  1  0  0  0
 37 39  1  0  0  0
 37 47  1  0  0  0
 37 66  1  0  0  0
 37106  1  0  0  0
 38 43  2  0  0  0
 38 46  1  0  0  0
 38 47  1  0  0  0
 39 64  1  0  0  0
 39 67  2  0  0  0
 40 52  1  0  0  0
 40 53  2  0  0  0
 40 58  1  0  0  0
 41107  1  0  0  0
 41108  1  0  0  0
 41109  1  0  0  0
 41 48  1  0  0  0
 42 43  1  0  0  0
 42 66  1  0  0  0
 42110  1  0  0  0
 42111  1  0  0  0
 43 44  1  0  0  0
 44112  1  0  0  0
 45 46  2  0  0  0
 45113  1  0  0  0
 46114  1  0  0  0
 47115  1  0  0  0
 47116  1  0  0  0
 48 56  1  0  0  0
 48 65  1  0  0  0
 48117  1  0  0  0
 49 50  1  0  0  0
 49 53  1  0  0  0
 49 64  1  0  0  0
 49118  1  0  0  0
 50 51  1  0  0  0
 50119  1  0  0  0
 50120  1  0  0  0
 51 52  1  0  0  0
 51121  1  0  0  0
 51122  1  0  0  0
 52123  1  0  0  0
 52124  1  0  0  0
 53 54  1  0  0  0
 54 55  2  0  0  0
 54125  1  0  0  0
 55 57  1  0  0  0
 55126  1  0  0  0
 56 69  2  0  0  0
 57 58  2  0  0  0
 57127  1  0  0  0
 58128  1  0  0  0
 59 60  1  0  0  0
 59 61  1  0  0  0
 59 62  1  0  0  0
 60129  1  0  0  0
 60130  1  0  0  0
 60131  1  0  0  0
 61132  1  0  0  0
 61133  1  0  0  0
 61134  1  0  0  0
 62135  1  0  0  0
 62136  1  0  0  0
 62137  1  0  0  0
 63 65  1  0  0  0
 63138  1  0  0  0
 63139  1  0  0  0
 63140  1  0  0  0
 64141  1  0  0  0
 65142  1  0  0  0
 68 80  1  0  0  0
 71 74  2  0  0  0
 71 75  1  0  0  0
 71143  1  0  0  0
 72 74  1  0  0  0
 72 76  2  0  0  0
 72144  1  0  0  0
 73 75  2  0  0  0
 73 76  1  0  0  0
 73145  1  0  0  0
 74 77  1  0  0  0
 75 78  1  0  0  0
 76 83  1  0  0  0
 77146  1  0  0  0
 77147  1  0  0  0
 77148  1  0  0  0
 78 82  1  0  0  0
 78149  1  0  0  0
 78150  1  0  0  0
 79 80  1  0  0  0
 79 81  1  0  0  0
 79151  1  0  0  0
 79152  1  0  0  0
 80153  1  0  0  0
 80154  1  0  0  0
 81 83  1  0  0  0
 81155  1  0  0  0
 81156  1  0  0  0
 82157  1  0  0  0
M  ISO  4   1 100  68 101  80 101  82 100
M  END
> <chiral flag>
0

> <version>
0

> <s_m_source_file>
/data/baiqing/PycharmProjects/Reinvent-master-3.2/result/LINK_invent/BTK/process_docking_weight1_custom_product_contain_oxygen_bond_distance_aromatic_linkinvent_7_9_3/rearranged_h_0102.sdf

> <i_m_source_file_index>
81

> <r_mmod_Potential_Energy-OPLS-2005>
-113.474624633789

> <r_mmod_Stretch_Energy-OPLS-2005>
45.9518051147461

> <r_mmod_Bend_Energy-OPLS-2005>
105.732513427734

> <r_mmod_Torsional_Energy-OPLS-2005>
183.752807617188

> <r_mmod_Improper_Torsional_Energy-OPLS-2005>
2.19540905952454

> <r_mmod_Van_der_Waal_Energy-OPLS-2005>
161.737548828125

> <r_mmod_Electrostatic_Energy-OPLS-2005>
-416.007598876953

> <r_mmod_Solvation_Energy-OPLS-2005>
-215.693206787109

> <b_mmod_Minimization_Converged-OPLS-2005>
0

> <r_mmod_RMS_Derivative-OPLS-2005>
2.68215394020081

$$$$
82
                    3D
 Structure written by MMmdl.
158166  0  0  1  0            999 V2000
  -30.7074  -14.5310   20.3751 C   0  0  0  0  0  0
  -30.4031  -12.2979   19.4214 C   0  0  0  0  0  0
  -29.4560  -12.3970   18.2049 C   0  0  0  0  0  0
  -27.9869  -12.3021   18.6413 C   0  0  0  0  0  0
  -27.6419  -13.2145   19.8483 C   0  0  2  0  0  0
  -28.7035  -13.1202   20.9662 C   0  0  0  0  0  0
  -25.2541  -13.8191   20.5757 C   0  0  0  0  0  0
  -24.1807  -13.0450   20.9232 C   0  0  0  0  0  0
  -24.6378  -11.6927   20.8798 C   0  0  0  0  0  0
  -23.9063  -10.4301   21.0427 C   0  0  0  0  0  0
  -24.3616   -9.4207   21.9196 C   0  0  0  0  0  0
  -23.6295   -8.2240   22.0750 C   0  0  0  0  0  0
  -22.4277   -8.0282   21.3540 C   0  0  0  0  0  0
  -21.9918   -9.0266   20.4646 C   0  0  0  0  0  0
  -22.7244  -10.2147   20.3063 C   0  0  0  0  0  0
  -21.6857   -6.0726   22.5272 C   0  0  0  0  0  0
  -21.4015   -6.5636   23.8204 C   0  0  0  0  0  0
  -21.3660   -5.6793   24.9171 C   0  0  0  0  0  0
  -21.6045   -4.3055   24.7229 C   0  0  0  0  0  0
  -21.8822   -3.8144   23.4352 C   0  0  0  0  0  0
  -21.9199   -4.6952   22.3403 C   0  0  0  0  0  0
  -22.7829  -13.5229   21.1870 C   0  0  0  0  0  0
  -22.1664   -4.2137   21.0981 F   0  0  0  0  0  0
  -21.5637   -3.4546   25.7749 F   0  0  0  0  0  0
  -30.0152  -13.3625   20.3566 N   0  0  0  0  0  0
  -26.2962  -12.9375   20.3415 N   0  0  0  0  0  0
  -25.9311  -11.6540   20.5905 N   0  0  0  0  0  0
  -22.0468  -12.8209   22.0411 N   0  0  0  0  0  0
  -25.4283  -15.1903   20.4169 N   0  0  0  0  0  0
  -31.9391  -14.5598   20.3220 O   0  0  0  0  0  0
  -21.6638   -6.8875   21.4235 O   0  0  0  0  0  0
  -22.3505  -14.5525   20.6706 O   0  0  0  0  0  0
  -24.6154  -31.8682   23.2094 C   0  0  0  0  0  0
  -25.9055  -32.4816   23.8387 C   0  0  1  0  0  0
  -27.2266  -27.4308   20.1131 C   0  0  0  0  0  0
  -25.5940  -33.8611   24.2354 N   0  0  0  0  0  0
  -23.4031  -30.4912   21.5492 C   0  0  2  0  0  0
  -24.8508  -28.9569   20.1125 C   0  0  0  0  0  0
  -22.7428  -29.4637   22.4967 C   0  0  0  0  0  0
  -18.0285  -28.1353   22.8484 C   0  0  0  0  0  0
  -24.1493  -36.7281   23.2634 C   0  0  0  0  0  0
  -25.9302  -30.8345   21.3609 C   0  0  0  0  0  0
  -26.0091  -29.4675   20.7123 C   0  0  0  0  0  0
  -27.2043  -28.7125   20.7079 C   0  0  0  0  0  0
  -26.0583  -26.9330   19.5023 C   0  0  0  0  0  0
  -24.8703  -27.6902   19.5014 C   0  0  0  0  0  0
  -23.6132  -29.8266   20.1624 C   0  0  0  0  0  0
  -25.4111  -36.3104   24.0354 C   0  0  1  0  0  0
  -20.5876  -28.3635   23.1302 C   0  0  2  0  0  0
  -20.6770  -26.9369   22.5402 C   0  0  0  0  0  0
  -19.5748  -26.6368   21.5192 C   0  0  0  0  0  0
  -18.1927  -26.7901   22.1605 C   0  0  0  0  0  0
  -19.1533  -28.8814   23.2886 C   0  0  0  0  0  0
  -18.9462  -30.1425   23.8894 C   0  0  0  0  0  0
  -17.6462  -30.6556   24.0562 C   0  0  0  0  0  0
  -25.9050  -34.9469   23.5151 C   0  0  0  0  0  0
  -16.5357  -29.9055   23.6316 C   0  0  0  0  0  0
  -16.7275  -28.6470   23.0337 C   0  0  0  0  0  0
  -26.4505  -31.6561   25.0685 C   0  0  0  0  0  0
  -25.3792  -31.3628   26.1441 C   0  0  0  0  0  0
  -27.0311  -30.3014   24.5991 C   0  0  0  0  0  0
  -27.6106  -32.4233   25.7451 C   0  0  0  0  0  0
  -27.5583  -37.1804   24.8479 C   0  0  0  0  0  0
  -21.4151  -29.3013   22.3721 N   0  0  0  0  0  0
  -26.4294  -37.3788   23.9422 N   0  0  0  0  0  0
  -24.6672  -31.0794   22.0984 N   0  0  0  0  0  0
  -23.4217  -28.8178   23.2992 O   0  0  0  0  0  0
  -28.3570  -26.6496   20.1405 O   0  0  0  0  0  0
  -26.5584  -34.8932   22.4698 O   0  0  0  0  0  0
  -23.5354  -32.1434   23.7495 O   0  0  0  0  0  0
  -28.0236  -18.6780   20.5026 C   0  0  0  0  0  0
  -28.3751  -17.4044   20.0109 C   0  0  0  0  0  0
  -29.5901  -18.3913   22.3262 C   0  0  0  0  0  0
  -28.6797  -19.2179   21.6279 C   0  0  0  0  0  0
  -29.4245  -16.6491   20.5985 C   0  0  0  0  0  0
  -29.9633  -17.1199   21.8254 C   0  0  0  0  0  0
  -31.1050  -15.3958   17.5666 C   0  0  0  0  0  0
  -30.4013  -16.0360   18.5228 C   0  0  0  0  0  0
  -28.3461  -24.1929   20.5883 C   0  0  0  0  0  0
  -28.2762  -23.0296   21.6081 C   0  0  0  0  0  0
  -28.3103  -25.6288   21.1601 C   0  0  0  0  0  0
  -28.4117  -21.5975   21.0171 C   0  0  0  0  0  0
  -28.4571  -20.5469   22.0501 N   0  0  0  0  0  0
  -30.0313  -15.5863   19.8272 N   0  0  0  0  0  0
  -28.4280  -23.9831   19.3733 O   0  0  0  0  0  0
  -30.9018  -16.4084   22.4953 F   0  0  0  0  0  0
  -31.4413  -12.3858   19.0963 H   0  0  0  0  0  0
  -30.3143  -11.3238   19.9037 H   0  0  0  0  0  0
  -29.6801  -11.6018   17.4919 H   0  0  0  0  0  0
  -29.5848  -13.3266   17.6599 H   0  0  0  0  0  0
  -27.7972  -11.2600   18.8971 H   0  0  0  0  0  0
  -27.3284  -12.5305   17.8018 H   0  0  0  0  0  0
  -27.6481  -14.2370   19.4709 H   0  0  0  0  0  0
  -28.6880  -12.1391   21.4428 H   0  0  0  0  0  0
  -28.5016  -13.8549   21.7485 H   0  0  0  0  0  0
  -25.2758   -9.5687   22.4777 H   0  0  0  0  0  0
  -24.0015   -7.4625   22.7453 H   0  0  0  0  0  0
  -21.0858   -8.8795   19.8940 H   0  0  0  0  0  0
  -22.3711  -10.9700   19.6176 H   0  0  0  0  0  0
  -21.1993   -7.6142   23.9703 H   0  0  0  0  0  0
  -21.1477   -6.0526   25.9078 H   0  0  0  0  0  0
  -22.0598   -2.7604   23.2864 H   0  0  0  0  0  0
  -22.4068  -11.9858   22.4787 H   0  0  0  0  0  0
  -21.1088  -13.1249   22.2619 H   0  0  0  0  0  0
  -24.6699  -15.8529   20.5326 H   0  0  0  0  0  0
  -26.2998  -15.6287   20.1523 H   0  0  0  0  0  0
  -26.7108  -32.5549   23.1136 H   0  0  0  0  0  0
  -25.0196  -33.9768   25.0578 H   0  0  0  0  0  0
  -22.6888  -31.3057   21.4124 H   0  0  0  0  0  0
  -23.3773  -35.9593   23.3312 H   0  0  0  0  0  0
  -24.3601  -36.8874   22.2045 H   0  0  0  0  0  0
  -23.7220  -37.6485   23.6629 H   0  0  0  0  0  0
  -26.0441  -31.5962   20.5887 H   0  0  0  0  0  0
  -26.8178  -30.8903   21.9788 H   0  0  0  0  0  0
  -28.0999  -29.1001   21.1735 H   0  0  0  0  0  0
  -26.0692  -25.9575   19.0357 H   0  0  0  0  0  0
  -23.9801  -27.2925   19.0334 H   0  0  0  0  0  0
  -23.7258  -30.6049   19.4063 H   0  0  0  0  0  0
  -22.7351  -29.2515   19.8632 H   0  0  0  0  0  0
  -25.1270  -36.1978   25.0841 H   0  0  0  0  0  0
  -20.9963  -28.3199   24.1419 H   0  0  0  0  0  0
  -20.5632  -26.2242   23.3586 H   0  0  0  0  0  0
  -21.6646  -26.7383   22.1211 H   0  0  0  0  0  0
  -19.6906  -25.6285   21.1195 H   0  0  0  0  0  0
  -19.6679  -27.3197   20.6736 H   0  0  0  0  0  0
  -17.4189  -26.6648   21.4018 H   0  0  0  0  0  0
  -18.0332  -26.0027   22.8981 H   0  0  0  0  0  0
  -19.7948  -30.7242   24.2247 H   0  0  0  0  0  0
  -17.5021  -31.6238   24.5161 H   0  0  0  0  0  0
  -15.5355  -30.2959   23.7621 H   0  0  0  0  0  0
  -15.8678  -28.0791   22.7035 H   0  0  0  0  0  0
  -24.5988  -30.6948   25.7781 H   0  0  0  0  0  0
  -24.8964  -32.2760   26.4917 H   0  0  0  0  0  0
  -25.8181  -30.8785   27.0172 H   0  0  0  0  0  0
  -26.2810  -29.6774   24.1107 H   0  0  0  0  0  0
  -27.4198  -29.7230   25.4384 H   0  0  0  0  0  0
  -27.8610  -30.4366   23.9047 H   0  0  0  0  0  0
  -27.2781  -33.3544   26.2044 H   0  0  0  0  0  0
  -28.3927  -32.6739   25.0275 H   0  0  0  0  0  0
  -28.0745  -31.8310   26.5351 H   0  0  0  0  0  0
  -28.2602  -38.0096   24.7536 H   0  0  0  0  0  0
  -28.1074  -36.2636   24.6289 H   0  0  0  0  0  0
  -27.2313  -37.1445   25.8884 H   0  0  0  0  0  0
  -20.9300  -29.8760   21.6979 H   0  0  0  0  0  0
  -26.0192  -38.2871   24.1408 H   0  0  0  0  0  0
  -27.2741  -19.2485   19.9721 H   0  0  0  0  0  0
  -27.9023  -17.0636   19.1002 H   0  0  0  0  0  0
  -30.0720  -18.7494   23.2239 H   0  0  0  0  0  0
  -31.3005  -15.8852   16.6229 H   0  0  0  0  0  0
  -31.5028  -14.3990   17.6848 H   0  0  0  0  0  0
  -30.0824  -17.0405   18.2862 H   0  0  0  0  0  0
  -27.3280  -23.1167   22.1398 H   0  0  0  0  0  0
  -29.0610  -23.1990   22.3455 H   0  0  0  0  0  0
  -29.1672  -25.7602   21.8206 H   0  0  0  0  0  0
  -27.4197  -25.7312   21.7819 H   0  0  0  0  0  0
  -29.3211  -21.5378   20.4150 H   0  0  0  0  0  0
  -27.5795  -21.4170   20.3361 H   0  0  0  0  0  0
  -28.9598  -20.8110   22.8942 H   0  0  0  0  0  0
  1 25  1  0  0  0
  1 30  2  0  0  0
  1 84  1  0  0  0
  2  3  1  0  0  0
  2 25  1  0  0  0
  2 87  1  0  0  0
  2 88  1  0  0  0
  3  4  1  0  0  0
  3 89  1  0  0  0
  3 90  1  0  0  0
  4  5  1  0  0  0
  4 91  1  0  0  0
  4 92  1  0  0  0
  5  6  1  0  0  0
  5 26  1  0  0  0
  5 93  1  0  0  0
  6 25  1  0  0  0
  6 94  1  0  0  0
  6 95  1  0  0  0
  7  8  2  0  0  0
  7 26  1  0  0  0
  7 29  1  0  0  0
  8  9  1  0  0  0
  8 22  1  0  0  0
  9 10  1  0  0  0
  9 27  2  0  0  0
 10 11  2  0  0  0
 10 15  1  0  0  0
 11 12  1  0  0  0
 11 96  1  0  0  0
 12 13  2  0  0  0
 12 97  1  0  0  0
 13 14  1  0  0  0
 13 31  1  0  0  0
 14 15  2  0  0  0
 14 98  1  0  0  0
 15 99  1  0  0  0
 16 17  2  0  0  0
 16 21  1  0  0  0
 16 31  1  0  0  0
 17 18  1  0  0  0
 17100  1  0  0  0
 18 19  2  0  0  0
 18101  1  0  0  0
 19 20  1  0  0  0
 19 24  1  0  0  0
 20 21  2  0  0  0
 20102  1  0  0  0
 21 23  1  0  0  0
 22 28  1  0  0  0
 22 32  2  0  0  0
 26 27  1  0  0  0
 28103  1  0  0  0
 28104  1  0  0  0
 29105  1  0  0  0
 29106  1  0  0  0
 33 34  1  0  0  0
 33 66  1  0  0  0
 33 70  2  0  0  0
 34 36  1  0  0  0
 34 59  1  0  0  0
 34107  1  0  0  0
 35 44  2  0  0  0
 35 45  1  0  0  0
 35 68  1  0  0  0
 36 56  1  0  0  0
 36108  1  0  0  0
 37 39  1  0  0  0
 37 47  1  0  0  0
 37 66  1  0  0  0
 37109  1  0  0  0
 38 43  2  0  0  0
 38 46  1  0  0  0
 38 47  1  0  0  0
 39 64  1  0  0  0
 39 67  2  0  0  0
 40 52  1  0  0  0
 40 53  2  0  0  0
 40 58  1  0  0  0
 41110  1  0  0  0
 41111  1  0  0  0
 41112  1  0  0  0
 41 48  1  0  0  0
 42 43  1  0  0  0
 42 66  1  0  0  0
 42113  1  0  0  0
 42114  1  0  0  0
 43 44  1  0  0  0
 44115  1  0  0  0
 45 46  2  0  0  0
 45116  1  0  0  0
 46117  1  0  0  0
 47118  1  0  0  0
 47119  1  0  0  0
 48 56  1  0  0  0
 48 65  1  0  0  0
 48120  1  0  0  0
 49 50  1  0  0  0
 49 53  1  0  0  0
 49 64  1  0  0  0
 49121  1  0  0  0
 50 51  1  0  0  0
 50122  1  0  0  0
 50123  1  0  0  0
 51 52  1  0  0  0
 51124  1  0  0  0
 51125  1  0  0  0
 52126  1  0  0  0
 52127  1  0  0  0
 53 54  1  0  0  0
 54 55  2  0  0  0
 54128  1  0  0  0
 55 57  1  0  0  0
 55129  1  0  0  0
 56 69  2  0  0  0
 57 58  2  0  0  0
 57130  1  0  0  0
 58131  1  0  0  0
 59 60  1  0  0  0
 59 61  1  0  0  0
 59 62  1  0  0  0
 60132  1  0  0  0
 60133  1  0  0  0
 60134  1  0  0  0
 61135  1  0  0  0
 61136  1  0  0  0
 61137  1  0  0  0
 62138  1  0  0  0
 62139  1  0  0  0
 62140  1  0  0  0
 63 65  1  0  0  0
 63141  1  0  0  0
 63142  1  0  0  0
 63143  1  0  0  0
 64144  1  0  0  0
 65145  1  0  0  0
 68 81  1  0  0  0
 71 72  2  0  0  0
 71 74  1  0  0  0
 71146  1  0  0  0
 72 75  1  0  0  0
 72147  1  0  0  0
 73 74  2  0  0  0
 73 76  1  0  0  0
 73148  1  0  0  0
 74 83  1  0  0  0
 75 76  2  0  0  0
 75 84  1  0  0  0
 76 86  1  0  0  0
 77 78  2  0  0  0
 77149  1  0  0  0
 77150  1  0  0  0
 78 84  1  0  0  0
 78151  1  0  0  0
 79 80  1  0  0  0
 79 81  1  0  0  0
 79 85  2  0  0  0
 80 82  1  0  0  0
 80152  1  0  0  0
 80153  1  0  0  0
 81154  1  0  0  0
 81155  1  0  0  0
 82 83  1  0  0  0
 82156  1  0  0  0
 82157  1  0  0  0
 83158  1  0  0  0
M  ISO  4   1 100  68 101  81 101  84 100
M  END
> <chiral flag>
0

> <version>
0

> <s_m_source_file>
/data/baiqing/PycharmProjects/Reinvent-master-3.2/result/LINK_invent/BTK/process_docking_weight1_custom_product_contain_oxygen_bond_distance_aromatic_linkinvent_7_9_3/rearranged_h_0102.sdf

> <i_m_source_file_index>
82

> <r_mmod_Potential_Energy-OPLS-2005>
228.399337768555

> <r_mmod_Stretch_Energy-OPLS-2005>
45.5499877929688

> <r_mmod_Bend_Energy-OPLS-2005>
108.068817138672

> <r_mmod_Torsional_Energy-OPLS-2005>
340.377258300781

> <r_mmod_Improper_Torsional_Energy-OPLS-2005>
28.6336555480957

> <r_mmod_Van_der_Waal_Energy-OPLS-2005>
160.031936645508

> <r_mmod_Electrostatic_Energy-OPLS-2005>
-271.423797607422

> <r_mmod_Solvation_Energy-OPLS-2005>
-224.729873657227

> <b_mmod_Minimization_Converged-OPLS-2005>
0

> <r_mmod_RMS_Derivative-OPLS-2005>
2.1981303691864

$$$$
83
                    3D
 Structure written by MMmdl.
158166  0  0  1  0            999 V2000
  -30.7034  -14.5330   20.3905 C   0  0  0  0  0  0
  -30.4213  -12.2893   19.4433 C   0  0  0  0  0  0
  -29.4916  -12.3728   18.2135 C   0  0  0  0  0  0
  -28.0093  -12.2858   18.6347 C   0  0  0  0  0  0
  -27.6403  -13.1952   19.8393 C   0  0  2  0  0  0
  -28.6977  -13.1095   20.9607 C   0  0  0  0  0  0
  -25.2511  -13.8055   20.5786 C   0  0  0  0  0  0
  -24.1766  -13.0354   20.9217 C   0  0  0  0  0  0
  -24.6331  -11.6837   20.8759 C   0  0  0  0  0  0
  -23.9008  -10.4244   21.0410 C   0  0  0  0  0  0
  -24.3578   -9.4171   21.9188 C   0  0  0  0  0  0
  -23.6266   -8.2206   22.0746 C   0  0  0  0  0  0
  -22.4251   -8.0245   21.3534 C   0  0  0  0  0  0
  -21.9876   -9.0211   20.4636 C   0  0  0  0  0  0
  -22.7189  -10.2090   20.3055 C   0  0  0  0  0  0
  -21.6837   -6.0713   22.5276 C   0  0  0  0  0  0
  -21.4004   -6.5627   23.8207 C   0  0  0  0  0  0
  -21.3656   -5.6784   24.9175 C   0  0  0  0  0  0
  -21.6045   -4.3045   24.7227 C   0  0  0  0  0  0
  -21.8825   -3.8134   23.4349 C   0  0  0  0  0  0
  -21.9190   -4.6946   22.3401 C   0  0  0  0  0  0
  -22.7804  -13.5179   21.1878 C   0  0  0  0  0  0
  -22.1663   -4.2137   21.0978 F   0  0  0  0  0  0
  -21.5636   -3.4530   25.7739 F   0  0  0  0  0  0
  -30.0239  -13.3517   20.3747 N   0  0  0  0  0  0
  -26.2929  -12.9240   20.3320 N   0  0  0  0  0  0
  -25.9254  -11.6417   20.5802 N   0  0  0  0  0  0
  -22.0426  -12.8193   22.0426 N   0  0  0  0  0  0
  -25.4141  -15.1770   20.4403 N   0  0  0  0  0  0
  -31.9315  -14.6006   20.3149 O   0  0  0  0  0  0
  -21.6619   -6.8843   21.4230 O   0  0  0  0  0  0
  -22.3517  -14.5506   20.6729 O   0  0  0  0  0  0
  -24.6124  -31.8696   23.2127 C   0  0  0  0  0  0
  -25.9027  -32.4829   23.8431 C   0  0  1  0  0  0
  -27.2418  -27.4497   20.1126 C   0  0  0  0  0  0
  -25.5901  -33.8631   24.2356 N   0  0  0  0  0  0
  -23.4011  -30.4907   21.5518 C   0  0  2  0  0  0
  -24.8529  -28.9516   20.1232 C   0  0  0  0  0  0
  -22.7400  -29.4660   22.5007 C   0  0  0  0  0  0
  -18.0269  -28.1379   22.8507 C   0  0  0  0  0  0
  -24.1480  -36.7307   23.2643 C   0  0  0  0  0  0
  -25.9282  -30.8368   21.3683 C   0  0  0  0  0  0
  -26.0084  -29.4701   20.7218 C   0  0  0  0  0  0
  -27.2072  -28.7237   20.7189 C   0  0  0  0  0  0
  -26.0767  -26.9370   19.5100 C   0  0  0  0  0  0
  -24.8789  -27.6805   19.5186 C   0  0  0  0  0  0
  -23.6132  -29.8177   20.1686 C   0  0  0  0  0  0
  -25.4107  -36.3113   24.0343 C   0  0  1  0  0  0
  -20.5854  -28.3667   23.1318 C   0  0  2  0  0  0
  -20.6754  -26.9403   22.5420 C   0  0  0  0  0  0
  -19.5722  -26.6378   21.5227 C   0  0  0  0  0  0
  -18.1899  -26.7928   22.1630 C   0  0  0  0  0  0
  -19.1518  -28.8844   23.2900 C   0  0  0  0  0  0
  -18.9451  -30.1452   23.8907 C   0  0  0  0  0  0
  -17.6450  -30.6587   24.0573 C   0  0  0  0  0  0
  -25.9034  -34.9478   23.5145 C   0  0  0  0  0  0
  -16.5342  -29.9085   23.6338 C   0  0  0  0  0  0
  -16.7257  -28.6497   23.0374 C   0  0  0  0  0  0
  -26.4479  -31.6611   25.0756 C   0  0  0  0  0  0
  -25.3753  -31.3681   26.1506 C   0  0  0  0  0  0
  -27.0366  -30.3074   24.6138 C   0  0  0  0  0  0
  -27.6064  -32.4349   25.7504 C   0  0  0  0  0  0
  -27.5581  -37.1799   24.8468 C   0  0  0  0  0  0
  -21.4133  -29.3029   22.3731 N   0  0  0  0  0  0
  -26.4291  -37.3800   23.9421 N   0  0  0  0  0  0
  -24.6649  -31.0798   22.1029 N   0  0  0  0  0  0
  -23.4174  -28.8204   23.3050 O   0  0  0  0  0  0
  -28.4075  -26.7272   20.0561 O   0  0  0  0  0  0
  -26.5580  -34.8919   22.4698 O   0  0  0  0  0  0
  -23.5314  -32.1452   23.7517 O   0  0  0  0  0  0
  -30.7067  -17.4962   21.3756 C   0  0  0  0  0  0
  -28.5269  -19.1366   20.7726 C   0  0  0  0  0  0
  -29.7204  -16.9927   20.4898 C   0  0  0  0  0  0
  -28.5949  -17.8401   20.2237 C   0  0  0  0  0  0
  -29.5547  -19.6575   21.5867 C   0  0  0  0  0  0
  -30.6277  -18.8001   21.9128 C   0  0  0  0  0  0
  -29.9561  -15.7083   19.7354 C   0  0  0  0  0  0
  -27.4280  -17.4742   19.3125 C   0  0  0  0  0  0
  -28.4046  -24.3890   20.7870 C   0  0  0  0  0  0
  -29.0538  -23.3623   21.7490 C   0  0  0  0  0  0
  -28.6576  -25.8632   21.1674 C   0  0  0  0  0  0
  -28.7042  -21.9044   21.3898 C   0  0  0  0  0  0
  -29.6496  -15.6523   18.5052 N   0  0  0  0  0  0
  -29.5602  -20.9647   22.0520 O   0  0  0  0  0  0
  -31.6265  -19.2484   22.7116 F   0  0  0  0  0  0
  -31.4656  -12.3740   19.1343 H   0  0  0  0  0  0
  -30.3275  -11.3170   19.9302 H   0  0  0  0  0  0
  -29.7218  -11.5534   17.5315 H   0  0  0  0  0  0
  -29.6768  -13.2783   17.6414 H   0  0  0  0  0  0
  -27.8187  -11.2440   18.8941 H   0  0  0  0  0  0
  -27.3610  -12.5051   17.7864 H   0  0  0  0  0  0
  -27.6278  -14.2104   19.4570 H   0  0  0  0  0  0
  -28.6772  -12.1271   21.4346 H   0  0  0  0  0  0
  -28.4821  -13.8381   21.7448 H   0  0  0  0  0  0
  -25.2709   -9.5675   22.4774 H   0  0  0  0  0  0
  -23.9977   -7.4602   22.7474 H   0  0  0  0  0  0
  -21.0801   -8.8721   19.8946 H   0  0  0  0  0  0
  -22.3632  -10.9637   19.6184 H   0  0  0  0  0  0
  -21.1992   -7.6135   23.9707 H   0  0  0  0  0  0
  -21.1477   -6.0514   25.9077 H   0  0  0  0  0  0
  -22.0612   -2.7597   23.2853 H   0  0  0  0  0  0
  -22.4032  -11.9876   22.4869 H   0  0  0  0  0  0
  -21.1051  -13.1249   22.2623 H   0  0  0  0  0  0
  -24.6479  -15.8269   20.5793 H   0  0  0  0  0  0
  -26.2883  -15.6285   20.2137 H   0  0  0  0  0  0
  -26.7103  -32.5560   23.1209 H   0  0  0  0  0  0
  -25.0120  -33.9812   25.0545 H   0  0  0  0  0  0
  -22.6884  -31.3059   21.4102 H   0  0  0  0  0  0
  -23.3754  -35.9629   23.3315 H   0  0  0  0  0  0
  -24.3556  -36.8921   22.2056 H   0  0  0  0  0  0
  -23.7222  -37.6506   23.6663 H   0  0  0  0  0  0
  -26.0400  -31.5992   20.5971 H   0  0  0  0  0  0
  -26.8144  -30.8924   21.9881 H   0  0  0  0  0  0
  -28.1030  -29.1225   21.1757 H   0  0  0  0  0  0
  -26.1008  -25.9671   19.0345 H   0  0  0  0  0  0
  -23.9901  -27.2733   19.0575 H   0  0  0  0  0  0
  -23.7203  -30.5917   19.4084 H   0  0  0  0  0  0
  -22.7385  -29.2351   19.8728 H   0  0  0  0  0  0
  -25.1277  -36.1989   25.0834 H   0  0  0  0  0  0
  -20.9946  -28.3242   24.1439 H   0  0  0  0  0  0
  -20.5685  -26.2278   23.3615 H   0  0  0  0  0  0
  -21.6618  -26.7451   22.1199 H   0  0  0  0  0  0
  -19.6877  -25.6289   21.1251 H   0  0  0  0  0  0
  -19.6651  -27.3191   20.6763 H   0  0  0  0  0  0
  -17.4183  -26.6724   21.4013 H   0  0  0  0  0  0
  -18.0252  -26.0053   22.8999 H   0  0  0  0  0  0
  -19.7931  -30.7272   24.2265 H   0  0  0  0  0  0
  -17.5016  -31.6270   24.5177 H   0  0  0  0  0  0
  -15.5347  -30.3004   23.7653 H   0  0  0  0  0  0
  -15.8657  -28.0822   22.7091 H   0  0  0  0  0  0
  -24.5940  -30.7016   25.7832 H   0  0  0  0  0  0
  -24.8918  -32.2812   26.4983 H   0  0  0  0  0  0
  -25.8110  -30.8837   27.0252 H   0  0  0  0  0  0
  -26.2918  -29.6757   24.1280 H   0  0  0  0  0  0
  -27.4260  -29.7387   25.4594 H   0  0  0  0  0  0
  -27.8685  -30.4434   23.9225 H   0  0  0  0  0  0
  -27.2707  -33.3667   26.2066 H   0  0  0  0  0  0
  -28.3864  -32.6877   25.0312 H   0  0  0  0  0  0
  -28.0746  -31.8492   26.5424 H   0  0  0  0  0  0
  -28.2594  -38.0103   24.7564 H   0  0  0  0  0  0
  -28.1083  -36.2642   24.6250 H   0  0  0  0  0  0
  -27.2295  -37.1401   25.8866 H   0  0  0  0  0  0
  -20.9302  -29.8759   21.6952 H   0  0  0  0  0  0
  -26.0181  -38.2876   24.1449 H   0  0  0  0  0  0
  -31.5877  -16.9143   21.6049 H   0  0  0  0  0  0
  -27.6700  -19.7433   20.5184 H   0  0  0  0  0  0
  -26.4881  -17.7997   19.7609 H   0  0  0  0  0  0
  -27.3259  -16.4123   19.1185 H   0  0  0  0  0  0
  -27.5277  -17.9797   18.3516 H   0  0  0  0  0  0
  -27.3301  -24.2165   20.7193 H   0  0  0  0  0  0
  -28.7988  -24.2139   19.7853 H   0  0  0  0  0  0
  -28.7523  -23.5651   22.7772 H   0  0  0  0  0  0
  -30.1371  -23.4867   21.7162 H   0  0  0  0  0  0
  -29.7034  -25.9929   21.4474 H   0  0  0  0  0  0
  -28.0678  -26.1382   22.0447 H   0  0  0  0  0  0
  -28.7957  -21.7833   20.3088 H   0  0  0  0  0  0
  -27.6642  -21.7088   21.6567 H   0  0  0  0  0  0
  -29.2331  -16.5225   18.2013 H   0  0  0  0  0  0
  1 25  1  0  0  0
  1 30  2  0  0  0
  1 77  1  0  0  0
  2  3  1  0  0  0
  2 25  1  0  0  0
  2 86  1  0  0  0
  2 87  1  0  0  0
  3  4  1  0  0  0
  3 88  1  0  0  0
  3 89  1  0  0  0
  4  5  1  0  0  0
  4 90  1  0  0  0
  4 91  1  0  0  0
  5  6  1  0  0  0
  5 26  1  0  0  0
  5 92  1  0  0  0
  6 25  1  0  0  0
  6 93  1  0  0  0
  6 94  1  0  0  0
  7  8  2  0  0  0
  7 26  1  0  0  0
  7 29  1  0  0  0
  8  9  1  0  0  0
  8 22  1  0  0  0
  9 10  1  0  0  0
  9 27  2  0  0  0
 10 11  2  0  0  0
 10 15  1  0  0  0
 11 12  1  0  0  0
 11 95  1  0  0  0
 12 13  2  0  0  0
 12 96  1  0  0  0
 13 14  1  0  0  0
 13 31  1  0  0  0
 14 15  2  0  0  0
 14 97  1  0  0  0
 15 98  1  0  0  0
 16 17  2  0  0  0
 16 21  1  0  0  0
 16 31  1  0  0  0
 17 18  1  0  0  0
 17 99  1  0  0  0
 18 19  2  0  0  0
 18100  1  0  0  0
 19 20  1  0  0  0
 19 24  1  0  0  0
 20 21  2  0  0  0
 20101  1  0  0  0
 21 23  1  0  0  0
 22 28  1  0  0  0
 22 32  2  0  0  0
 26 27  1  0  0  0
 28102  1  0  0  0
 28103  1  0  0  0
 29104  1  0  0  0
 29105  1  0  0  0
 33 34  1  0  0  0
 33 66  1  0  0  0
 33 70  2  0  0  0
 34 36  1  0  0  0
 34 59  1  0  0  0
 34106  1  0  0  0
 35 44  2  0  0  0
 35 45  1  0  0  0
 35 68  1  0  0  0
 36 56  1  0  0  0
 36107  1  0  0  0
 37 39  1  0  0  0
 37 47  1  0  0  0
 37 66  1  0  0  0
 37108  1  0  0  0
 38 43  2  0  0  0
 38 46  1  0  0  0
 38 47  1  0  0  0
 39 64  1  0  0  0
 39 67  2  0  0  0
 40 52  1  0  0  0
 40 53  2  0  0  0
 40 58  1  0  0  0
 41109  1  0  0  0
 41110  1  0  0  0
 41111  1  0  0  0
 41 48  1  0  0  0
 42 43  1  0  0  0
 42 66  1  0  0  0
 42112  1  0  0  0
 42113  1  0  0  0
 43 44  1  0  0  0
 44114  1  0  0  0
 45 46  2  0  0  0
 45115  1  0  0  0
 46116  1  0  0  0
 47117  1  0  0  0
 47118  1  0  0  0
 48 56  1  0  0  0
 48 65  1  0  0  0
 48119  1  0  0  0
 49 50  1  0  0  0
 49 53  1  0  0  0
 49 64  1  0  0  0
 49120  1  0  0  0
 50 51  1  0  0  0
 50121  1  0  0  0
 50122  1  0  0  0
 51 52  1  0  0  0
 51123  1  0  0  0
 51124  1  0  0  0
 52125  1  0  0  0
 52126  1  0  0  0
 53 54  1  0  0  0
 54 55  2  0  0  0
 54127  1  0  0  0
 55 57  1  0  0  0
 55128  1  0  0  0
 56 69  2  0  0  0
 57 58  2  0  0  0
 57129  1  0  0  0
 58130  1  0  0  0
 59 60  1  0  0  0
 59 61  1  0  0  0
 59 62  1  0  0  0
 60131  1  0  0  0
 60132  1  0  0  0
 60133  1  0  0  0
 61134  1  0  0  0
 61135  1  0  0  0
 61136  1  0  0  0
 62137  1  0  0  0
 62138  1  0  0  0
 62139  1  0  0  0
 63 65  1  0  0  0
 63140  1  0  0  0
 63141  1  0  0  0
 63142  1  0  0  0
 64143  1  0  0  0
 65144  1  0  0  0
 68 81  1  0  0  0
 71 73  2  0  0  0
 71 76  1  0  0  0
 71145  1  0  0  0
 72 74  2  0  0  0
 72 75  1  0  0  0
 72146  1  0  0  0
 73 74  1  0  0  0
 73 77  1  0  0  0
 74 78  1  0  0  0
 75 76  2  0  0  0
 75 84  1  0  0  0
 76 85  1  0  0  0
 77 83  2  0  0  0
 78147  1  0  0  0
 78148  1  0  0  0
 78149  1  0  0  0
 79 80  1  0  0  0
 79 81  1  0  0  0
 79150  1  0  0  0
 79151  1  0  0  0
 80 82  1  0  0  0
 80152  1  0  0  0
 80153  1  0  0  0
 81154  1  0  0  0
 81155  1  0  0  0
 82 84  1  0  0  0
 82156  1  0  0  0
 82157  1  0  0  0
 83158  1  0  0  0
M  ISO  4   1 100  68 101  77 100  81 101
M  END
> <chiral flag>
0

> <version>
0

> <s_m_source_file>
/data/baiqing/PycharmProjects/Reinvent-master-3.2/result/LINK_invent/BTK/process_docking_weight1_custom_product_contain_oxygen_bond_distance_aromatic_linkinvent_7_9_3/rearranged_h_0102.sdf

> <i_m_source_file_index>
83

> <r_mmod_Potential_Energy-OPLS-2005>
243.422485351562

> <r_mmod_Stretch_Energy-OPLS-2005>
41.5536918640137

> <r_mmod_Bend_Energy-OPLS-2005>
106.168037414551

> <r_mmod_Torsional_Energy-OPLS-2005>
285.062438964844

> <r_mmod_Improper_Torsional_Energy-OPLS-2005>
26.0338363647461

> <r_mmod_Van_der_Waal_Energy-OPLS-2005>
159.624557495117

> <r_mmod_Electrostatic_Energy-OPLS-2005>
-213.00325012207

> <r_mmod_Solvation_Energy-OPLS-2005>
-199.130874633789

> <b_mmod_Minimization_Converged-OPLS-2005>
0

> <r_mmod_RMS_Derivative-OPLS-2005>
1.64914774894714

$$$$
84
                    3D
 Structure written by MMmdl.
160168  0  0  1  0            999 V2000
  -30.7618  -14.2978   20.7331 C   0  0  0  0  0  0
  -30.4242  -12.2759   19.3624 C   0  0  0  0  0  0
  -29.4821  -12.5551   18.1785 C   0  0  0  0  0  0
  -28.0049  -12.4082   18.5913 C   0  0  0  0  0  0
  -27.6734  -13.1933   19.8862 C   0  0  2  0  0  0
  -28.7066  -12.8657   20.9844 C   0  0  0  0  0  0
  -25.2622  -13.8139   20.5637 C   0  0  0  0  0  0
  -24.1869  -13.0425   20.9153 C   0  0  0  0  0  0
  -24.6397  -11.6886   20.8721 C   0  0  0  0  0  0
  -23.9042  -10.4289   21.0399 C   0  0  0  0  0  0
  -24.3625   -9.4214   21.9168 C   0  0  0  0  0  0
  -23.6309   -8.2244   22.0740 C   0  0  0  0  0  0
  -22.4278   -8.0287   21.3550 C   0  0  0  0  0  0
  -21.9902   -9.0243   20.4641 C   0  0  0  0  0  0
  -22.7217  -10.2128   20.3049 C   0  0  0  0  0  0
  -21.6863   -6.0749   22.5281 C   0  0  0  0  0  0
  -21.4016   -6.5641   23.8220 C   0  0  0  0  0  0
  -21.3670   -5.6790   24.9170 C   0  0  0  0  0  0
  -21.6051   -4.3052   24.7220 C   0  0  0  0  0  0
  -21.8826   -3.8154   23.4332 C   0  0  0  0  0  0
  -21.9204   -4.6976   22.3400 C   0  0  0  0  0  0
  -22.7893  -13.5233   21.1838 C   0  0  0  0  0  0
  -22.1661   -4.2164   21.0972 F   0  0  0  0  0  0
  -21.5631   -3.4536   25.7727 F   0  0  0  0  0  0
  -30.0575  -13.1712   20.4678 N   0  0  0  0  0  0
  -26.3071  -12.9291   20.3370 N   0  0  0  0  0  0
  -25.9322  -11.6455   20.5746 N   0  0  0  0  0  0
  -22.0539  -12.8250   22.0424 N   0  0  0  0  0  0
  -25.4321  -15.1851   20.3979 N   0  0  0  0  0  0
  -31.7405  -14.6707   20.0747 O   0  0  0  0  0  0
  -21.6637   -6.8888   21.4246 O   0  0  0  0  0  0
  -22.3576  -14.5522   20.6677 O   0  0  0  0  0  0
  -24.6119  -31.8704   23.2121 C   0  0  0  0  0  0
  -25.9016  -32.4841   23.8403 C   0  0  1  0  0  0
  -27.2312  -27.4542   20.0699 C   0  0  0  0  0  0
  -25.5875  -33.8636   24.2356 N   0  0  0  0  0  0
  -23.3978  -30.4942   21.5541 C   0  0  2  0  0  0
  -24.8411  -28.9641   20.1168 C   0  0  0  0  0  0
  -22.7395  -29.4659   22.5004 C   0  0  0  0  0  0
  -18.0271  -28.1381   22.8489 C   0  0  0  0  0  0
  -24.1485  -36.7324   23.2644 C   0  0  0  0  0  0
  -25.9243  -30.8379   21.3618 C   0  0  0  0  0  0
  -25.9997  -29.4701   20.7176 C   0  0  0  0  0  0
  -27.1922  -28.7141   20.7088 C   0  0  0  0  0  0
  -26.0486  -26.9569   19.4799 C   0  0  0  0  0  0
  -24.8570  -27.7010   19.5035 C   0  0  0  0  0  0
  -23.6058  -29.8311   20.1663 C   0  0  0  0  0  0
  -25.4098  -36.3129   24.0357 C   0  0  1  0  0  0
  -20.5858  -28.3659   23.1341 C   0  0  2  0  0  0
  -20.6760  -26.9397   22.5436 C   0  0  0  0  0  0
  -19.5751  -26.6391   21.5220 C   0  0  0  0  0  0
  -18.1919  -26.7935   22.1608 C   0  0  0  0  0  0
  -19.1520  -28.8834   23.2916 C   0  0  0  0  0  0
  -18.9448  -30.1438   23.8935 C   0  0  0  0  0  0
  -17.6450  -30.6583   24.0574 C   0  0  0  0  0  0
  -25.9021  -34.9490   23.5153 C   0  0  0  0  0  0
  -16.5340  -29.9095   23.6320 C   0  0  0  0  0  0
  -16.7261  -28.6513   23.0337 C   0  0  0  0  0  0
  -26.4473  -31.6601   25.0706 C   0  0  0  0  0  0
  -25.3777  -31.3680   26.1488 C   0  0  0  0  0  0
  -27.0277  -30.3057   24.6008 C   0  0  0  0  0  0
  -27.6071  -32.4304   25.7434 C   0  0  0  0  0  0
  -27.5587  -37.1811   24.8472 C   0  0  0  0  0  0
  -21.4129  -29.3028   22.3752 N   0  0  0  0  0  0
  -26.4301  -37.3803   23.9415 N   0  0  0  0  0  0
  -24.6637  -31.0807   22.1028 N   0  0  0  0  0  0
  -23.4181  -28.8190   23.3034 O   0  0  0  0  0  0
  -28.4104  -26.7436   20.0767 O   0  0  0  0  0  0
  -26.5579  -34.8941   22.4719 O   0  0  0  0  0  0
  -23.5314  -32.1438   23.7529 O   0  0  0  0  0  0
  -28.0197  -18.1048   20.0315 C   0  0  0  0  0  0
  -28.7587  -19.1854   19.5134 C   0  0  0  0  0  0
  -28.6300  -17.1847   20.9033 C   0  0  0  0  0  0
  -30.7179  -18.4334   20.7519 C   0  0  0  0  0  0
  -30.1122  -19.3673   19.8870 C   0  0  0  0  0  0
  -29.9885  -17.3385   21.2553 C   0  0  0  0  0  0
  -30.1276  -22.8430   18.8801 C   0  0  0  0  0  0
  -30.9504  -20.5409   19.3874 C   0  0  0  0  0  0
  -30.6760  -16.3265   22.1586 C   0  0  0  0  0  0
  -29.1796  -23.6501   17.9929 C   0  0  0  0  0  0
  -28.2566  -24.5944   18.7908 C   0  0  0  0  0  0
  -28.7981  -26.0367   18.8954 C   0  0  0  0  0  0
  -30.1940  -21.5315   18.6306 N   0  0  0  0  0  0
  -30.3249  -14.9606   21.8072 N   0  0  0  0  0  0
  -30.7723  -23.3959   19.7728 O   0  0  0  0  0  0
  -31.4624  -12.4049   19.0509 H   0  0  0  0  0  0
  -30.3368  -11.2367   19.6808 H   0  0  0  0  0  0
  -29.7055  -11.8837   17.3477 H   0  0  0  0  0  0
  -29.6585  -13.5689   17.8129 H   0  0  0  0  0  0
  -27.7947  -11.3474   18.7337 H   0  0  0  0  0  0
  -27.3562  -12.7408   17.7791 H   0  0  0  0  0  0
  -27.7512  -14.2563   19.6572 H   0  0  0  0  0  0
  -28.6607  -11.8030   21.2289 H   0  0  0  0  0  0
  -28.4478  -13.3787   21.9095 H   0  0  0  0  0  0
  -25.2786   -9.5710   22.4717 H   0  0  0  0  0  0
  -24.0047   -7.4645   22.7452 H   0  0  0  0  0  0
  -21.0832   -8.8762   19.8959 H   0  0  0  0  0  0
  -22.3666  -10.9675   19.6169 H   0  0  0  0  0  0
  -21.1987   -7.6142   23.9730 H   0  0  0  0  0  0
  -21.1486   -6.0503   25.9080 H   0  0  0  0  0  0
  -22.0596   -2.7614   23.2826 H   0  0  0  0  0  0
  -22.4137  -11.9913   22.4832 H   0  0  0  0  0  0
  -21.1159  -13.1307   22.2606 H   0  0  0  0  0  0
  -24.6552  -15.8323   20.4787 H   0  0  0  0  0  0
  -26.2694  -15.6147   20.0280 H   0  0  0  0  0  0
  -26.7077  -32.5563   23.1160 H   0  0  0  0  0  0
  -25.0054  -33.9805   25.0516 H   0  0  0  0  0  0
  -22.6864  -31.3107   21.4167 H   0  0  0  0  0  0
  -23.3744  -35.9660   23.3331 H   0  0  0  0  0  0
  -24.3590  -36.8899   22.2051 H   0  0  0  0  0  0
  -23.7232  -37.6546   23.6623 H   0  0  0  0  0  0
  -26.0213  -31.5950   20.5820 H   0  0  0  0  0  0
  -26.8196  -30.9055   21.9664 H   0  0  0  0  0  0
  -28.0870  -29.0964   21.1801 H   0  0  0  0  0  0
  -26.0065  -25.9896   19.0142 H   0  0  0  0  0  0
  -23.9631  -27.2992   19.0481 H   0  0  0  0  0  0
  -23.7167  -30.6077   19.4092 H   0  0  0  0  0  0
  -22.7279  -29.2547   19.8672 H   0  0  0  0  0  0
  -25.1271  -36.2016   25.0852 H   0  0  0  0  0  0
  -20.9948  -28.3216   24.1461 H   0  0  0  0  0  0
  -20.5643  -26.2266   23.3619 H   0  0  0  0  0  0
  -21.6634  -26.7423   22.1246 H   0  0  0  0  0  0
  -19.6910  -25.6306   21.1240 H   0  0  0  0  0  0
  -19.6712  -27.3217   20.6764 H   0  0  0  0  0  0
  -17.4203  -26.6704   21.3994 H   0  0  0  0  0  0
  -18.0289  -26.0062   22.8982 H   0  0  0  0  0  0
  -19.7927  -30.7237   24.2321 H   0  0  0  0  0  0
  -17.5012  -31.6268   24.5167 H   0  0  0  0  0  0
  -15.5349  -30.3011   23.7616 H   0  0  0  0  0  0
  -15.8662  -28.0847   22.7026 H   0  0  0  0  0  0
  -24.5967  -30.6994   25.7860 H   0  0  0  0  0  0
  -24.8950  -32.2819   26.4956 H   0  0  0  0  0  0
  -25.8182  -30.8868   27.0230 H   0  0  0  0  0  0
  -26.2767  -29.6811   24.1162 H   0  0  0  0  0  0
  -27.4199  -29.7290   25.4393 H   0  0  0  0  0  0
  -27.8538  -30.4412   23.9025 H   0  0  0  0  0  0
  -27.2720  -33.3585   26.2074 H   0  0  0  0  0  0
  -28.3831  -32.6894   25.0218 H   0  0  0  0  0  0
  -28.0806  -31.8395   26.5287 H   0  0  0  0  0  0
  -28.2638  -38.0080   24.7498 H   0  0  0  0  0  0
  -28.1053  -36.2615   24.6315 H   0  0  0  0  0  0
  -27.2323  -37.1492   25.8887 H   0  0  0  0  0  0
  -20.9269  -29.8778   21.7008 H   0  0  0  0  0  0
  -26.0206  -38.2891   24.1419 H   0  0  0  0  0  0
  -26.9809  -17.9852   19.7573 H   0  0  0  0  0  0
  -28.2602  -19.8676   18.8388 H   0  0  0  0  0  0
  -28.0509  -16.3601   21.2951 H   0  0  0  0  0  0
  -31.7568  -18.5576   21.0271 H   0  0  0  0  0  0
  -31.7520  -20.1594   18.7522 H   0  0  0  0  0  0
  -31.4359  -20.9965   20.2524 H   0  0  0  0  0  0
  -30.3682  -16.5139   23.1884 H   0  0  0  0  0  0
  -31.7589  -16.4491   22.1260 H   0  0  0  0  0  0
  -28.5621  -22.9555   17.4207 H   0  0  0  0  0  0
  -29.7649  -24.2050   17.2585 H   0  0  0  0  0  0
  -28.0694  -24.1912   19.7880 H   0  0  0  0  0  0
  -27.2963  -24.5930   18.2812 H   0  0  0  0  0  0
  -28.5471  -26.6073   17.9997 H   0  0  0  0  0  0
  -29.8868  -25.9987   18.9229 H   0  0  0  0  0  0
  -29.6375  -21.1767   17.8664 H   0  0  0  0  0  0
  -29.5983  -14.5178   22.3498 H   0  0  0  0  0  0
  1 25  1  0  0  0
  1 30  2  0  0  0
  1 84  1  0  0  0
  2  3  1  0  0  0
  2 25  1  0  0  0
  2 86  1  0  0  0
  2 87  1  0  0  0
  3  4  1  0  0  0
  3 88  1  0  0  0
  3 89  1  0  0  0
  4  5  1  0  0  0
  4 90  1  0  0  0
  4 91  1  0  0  0
  5  6  1  0  0  0
  5 26  1  0  0  0
  5 92  1  0  0  0
  6 25  1  0  0  0
  6 93  1  0  0  0
  6 94  1  0  0  0
  7  8  2  0  0  0
  7 26  1  0  0  0
  7 29  1  0  0  0
  8  9  1  0  0  0
  8 22  1  0  0  0
  9 10  1  0  0  0
  9 27  2  0  0  0
 10 11  2  0  0  0
 10 15  1  0  0  0
 11 12  1  0  0  0
 11 95  1  0  0  0
 12 13  2  0  0  0
 12 96  1  0  0  0
 13 14  1  0  0  0
 13 31  1  0  0  0
 14 15  2  0  0  0
 14 97  1  0  0  0
 15 98  1  0  0  0
 16 17  2  0  0  0
 16 21  1  0  0  0
 16 31  1  0  0  0
 17 18  1  0  0  0
 17 99  1  0  0  0
 18 19  2  0  0  0
 18100  1  0  0  0
 19 20  1  0  0  0
 19 24  1  0  0  0
 20 21  2  0  0  0
 20101  1  0  0  0
 21 23  1  0  0  0
 22 28  1  0  0  0
 22 32  2  0  0  0
 26 27  1  0  0  0
 28102  1  0  0  0
 28103  1  0  0  0
 29104  1  0  0  0
 29105  1  0  0  0
 33 34  1  0  0  0
 33 66  1  0  0  0
 33 70  2  0  0  0
 34 36  1  0  0  0
 34 59  1  0  0  0
 34106  1  0  0  0
 35 44  2  0  0  0
 35 45  1  0  0  0
 35 68  1  0  0  0
 36 56  1  0  0  0
 36107  1  0  0  0
 37 39  1  0  0  0
 37 47  1  0  0  0
 37 66  1  0  0  0
 37108  1  0  0  0
 38 43  2  0  0  0
 38 46  1  0  0  0
 38 47  1  0  0  0
 39 64  1  0  0  0
 39 67  2  0  0  0
 40 52  1  0  0  0
 40 53  2  0  0  0
 40 58  1  0  0  0
 41109  1  0  0  0
 41110  1  0  0  0
 41111  1  0  0  0
 41 48  1  0  0  0
 42 43  1  0  0  0
 42 66  1  0  0  0
 42112  1  0  0  0
 42113  1  0  0  0
 43 44  1  0  0  0
 44114  1  0  0  0
 45 46  2  0  0  0
 45115  1  0  0  0
 46116  1  0  0  0
 47117  1  0  0  0
 47118  1  0  0  0
 48 56  1  0  0  0
 48 65  1  0  0  0
 48119  1  0  0  0
 49 50  1  0  0  0
 49 53  1  0  0  0
 49 64  1  0  0  0
 49120  1  0  0  0
 50 51  1  0  0  0
 50121  1  0  0  0
 50122  1  0  0  0
 51 52  1  0  0  0
 51123  1  0  0  0
 51124  1  0  0  0
 52125  1  0  0  0
 52126  1  0  0  0
 53 54  1  0  0  0
 54 55  2  0  0  0
 54127  1  0  0  0
 55 57  1  0  0  0
 55128  1  0  0  0
 56 69  2  0  0  0
 57 58  2  0  0  0
 57129  1  0  0  0
 58130  1  0  0  0
 59 60  1  0  0  0
 59 61  1  0  0  0
 59 62  1  0  0  0
 60131  1  0  0  0
 60132  1  0  0  0
 60133  1  0  0  0
 61134  1  0  0  0
 61135  1  0  0  0
 61136  1  0  0  0
 62137  1  0  0  0
 62138  1  0  0  0
 62139  1  0  0  0
 63 65  1  0  0  0
 63140  1  0  0  0
 63141  1  0  0  0
 63142  1  0  0  0
 64143  1  0  0  0
 65144  1  0  0  0
 68 82  1  0  0  0
 71 72  2  0  0  0
 71 73  1  0  0  0
 71145  1  0  0  0
 72 75  1  0  0  0
 72146  1  0  0  0
 73 76  2  0  0  0
 73147  1  0  0  0
 74 75  2  0  0  0
 74 76  1  0  0  0
 74148  1  0  0  0
 75 78  1  0  0  0
 76 79  1  0  0  0
 77 80  1  0  0  0
 77 83  1  0  0  0
 77 85  2  0  0  0
 78 83  1  0  0  0
 78149  1  0  0  0
 78150  1  0  0  0
 79 84  1  0  0  0
 79151  1  0  0  0
 79152  1  0  0  0
 80 81  1  0  0  0
 80153  1  0  0  0
 80154  1  0  0  0
 81 82  1  0  0  0
 81155  1  0  0  0
 81156  1  0  0  0
 82157  1  0  0  0
 82158  1  0  0  0
 83159  1  0  0  0
 84160  1  0  0  0
M  ISO  4   1 100  68 101  82 101  84 100
M  END
> <chiral flag>
0

> <version>
0

> <s_m_source_file>
/data/baiqing/PycharmProjects/Reinvent-master-3.2/result/LINK_invent/BTK/process_docking_weight1_custom_product_contain_oxygen_bond_distance_aromatic_linkinvent_7_9_3/rearranged_h_0102.sdf

> <i_m_source_file_index>
84

> <r_mmod_Potential_Energy-OPLS-2005>
-250.52961730957

> <r_mmod_Stretch_Energy-OPLS-2005>
31.6784801483154

> <r_mmod_Bend_Energy-OPLS-2005>
91.6203308105469

> <r_mmod_Torsional_Energy-OPLS-2005>
198.049743652344

> <r_mmod_Improper_Torsional_Energy-OPLS-2005>
2.37250590324402

> <r_mmod_Van_der_Waal_Energy-OPLS-2005>
157.853256225586

> <r_mmod_Electrostatic_Energy-OPLS-2005>
-496.790802001953

> <r_mmod_Solvation_Energy-OPLS-2005>
-244.815017700195

> <b_mmod_Minimization_Converged-OPLS-2005>
0

> <r_mmod_RMS_Derivative-OPLS-2005>
2.57547998428345

$$$$
85
                    3D
 Structure written by MMmdl.
159167  0  0  1  0            999 V2000
  -30.7568  -14.3593   20.7155 C   0  0  0  0  0  0
  -30.4206  -12.2984   19.3807 C   0  0  0  0  0  0
  -29.4809  -12.5359   18.1851 C   0  0  0  0  0  0
  -28.0061  -12.3871   18.6058 C   0  0  0  0  0  0
  -27.6689  -13.1996   19.8835 C   0  0  2  0  0  0
  -28.7100  -12.9268   20.9919 C   0  0  0  0  0  0
  -25.2623  -13.8151   20.5686 C   0  0  0  0  0  0
  -24.1859  -13.0435   20.9166 C   0  0  0  0  0  0
  -24.6401  -11.6898   20.8725 C   0  0  0  0  0  0
  -23.9062  -10.4290   21.0400 C   0  0  0  0  0  0
  -24.3615   -9.4208   21.9181 C   0  0  0  0  0  0
  -23.6290   -8.2243   22.0754 C   0  0  0  0  0  0
  -22.4274   -8.0279   21.3542 C   0  0  0  0  0  0
  -21.9908   -9.0253   20.4646 C   0  0  0  0  0  0
  -22.7234  -10.2133   20.3052 C   0  0  0  0  0  0
  -21.6851   -6.0735   22.5278 C   0  0  0  0  0  0
  -21.4014   -6.5639   23.8212 C   0  0  0  0  0  0
  -21.3660   -5.6792   24.9174 C   0  0  0  0  0  0
  -21.6045   -4.3055   24.7225 C   0  0  0  0  0  0
  -21.8820   -3.8147   23.4346 C   0  0  0  0  0  0
  -21.9193   -4.6964   22.3402 C   0  0  0  0  0  0
  -22.7881  -13.5239   21.1831 C   0  0  0  0  0  0
  -22.1661   -4.2149   21.0979 F   0  0  0  0  0  0
  -21.5630   -3.4538   25.7738 F   0  0  0  0  0  0
  -30.0463  -13.2315   20.4520 N   0  0  0  0  0  0
  -26.3065  -12.9310   20.3409 N   0  0  0  0  0  0
  -25.9329  -11.6471   20.5766 N   0  0  0  0  0  0
  -22.0518  -12.8233   22.0386 N   0  0  0  0  0  0
  -25.4362  -15.1868   20.4103 N   0  0  0  0  0  0
  -31.7633  -14.6600   20.0598 O   0  0  0  0  0  0
  -21.6636   -6.8878   21.4240 O   0  0  0  0  0  0
  -22.3568  -14.5546   20.6683 O   0  0  0  0  0  0
  -24.6112  -31.8699   23.2119 C   0  0  0  0  0  0
  -25.9020  -32.4831   23.8401 C   0  0  1  0  0  0
  -27.2419  -27.4638   20.0720 C   0  0  0  0  0  0
  -25.5890  -33.8629   24.2333 N   0  0  0  0  0  0
  -23.3970  -30.4932   21.5523 C   0  0  2  0  0  0
  -24.8418  -28.9582   20.1180 C   0  0  0  0  0  0
  -22.7384  -29.4666   22.5008 C   0  0  0  0  0  0
  -18.0267  -28.1372   22.8493 C   0  0  0  0  0  0
  -24.1486  -36.7315   23.2636 C   0  0  0  0  0  0
  -25.9230  -30.8388   21.3634 C   0  0  0  0  0  0
  -25.9984  -29.4730   20.7148 C   0  0  0  0  0  0
  -27.1951  -28.7266   20.7006 C   0  0  0  0  0  0
  -26.0599  -26.9465   19.4918 C   0  0  0  0  0  0
  -24.8642  -27.6897   19.5124 C   0  0  0  0  0  0
  -23.6037  -29.8238   20.1670 C   0  0  0  0  0  0
  -25.4105  -36.3116   24.0340 C   0  0  1  0  0  0
  -20.5853  -28.3650   23.1331 C   0  0  2  0  0  0
  -20.6758  -26.9391   22.5420 C   0  0  0  0  0  0
  -19.5741  -26.6385   21.5211 C   0  0  0  0  0  0
  -18.1915  -26.7923   22.1616 C   0  0  0  0  0  0
  -19.1515  -28.8828   23.2911 C   0  0  0  0  0  0
  -18.9445  -30.1439   23.8914 C   0  0  0  0  0  0
  -17.6449  -30.6581   24.0566 C   0  0  0  0  0  0
  -25.9035  -34.9481   23.5134 C   0  0  0  0  0  0
  -16.5341  -29.9085   23.6325 C   0  0  0  0  0  0
  -16.7258  -28.6503   23.0342 C   0  0  0  0  0  0
  -26.4462  -31.6605   25.0719 C   0  0  0  0  0  0
  -25.3743  -31.3702   26.1480 C   0  0  0  0  0  0
  -27.0287  -30.3054   24.6079 C   0  0  0  0  0  0
  -27.6048  -32.4317   25.7473 C   0  0  0  0  0  0
  -27.5591  -37.1799   24.8454 C   0  0  0  0  0  0
  -21.4117  -29.3025   22.3744 N   0  0  0  0  0  0
  -26.4286  -37.3805   23.9425 N   0  0  0  0  0  0
  -24.6616  -31.0815   22.1012 N   0  0  0  0  0  0
  -23.4168  -28.8212   23.3044 O   0  0  0  0  0  0
  -28.4483  -26.7980   20.0555 O   0  0  0  0  0  0
  -26.5595  -34.8929   22.4694 O   0  0  0  0  0  0
  -23.5314  -32.1444   23.7530 O   0  0  0  0  0  0
  -30.0667  -17.9095   20.4654 C   0  0  0  0  0  0
  -29.7181  -19.1706   19.9395 C   0  0  0  0  0  0
  -30.9668  -20.2449   21.7171 C   0  0  0  0  0  0
  -30.8568  -17.7872   21.6355 C   0  0  0  0  0  0
  -30.1692  -20.3549   20.5626 C   0  0  0  0  0  0
  -31.3066  -18.9858   22.2503 C   0  0  0  0  0  0
  -31.2082  -16.4404   22.1942 C   0  0  0  0  0  0
  -30.2839  -15.2586   21.8822 C   0  0  0  0  0  0
  -28.8255  -23.3073   18.5799 C   0  0  0  0  0  0
  -28.4882  -24.3892   19.6238 C   0  0  0  0  0  0
  -28.8013  -21.8679   19.1180 C   0  0  0  0  0  0
  -28.6846  -25.8054   19.0592 C   0  0  0  0  0  0
  -32.1938  -16.2485   22.9721 N   0  0  0  0  0  0
  -29.8765  -21.6393   20.0766 N   0  0  0  0  0  0
  -32.0729  -18.9547   23.3699 F   0  0  0  0  0  0
  -31.4617  -12.4097   19.0723 H   0  0  0  0  0  0
  -30.3293  -11.2718   19.7389 H   0  0  0  0  0  0
  -29.7123  -11.8378   17.3796 H   0  0  0  0  0  0
  -29.6484  -13.5359   17.7821 H   0  0  0  0  0  0
  -27.8118  -11.3277   18.7773 H   0  0  0  0  0  0
  -27.3509  -12.6870   17.7875 H   0  0  0  0  0  0
  -27.7317  -14.2561   19.6215 H   0  0  0  0  0  0
  -28.6757  -11.8777   21.2896 H   0  0  0  0  0  0
  -28.4557  -13.4852   21.8911 H   0  0  0  0  0  0
  -25.2762   -9.5681   22.4752 H   0  0  0  0  0  0
  -24.0000   -7.4636   22.7473 H   0  0  0  0  0  0
  -21.0841   -8.8771   19.8952 H   0  0  0  0  0  0
  -22.3695  -10.9671   19.6159 H   0  0  0  0  0  0
  -21.2005   -7.6148   23.9715 H   0  0  0  0  0  0
  -21.1482   -6.0523   25.9077 H   0  0  0  0  0  0
  -22.0600   -2.7609   23.2846 H   0  0  0  0  0  0
  -22.4124  -11.9888   22.4771 H   0  0  0  0  0  0
  -21.1139  -13.1266   22.2595 H   0  0  0  0  0  0
  -24.6730  -15.8456   20.5210 H   0  0  0  0  0  0
  -26.2959  -15.6254   20.1051 H   0  0  0  0  0  0
  -26.7090  -32.5553   23.1165 H   0  0  0  0  0  0
  -25.0049  -33.9801   25.0482 H   0  0  0  0  0  0
  -22.6846  -31.3091   21.4141 H   0  0  0  0  0  0
  -23.3760  -35.9634   23.3273 H   0  0  0  0  0  0
  -24.3592  -36.8957   22.2056 H   0  0  0  0  0  0
  -23.7220  -37.6504   23.6665 H   0  0  0  0  0  0
  -26.0326  -31.6036   20.5933 H   0  0  0  0  0  0
  -26.8126  -30.8939   21.9791 H   0  0  0  0  0  0
  -28.0915  -29.1262   21.1539 H   0  0  0  0  0  0
  -26.0443  -25.9736   19.0228 H   0  0  0  0  0  0
  -23.9711  -27.2823   19.0586 H   0  0  0  0  0  0
  -23.7106  -30.5978   19.4062 H   0  0  0  0  0  0
  -22.7281  -29.2422   19.8729 H   0  0  0  0  0  0
  -25.1276  -36.1977   25.0833 H   0  0  0  0  0  0
  -20.9942  -28.3210   24.1453 H   0  0  0  0  0  0
  -20.5663  -26.2252   23.3597 H   0  0  0  0  0  0
  -21.6632  -26.7438   22.1219 H   0  0  0  0  0  0
  -19.6903  -25.6301   21.1227 H   0  0  0  0  0  0
  -19.6691  -27.3205   20.6748 H   0  0  0  0  0  0
  -17.4192  -26.6680   21.4012 H   0  0  0  0  0  0
  -18.0309  -26.0056   22.9001 H   0  0  0  0  0  0
  -19.7922  -30.7250   24.2288 H   0  0  0  0  0  0
  -17.5007  -31.6265   24.5163 H   0  0  0  0  0  0
  -15.5344  -30.2994   23.7642 H   0  0  0  0  0  0
  -15.8658  -28.0838   22.7035 H   0  0  0  0  0  0
  -24.5900  -30.7067   25.7817 H   0  0  0  0  0  0
  -24.8949  -32.2855   26.4960 H   0  0  0  0  0  0
  -25.8107  -30.8845   27.0215 H   0  0  0  0  0  0
  -26.2817  -29.6814   24.1156 H   0  0  0  0  0  0
  -27.4095  -29.7291   25.4521 H   0  0  0  0  0  0
  -27.8636  -30.4382   23.9192 H   0  0  0  0  0  0
  -27.2682  -33.3616   26.2066 H   0  0  0  0  0  0
  -28.3843  -32.6879   25.0284 H   0  0  0  0  0  0
  -28.0726  -31.8426   26.5370 H   0  0  0  0  0  0
  -28.2570  -38.0136   24.7572 H   0  0  0  0  0  0
  -28.1128  -36.2674   24.6188 H   0  0  0  0  0  0
  -27.2323  -37.1337   25.8857 H   0  0  0  0  0  0
  -20.9265  -29.8750   21.6978 H   0  0  0  0  0  0
  -26.0174  -38.2873   24.1470 H   0  0  0  0  0  0
  -29.7167  -17.0330   19.9415 H   0  0  0  0  0  0
  -29.1118  -19.1980   19.0463 H   0  0  0  0  0  0
  -31.3305  -21.1310   22.2160 H   0  0  0  0  0  0
  -29.2763  -15.6231   21.6841 H   0  0  0  0  0  0
  -30.2103  -14.6427   22.7788 H   0  0  0  0  0  0
  -29.8027  -23.5096   18.1376 H   0  0  0  0  0  0
  -28.1103  -23.3844   17.7593 H   0  0  0  0  0  0
  -29.1262  -24.2736   20.5001 H   0  0  0  0  0  0
  -27.4633  -24.2595   19.9715 H   0  0  0  0  0  0
  -28.9111  -21.1903   18.2705 H   0  0  0  0  0  0
  -27.8372  -21.6488   19.5805 H   0  0  0  0  0  0
  -28.0984  -25.9662   18.1536 H   0  0  0  0  0  0
  -29.7236  -25.9178   18.7478 H   0  0  0  0  0  0
  -32.6994  -17.1136   23.1434 H   0  0  0  0  0  0
  -30.1912  -22.4397   20.6182 H   0  0  0  0  0  0
  1 25  1  0  0  0
  1 30  2  0  0  0
  1 78  1  0  0  0
  2  3  1  0  0  0
  2 25  1  0  0  0
  2 86  1  0  0  0
  2 87  1  0  0  0
  3  4  1  0  0  0
  3 88  1  0  0  0
  3 89  1  0  0  0
  4  5  1  0  0  0
  4 90  1  0  0  0
  4 91  1  0  0  0
  5  6  1  0  0  0
  5 26  1  0  0  0
  5 92  1  0  0  0
  6 25  1  0  0  0
  6 93  1  0  0  0
  6 94  1  0  0  0
  7  8  2  0  0  0
  7 26  1  0  0  0
  7 29  1  0  0  0
  8  9  1  0  0  0
  8 22  1  0  0  0
  9 10  1  0  0  0
  9 27  2  0  0  0
 10 11  2  0  0  0
 10 15  1  0  0  0
 11 12  1  0  0  0
 11 95  1  0  0  0
 12 13  2  0  0  0
 12 96  1  0  0  0
 13 14  1  0  0  0
 13 31  1  0  0  0
 14 15  2  0  0  0
 14 97  1  0  0  0
 15 98  1  0  0  0
 16 17  2  0  0  0
 16 21  1  0  0  0
 16 31  1  0  0  0
 17 18  1  0  0  0
 17 99  1  0  0  0
 18 19  2  0  0  0
 18100  1  0  0  0
 19 20  1  0  0  0
 19 24  1  0  0  0
 20 21  2  0  0  0
 20101  1  0  0  0
 21 23  1  0  0  0
 22 28  1  0  0  0
 22 32  2  0  0  0
 26 27  1  0  0  0
 28102  1  0  0  0
 28103  1  0  0  0
 29104  1  0  0  0
 29105  1  0  0  0
 33 34  1  0  0  0
 33 66  1  0  0  0
 33 70  2  0  0  0
 34 36  1  0  0  0
 34 59  1  0  0  0
 34106  1  0  0  0
 35 44  2  0  0  0
 35 45  1  0  0  0
 35 68  1  0  0  0
 36 56  1  0  0  0
 36107  1  0  0  0
 37 39  1  0  0  0
 37 47  1  0  0  0
 37 66  1  0  0  0
 37108  1  0  0  0
 38 43  2  0  0  0
 38 46  1  0  0  0
 38 47  1  0  0  0
 39 64  1  0  0  0
 39 67  2  0  0  0
 40 52  1  0  0  0
 40 53  2  0  0  0
 40 58  1  0  0  0
 41109  1  0  0  0
 41110  1  0  0  0
 41111  1  0  0  0
 41 48  1  0  0  0
 42 43  1  0  0  0
 42 66  1  0  0  0
 42112  1  0  0  0
 42113  1  0  0  0
 43 44  1  0  0  0
 44114  1  0  0  0
 45 46  2  0  0  0
 45115  1  0  0  0
 46116  1  0  0  0
 47117  1  0  0  0
 47118  1  0  0  0
 48 56  1  0  0  0
 48 65  1  0  0  0
 48119  1  0  0  0
 49 50  1  0  0  0
 49 53  1  0  0  0
 49 64  1  0  0  0
 49120  1  0  0  0
 50 51  1  0  0  0
 50121  1  0  0  0
 50122  1  0  0  0
 51 52  1  0  0  0
 51123  1  0  0  0
 51124  1  0  0  0
 52125  1  0  0  0
 52126  1  0  0  0
 53 54  1  0  0  0
 54 55  2  0  0  0
 54127  1  0  0  0
 55 57  1  0  0  0
 55128  1  0  0  0
 56 69  2  0  0  0
 57 58  2  0  0  0
 57129  1  0  0  0
 58130  1  0  0  0
 59 60  1  0  0  0
 59 61  1  0  0  0
 59 62  1  0  0  0
 60131  1  0  0  0
 60132  1  0  0  0
 60133  1  0  0  0
 61134  1  0  0  0
 61135  1  0  0  0
 61136  1  0  0  0
 62137  1  0  0  0
 62138  1  0  0  0
 62139  1  0  0  0
 63 65  1  0  0  0
 63140  1  0  0  0
 63141  1  0  0  0
 63142  1  0  0  0
 64143  1  0  0  0
 65144  1  0  0  0
 68 82  1  0  0  0
 71 72  2  0  0  0
 71 74  1  0  0  0
 71145  1  0  0  0
 72 75  1  0  0  0
 72146  1  0  0  0
 73 75  2  0  0  0
 73 76  1  0  0  0
 73147  1  0  0  0
 74 76  2  0  0  0
 74 77  1  0  0  0
 75 84  1  0  0  0
 76 85  1  0  0  0
 77 78  1  0  0  0
 77 83  2  0  0  0
 78148  1  0  0  0
 78149  1  0  0  0
 79 80  1  0  0  0
 79 81  1  0  0  0
 79150  1  0  0  0
 79151  1  0  0  0
 80 82  1  0  0  0
 80152  1  0  0  0
 80153  1  0  0  0
 81 84  1  0  0  0
 81154  1  0  0  0
 81155  1  0  0  0
 82156  1  0  0  0
 82157  1  0  0  0
 83158  1  0  0  0
 84159  1  0  0  0
M  ISO  4   1 100  68 101  78 100  82 101
M  END
> <chiral flag>
0

> <version>
0

> <s_m_source_file>
/data/baiqing/PycharmProjects/Reinvent-master-3.2/result/LINK_invent/BTK/process_docking_weight1_custom_product_contain_oxygen_bond_distance_aromatic_linkinvent_7_9_3/rearranged_h_0102.sdf

> <i_m_source_file_index>
85

> <r_mmod_Potential_Energy-OPLS-2005>
-18.0985145568848

> <r_mmod_Stretch_Energy-OPLS-2005>
35.2120590209961

> <r_mmod_Bend_Energy-OPLS-2005>
105.396606445312

> <r_mmod_Torsional_Energy-OPLS-2005>
166.730834960938

> <r_mmod_Improper_Torsional_Energy-OPLS-2005>
2.97417569160461

> <r_mmod_Van_der_Waal_Energy-OPLS-2005>
164.966857910156

> <r_mmod_Electrostatic_Energy-OPLS-2005>
-284.535797119141

> <r_mmod_Solvation_Energy-OPLS-2005>
-216.765899658203

> <b_mmod_Minimization_Converged-OPLS-2005>
0

> <r_mmod_RMS_Derivative-OPLS-2005>
0.472896635532379

$$$$
86
                    3D
 Structure written by MMmdl.
157165  0  0  1  0            999 V2000
  -30.6990  -14.4510   20.6103 C   0  0  0  0  0  0
  -30.4285  -12.3074   19.4136 C   0  0  0  0  0  0
  -29.4935  -12.5216   18.2043 C   0  0  0  0  0  0
  -28.0149  -12.3772   18.6174 C   0  0  0  0  0  0
  -27.6649  -13.2045   19.8831 C   0  0  2  0  0  0
  -28.7057  -12.9532   20.9980 C   0  0  0  0  0  0
  -25.2586  -13.8143   20.5703 C   0  0  0  0  0  0
  -24.1822  -13.0423   20.9132 C   0  0  0  0  0  0
  -24.6382  -11.6895   20.8706 C   0  0  0  0  0  0
  -23.9048  -10.4283   21.0378 C   0  0  0  0  0  0
  -24.3605   -9.4206   21.9162 C   0  0  0  0  0  0
  -23.6286   -8.2238   22.0743 C   0  0  0  0  0  0
  -22.4264   -8.0271   21.3540 C   0  0  0  0  0  0
  -21.9890   -9.0235   20.4639 C   0  0  0  0  0  0
  -22.7215  -10.2116   20.3037 C   0  0  0  0  0  0
  -21.6851   -6.0730   22.5279 C   0  0  0  0  0  0
  -21.4009   -6.5635   23.8210 C   0  0  0  0  0  0
  -21.3661   -5.6784   24.9173 C   0  0  0  0  0  0
  -21.6045   -4.3044   24.7221 C   0  0  0  0  0  0
  -21.8821   -3.8136   23.4342 C   0  0  0  0  0  0
  -21.9194   -4.6958   22.3403 C   0  0  0  0  0  0
  -22.7848  -13.5223   21.1819 C   0  0  0  0  0  0
  -22.1663   -4.2143   21.0981 F   0  0  0  0  0  0
  -21.5628   -3.4526   25.7734 F   0  0  0  0  0  0
  -30.0414  -13.2691   20.4577 N   0  0  0  0  0  0
  -26.3040  -12.9323   20.3417 N   0  0  0  0  0  0
  -25.9317  -11.6478   20.5768 N   0  0  0  0  0  0
  -22.0500  -12.8223   22.0386 N   0  0  0  0  0  0
  -25.4312  -15.1868   20.4244 N   0  0  0  0  0  0
  -31.7993  -14.6739   20.0956 O   0  0  0  0  0  0
  -21.6638   -6.8866   21.4240 O   0  0  0  0  0  0
  -22.3532  -14.5545   20.6696 O   0  0  0  0  0  0
  -24.6137  -31.8678   23.2084 C   0  0  0  0  0  0
  -25.9035  -32.4812   23.8381 C   0  0  1  0  0  0
  -27.2436  -27.4386   20.0902 C   0  0  0  0  0  0
  -25.5899  -33.8614   24.2307 N   0  0  0  0  0  0
  -23.4011  -30.4891   21.5486 C   0  0  2  0  0  0
  -24.8465  -28.9507   20.1146 C   0  0  0  0  0  0
  -22.7392  -29.4656   22.4988 C   0  0  0  0  0  0
  -18.0266  -28.1389   22.8493 C   0  0  0  0  0  0
  -24.1486  -36.7303   23.2628 C   0  0  0  0  0  0
  -25.9273  -30.8322   21.3607 C   0  0  0  0  0  0
  -26.0027  -29.4647   20.7121 C   0  0  0  0  0  0
  -27.1975  -28.7123   20.7026 C   0  0  0  0  0  0
  -26.0636  -26.9312   19.4983 C   0  0  0  0  0  0
  -24.8710  -27.6818   19.5083 C   0  0  0  0  0  0
  -23.6075  -29.8160   20.1644 C   0  0  0  0  0  0
  -25.4103  -36.3099   24.0335 C   0  0  1  0  0  0
  -20.5854  -28.3672   23.1332 C   0  0  2  0  0  0
  -20.6755  -26.9412   22.5434 C   0  0  0  0  0  0
  -19.5742  -26.6397   21.5221 C   0  0  0  0  0  0
  -18.1918  -26.7941   22.1617 C   0  0  0  0  0  0
  -19.1515  -28.8843   23.2912 C   0  0  0  0  0  0
  -18.9443  -30.1450   23.8923 C   0  0  0  0  0  0
  -17.6449  -30.6594   24.0568 C   0  0  0  0  0  0
  -25.9046  -34.9474   23.5121 C   0  0  0  0  0  0
  -16.5339  -29.9103   23.6325 C   0  0  0  0  0  0
  -16.7257  -28.6518   23.0344 C   0  0  0  0  0  0
  -26.4461  -31.6597   25.0712 C   0  0  0  0  0  0
  -25.3728  -31.3737   26.1468 C   0  0  0  0  0  0
  -27.0246  -30.3024   24.6088 C   0  0  0  0  0  0
  -27.6060  -32.4299   25.7456 C   0  0  0  0  0  0
  -27.5601  -37.1774   24.8429 C   0  0  0  0  0  0
  -21.4123  -29.3030   22.3727 N   0  0  0  0  0  0
  -26.4265  -37.3808   23.9447 N   0  0  0  0  0  0
  -24.6652  -31.0786   22.0975 N   0  0  0  0  0  0
  -23.4166  -28.8207   23.3037 O   0  0  0  0  0  0
  -28.4468  -26.7598   20.1068 O   0  0  0  0  0  0
  -26.5610  -34.8929   22.4683 O   0  0  0  0  0  0
  -23.5335  -32.1422   23.7494 O   0  0  0  0  0  0
  -31.3235  -17.5093   21.0847 C   0  0  0  0  0  0
  -28.8952  -18.9340   21.1144 C   0  0  0  0  0  0
  -31.3230  -18.9195   20.9717 C   0  0  0  0  0  0
  -30.1062  -16.8004   21.1910 C   0  0  0  0  0  0
  -30.1092  -19.6491   20.9658 C   0  0  0  0  0  0
  -28.8987  -17.5265   21.2251 C   0  0  0  0  0  0
  -32.6442  -19.6564   20.8501 C   0  0  0  0  0  0
  -28.2544  -24.2668   20.1942 C   0  0  0  0  0  0
  -29.3995  -23.2238   20.2377 C   0  0  0  0  0  0
  -28.6195  -25.5367   19.3834 C   0  0  0  0  0  0
  -29.0051  -21.8181   20.7428 C   0  0  0  0  0  0
  -30.0198  -15.3822   21.3046 N   0  0  0  0  0  0
  -30.1930  -21.0228   20.8103 O   0  0  0  0  0  0
  -27.7274  -16.8568   21.3453 F   0  0  0  0  0  0
  -31.4714  -12.4183   19.1107 H   0  0  0  0  0  0
  -30.3374  -11.2886   19.7935 H   0  0  0  0  0  0
  -29.7305  -11.8086   17.4138 H   0  0  0  0  0  0
  -29.6583  -13.5139   17.7816 H   0  0  0  0  0  0
  -27.8243  -11.3199   18.8036 H   0  0  0  0  0  0
  -27.3618  -12.6603   17.7908 H   0  0  0  0  0  0
  -27.7163  -14.2573   19.6031 H   0  0  0  0  0  0
  -28.6819  -11.9065   21.3040 H   0  0  0  0  0  0
  -28.4603  -13.5179   21.8984 H   0  0  0  0  0  0
  -25.2755   -9.5688   22.4732 H   0  0  0  0  0  0
  -23.9995   -7.4634   22.7464 H   0  0  0  0  0  0
  -21.0813   -8.8748   19.8959 H   0  0  0  0  0  0
  -22.3662  -10.9647   19.6142 H   0  0  0  0  0  0
  -21.1998   -7.6142   23.9716 H   0  0  0  0  0  0
  -21.1480   -6.0511   25.9078 H   0  0  0  0  0  0
  -22.0601   -2.7598   23.2840 H   0  0  0  0  0  0
  -22.4096  -11.9870   22.4761 H   0  0  0  0  0  0
  -21.1129  -13.1261   22.2616 H   0  0  0  0  0  0
  -24.6809  -15.8424   20.6072 H   0  0  0  0  0  0
  -26.3301  -15.6428   20.3160 H   0  0  0  0  0  0
  -26.7113  -32.5517   23.1155 H   0  0  0  0  0  0
  -25.0060  -33.9778   25.0459 H   0  0  0  0  0  0
  -22.6911  -31.3068   21.4081 H   0  0  0  0  0  0
  -23.3768  -35.9612   23.3226 H   0  0  0  0  0  0
  -24.3611  -36.8982   22.2059 H   0  0  0  0  0  0
  -23.7192  -37.6472   23.6678 H   0  0  0  0  0  0
  -26.0413  -31.5973   20.5915 H   0  0  0  0  0  0
  -26.8154  -30.8852   21.9786 H   0  0  0  0  0  0
  -28.0904  -29.1096   21.1647 H   0  0  0  0  0  0
  -26.0428  -25.9583   19.0303 H   0  0  0  0  0  0
  -23.9802  -27.2764   19.0485 H   0  0  0  0  0  0
  -23.7124  -30.5877   19.4013 H   0  0  0  0  0  0
  -22.7319  -29.2332   19.8716 H   0  0  0  0  0  0
  -25.1271  -36.1944   25.0824 H   0  0  0  0  0  0
  -20.9961  -28.3242   24.1448 H   0  0  0  0  0  0
  -20.5649  -26.2288   23.3622 H   0  0  0  0  0  0
  -21.6627  -26.7452   22.1233 H   0  0  0  0  0  0
  -19.6907  -25.6315   21.1239 H   0  0  0  0  0  0
  -19.6704  -27.3209   20.6757 H   0  0  0  0  0  0
  -17.4206  -26.6714   21.4000 H   0  0  0  0  0  0
  -18.0295  -26.0072   22.8994 H   0  0  0  0  0  0
  -19.7920  -30.7249   24.2317 H   0  0  0  0  0  0
  -17.5007  -31.6271   24.5169 H   0  0  0  0  0  0
  -15.5343  -30.3009   23.7643 H   0  0  0  0  0  0
  -15.8653  -28.0843   22.7051 H   0  0  0  0  0  0
  -24.5931  -30.7029   25.7838 H   0  0  0  0  0  0
  -24.8871  -32.2894   26.4849 H   0  0  0  0  0  0
  -25.8087  -30.8986   27.0262 H   0  0  0  0  0  0
  -26.2767  -29.6831   24.1115 H   0  0  0  0  0  0
  -27.3953  -29.7228   25.4550 H   0  0  0  0  0  0
  -27.8647  -30.4302   23.9257 H   0  0  0  0  0  0
  -27.2705  -33.3604   26.2049 H   0  0  0  0  0  0
  -28.3861  -32.6846   25.0268 H   0  0  0  0  0  0
  -28.0729  -31.8398   26.5351 H   0  0  0  0  0  0
  -28.2524  -38.0166   24.7640 H   0  0  0  0  0  0
  -28.1191  -36.2722   24.6023 H   0  0  0  0  0  0
  -27.2370  -37.1138   25.8831 H   0  0  0  0  0  0
  -20.9286  -29.8750   21.6947 H   0  0  0  0  0  0
  -26.0142  -38.2858   24.1556 H   0  0  0  0  0  0
  -32.2632  -16.9763   21.0893 H   0  0  0  0  0  0
  -27.9428  -19.4402   21.1398 H   0  0  0  0  0  0
  -33.4956  -18.9838   20.9622 H   0  0  0  0  0  0
  -32.7230  -20.4277   21.6173 H   0  0  0  0  0  0
  -32.7185  -20.1367   19.8743 H   0  0  0  0  0  0
  -27.9799  -24.5416   21.2133 H   0  0  0  0  0  0
  -27.3639  -23.8161   19.7553 H   0  0  0  0  0  0
  -30.2038  -23.6168   20.8610 H   0  0  0  0  0  0
  -29.8216  -23.1125   19.2384 H   0  0  0  0  0  0
  -28.1163  -25.5528   18.4158 H   0  0  0  0  0  0
  -29.6802  -25.5024   19.1329 H   0  0  0  0  0  0
  -28.2815  -21.3823   20.0520 H   0  0  0  0  0  0
  -28.5413  -21.8761   21.7290 H   0  0  0  0  0  0
  -29.1371  -15.0519   21.6646 H   0  0  0  0  0  0
  1 25  1  0  0  0
  1 30  2  0  0  0
  1 82  1  0  0  0
  2  3  1  0  0  0
  2 25  1  0  0  0
  2 85  1  0  0  0
  2 86  1  0  0  0
  3  4  1  0  0  0
  3 87  1  0  0  0
  3 88  1  0  0  0
  4  5  1  0  0  0
  4 89  1  0  0  0
  4 90  1  0  0  0
  5  6  1  0  0  0
  5 26  1  0  0  0
  5 91  1  0  0  0
  6 25  1  0  0  0
  6 92  1  0  0  0
  6 93  1  0  0  0
  7  8  2  0  0  0
  7 26  1  0  0  0
  7 29  1  0  0  0
  8  9  1  0  0  0
  8 22  1  0  0  0
  9 10  1  0  0  0
  9 27  2  0  0  0
 10 11  2  0  0  0
 10 15  1  0  0  0
 11 12  1  0  0  0
 11 94  1  0  0  0
 12 13  2  0  0  0
 12 95  1  0  0  0
 13 14  1  0  0  0
 13 31  1  0  0  0
 14 15  2  0  0  0
 14 96  1  0  0  0
 15 97  1  0  0  0
 16 17  2  0  0  0
 16 21  1  0  0  0
 16 31  1  0  0  0
 17 18  1  0  0  0
 17 98  1  0  0  0
 18 19  2  0  0  0
 18 99  1  0  0  0
 19 20  1  0  0  0
 19 24  1  0  0  0
 20 21  2  0  0  0
 20100  1  0  0  0
 21 23  1  0  0  0
 22 28  1  0  0  0
 22 32  2  0  0  0
 26 27  1  0  0  0
 28101  1  0  0  0
 28102  1  0  0  0
 29103  1  0  0  0
 29104  1  0  0  0
 33 34  1  0  0  0
 33 66  1  0  0  0
 33 70  2  0  0  0
 34 36  1  0  0  0
 34 59  1  0  0  0
 34105  1  0  0  0
 35 44  2  0  0  0
 35 45  1  0  0  0
 35 68  1  0  0  0
 36 56  1  0  0  0
 36106  1  0  0  0
 37 39  1  0  0  0
 37 47  1  0  0  0
 37 66  1  0  0  0
 37107  1  0  0  0
 38 43  2  0  0  0
 38 46  1  0  0  0
 38 47  1  0  0  0
 39 64  1  0  0  0
 39 67  2  0  0  0
 40 52  1  0  0  0
 40 53  2  0  0  0
 40 58  1  0  0  0
 41108  1  0  0  0
 41109  1  0  0  0
 41110  1  0  0  0
 41 48  1  0  0  0
 42 43  1  0  0  0
 42 66  1  0  0  0
 42111  1  0  0  0
 42112  1  0  0  0
 43 44  1  0  0  0
 44113  1  0  0  0
 45 46  2  0  0  0
 45114  1  0  0  0
 46115  1  0  0  0
 47116  1  0  0  0
 47117  1  0  0  0
 48 56  1  0  0  0
 48 65  1  0  0  0
 48118  1  0  0  0
 49 50  1  0  0  0
 49 53  1  0  0  0
 49 64  1  0  0  0
 49119  1  0  0  0
 50 51  1  0  0  0
 50120  1  0  0  0
 50121  1  0  0  0
 51 52  1  0  0  0
 51122  1  0  0  0
 51123  1  0  0  0
 52124  1  0  0  0
 52125  1  0  0  0
 53 54  1  0  0  0
 54 55  2  0  0  0
 54126  1  0  0  0
 55 57  1  0  0  0
 55127  1  0  0  0
 56 69  2  0  0  0
 57 58  2  0  0  0
 57128  1  0  0  0
 58129  1  0  0  0
 59 60  1  0  0  0
 59 61  1  0  0  0
 59 62  1  0  0  0
 60130  1  0  0  0
 60131  1  0  0  0
 60132  1  0  0  0
 61133  1  0  0  0
 61134  1  0  0  0
 61135  1  0  0  0
 62136  1  0  0  0
 62137  1  0  0  0
 62138  1  0  0  0
 63 65  1  0  0  0
 63139  1  0  0  0
 63140  1  0  0  0
 63141  1  0  0  0
 64142  1  0  0  0
 65143  1  0  0  0
 68 80  1  0  0  0
 71 73  2  0  0  0
 71 74  1  0  0  0
 71144  1  0  0  0
 72 75  2  0  0  0
 72 76  1  0  0  0
 72145  1  0  0  0
 73 75  1  0  0  0
 73 77  1  0  0  0
 74 76  2  0  0  0
 74 82  1  0  0  0
 75 83  1  0  0  0
 76 84  1  0  0  0
 77146  1  0  0  0
 77147  1  0  0  0
 77148  1  0  0  0
 78 79  1  0  0  0
 78 80  1  0  0  0
 78149  1  0  0  0
 78150  1  0  0  0
 79 81  1  0  0  0
 79151  1  0  0  0
 79152  1  0  0  0
 80153  1  0  0  0
 80154  1  0  0  0
 81 83  1  0  0  0
 81155  1  0  0  0
 81156  1  0  0  0
 82157  1  0  0  0
M  ISO  4   1 100  68 101  80 101  82 100
M  END
> <chiral flag>
0

> <version>
0

> <s_m_source_file>
/data/baiqing/PycharmProjects/Reinvent-master-3.2/result/LINK_invent/BTK/process_docking_weight1_custom_product_contain_oxygen_bond_distance_aromatic_linkinvent_7_9_3/rearranged_h_0102.sdf

> <i_m_source_file_index>
86

> <r_mmod_Potential_Energy-OPLS-2005>
-93.8640060424805

> <r_mmod_Stretch_Energy-OPLS-2005>
36.488338470459

> <r_mmod_Bend_Energy-OPLS-2005>
113.148010253906

> <r_mmod_Torsional_Energy-OPLS-2005>
216.185317993164

> <r_mmod_Improper_Torsional_Energy-OPLS-2005>
4.09976673126221

> <r_mmod_Van_der_Waal_Energy-OPLS-2005>
156.310760498047

> <r_mmod_Electrostatic_Energy-OPLS-2005>
-435.429809570312

> <r_mmod_Solvation_Energy-OPLS-2005>
-195.531692504883

> <b_mmod_Minimization_Converged-OPLS-2005>
0

> <r_mmod_RMS_Derivative-OPLS-2005>
1.39723312854767

$$$$
87
                    3D
 Structure written by MMmdl.
159167  0  0  1  0            999 V2000
  -30.6399  -14.6773   20.3538 C   0  0  0  0  0  0
  -30.4330  -12.3806   19.4526 C   0  0  0  0  0  0
  -29.4992  -12.4164   18.2237 C   0  0  0  0  0  0
  -28.0260  -12.2558   18.6534 C   0  0  0  0  0  0
  -27.6283  -13.1780   19.8358 C   0  0  2  0  0  0
  -28.6919  -13.1584   20.9535 C   0  0  0  0  0  0
  -25.2538  -13.8028   20.5708 C   0  0  0  0  0  0
  -24.1804  -13.0371   20.9299 C   0  0  0  0  0  0
  -24.6332  -11.6824   20.8867 C   0  0  0  0  0  0
  -23.9000  -10.4250   21.0489 C   0  0  0  0  0  0
  -24.3566   -9.4166   21.9237 C   0  0  0  0  0  0
  -23.6273   -8.2187   22.0763 C   0  0  0  0  0  0
  -22.4261   -8.0242   21.3543 C   0  0  0  0  0  0
  -21.9885   -9.0228   20.4651 C   0  0  0  0  0  0
  -22.7192  -10.2122   20.3106 C   0  0  0  0  0  0
  -21.6828   -6.0728   22.5299 C   0  0  0  0  0  0
  -21.3979   -6.5634   23.8232 C   0  0  0  0  0  0
  -21.3665   -5.6788   24.9198 C   0  0  0  0  0  0
  -21.6043   -4.3054   24.7238 C   0  0  0  0  0  0
  -21.8822   -3.8146   23.4358 C   0  0  0  0  0  0
  -21.9192   -4.6960   22.3416 C   0  0  0  0  0  0
  -22.7838  -13.5220   21.1920 C   0  0  0  0  0  0
  -22.1654   -4.2154   21.0987 F   0  0  0  0  0  0
  -21.5663   -3.4531   25.7746 F   0  0  0  0  0  0
  -30.0015  -13.4606   20.3565 N   0  0  0  0  0  0
  -26.2885  -12.9112   20.3322 N   0  0  0  0  0  0
  -25.9240  -11.6332   20.5891 N   0  0  0  0  0  0
  -22.0421  -12.8262   22.0449 N   0  0  0  0  0  0
  -25.4281  -15.1740   20.3989 N   0  0  0  0  0  0
  -31.8679  -14.7586   20.2833 O   0  0  0  0  0  0
  -21.6616   -6.8855   21.4250 O   0  0  0  0  0  0
  -22.3573  -14.5538   20.6747 O   0  0  0  0  0  0
  -24.6209  -31.8591   23.1998 C   0  0  0  0  0  0
  -25.9074  -32.4775   23.8306 C   0  0  1  0  0  0
  -27.2413  -27.3432   20.1151 C   0  0  0  0  0  0
  -25.5889  -33.8575   24.2214 N   0  0  0  0  0  0
  -23.4138  -30.4795   21.5443 C   0  0  2  0  0  0
  -24.8622  -28.9293   20.1110 C   0  0  0  0  0  0
  -22.7447  -29.4596   22.4947 C   0  0  0  0  0  0
  -18.0263  -28.1384   22.8480 C   0  0  0  0  0  0
  -24.1484  -36.7299   23.2647 C   0  0  0  0  0  0
  -25.9509  -30.7963   21.3678 C   0  0  0  0  0  0
  -26.0252  -29.4235   20.7126 C   0  0  0  0  0  0
  -27.2101  -28.6400   20.7068 C   0  0  0  0  0  0
  -26.0524  -26.8836   19.5037 C   0  0  0  0  0  0
  -24.8754  -27.6625   19.5019 C   0  0  0  0  0  0
  -23.6273  -29.8067   20.1601 C   0  0  0  0  0  0
  -25.4128  -36.3096   24.0307 C   0  0  1  0  0  0
  -20.5870  -28.3669   23.1317 C   0  0  2  0  0  0
  -20.6783  -26.9392   22.5448 C   0  0  0  0  0  0
  -19.5759  -26.6379   21.5249 C   0  0  0  0  0  0
  -18.1923  -26.7928   22.1631 C   0  0  0  0  0  0
  -19.1524  -28.8845   23.2886 C   0  0  0  0  0  0
  -18.9453  -30.1459   23.8874 C   0  0  0  0  0  0
  -17.6464  -30.6593   24.0563 C   0  0  0  0  0  0
  -25.9061  -34.9456   23.5076 C   0  0  0  0  0  0
  -16.5344  -29.9090   23.6352 C   0  0  0  0  0  0
  -16.7264  -28.6520   23.0343 C   0  0  0  0  0  0
  -26.4462  -31.6603   25.0685 C   0  0  0  0  0  0
  -25.3698  -31.3772   26.1419 C   0  0  0  0  0  0
  -27.0290  -30.3025   24.6129 C   0  0  0  0  0  0
  -27.5975  -32.4377   25.7467 C   0  0  0  0  0  0
  -27.5571  -37.1810   24.8461 C   0  0  0  0  0  0
  -21.4168  -29.3008   22.3700 N   0  0  0  0  0  0
  -26.4289  -37.3803   23.9402 N   0  0  0  0  0  0
  -24.6796  -31.0625   22.0940 N   0  0  0  0  0  0
  -23.4181  -28.8157   23.3028 O   0  0  0  0  0  0
  -28.4150  -26.5841   20.1775 O   0  0  0  0  0  0
  -26.5652  -34.8923   22.4658 O   0  0  0  0  0  0
  -23.5379  -32.1371   23.7359 O   0  0  0  0  0  0
  -30.4675  -18.3338   19.5228 C   0  0  0  0  0  0
  -28.8678  -19.1575   21.6261 C   0  0  0  0  0  0
  -29.8641  -17.3129   20.3090 C   0  0  0  0  0  0
  -29.0895  -17.7640   21.4119 C   0  0  0  0  0  0
  -30.2692  -19.7336   19.7520 C   0  0  0  0  0  0
  -29.3919  -20.1728   20.7855 C   0  0  0  0  0  0
  -29.8188  -15.8890   19.7627 C   0  0  0  0  0  0
  -28.4134  -16.7693   22.3413 C   0  0  0  0  0  0
  -32.2446  -20.3847   18.5947 C   0  0  0  0  0  0
  -28.5878  -24.0073   20.6724 C   0  0  0  0  0  0
  -28.5511  -25.2174   19.6500 C   0  0  0  0  0  0
  -29.1217  -22.6113   20.1299 C   0  0  0  0  0  0
  -29.1669  -15.7698   18.6828 N   0  0  0  0  0  0
  -30.9049  -20.6753   18.9788 O   0  0  0  0  0  0
  -29.0338  -21.5058   21.0829 O   0  0  0  0  0  0
  -31.4718  -12.5001   19.1420 H   0  0  0  0  0  0
  -30.3760  -11.4144   19.9568 H   0  0  0  0  0  0
  -29.7705  -11.6197   17.5291 H   0  0  0  0  0  0
  -29.6310  -13.3506   17.6788 H   0  0  0  0  0  0
  -27.8894  -11.2117   18.9408 H   0  0  0  0  0  0
  -27.3619  -12.4202   17.8053 H   0  0  0  0  0  0
  -27.5644  -14.1713   19.4204 H   0  0  0  0  0  0
  -28.7210  -12.1854   21.4454 H   0  0  0  0  0  0
  -28.4406  -13.8820   21.7277 H   0  0  0  0  0  0
  -25.2710   -9.5668   22.4801 H   0  0  0  0  0  0
  -24.0011   -7.4575   22.7461 H   0  0  0  0  0  0
  -21.0831   -8.8749   19.8935 H   0  0  0  0  0  0
  -22.3664  -10.9677   19.6225 H   0  0  0  0  0  0
  -21.1916   -7.6135   23.9738 H   0  0  0  0  0  0
  -21.1492   -6.0514   25.9110 H   0  0  0  0  0  0
  -22.0596   -2.7608   23.2865 H   0  0  0  0  0  0
  -22.3984  -11.9915   22.4863 H   0  0  0  0  0  0
  -21.1031  -13.1330   22.2589 H   0  0  0  0  0  0
  -24.6545  -15.8254   20.4773 H   0  0  0  0  0  0
  -26.2613  -15.5915   20.0028 H   0  0  0  0  0  0
  -26.7112  -32.5439   23.1018 H   0  0  0  0  0  0
  -25.0020  -33.9698   25.0347 H   0  0  0  0  0  0
  -22.7067  -31.2998   21.4010 H   0  0  0  0  0  0
  -23.3747  -35.9629   23.3334 H   0  0  0  0  0  0
  -24.3581  -36.8912   22.2060 H   0  0  0  0  0  0
  -23.7211  -37.6493   23.6667 H   0  0  0  0  0  0
  -26.0828  -31.5595   20.5997 H   0  0  0  0  0  0
  -26.8305  -30.8452   21.9969 H   0  0  0  0  0  0
  -28.1019  -29.0206   21.1873 H   0  0  0  0  0  0
  -25.9988  -25.9124   19.0385 H   0  0  0  0  0  0
  -23.9784  -27.2722   19.0394 H   0  0  0  0  0  0
  -23.7408  -30.5831   19.4015 H   0  0  0  0  0  0
  -22.7484  -29.2331   19.8610 H   0  0  0  0  0  0
  -25.1315  -36.1950   25.0796 H   0  0  0  0  0  0
  -20.9941  -28.3244   24.1446 H   0  0  0  0  0  0
  -20.5755  -26.2247   23.3632 H   0  0  0  0  0  0
  -21.6639  -26.7479   22.1181 H   0  0  0  0  0  0
  -19.6919  -25.6301   21.1246 H   0  0  0  0  0  0
  -19.6695  -27.3218   20.6802 H   0  0  0  0  0  0
  -17.4207  -26.6677   21.4019 H   0  0  0  0  0  0
  -18.0283  -26.0085   22.9034 H   0  0  0  0  0  0
  -19.7943  -30.7295   24.2193 H   0  0  0  0  0  0
  -17.5025  -31.6264   24.5181 H   0  0  0  0  0  0
  -15.5348  -30.2985   23.7715 H   0  0  0  0  0  0
  -15.8660  -28.0867   22.7033 H   0  0  0  0  0  0
  -24.5810  -30.7184   25.7778 H   0  0  0  0  0  0
  -24.8956  -32.2964   26.4872 H   0  0  0  0  0  0
  -25.8012  -30.8925   27.0181 H   0  0  0  0  0  0
  -26.2848  -29.6799   24.1135 H   0  0  0  0  0  0
  -27.3988  -29.7264   25.4622 H   0  0  0  0  0  0
  -27.8717  -30.4336   23.9331 H   0  0  0  0  0  0
  -27.2509  -33.3651   26.2043 H   0  0  0  0  0  0
  -28.3771  -32.6997   25.0306 H   0  0  0  0  0  0
  -28.0643  -31.8521   26.5395 H   0  0  0  0  0  0
  -28.2612  -38.0086   24.7529 H   0  0  0  0  0  0
  -28.1027  -36.2621   24.6272 H   0  0  0  0  0  0
  -27.2284  -37.1464   25.8860 H   0  0  0  0  0  0
  -20.9346  -29.8696   21.6877 H   0  0  0  0  0  0
  -26.0166  -38.2869   24.1436 H   0  0  0  0  0  0
  -31.0503  -18.0275   18.6679 H   0  0  0  0  0  0
  -28.2401  -19.4623   22.4507 H   0  0  0  0  0  0
  -28.0747  -17.2522   23.2572 H   0  0  0  0  0  0
  -29.1035  -15.9779   22.6345 H   0  0  0  0  0  0
  -27.5464  -16.3183   21.8592 H   0  0  0  0  0  0
  -32.7895  -19.8404   19.3690 H   0  0  0  0  0  0
  -32.7732  -21.3239   18.4281 H   0  0  0  0  0  0
  -32.2782  -19.8102   17.6682 H   0  0  0  0  0  0
  -27.5882  -23.8730   21.0860 H   0  0  0  0  0  0
  -29.2177  -24.2929   21.5167 H   0  0  0  0  0  0
  -27.8513  -25.0039   18.8455 H   0  0  0  0  0  0
  -29.5193  -25.2251   19.1477 H   0  0  0  0  0  0
  -30.1610  -22.7585   19.8441 H   0  0  0  0  0  0
  -28.5761  -22.3345   19.2269 H   0  0  0  0  0  0
  -28.7475  -16.6522   18.4158 H   0  0  0  0  0  0
  1 25  1  0  0  0
  1 30  2  0  0  0
  1 77  1  0  0  0
  2  3  1  0  0  0
  2 25  1  0  0  0
  2 86  1  0  0  0
  2 87  1  0  0  0
  3  4  1  0  0  0
  3 88  1  0  0  0
  3 89  1  0  0  0
  4  5  1  0  0  0
  4 90  1  0  0  0
  4 91  1  0  0  0
  5  6  1  0  0  0
  5 26  1  0  0  0
  5 92  1  0  0  0
  6 25  1  0  0  0
  6 93  1  0  0  0
  6 94  1  0  0  0
  7  8  2  0  0  0
  7 26  1  0  0  0
  7 29  1  0  0  0
  8  9  1  0  0  0
  8 22  1  0  0  0
  9 10  1  0  0  0
  9 27  2  0  0  0
 10 11  2  0  0  0
 10 15  1  0  0  0
 11 12  1  0  0  0
 11 95  1  0  0  0
 12 13  2  0  0  0
 12 96  1  0  0  0
 13 14  1  0  0  0
 13 31  1  0  0  0
 14 15  2  0  0  0
 14 97  1  0  0  0
 15 98  1  0  0  0
 16 17  2  0  0  0
 16 21  1  0  0  0
 16 31  1  0  0  0
 17 18  1  0  0  0
 17 99  1  0  0  0
 18 19  2  0  0  0
 18100  1  0  0  0
 19 20  1  0  0  0
 19 24  1  0  0  0
 20 21  2  0  0  0
 20101  1  0  0  0
 21 23  1  0  0  0
 22 28  1  0  0  0
 22 32  2  0  0  0
 26 27  1  0  0  0
 28102  1  0  0  0
 28103  1  0  0  0
 29104  1  0  0  0
 29105  1  0  0  0
 33 34  1  0  0  0
 33 66  1  0  0  0
 33 70  2  0  0  0
 34 36  1  0  0  0
 34 59  1  0  0  0
 34106  1  0  0  0
 35 44  2  0  0  0
 35 45  1  0  0  0
 35 68  1  0  0  0
 36 56  1  0  0  0
 36107  1  0  0  0
 37 39  1  0  0  0
 37 47  1  0  0  0
 37 66  1  0  0  0
 37108  1  0  0  0
 38 43  2  0  0  0
 38 46  1  0  0  0
 38 47  1  0  0  0
 39 64  1  0  0  0
 39 67  2  0  0  0
 40 52  1  0  0  0
 40 53  2  0  0  0
 40 58  1  0  0  0
 41109  1  0  0  0
 41110  1  0  0  0
 41111  1  0  0  0
 41 48  1  0  0  0
 42 43  1  0  0  0
 42 66  1  0  0  0
 42112  1  0  0  0
 42113  1  0  0  0
 43 44  1  0  0  0
 44114  1  0  0  0
 45 46  2  0  0  0
 45115  1  0  0  0
 46116  1  0  0  0
 47117  1  0  0  0
 47118  1  0  0  0
 48 56  1  0  0  0
 48 65  1  0  0  0
 48119  1  0  0  0
 49 50  1  0  0  0
 49 53  1  0  0  0
 49 64  1  0  0  0
 49120  1  0  0  0
 50 51  1  0  0  0
 50121  1  0  0  0
 50122  1  0  0  0
 51 52  1  0  0  0
 51123  1  0  0  0
 51124  1  0  0  0
 52125  1  0  0  0
 52126  1  0  0  0
 53 54  1  0  0  0
 54 55  2  0  0  0
 54127  1  0  0  0
 55 57  1  0  0  0
 55128  1  0  0  0
 56 69  2  0  0  0
 57 58  2  0  0  0
 57129  1  0  0  0
 58130  1  0  0  0
 59 60  1  0  0  0
 59 61  1  0  0  0
 59 62  1  0  0  0
 60131  1  0  0  0
 60132  1  0  0  0
 60133  1  0  0  0
 61134  1  0  0  0
 61135  1  0  0  0
 61136  1  0  0  0
 62137  1  0  0  0
 62138  1  0  0  0
 62139  1  0  0  0
 63 65  1  0  0  0
 63140  1  0  0  0
 63141  1  0  0  0
 63142  1  0  0  0
 64143  1  0  0  0
 65144  1  0  0  0
 68 81  1  0  0  0
 71 73  2  0  0  0
 71 75  1  0  0  0
 71145  1  0  0  0
 72 74  2  0  0  0
 72 76  1  0  0  0
 72146  1  0  0  0
 73 74  1  0  0  0
 73 77  1  0  0  0
 74 78  1  0  0  0
 75 76  2  0  0  0
 75 84  1  0  0  0
 76 85  1  0  0  0
 77 83  2  0  0  0
 78147  1  0  0  0
 78148  1  0  0  0
 78149  1  0  0  0
 79 84  1  0  0  0
 79150  1  0  0  0
 79151  1  0  0  0
 79152  1  0  0  0
 80 81  1  0  0  0
 80 82  1  0  0  0
 80153  1  0  0  0
 80154  1  0  0  0
 81155  1  0  0  0
 81156  1  0  0  0
 82 85  1  0  0  0
 82157  1  0  0  0
 82158  1  0  0  0
 83159  1  0  0  0
M  ISO  4   1 100  68 101  77 100  81 101
M  END
> <chiral flag>
0

> <version>
0

> <s_m_source_file>
/data/baiqing/PycharmProjects/Reinvent-master-3.2/result/LINK_invent/BTK/process_docking_weight1_custom_product_contain_oxygen_bond_distance_aromatic_linkinvent_7_9_3/rearranged_h_0102.sdf

> <i_m_source_file_index>
87

> <r_mmod_Potential_Energy-OPLS-2005>
318.366638183594

> <r_mmod_Stretch_Energy-OPLS-2005>
78.064323425293

> <r_mmod_Bend_Energy-OPLS-2005>
166.955505371094

> <r_mmod_Torsional_Energy-OPLS-2005>
270.756805419922

> <r_mmod_Improper_Torsional_Energy-OPLS-2005>
24.0328197479248

> <r_mmod_Van_der_Waal_Energy-OPLS-2005>
150.812103271484

> <r_mmod_Electrostatic_Energy-OPLS-2005>
-237.03092956543

> <r_mmod_Solvation_Energy-OPLS-2005>
-200.280242919922

> <b_mmod_Minimization_Converged-OPLS-2005>
0

> <r_mmod_RMS_Derivative-OPLS-2005>
3.11172580718994

$$$$
88
                    3D
 Structure written by MMmdl.
157165  0  0  1  0            999 V2000
  -30.7172  -14.4374   20.6227 C   0  0  0  0  0  0
  -30.4223  -12.3085   19.4030 C   0  0  0  0  0  0
  -29.4859  -12.5183   18.1974 C   0  0  0  0  0  0
  -28.0106  -12.3722   18.6179 C   0  0  0  0  0  0
  -27.6630  -13.2049   19.8802 C   0  0  2  0  0  0
  -28.7047  -12.9615   20.9932 C   0  0  0  0  0  0
  -25.2604  -13.8161   20.5697 C   0  0  0  0  0  0
  -24.1845  -13.0430   20.9176 C   0  0  0  0  0  0
  -24.6398  -11.6904   20.8731 C   0  0  0  0  0  0
  -23.9064  -10.4289   21.0408 C   0  0  0  0  0  0
  -24.3617   -9.4203   21.9188 C   0  0  0  0  0  0
  -23.6292   -8.2239   22.0756 C   0  0  0  0  0  0
  -22.4269   -8.0286   21.3551 C   0  0  0  0  0  0
  -21.9908   -9.0258   20.4650 C   0  0  0  0  0  0
  -22.7238  -10.2134   20.3058 C   0  0  0  0  0  0
  -21.6848   -6.0735   22.5283 C   0  0  0  0  0  0
  -21.4016   -6.5639   23.8218 C   0  0  0  0  0  0
  -21.3665   -5.6791   24.9181 C   0  0  0  0  0  0
  -21.6036   -4.3054   24.7231 C   0  0  0  0  0  0
  -21.8820   -3.8149   23.4353 C   0  0  0  0  0  0
  -21.9194   -4.6965   22.3406 C   0  0  0  0  0  0
  -22.7872  -13.5233   21.1848 C   0  0  0  0  0  0
  -22.1660   -4.2148   21.0984 F   0  0  0  0  0  0
  -21.5628   -3.4541   25.7743 F   0  0  0  0  0  0
  -30.0361  -13.2747   20.4422 N   0  0  0  0  0  0
  -26.3036  -12.9321   20.3402 N   0  0  0  0  0  0
  -25.9323  -11.6476   20.5772 N   0  0  0  0  0  0
  -22.0521  -12.8213   22.0415 N   0  0  0  0  0  0
  -25.4336  -15.1874   20.4138 N   0  0  0  0  0  0
  -31.8164  -14.6629   20.1067 O   0  0  0  0  0  0
  -21.6634   -6.8880   21.4248 O   0  0  0  0  0  0
  -22.3557  -14.5543   20.6715 O   0  0  0  0  0  0
  -24.6167  -31.8658   23.2086 C   0  0  0  0  0  0
  -25.9054  -32.4816   23.8370 C   0  0  1  0  0  0
  -27.2340  -27.4220   20.0965 C   0  0  0  0  0  0
  -25.5894  -33.8602   24.2310 N   0  0  0  0  0  0
  -23.4041  -30.4899   21.5493 C   0  0  2  0  0  0
  -24.8509  -28.9519   20.1177 C   0  0  0  0  0  0
  -22.7410  -29.4657   22.4996 C   0  0  0  0  0  0
  -18.0263  -28.1389   22.8489 C   0  0  0  0  0  0
  -24.1485  -36.7304   23.2636 C   0  0  0  0  0  0
  -25.9339  -30.8326   21.3589 C   0  0  0  0  0  0
  -26.0130  -29.4646   20.7069 C   0  0  0  0  0  0
  -27.2083  -28.7087   20.6870 C   0  0  0  0  0  0
  -26.0528  -26.9268   19.4987 C   0  0  0  0  0  0
  -24.8652  -27.6828   19.5136 C   0  0  0  0  0  0
  -23.6145  -29.8200   20.1658 C   0  0  0  0  0  0
  -25.4109  -36.3111   24.0338 C   0  0  1  0  0  0
  -20.5853  -28.3655   23.1325 C   0  0  2  0  0  0
  -20.6744  -26.9384   22.5424 C   0  0  0  0  0  0
  -19.5728  -26.6390   21.5213 C   0  0  0  0  0  0
  -18.1909  -26.7934   22.1627 C   0  0  0  0  0  0
  -19.1516  -28.8843   23.2905 C   0  0  0  0  0  0
  -18.9439  -30.1450   23.8915 C   0  0  0  0  0  0
  -17.6441  -30.6592   24.0566 C   0  0  0  0  0  0
  -25.9029  -34.9470   23.5130 C   0  0  0  0  0  0
  -16.5332  -29.9089   23.6329 C   0  0  0  0  0  0
  -16.7250  -28.6514   23.0333 C   0  0  0  0  0  0
  -26.4457  -31.6597   25.0710 C   0  0  0  0  0  0
  -25.3717  -31.3689   26.1465 C   0  0  0  0  0  0
  -27.0257  -30.3039   24.6077 C   0  0  0  0  0  0
  -27.6051  -32.4293   25.7474 C   0  0  0  0  0  0
  -27.5582  -37.1820   24.8468 C   0  0  0  0  0  0
  -21.4132  -29.3033   22.3743 N   0  0  0  0  0  0
  -26.4297  -37.3805   23.9408 N   0  0  0  0  0  0
  -24.6701  -31.0770   22.0977 N   0  0  0  0  0  0
  -23.4191  -28.8193   23.3026 O   0  0  0  0  0  0
  -28.4099  -26.6962   20.0965 O   0  0  0  0  0  0
  -26.5587  -34.8929   22.4691 O   0  0  0  0  0  0
  -23.5367  -32.1383   23.7509 O   0  0  0  0  0  0
  -31.7067  -18.4127   20.3899 C   0  0  0  0  0  0
  -31.6525  -19.5402   19.5464 C   0  0  0  0  0  0
  -29.2284  -19.5751   19.7357 C   0  0  0  0  0  0
  -30.5244  -17.8358   20.8999 C   0  0  0  0  0  0
  -30.4178  -20.1310   19.2084 C   0  0  0  0  0  0
  -29.2817  -18.4299   20.5674 C   0  0  0  0  0  0
  -29.7764  -22.3057   18.0755 C   0  0  0  0  0  0
  -30.6256  -16.6338   21.8473 C   0  0  0  0  0  0
  -29.0006  -22.9542   19.2387 C   0  0  0  0  0  0
  -28.9127  -24.5039   19.0827 C   0  0  0  0  0  0
  -28.3393  -25.2686   20.2935 C   0  0  0  0  0  0
  -30.4319  -21.1376   18.2032 N   0  0  0  0  0  0
  -30.0844  -15.3586   21.3636 N   0  0  0  0  0  0
  -29.8205  -22.8893   16.9904 O   0  0  0  0  0  0
  -28.1283  -17.8940   21.0341 F   0  0  0  0  0  0
  -31.4653  -12.4167   19.0982 H   0  0  0  0  0  0
  -30.3303  -11.2903   19.7841 H   0  0  0  0  0  0
  -29.7175  -11.8016   17.4084 H   0  0  0  0  0  0
  -29.6502  -13.5103   17.7741 H   0  0  0  0  0  0
  -27.8258  -11.3139   18.8112 H   0  0  0  0  0  0
  -27.3535  -12.6491   17.7927 H   0  0  0  0  0  0
  -27.7140  -14.2561   19.5966 H   0  0  0  0  0  0
  -28.6813  -11.9177   21.3086 H   0  0  0  0  0  0
  -28.4577  -13.5330   21.8887 H   0  0  0  0  0  0
  -25.2764   -9.5663   22.4769 H   0  0  0  0  0  0
  -23.9998   -7.4618   22.7462 H   0  0  0  0  0  0
  -21.0847   -8.8775   19.8952 H   0  0  0  0  0  0
  -22.3705  -10.9674   19.6168 H   0  0  0  0  0  0
  -21.2006   -7.6148   23.9722 H   0  0  0  0  0  0
  -21.1484   -6.0522   25.9081 H   0  0  0  0  0  0
  -22.0592   -2.7610   23.2849 H   0  0  0  0  0  0
  -22.4134  -11.9851   22.4760 H   0  0  0  0  0  0
  -21.1154  -13.1252   22.2661 H   0  0  0  0  0  0
  -24.6756  -15.8478   20.5465 H   0  0  0  0  0  0
  -26.2997  -15.6333   20.1371 H   0  0  0  0  0  0
  -26.7114  -32.5545   23.1124 H   0  0  0  0  0  0
  -25.0037  -33.9712   25.0455 H   0  0  0  0  0  0
  -22.6930  -31.3064   21.4067 H   0  0  0  0  0  0
  -23.3756  -35.9634   23.3328 H   0  0  0  0  0  0
  -24.3577  -36.8886   22.2046 H   0  0  0  0  0  0
  -23.7229  -37.6516   23.6618 H   0  0  0  0  0  0
  -26.0417  -31.6000   20.5902 H   0  0  0  0  0  0
  -26.8235  -30.8883   21.9744 H   0  0  0  0  0  0
  -28.1102  -29.1032   21.1346 H   0  0  0  0  0  0
  -26.0419  -25.9624   19.0104 H   0  0  0  0  0  0
  -23.9684  -27.2844   19.0588 H   0  0  0  0  0  0
  -23.7243  -30.5931   19.4040 H   0  0  0  0  0  0
  -22.7400  -29.2369   19.8727 H   0  0  0  0  0  0
  -25.1296  -36.1972   25.0833 H   0  0  0  0  0  0
  -20.9917  -28.3212   24.1457 H   0  0  0  0  0  0
  -20.5624  -26.2244   23.3599 H   0  0  0  0  0  0
  -21.6614  -26.7410   22.1231 H   0  0  0  0  0  0
  -19.6865  -25.6303   21.1228 H   0  0  0  0  0  0
  -19.6693  -27.3214   20.6761 H   0  0  0  0  0  0
  -17.4166  -26.6671   21.4040 H   0  0  0  0  0  0
  -18.0319  -26.0084   22.9036 H   0  0  0  0  0  0
  -19.7911  -30.7258   24.2302 H   0  0  0  0  0  0
  -17.4994  -31.6278   24.5154 H   0  0  0  0  0  0
  -15.5328  -30.2992   23.7661 H   0  0  0  0  0  0
  -15.8650  -28.0854   22.7022 H   0  0  0  0  0  0
  -24.5926  -30.6982   25.7818 H   0  0  0  0  0  0
  -24.8854  -32.2823   26.4902 H   0  0  0  0  0  0
  -25.8091  -30.8889   27.0230 H   0  0  0  0  0  0
  -26.2789  -29.6854   24.1085 H   0  0  0  0  0  0
  -27.3951  -29.7243   25.4544 H   0  0  0  0  0  0
  -27.8659  -30.4356   23.9256 H   0  0  0  0  0  0
  -27.2694  -33.3594   26.2074 H   0  0  0  0  0  0
  -28.3860  -32.6845   25.0294 H   0  0  0  0  0  0
  -28.0710  -31.8383   26.5371 H   0  0  0  0  0  0
  -28.2635  -38.0088   24.7525 H   0  0  0  0  0  0
  -28.1044  -36.2629   24.6303 H   0  0  0  0  0  0
  -27.2284  -37.1491   25.8866 H   0  0  0  0  0  0
  -20.9274  -29.8787   21.7003 H   0  0  0  0  0  0
  -26.0190  -38.2883   24.1429 H   0  0  0  0  0  0
  -32.6680  -17.9846   20.6362 H   0  0  0  0  0  0
  -32.5726  -19.9409   19.1443 H   0  0  0  0  0  0
  -28.2645  -19.9790   19.4657 H   0  0  0  0  0  0
  -31.6631  -16.4866   22.1523 H   0  0  0  0  0  0
  -30.0894  -16.8908   22.7612 H   0  0  0  0  0  0
  -27.9977  -22.5265   19.2714 H   0  0  0  0  0  0
  -29.4905  -22.6988   20.1795 H   0  0  0  0  0  0
  -28.3074  -24.7393   18.2072 H   0  0  0  0  0  0
  -29.9091  -24.8972   18.8726 H   0  0  0  0  0  0
  -28.9417  -25.0367   21.1728 H   0  0  0  0  0  0
  -27.3386  -24.9089   20.5370 H   0  0  0  0  0  0
  -31.0603  -20.9479   17.4347 H   0  0  0  0  0  0
  -29.1774  -15.0931   21.7163 H   0  0  0  0  0  0
  1 25  1  0  0  0
  1 30  2  0  0  0
  1 83  1  0  0  0
  2  3  1  0  0  0
  2 25  1  0  0  0
  2 86  1  0  0  0
  2 87  1  0  0  0
  3  4  1  0  0  0
  3 88  1  0  0  0
  3 89  1  0  0  0
  4  5  1  0  0  0
  4 90  1  0  0  0
  4 91  1  0  0  0
  5  6  1  0  0  0
  5 26  1  0  0  0
  5 92  1  0  0  0
  6 25  1  0  0  0
  6 93  1  0  0  0
  6 94  1  0  0  0
  7  8  2  0  0  0
  7 26  1  0  0  0
  7 29  1  0  0  0
  8  9  1  0  0  0
  8 22  1  0  0  0
  9 10  1  0  0  0
  9 27  2  0  0  0
 10 11  2  0  0  0
 10 15  1  0  0  0
 11 12  1  0  0  0
 11 95  1  0  0  0
 12 13  2  0  0  0
 12 96  1  0  0  0
 13 14  1  0  0  0
 13 31  1  0  0  0
 14 15  2  0  0  0
 14 97  1  0  0  0
 15 98  1  0  0  0
 16 17  2  0  0  0
 16 21  1  0  0  0
 16 31  1  0  0  0
 17 18  1  0  0  0
 17 99  1  0  0  0
 18 19  2  0  0  0
 18100  1  0  0  0
 19 20  1  0  0  0
 19 24  1  0  0  0
 20 21  2  0  0  0
 20101  1  0  0  0
 21 23  1  0  0  0
 22 28  1  0  0  0
 22 32  2  0  0  0
 26 27  1  0  0  0
 28102  1  0  0  0
 28103  1  0  0  0
 29104  1  0  0  0
 29105  1  0  0  0
 33 34  1  0  0  0
 33 66  1  0  0  0
 33 70  2  0  0  0
 34 36  1  0  0  0
 34 59  1  0  0  0
 34106  1  0  0  0
 35 44  2  0  0  0
 35 45  1  0  0  0
 35 68  1  0  0  0
 36 56  1  0  0  0
 36107  1  0  0  0
 37 39  1  0  0  0
 37 47  1  0  0  0
 37 66  1  0  0  0
 37108  1  0  0  0
 38 43  2  0  0  0
 38 46  1  0  0  0
 38 47  1  0  0  0
 39 64  1  0  0  0
 39 67  2  0  0  0
 40 52  1  0  0  0
 40 53  2  0  0  0
 40 58  1  0  0  0
 41109  1  0  0  0
 41110  1  0  0  0
 41111  1  0  0  0
 41 48  1  0  0  0
 42 43  1  0  0  0
 42 66  1  0  0  0
 42112  1  0  0  0
 42113  1  0  0  0
 43 44  1  0  0  0
 44114  1  0  0  0
 45 46  2  0  0  0
 45115  1  0  0  0
 46116  1  0  0  0
 47117  1  0  0  0
 47118  1  0  0  0
 48 56  1  0  0  0
 48 65  1  0  0  0
 48119  1  0  0  0
 49 50  1  0  0  0
 49 53  1  0  0  0
 49 64  1  0  0  0
 49120  1  0  0  0
 50 51  1  0  0  0
 50121  1  0  0  0
 50122  1  0  0  0
 51 52  1  0  0  0
 51123  1  0  0  0
 51124  1  0  0  0
 52125  1  0  0  0
 52126  1  0  0  0
 53 54  1  0  0  0
 54 55  2  0  0  0
 54127  1  0  0  0
 55 57  1  0  0  0
 55128  1  0  0  0
 56 69  2  0  0  0
 57 58  2  0  0  0
 57129  1  0  0  0
 58130  1  0  0  0
 59 60  1  0  0  0
 59 61  1  0  0  0
 59 62  1  0  0  0
 60131  1  0  0  0
 60132  1  0  0  0
 60133  1  0  0  0
 61134  1  0  0  0
 61135  1  0  0  0
 61136  1  0  0  0
 62137  1  0  0  0
 62138  1  0  0  0
 62139  1  0  0  0
 63 65  1  0  0  0
 63140  1  0  0  0
 63141  1  0  0  0
 63142  1  0  0  0
 64143  1  0  0  0
 65144  1  0  0  0
 68 81  1  0  0  0
 71 72  2  0  0  0
 71 74  1  0  0  0
 71145  1  0  0  0
 72 75  1  0  0  0
 72146  1  0  0  0
 73 75  2  0  0  0
 73 76  1  0  0  0
 73147  1  0  0  0
 74 76  2  0  0  0
 74 78  1  0  0  0
 75 82  1  0  0  0
 76 85  1  0  0  0
 77 79  1  0  0  0
 77 82  1  0  0  0
 77 84  2  0  0  0
 78 83  1  0  0  0
 78148  1  0  0  0
 78149  1  0  0  0
 79 80  1  0  0  0
 79150  1  0  0  0
 79151  1  0  0  0
 80 81  1  0  0  0
 80152  1  0  0  0
 80153  1  0  0  0
 81154  1  0  0  0
 81155  1  0  0  0
 82156  1  0  0  0
 83157  1  0  0  0
M  ISO  4   1 100  68 101  81 101  83 100
M  END
> <chiral flag>
0

> <version>
0

> <s_m_source_file>
/data/baiqing/PycharmProjects/Reinvent-master-3.2/result/LINK_invent/BTK/process_docking_weight1_custom_product_contain_oxygen_bond_distance_aromatic_linkinvent_7_9_3/rearranged_h_0102.sdf

> <i_m_source_file_index>
88

> <r_mmod_Potential_Energy-OPLS-2005>
-128.133895874023

> <r_mmod_Stretch_Energy-OPLS-2005>
37.4461097717285

> <r_mmod_Bend_Energy-OPLS-2005>
111.739265441895

> <r_mmod_Torsional_Energy-OPLS-2005>
233.539245605469

> <r_mmod_Improper_Torsional_Energy-OPLS-2005>
3.0072557926178

> <r_mmod_Van_der_Waal_Energy-OPLS-2005>
147.294219970703

> <r_mmod_Electrostatic_Energy-OPLS-2005>
-450.794067382812

> <r_mmod_Solvation_Energy-OPLS-2005>
-221.082336425781

> <b_mmod_Minimization_Converged-OPLS-2005>
0

> <r_mmod_RMS_Derivative-OPLS-2005>
1.97063183784485

$$$$
89
                    3D
 Structure written by MMmdl.
154162  0  0  1  0            999 V2000
  -30.6755  -14.4856   20.5768 C   0  0  0  0  0  0
  -30.4342  -12.3171   19.4176 C   0  0  0  0  0  0
  -29.4979  -12.5126   18.2056 C   0  0  0  0  0  0
  -28.0186  -12.3671   18.6170 C   0  0  0  0  0  0
  -27.6648  -13.1978   19.8787 C   0  0  2  0  0  0
  -28.7076  -12.9625   20.9954 C   0  0  0  0  0  0
  -25.2602  -13.8130   20.5673 C   0  0  0  0  0  0
  -24.1842  -13.0423   20.9167 C   0  0  0  0  0  0
  -24.6385  -11.6887   20.8730 C   0  0  0  0  0  0
  -23.9043  -10.4283   21.0398 C   0  0  0  0  0  0
  -24.3599   -9.4204   21.9179 C   0  0  0  0  0  0
  -23.6282   -8.2238   22.0750 C   0  0  0  0  0  0
  -22.4265   -8.0274   21.3540 C   0  0  0  0  0  0
  -21.9891   -9.0244   20.4642 C   0  0  0  0  0  0
  -22.7215  -10.2127   20.3049 C   0  0  0  0  0  0
  -21.6847   -6.0734   22.5281 C   0  0  0  0  0  0
  -21.4010   -6.5638   23.8215 C   0  0  0  0  0  0
  -21.3657   -5.6790   24.9177 C   0  0  0  0  0  0
  -21.6046   -4.3054   24.7227 C   0  0  0  0  0  0
  -21.8819   -3.8146   23.4348 C   0  0  0  0  0  0
  -21.9189   -4.6963   22.3404 C   0  0  0  0  0  0
  -22.7867  -13.5235   21.1838 C   0  0  0  0  0  0
  -22.1658   -4.2149   21.0981 F   0  0  0  0  0  0
  -21.5629   -3.4536   25.7739 F   0  0  0  0  0  0
  -30.0402  -13.2864   20.4518 N   0  0  0  0  0  0
  -26.3039  -12.9284   20.3378 N   0  0  0  0  0  0
  -25.9314  -11.6454   20.5768 N   0  0  0  0  0  0
  -22.0499  -12.8240   22.0398 N   0  0  0  0  0  0
  -25.4309  -15.1846   20.4077 N   0  0  0  0  0  0
  -31.7868  -14.7150   20.0889 O   0  0  0  0  0  0
  -21.6629   -6.8873   21.4241 O   0  0  0  0  0  0
  -22.3561  -14.5548   20.6692 O   0  0  0  0  0  0
  -24.6151  -31.8672   23.2098 C   0  0  0  0  0  0
  -25.9041  -32.4819   23.8398 C   0  0  1  0  0  0
  -27.2388  -27.4345   20.0997 C   0  0  0  0  0  0
  -25.5895  -33.8618   24.2330 N   0  0  0  0  0  0
  -23.4050  -30.4890   21.5488 C   0  0  2  0  0  0
  -24.8559  -28.9546   20.1136 C   0  0  0  0  0  0
  -22.7418  -29.4648   22.4978 C   0  0  0  0  0  0
  -18.0273  -28.1376   22.8491 C   0  0  0  0  0  0
  -24.1485  -36.7316   23.2637 C   0  0  0  0  0  0
  -25.9338  -30.8323   21.3646 C   0  0  0  0  0  0
  -26.0148  -29.4661   20.7128 C   0  0  0  0  0  0
  -27.2123  -28.7122   20.7056 C   0  0  0  0  0  0
  -26.0685  -26.9379   19.4924 C   0  0  0  0  0  0
  -24.8772  -27.6891   19.5001 C   0  0  0  0  0  0
  -23.6163  -29.8202   20.1638 C   0  0  0  0  0  0
  -25.4103  -36.3112   24.0340 C   0  0  1  0  0  0
  -20.5865  -28.3664   23.1313 C   0  0  2  0  0  0
  -20.6760  -26.9399   22.5417 C   0  0  0  0  0  0
  -19.5740  -26.6384   21.5212 C   0  0  0  0  0  0
  -18.1920  -26.7923   22.1622 C   0  0  0  0  0  0
  -19.1523  -28.8836   23.2899 C   0  0  0  0  0  0
  -18.9451  -30.1442   23.8910 C   0  0  0  0  0  0
  -17.6454  -30.6584   24.0563 C   0  0  0  0  0  0
  -25.9033  -34.9476   23.5134 C   0  0  0  0  0  0
  -16.5344  -29.9087   23.6323 C   0  0  0  0  0  0
  -16.7261  -28.6501   23.0347 C   0  0  0  0  0  0
  -26.4474  -31.6595   25.0723 C   0  0  0  0  0  0
  -25.3747  -31.3694   26.1476 C   0  0  0  0  0  0
  -27.0307  -30.3037   24.6097 C   0  0  0  0  0  0
  -27.6053  -32.4313   25.7484 C   0  0  0  0  0  0
  -27.5587  -37.1801   24.8456 C   0  0  0  0  0  0
  -21.4145  -29.3031   22.3720 N   0  0  0  0  0  0
  -26.4285  -37.3801   23.9423 N   0  0  0  0  0  0
  -24.6693  -31.0768   22.0998 N   0  0  0  0  0  0
  -23.4184  -28.8193   23.3028 O   0  0  0  0  0  0
  -28.3688  -26.6472   20.1027 O   0  0  0  0  0  0
  -26.5596  -34.8928   22.4695 O   0  0  0  0  0  0
  -23.5340  -32.1421   23.7489 O   0  0  0  0  0  0
  -28.8313  -17.2028   19.9449 C   0  0  0  0  0  0
  -30.6632  -17.8086   21.4193 C   0  0  0  0  0  0
  -28.6050  -18.5670   19.6701 C   0  0  0  0  0  0
  -30.4286  -19.1810   21.1450 C   0  0  0  0  0  0
  -29.8580  -16.8071   20.8280 C   0  0  0  0  0  0
  -29.3791  -19.5781   20.2763 C   0  0  0  0  0  0
  -28.8315  -23.2801   20.3855 C   0  0  0  0  0  0
  -29.3915  -24.5523   21.0758 C   0  0  0  0  0  0
  -29.6401  -21.9813   20.6659 C   0  0  0  0  0  0
  -28.4049  -25.7441   21.2175 C   0  0  0  0  0  0
  -29.9575  -15.4355   21.2065 N   0  0  0  0  0  0
  -29.0320  -20.8859   19.9737 O   0  0  0  0  0  0
  -31.4757  -12.4372   19.1133 H   0  0  0  0  0  0
  -30.3545  -11.3010   19.8065 H   0  0  0  0  0  0
  -29.7398  -11.7918   17.4231 H   0  0  0  0  0  0
  -29.6606  -13.5003   17.7710 H   0  0  0  0  0  0
  -27.8282  -11.3100   18.8058 H   0  0  0  0  0  0
  -27.3681  -12.6487   17.7880 H   0  0  0  0  0  0
  -27.7112  -14.2455   19.5883 H   0  0  0  0  0  0
  -28.6895  -11.9185   21.3125 H   0  0  0  0  0  0
  -28.4599  -13.5349   21.8901 H   0  0  0  0  0  0
  -25.2743   -9.5684   22.4755 H   0  0  0  0  0  0
  -23.9992   -7.4627   22.7466 H   0  0  0  0  0  0
  -21.0821   -8.8758   19.8950 H   0  0  0  0  0  0
  -22.3669  -10.9663   19.6158 H   0  0  0  0  0  0
  -21.2003   -7.6145   23.9723 H   0  0  0  0  0  0
  -21.1479   -6.0517   25.9082 H   0  0  0  0  0  0
  -22.0603   -2.7608   23.2846 H   0  0  0  0  0  0
  -22.4096  -11.9892   22.4784 H   0  0  0  0  0  0
  -21.1127  -13.1289   22.2612 H   0  0  0  0  0  0
  -24.6616  -15.8368   20.5163 H   0  0  0  0  0  0
  -26.2840  -15.6286   20.0960 H   0  0  0  0  0  0
  -26.7115  -32.5537   23.1169 H   0  0  0  0  0  0
  -25.0047  -33.9783   25.0475 H   0  0  0  0  0  0
  -22.6937  -31.3056   21.4079 H   0  0  0  0  0  0
  -23.3751  -35.9643   23.3285 H   0  0  0  0  0  0
  -24.3588  -36.8946   22.2055 H   0  0  0  0  0  0
  -23.7226  -37.6513   23.6658 H   0  0  0  0  0  0
  -26.0464  -31.5983   20.5961 H   0  0  0  0  0  0
  -26.8208  -30.8871   21.9834 H   0  0  0  0  0  0
  -28.1067  -29.0996   21.1735 H   0  0  0  0  0  0
  -26.0792  -25.9628   19.0255 H   0  0  0  0  0  0
  -23.9870  -27.2886   19.0350 H   0  0  0  0  0  0
  -23.7247  -30.5947   19.4035 H   0  0  0  0  0  0
  -22.7412  -29.2391   19.8674 H   0  0  0  0  0  0
  -25.1275  -36.1974   25.0832 H   0  0  0  0  0  0
  -20.9956  -28.3229   24.1433 H   0  0  0  0  0  0
  -20.5657  -26.2274   23.3606 H   0  0  0  0  0  0
  -21.6632  -26.7437   22.1211 H   0  0  0  0  0  0
  -19.6901  -25.6298   21.1232 H   0  0  0  0  0  0
  -19.6681  -27.3200   20.6748 H   0  0  0  0  0  0
  -17.4190  -26.6672   21.4024 H   0  0  0  0  0  0
  -18.0320  -26.0061   22.9015 H   0  0  0  0  0  0
  -19.7929  -30.7252   24.2285 H   0  0  0  0  0  0
  -17.5012  -31.6266   24.5161 H   0  0  0  0  0  0
  -15.5346  -30.2994   23.7641 H   0  0  0  0  0  0
  -15.8659  -28.0827   22.7054 H   0  0  0  0  0  0
  -24.5910  -30.7058   25.7810 H   0  0  0  0  0  0
  -24.8955  -32.2848   26.4957 H   0  0  0  0  0  0
  -25.8108  -30.8834   27.0214 H   0  0  0  0  0  0
  -26.2851  -29.6793   24.1161 H   0  0  0  0  0  0
  -27.4090  -29.7277   25.4554 H   0  0  0  0  0  0
  -27.8680  -30.4358   23.9241 H   0  0  0  0  0  0
  -27.2673  -33.3596   26.2100 H   0  0  0  0  0  0
  -28.3841  -32.6899   25.0298 H   0  0  0  0  0  0
  -28.0745  -31.8413   26.5367 H   0  0  0  0  0  0
  -28.2574  -38.0131   24.7559 H   0  0  0  0  0  0
  -28.1116  -36.2668   24.6205 H   0  0  0  0  0  0
  -27.2318  -37.1356   25.8860 H   0  0  0  0  0  0
  -20.9305  -29.8761   21.6948 H   0  0  0  0  0  0
  -26.0173  -38.2872   24.1458 H   0  0  0  0  0  0
  -28.1911  -16.4684   19.4806 H   0  0  0  0  0  0
  -31.4452  -17.5332   22.1133 H   0  0  0  0  0  0
  -27.8028  -18.8432   19.0003 H   0  0  0  0  0  0
  -31.0561  -19.9164   21.6268 H   0  0  0  0  0  0
  -28.7664  -23.4536   19.3107 H   0  0  0  0  0  0
  -27.8085  -23.1144   20.7249 H   0  0  0  0  0  0
  -30.3134  -24.8783   20.5932 H   0  0  0  0  0  0
  -29.6789  -24.2650   22.0882 H   0  0  0  0  0  0
  -29.6517  -21.7891   21.7399 H   0  0  0  0  0  0
  -30.6738  -22.0941   20.3368 H   0  0  0  0  0  0
  -28.7055  -26.3349   22.0844 H   0  0  0  0  0  0
  -27.4089  -25.3630   21.4531 H   0  0  0  0  0  0
  -29.1125  -15.0532   21.6036 H   0  0  0  0  0  0
  1 25  1  0  0  0
  1 30  2  0  0  0
  1 81  1  0  0  0
  2  3  1  0  0  0
  2 25  1  0  0  0
  2 83  1  0  0  0
  2 84  1  0  0  0
  3  4  1  0  0  0
  3 85  1  0  0  0
  3 86  1  0  0  0
  4  5  1  0  0  0
  4 87  1  0  0  0
  4 88  1  0  0  0
  5  6  1  0  0  0
  5 26  1  0  0  0
  5 89  1  0  0  0
  6 25  1  0  0  0
  6 90  1  0  0  0
  6 91  1  0  0  0
  7  8  2  0  0  0
  7 26  1  0  0  0
  7 29  1  0  0  0
  8  9  1  0  0  0
  8 22  1  0  0  0
  9 10  1  0  0  0
  9 27  2  0  0  0
 10 11  2  0  0  0
 10 15  1  0  0  0
 11 12  1  0  0  0
 11 92  1  0  0  0
 12 13  2  0  0  0
 12 93  1  0  0  0
 13 14  1  0  0  0
 13 31  1  0  0  0
 14 15  2  0  0  0
 14 94  1  0  0  0
 15 95  1  0  0  0
 16 17  2  0  0  0
 16 21  1  0  0  0
 16 31  1  0  0  0
 17 18  1  0  0  0
 17 96  1  0  0  0
 18 19  2  0  0  0
 18 97  1  0  0  0
 19 20  1  0  0  0
 19 24  1  0  0  0
 20 21  2  0  0  0
 20 98  1  0  0  0
 21 23  1  0  0  0
 22 28  1  0  0  0
 22 32  2  0  0  0
 26 27  1  0  0  0
 28 99  1  0  0  0
 28100  1  0  0  0
 29101  1  0  0  0
 29102  1  0  0  0
 33 34  1  0  0  0
 33 66  1  0  0  0
 33 70  2  0  0  0
 34 36  1  0  0  0
 34 59  1  0  0  0
 34103  1  0  0  0
 35 44  2  0  0  0
 35 45  1  0  0  0
 35 68  1  0  0  0
 36 56  1  0  0  0
 36104  1  0  0  0
 37 39  1  0  0  0
 37 47  1  0  0  0
 37 66  1  0  0  0
 37105  1  0  0  0
 38 43  2  0  0  0
 38 46  1  0  0  0
 38 47  1  0  0  0
 39 64  1  0  0  0
 39 67  2  0  0  0
 40 52  1  0  0  0
 40 53  2  0  0  0
 40 58  1  0  0  0
 41106  1  0  0  0
 41107  1  0  0  0
 41108  1  0  0  0
 41 48  1  0  0  0
 42 43  1  0  0  0
 42 66  1  0  0  0
 42109  1  0  0  0
 42110  1  0  0  0
 43 44  1  0  0  0
 44111  1  0  0  0
 45 46  2  0  0  0
 45112  1  0  0  0
 46113  1  0  0  0
 47114  1  0  0  0
 47115  1  0  0  0
 48 56  1  0  0  0
 48 65  1  0  0  0
 48116  1  0  0  0
 49 50  1  0  0  0
 49 53  1  0  0  0
 49 64  1  0  0  0
 49117  1  0  0  0
 50 51  1  0  0  0
 50118  1  0  0  0
 50119  1  0  0  0
 51 52  1  0  0  0
 51120  1  0  0  0
 51121  1  0  0  0
 52122  1  0  0  0
 52123  1  0  0  0
 53 54  1  0  0  0
 54 55  2  0  0  0
 54124  1  0  0  0
 55 57  1  0  0  0
 55125  1  0  0  0
 56 69  2  0  0  0
 57 58  2  0  0  0
 57126  1  0  0  0
 58127  1  0  0  0
 59 60  1  0  0  0
 59 61  1  0  0  0
 59 62  1  0  0  0
 60128  1  0  0  0
 60129  1  0  0  0
 60130  1  0  0  0
 61131  1  0  0  0
 61132  1  0  0  0
 61133  1  0  0  0
 62134  1  0  0  0
 62135  1  0  0  0
 62136  1  0  0  0
 63 65  1  0  0  0
 63137  1  0  0  0
 63138  1  0  0  0
 63139  1  0  0  0
 64140  1  0  0  0
 65141  1  0  0  0
 68 80  1  0  0  0
 71 73  2  0  0  0
 71 75  1  0  0  0
 71142  1  0  0  0
 72 74  1  0  0  0
 72 75  2  0  0  0
 72143  1  0  0  0
 73 76  1  0  0  0
 73144  1  0  0  0
 74 76  2  0  0  0
 74145  1  0  0  0
 75 81  1  0  0  0
 76 82  1  0  0  0
 77 78  1  0  0  0
 77 79  1  0  0  0
 77146  1  0  0  0
 77147  1  0  0  0
 78 80  1  0  0  0
 78148  1  0  0  0
 78149  1  0  0  0
 79 82  1  0  0  0
 79150  1  0  0  0
 79151  1  0  0  0
 80152  1  0  0  0
 80153  1  0  0  0
 81154  1  0  0  0
M  ISO  4   1 100  68 101  80 101  81 100
M  END
> <chiral flag>
0

> <version>
0

> <s_m_source_file>
/data/baiqing/PycharmProjects/Reinvent-master-3.2/result/LINK_invent/BTK/process_docking_weight1_custom_product_contain_oxygen_bond_distance_aromatic_linkinvent_7_9_3/rearranged_h_0102.sdf

> <i_m_source_file_index>
89

> <r_mmod_Potential_Energy-OPLS-2005>
-26.1432418823242

> <r_mmod_Stretch_Energy-OPLS-2005>
38.0520858764648

> <r_mmod_Bend_Energy-OPLS-2005>
103.493583679199

> <r_mmod_Torsional_Energy-OPLS-2005>
269.066009521484

> <r_mmod_Improper_Torsional_Energy-OPLS-2005>
5.56116437911987

> <r_mmod_Van_der_Waal_Energy-OPLS-2005>
142.235061645508

> <r_mmod_Electrostatic_Energy-OPLS-2005>
-386.073486328125

> <r_mmod_Solvation_Energy-OPLS-2005>
-212.002868652344

> <b_mmod_Minimization_Converged-OPLS-2005>
0

> <r_mmod_RMS_Derivative-OPLS-2005>
0.609314560890198

$$$$
90
                    3D
 Structure written by MMmdl.
164173  0  0  1  0            999 V2000
  -30.6773  -14.4808   20.5967 C   0  0  0  0  0  0
  -30.4340  -12.3189   19.4163 C   0  0  0  0  0  0
  -29.4977  -12.5140   18.2047 C   0  0  0  0  0  0
  -28.0188  -12.3679   18.6166 C   0  0  0  0  0  0
  -27.6647  -13.1994   19.8779 C   0  0  2  0  0  0
  -28.7054  -12.9565   20.9946 C   0  0  0  0  0  0
  -25.2607  -13.8141   20.5664 C   0  0  0  0  0  0
  -24.1850  -13.0432   20.9172 C   0  0  0  0  0  0
  -24.6390  -11.6894   20.8726 C   0  0  0  0  0  0
  -23.9050  -10.4286   21.0399 C   0  0  0  0  0  0
  -24.3605   -9.4205   21.9180 C   0  0  0  0  0  0
  -23.6281   -8.2242   22.0753 C   0  0  0  0  0  0
  -22.4264   -8.0279   21.3542 C   0  0  0  0  0  0
  -21.9895   -9.0252   20.4645 C   0  0  0  0  0  0
  -22.7222  -10.2131   20.3051 C   0  0  0  0  0  0
  -21.6852   -6.0730   22.5277 C   0  0  0  0  0  0
  -21.4016   -6.5633   23.8211 C   0  0  0  0  0  0
  -21.3657   -5.6787   24.9173 C   0  0  0  0  0  0
  -21.6043   -4.3050   24.7224 C   0  0  0  0  0  0
  -21.8821   -3.8141   23.4347 C   0  0  0  0  0  0
  -21.9193   -4.6957   22.3401 C   0  0  0  0  0  0
  -22.7874  -13.5243   21.1836 C   0  0  0  0  0  0
  -22.1662   -4.2141   21.0978 F   0  0  0  0  0  0
  -21.5625   -3.4537   25.7740 F   0  0  0  0  0  0
  -30.0374  -13.2862   20.4520 N   0  0  0  0  0  0
  -26.3035  -12.9293   20.3357 N   0  0  0  0  0  0
  -25.9314  -11.6461   20.5753 N   0  0  0  0  0  0
  -22.0507  -12.8247   22.0393 N   0  0  0  0  0  0
  -25.4344  -15.1856   20.4050 N   0  0  0  0  0  0
  -31.7816  -14.7051   20.0934 O   0  0  0  0  0  0
  -21.6633   -6.8874   21.4240 O   0  0  0  0  0  0
  -22.3566  -14.5551   20.6682 O   0  0  0  0  0  0
  -24.6147  -31.8674   23.2095 C   0  0  0  0  0  0
  -25.9037  -32.4821   23.8396 C   0  0  1  0  0  0
  -27.2375  -27.4368   20.0985 C   0  0  0  0  0  0
  -25.5893  -33.8618   24.2328 N   0  0  0  0  0  0
  -23.4042  -30.4891   21.5494 C   0  0  2  0  0  0
  -24.8541  -28.9537   20.1153 C   0  0  0  0  0  0
  -22.7415  -29.4651   22.4986 C   0  0  0  0  0  0
  -18.0275  -28.1378   22.8492 C   0  0  0  0  0  0
  -24.1485  -36.7314   23.2639 C   0  0  0  0  0  0
  -25.9326  -30.8331   21.3634 C   0  0  0  0  0  0
  -26.0134  -29.4663   20.7133 C   0  0  0  0  0  0
  -27.2115  -28.7138   20.7046 C   0  0  0  0  0  0
  -26.0668  -26.9367   19.4957 C   0  0  0  0  0  0
  -24.8749  -27.6869   19.5042 C   0  0  0  0  0  0
  -23.6146  -29.8195   20.1646 C   0  0  0  0  0  0
  -25.4104  -36.3110   24.0340 C   0  0  1  0  0  0
  -20.5865  -28.3664   23.1317 C   0  0  2  0  0  0
  -20.6765  -26.9400   22.5419 C   0  0  0  0  0  0
  -19.5744  -26.6385   21.5213 C   0  0  0  0  0  0
  -18.1922  -26.7925   22.1623 C   0  0  0  0  0  0
  -19.1523  -28.8837   23.2903 C   0  0  0  0  0  0
  -18.9452  -30.1443   23.8915 C   0  0  0  0  0  0
  -17.6454  -30.6583   24.0567 C   0  0  0  0  0  0
  -25.9031  -34.9474   23.5131 C   0  0  0  0  0  0
  -16.5345  -29.9088   23.6324 C   0  0  0  0  0  0
  -16.7264  -28.6504   23.0346 C   0  0  0  0  0  0
  -26.4467  -31.6597   25.0720 C   0  0  0  0  0  0
  -25.3737  -31.3703   26.1473 C   0  0  0  0  0  0
  -27.0296  -30.3041   24.6087 C   0  0  0  0  0  0
  -27.6047  -32.4314   25.7479 C   0  0  0  0  0  0
  -27.5578  -37.1811   24.8465 C   0  0  0  0  0  0
  -21.4141  -29.3029   22.3722 N   0  0  0  0  0  0
  -26.4292  -37.3791   23.9407 N   0  0  0  0  0  0
  -24.6685  -31.0774   22.0995 N   0  0  0  0  0  0
  -23.4180  -28.8199   23.3038 O   0  0  0  0  0  0
  -28.3735  -26.6599   20.0840 O   0  0  0  0  0  0
  -26.5594  -34.8925   22.4693 O   0  0  0  0  0  0
  -23.5336  -32.1427   23.7485 O   0  0  0  0  0  0
  -29.0025  -19.0381   21.5028 C   0  0  0  0  0  0
  -28.9419  -17.6428   21.2798 C   0  0  0  0  0  0
  -31.4062  -18.8710   21.7638 C   0  0  0  0  0  0
  -30.2397  -19.6740   21.7562 C   0  0  0  0  0  0
  -30.1071  -16.8399   21.3119 C   0  0  0  0  0  0
  -31.3502  -17.4744   21.5575 C   0  0  0  0  0  0
  -30.3249  -21.1018   22.2588 C   0  0  0  0  0  0
  -28.4544  -23.4113   19.9917 C   0  0  0  0  0  0
  -29.1772  -22.0777   20.2342 C   0  0  0  0  0  0
  -29.2090  -24.4143   20.8542 C   0  0  2  0  0  0
  -29.6595  -23.5572   22.0781 C   0  0  0  0  0  0
  -28.6126  -23.5892   23.2191 C   0  0  0  0  0  0
  -31.0082  -24.1228   22.5889 C   0  0  0  0  0  0
  -28.4428  -25.7350   21.1790 C   0  0  0  0  0  0
  -29.7660  -22.1513   21.5773 N   0  0  0  0  0  0
  -29.9362  -15.4218   21.2180 N   0  0  0  0  0  0
  -30.9145  -21.2532   23.3326 O   0  0  0  0  0  0
  -32.4895  -16.7551   21.6863 F   0  0  0  0  0  0
  -31.4756  -12.4387   19.1124 H   0  0  0  0  0  0
  -30.3535  -11.3023   19.8037 H   0  0  0  0  0  0
  -29.7394  -11.7933   17.4223 H   0  0  0  0  0  0
  -29.6606  -13.5018   17.7704 H   0  0  0  0  0  0
  -27.8308  -11.3106   18.8072 H   0  0  0  0  0  0
  -27.3677  -12.6463   17.7872 H   0  0  0  0  0  0
  -27.7149  -14.2500   19.5914 H   0  0  0  0  0  0
  -28.6882  -11.9100   21.3026 H   0  0  0  0  0  0
  -28.4551  -13.5190   21.8950 H   0  0  0  0  0  0
  -25.2753   -9.5681   22.4750 H   0  0  0  0  0  0
  -23.9989   -7.4635   22.7474 H   0  0  0  0  0  0
  -21.0823   -8.8772   19.8954 H   0  0  0  0  0  0
  -22.3681  -10.9670   19.6159 H   0  0  0  0  0  0
  -21.2012   -7.6143   23.9715 H   0  0  0  0  0  0
  -21.1474   -6.0516   25.9075 H   0  0  0  0  0  0
  -22.0602   -2.7604   23.2851 H   0  0  0  0  0  0
  -22.4110  -11.9906   22.4787 H   0  0  0  0  0  0
  -21.1129  -13.1291   22.2594 H   0  0  0  0  0  0
  -24.6643  -15.8390   20.4998 H   0  0  0  0  0  0
  -26.2751  -15.6160   20.0421 H   0  0  0  0  0  0
  -26.7114  -32.5541   23.1168 H   0  0  0  0  0  0
  -25.0044  -33.9780   25.0474 H   0  0  0  0  0  0
  -22.6931  -31.3057   21.4085 H   0  0  0  0  0  0
  -23.3738  -35.9657   23.3317 H   0  0  0  0  0  0
  -24.3579  -36.8911   22.2051 H   0  0  0  0  0  0
  -23.7248  -37.6529   23.6642 H   0  0  0  0  0  0
  -26.0433  -31.5980   20.5934 H   0  0  0  0  0  0
  -26.8209  -30.8897   21.9808 H   0  0  0  0  0  0
  -28.1078  -29.1033   21.1671 H   0  0  0  0  0  0
  -26.0793  -25.9622   19.0278 H   0  0  0  0  0  0
  -23.9843  -27.2853   19.0406 H   0  0  0  0  0  0
  -23.7220  -30.5939   19.4043 H   0  0  0  0  0  0
  -22.7394  -29.2382   19.8689 H   0  0  0  0  0  0
  -25.1280  -36.1978   25.0834 H   0  0  0  0  0  0
  -20.9956  -28.3232   24.1438 H   0  0  0  0  0  0
  -20.5664  -26.2272   23.3606 H   0  0  0  0  0  0
  -21.6637  -26.7444   22.1213 H   0  0  0  0  0  0
  -19.6906  -25.6301   21.1231 H   0  0  0  0  0  0
  -19.6683  -27.3205   20.6751 H   0  0  0  0  0  0
  -17.4192  -26.6674   21.4026 H   0  0  0  0  0  0
  -18.0323  -26.0064   22.9016 H   0  0  0  0  0  0
  -19.7928  -30.7252   24.2294 H   0  0  0  0  0  0
  -17.5011  -31.6265   24.5167 H   0  0  0  0  0  0
  -15.5347  -30.2997   23.7636 H   0  0  0  0  0  0
  -15.8664  -28.0830   22.7051 H   0  0  0  0  0  0
  -24.5904  -30.7056   25.7812 H   0  0  0  0  0  0
  -24.8936  -32.2860   26.4936 H   0  0  0  0  0  0
  -25.8094  -30.8861   27.0222 H   0  0  0  0  0  0
  -26.2837  -29.6807   24.1141 H   0  0  0  0  0  0
  -27.4072  -29.7269   25.4537 H   0  0  0  0  0  0
  -27.8668  -30.4365   23.9231 H   0  0  0  0  0  0
  -27.2668  -33.3600   26.2093 H   0  0  0  0  0  0
  -28.3834  -32.6898   25.0291 H   0  0  0  0  0  0
  -28.0740  -31.8418   26.5364 H   0  0  0  0  0  0
  -28.2608  -38.0097   24.7501 H   0  0  0  0  0  0
  -28.1062  -36.2629   24.6300 H   0  0  0  0  0  0
  -27.2299  -37.1476   25.8869 H   0  0  0  0  0  0
  -20.9302  -29.8750   21.6943 H   0  0  0  0  0  0
  -26.0182  -38.2872   24.1402 H   0  0  0  0  0  0
  -28.0803  -19.6005   21.5503 H   0  0  0  0  0  0
  -27.9742  -17.1854   21.1288 H   0  0  0  0  0  0
  -32.3586  -19.3194   22.0075 H   0  0  0  0  0  0
  -27.4197  -23.3341   20.3287 H   0  0  0  0  0  0
  -28.4364  -23.6942   18.9386 H   0  0  0  0  0  0
  -29.9834  -21.9445   19.5112 H   0  0  0  0  0  0
  -28.4827  -21.2499   20.1080 H   0  0  0  0  0  0
  -30.1058  -24.6921   20.2968 H   0  0  0  0  0  0
  -28.4987  -24.5873   23.6424 H   0  0  0  0  0  0
  -28.8961  -22.9385   24.0465 H   0  0  0  0  0  0
  -27.6312  -23.2627   22.8731 H   0  0  0  0  0  0
  -30.9460  -25.1980   22.7588 H   0  0  0  0  0  0
  -31.8111  -23.9551   21.8699 H   0  0  0  0  0  0
  -31.3171  -23.6864   23.5381 H   0  0  0  0  0  0
  -28.9490  -26.2604   21.9891 H   0  0  0  0  0  0
  -27.4462  -25.4913   21.5534 H   0  0  0  0  0  0
  -29.0324  -15.0815   21.5050 H   0  0  0  0  0  0
  1 25  1  0  0  0
  1 30  2  0  0  0
  1 86  1  0  0  0
  2  3  1  0  0  0
  2 25  1  0  0  0
  2 89  1  0  0  0
  2 90  1  0  0  0
  3  4  1  0  0  0
  3 91  1  0  0  0
  3 92  1  0  0  0
  4  5  1  0  0  0
  4 93  1  0  0  0
  4 94  1  0  0  0
  5  6  1  0  0  0
  5 26  1  0  0  0
  5 95  1  0  0  0
  6 25  1  0  0  0
  6 96  1  0  0  0
  6 97  1  0  0  0
  7  8  2  0  0  0
  7 26  1  0  0  0
  7 29  1  0  0  0
  8  9  1  0  0  0
  8 22  1  0  0  0
  9 10  1  0  0  0
  9 27  2  0  0  0
 10 11  2  0  0  0
 10 15  1  0  0  0
 11 12  1  0  0  0
 11 98  1  0  0  0
 12 13  2  0  0  0
 12 99  1  0  0  0
 13 14  1  0  0  0
 13 31  1  0  0  0
 14 15  2  0  0  0
 14100  1  0  0  0
 15101  1  0  0  0
 16 17  2  0  0  0
 16 21  1  0  0  0
 16 31  1  0  0  0
 17 18  1  0  0  0
 17102  1  0  0  0
 18 19  2  0  0  0
 18103  1  0  0  0
 19 20  1  0  0  0
 19 24  1  0  0  0
 20 21  2  0  0  0
 20104  1  0  0  0
 21 23  1  0  0  0
 22 28  1  0  0  0
 22 32  2  0  0  0
 26 27  1  0  0  0
 28105  1  0  0  0
 28106  1  0  0  0
 29107  1  0  0  0
 29108  1  0  0  0
 33 34  1  0  0  0
 33 66  1  0  0  0
 33 70  2  0  0  0
 34 36  1  0  0  0
 34 59  1  0  0  0
 34109  1  0  0  0
 35 44  2  0  0  0
 35 45  1  0  0  0
 35 68  1  0  0  0
 36 56  1  0  0  0
 36110  1  0  0  0
 37 39  1  0  0  0
 37 47  1  0  0  0
 37 66  1  0  0  0
 37111  1  0  0  0
 38 43  2  0  0  0
 38 46  1  0  0  0
 38 47  1  0  0  0
 39 64  1  0  0  0
 39 67  2  0  0  0
 40 52  1  0  0  0
 40 53  2  0  0  0
 40 58  1  0  0  0
 41112  1  0  0  0
 41113  1  0  0  0
 41114  1  0  0  0
 41 48  1  0  0  0
 42 43  1  0  0  0
 42 66  1  0  0  0
 42115  1  0  0  0
 42116  1  0  0  0
 43 44  1  0  0  0
 44117  1  0  0  0
 45 46  2  0  0  0
 45118  1  0  0  0
 46119  1  0  0  0
 47120  1  0  0  0
 47121  1  0  0  0
 48 56  1  0  0  0
 48 65  1  0  0  0
 48122  1  0  0  0
 49 50  1  0  0  0
 49 53  1  0  0  0
 49 64  1  0  0  0
 49123  1  0  0  0
 50 51  1  0  0  0
 50124  1  0  0  0
 50125  1  0  0  0
 51 52  1  0  0  0
 51126  1  0  0  0
 51127  1  0  0  0
 52128  1  0  0  0
 52129  1  0  0  0
 53 54  1  0  0  0
 54 55  2  0  0  0
 54130  1  0  0  0
 55 57  1  0  0  0
 55131  1  0  0  0
 56 69  2  0  0  0
 57 58  2  0  0  0
 57132  1  0  0  0
 58133  1  0  0  0
 59 60  1  0  0  0
 59 61  1  0  0  0
 59 62  1  0  0  0
 60134  1  0  0  0
 60135  1  0  0  0
 60136  1  0  0  0
 61137  1  0  0  0
 61138  1  0  0  0
 61139  1  0  0  0
 62140  1  0  0  0
 62141  1  0  0  0
 62142  1  0  0  0
 63 65  1  0  0  0
 63143  1  0  0  0
 63144  1  0  0  0
 63145  1  0  0  0
 64146  1  0  0  0
 65147  1  0  0  0
 68 84  1  0  0  0
 71 72  2  0  0  0
 71 74  1  0  0  0
 71148  1  0  0  0
 72 75  1  0  0  0
 72149  1  0  0  0
 73 74  2  0  0  0
 73 76  1  0  0  0
 73150  1  0  0  0
 74 77  1  0  0  0
 75 76  2  0  0  0
 75 86  1  0  0  0
 76 88  1  0  0  0
 77 85  1  0  0  0
 77 87  2  0  0  0
 78 79  1  0  0  0
 78 80  1  0  0  0
 78151  1  0  0  0
 78152  1  0  0  0
 79 85  1  0  0  0
 79153  1  0  0  0
 79154  1  0  0  0
 80 81  1  0  0  0
 80 84  1  0  0  0
 80155  1  0  0  0
 81 82  1  0  0  0
 81 83  1  0  0  0
 81 85  1  0  0  0
 82156  1  0  0  0
 82157  1  0  0  0
 82158  1  0  0  0
 83159  1  0  0  0
 83160  1  0  0  0
 83161  1  0  0  0
 84162  1  0  0  0
 84163  1  0  0  0
 86164  1  0  0  0
M  ISO  4   1 100  68 101  84 101  86 100
M  END
> <chiral flag>
0

> <version>
0

> <s_m_source_file>
/data/baiqing/PycharmProjects/Reinvent-master-3.2/result/LINK_invent/BTK/process_docking_weight1_custom_product_contain_oxygen_bond_distance_aromatic_linkinvent_7_9_3/rearranged_h_0102.sdf

> <i_m_source_file_index>
90

> <r_mmod_Potential_Energy-OPLS-2005>
138.971832275391

> <r_mmod_Stretch_Energy-OPLS-2005>
45.6926651000977

> <r_mmod_Bend_Energy-OPLS-2005>
132.322326660156

> <r_mmod_Torsional_Energy-OPLS-2005>
358.02294921875

> <r_mmod_Improper_Torsional_Energy-OPLS-2005>
5.70859146118164

> <r_mmod_Van_der_Waal_Energy-OPLS-2005>
154.792053222656

> <r_mmod_Electrostatic_Energy-OPLS-2005>
-349.325042724609

> <r_mmod_Solvation_Energy-OPLS-2005>
-220.624160766602

> <b_mmod_Minimization_Converged-OPLS-2005>
0

> <r_mmod_RMS_Derivative-OPLS-2005>
0.448026746511459

$$$$
91
                    3D
 Structure written by MMmdl.
164173  0  0  1  0            999 V2000
  -30.5658  -14.9357   20.3222 C   0  0  0  0  0  0
  -30.4556  -12.5541   19.4715 C   0  0  0  0  0  0
  -29.5257  -12.3905   18.2477 C   0  0  0  0  0  0
  -28.0458  -12.2648   18.6674 C   0  0  0  0  0  0
  -27.6301  -13.2250   19.8151 C   0  0  2  0  0  0
  -28.6884  -13.2952   20.9313 C   0  0  0  0  0  0
  -25.2526  -13.8146   20.5779 C   0  0  0  0  0  0
  -24.1798  -13.0401   20.9225 C   0  0  0  0  0  0
  -24.6390  -11.6885   20.8757 C   0  0  0  0  0  0
  -23.9065  -10.4275   21.0407 C   0  0  0  0  0  0
  -24.3621   -9.4192   21.9186 C   0  0  0  0  0  0
  -23.6302   -8.2226   22.0759 C   0  0  0  0  0  0
  -22.4278   -8.0272   21.3552 C   0  0  0  0  0  0
  -21.9915   -9.0241   20.4649 C   0  0  0  0  0  0
  -22.7237  -10.2120   20.3054 C   0  0  0  0  0  0
  -21.6849   -6.0732   22.5285 C   0  0  0  0  0  0
  -21.4002   -6.5643   23.8216 C   0  0  0  0  0  0
  -21.3664   -5.6798   24.9183 C   0  0  0  0  0  0
  -21.6043   -4.3061   24.7225 C   0  0  0  0  0  0
  -21.8823   -3.8152   23.4348 C   0  0  0  0  0  0
  -21.9195   -4.6964   22.3405 C   0  0  0  0  0  0
  -22.7825  -13.5207   21.1860 C   0  0  0  0  0  0
  -22.1659   -4.2154   21.0979 F   0  0  0  0  0  0
  -21.5634   -3.4543   25.7737 F   0  0  0  0  0  0
  -29.9489  -13.6856   20.2890 N   0  0  0  0  0  0
  -26.2925  -12.9345   20.3243 N   0  0  0  0  0  0
  -25.9321  -11.6502   20.5763 N   0  0  0  0  0  0
  -22.0451  -12.8221   22.0414 N   0  0  0  0  0  0
  -25.4224  -15.1871   20.4346 N   0  0  0  0  0  0
  -31.8010  -14.9436   20.3010 O   0  0  0  0  0  0
  -21.6629   -6.8876   21.4248 O   0  0  0  0  0  0
  -22.3524  -14.5518   20.6708 O   0  0  0  0  0  0
  -24.6411  -31.8446   23.1876 C   0  0  0  0  0  0
  -25.9191  -32.4706   23.8266 C   0  0  1  0  0  0
  -27.2216  -27.1531   20.1507 C   0  0  0  0  0  0
  -25.5944  -33.8512   24.2186 N   0  0  0  0  0  0
  -23.4454  -30.4643   21.5315 C   0  0  2  0  0  0
  -24.8973  -28.8958   20.1082 C   0  0  0  0  0  0
  -22.7566  -29.4547   22.4840 C   0  0  0  0  0  0
  -18.0298  -28.1409   22.8473 C   0  0  0  0  0  0
  -24.1487  -36.7247   23.2642 C   0  0  0  0  0  0
  -26.0024  -30.7253   21.3855 C   0  0  0  0  0  0
  -26.0739  -29.3375   20.7280 C   0  0  0  0  0  0
  -27.2373  -28.4828   20.7324 C   0  0  0  0  0  0
  -26.0192  -26.8121   19.4893 C   0  0  0  0  0  0
  -24.8820  -27.6462   19.4740 C   0  0  0  0  0  0
  -23.6722  -29.7945   20.1508 C   0  0  0  0  0  0
  -25.4126  -36.3042   24.0316 C   0  0  1  0  0  0
  -20.5912  -28.3724   23.1237 C   0  0  2  0  0  0
  -20.6793  -26.9427   22.5399 C   0  0  0  0  0  0
  -19.5766  -26.6383   21.5213 C   0  0  0  0  0  0
  -18.1943  -26.7948   22.1614 C   0  0  0  0  0  0
  -19.1551  -28.8887   23.2844 C   0  0  0  0  0  0
  -18.9468  -30.1479   23.8873 C   0  0  0  0  0  0
  -17.6467  -30.6605   24.0558 C   0  0  0  0  0  0
  -25.9071  -34.9420   23.5057 C   0  0  0  0  0  0
  -16.5362  -29.9096   23.6344 C   0  0  0  0  0  0
  -16.7277  -28.6516   23.0361 C   0  0  0  0  0  0
  -26.4522  -31.6573   25.0706 C   0  0  0  0  0  0
  -25.3711  -31.3761   26.1404 C   0  0  0  0  0  0
  -27.0395  -30.2979   24.6289 C   0  0  0  0  0  0
  -27.6054  -32.4341   25.7487 C   0  0  0  0  0  0
  -27.5576  -37.1786   24.8469 C   0  0  0  0  0  0
  -21.4252  -29.3050   22.3605 N   0  0  0  0  0  0
  -26.4282  -37.3762   23.9417 N   0  0  0  0  0  0
  -24.7159  -31.0324   22.0899 N   0  0  0  0  0  0
  -23.4218  -28.8086   23.2965 O   0  0  0  0  0  0
  -28.2764  -26.1751   20.2234 O   0  0  0  0  0  0
  -26.5635  -34.8921   22.4632 O   0  0  0  0  0  0
  -23.5531  -32.1286   23.7106 O   0  0  0  0  0  0
  -28.1061  -19.5419   19.6069 C   0  0  0  0  0  0
  -30.0872  -19.8834   20.8199 C   0  0  0  0  0  0
  -28.3907  -18.1345   19.4892 C   0  0  0  0  0  0
  -28.9155  -20.5128   20.2645 C   0  0  0  0  0  0
  -29.5566  -17.4881   20.0510 C   0  0  0  0  0  0
  -30.3935  -18.4522   20.7252 C   0  0  0  0  0  0
  -28.8353  -23.2396   22.9849 C   0  0  0  0  0  0
  -27.9455  -21.9971   22.8948 C   0  0  0  0  0  0
  -29.7187  -23.5495   21.7725 C   0  0  0  0  0  0
  -27.3487  -21.7924   21.4883 C   0  0  0  0  0  0
  -28.9781  -23.3306   20.4363 C   0  0  2  0  0  0
  -27.3785  -17.3499   18.6707 C   0  0  0  0  0  0
  -30.0017  -15.8883   18.2308 C   0  0  0  0  0  0
  -27.9654  -24.6554   20.1504 C   0  0  0  0  0  0
  -28.3781  -21.8910   20.4463 N   0  0  0  0  0  0
  -29.8865  -16.0255   19.7002 N   0  0  0  0  0  0
  -28.8877  -23.9208   24.0127 O   0  0  0  0  0  0
  -31.5536  -18.0175   21.2731 F   0  0  0  0  0  0
  -31.4800  -12.7235   19.1338 H   0  0  0  0  0  0
  -30.4793  -11.6363   20.0612 H   0  0  0  0  0  0
  -29.8131  -11.4892   17.7025 H   0  0  0  0  0  0
  -29.6660  -13.2025   17.5388 H   0  0  0  0  0  0
  -27.9018  -11.2346   18.9929 H   0  0  0  0  0  0
  -27.3946  -12.3927   17.8025 H   0  0  0  0  0  0
  -27.5807  -14.2083   19.3584 H   0  0  0  0  0  0
  -28.7871  -12.3367   21.4446 H   0  0  0  0  0  0
  -28.4021  -14.0338   21.6805 H   0  0  0  0  0  0
  -25.2759   -9.5671   22.4765 H   0  0  0  0  0  0
  -24.0014   -7.4617   22.7479 H   0  0  0  0  0  0
  -21.0847   -8.8761   19.8959 H   0  0  0  0  0  0
  -22.3699  -10.9665   19.6171 H   0  0  0  0  0  0
  -21.1979   -7.6145   23.9725 H   0  0  0  0  0  0
  -21.1487   -6.0519   25.9090 H   0  0  0  0  0  0
  -22.0599   -2.7608   23.2842 H   0  0  0  0  0  0
  -22.4034  -11.9890   22.4851 H   0  0  0  0  0  0
  -21.1062  -13.1269   22.2559 H   0  0  0  0  0  0
  -24.6642  -15.8436   20.5788 H   0  0  0  0  0  0
  -26.3003  -15.6364   20.2175 H   0  0  0  0  0  0
  -26.7269  -32.5329   23.1002 H   0  0  0  0  0  0
  -25.0155  -33.9642   25.0378 H   0  0  0  0  0  0
  -22.7478  -31.2893   21.3771 H   0  0  0  0  0  0
  -23.3768  -35.9562   23.3297 H   0  0  0  0  0  0
  -24.3568  -36.8866   22.2057 H   0  0  0  0  0  0
  -23.7224  -37.6435   23.6675 H   0  0  0  0  0  0
  -26.1613  -31.4823   20.6160 H   0  0  0  0  0  0
  -26.8736  -30.7718   22.0262 H   0  0  0  0  0  0
  -28.1336  -28.8145   21.2394 H   0  0  0  0  0  0
  -25.9255  -25.8602   18.9903 H   0  0  0  0  0  0
  -23.9847  -27.3064   18.9745 H   0  0  0  0  0  0
  -23.8050  -30.5677   19.3927 H   0  0  0  0  0  0
  -22.7902  -29.2301   19.8417 H   0  0  0  0  0  0
  -25.1325  -36.1852   25.0806 H   0  0  0  0  0  0
  -21.0009  -28.3313   24.1349 H   0  0  0  0  0  0
  -20.5700  -26.2335   23.3612 H   0  0  0  0  0  0
  -21.6664  -26.7441   22.1186 H   0  0  0  0  0  0
  -19.6917  -25.6280   21.1254 H   0  0  0  0  0  0
  -19.6718  -27.3194   20.6744 H   0  0  0  0  0  0
  -17.4215  -26.6678   21.4007 H   0  0  0  0  0  0
  -18.0333  -26.0110   22.9026 H   0  0  0  0  0  0
  -19.7941  -30.7301   24.2237 H   0  0  0  0  0  0
  -17.5020  -31.6289   24.5151 H   0  0  0  0  0  0
  -15.5358  -30.2993   23.7704 H   0  0  0  0  0  0
  -15.8666  -28.0835   22.7103 H   0  0  0  0  0  0
  -24.5899  -30.7100   25.7716 H   0  0  0  0  0  0
  -24.8905  -32.2954   26.4767 H   0  0  0  0  0  0
  -25.8006  -30.8962   27.0210 H   0  0  0  0  0  0
  -26.3015  -29.6701   24.1296 H   0  0  0  0  0  0
  -27.4008  -29.7286   25.4860 H   0  0  0  0  0  0
  -27.8921  -30.4228   23.9622 H   0  0  0  0  0  0
  -27.2648  -33.3660   26.2024 H   0  0  0  0  0  0
  -28.3899  -32.6866   25.0336 H   0  0  0  0  0  0
  -28.0708  -31.8494   26.5432 H   0  0  0  0  0  0
  -28.2596  -38.0083   24.7540 H   0  0  0  0  0  0
  -28.1061  -36.2613   24.6272 H   0  0  0  0  0  0
  -27.2292  -37.1422   25.8870 H   0  0  0  0  0  0
  -20.9446  -29.8736   21.6785 H   0  0  0  0  0  0
  -26.0131  -38.2815   24.1440 H   0  0  0  0  0  0
  -27.1885  -19.9024   19.1620 H   0  0  0  0  0  0
  -30.7817  -20.5023   21.3641 H   0  0  0  0  0  0
  -27.1472  -22.0651   23.6334 H   0  0  0  0  0  0
  -28.5535  -21.1336   23.1673 H   0  0  0  0  0  0
  -30.5984  -22.9062   21.8248 H   0  0  0  0  0  0
  -30.0808  -24.5754   21.8407 H   0  0  0  0  0  0
  -26.5629  -22.5225   21.3033 H   0  0  0  0  0  0
  -26.8275  -20.8341   21.4661 H   0  0  0  0  0  0
  -29.7336  -23.3357   19.6502 H   0  0  0  0  0  0
  -26.3673  -17.7328   18.8072 H   0  0  0  0  0  0
  -27.3637  -16.3017   18.9419 H   0  0  0  0  0  0
  -27.6232  -17.4223   17.6112 H   0  0  0  0  0  0
  -30.9427  -15.4406   17.9021 H   0  0  0  0  0  0
  -29.9583  -16.8505   17.7210 H   0  0  0  0  0  0
  -29.1835  -15.2892   17.8373 H   0  0  0  0  0  0
  -27.1031  -24.5393   20.8068 H   0  0  0  0  0  0
  -27.5827  -24.4818   19.1456 H   0  0  0  0  0  0
  1 25  1  0  0  0
  1 30  2  0  0  0
  1 86  1  0  0  0
  2  3  1  0  0  0
  2 25  1  0  0  0
  2 89  1  0  0  0
  2 90  1  0  0  0
  3  4  1  0  0  0
  3 91  1  0  0  0
  3 92  1  0  0  0
  4  5  1  0  0  0
  4 93  1  0  0  0
  4 94  1  0  0  0
  5  6  1  0  0  0
  5 26  1  0  0  0
  5 95  1  0  0  0
  6 25  1  0  0  0
  6 96  1  0  0  0
  6 97  1  0  0  0
  7  8  2  0  0  0
  7 26  1  0  0  0
  7 29  1  0  0  0
  8  9  1  0  0  0
  8 22  1  0  0  0
  9 10  1  0  0  0
  9 27  2  0  0  0
 10 11  2  0  0  0
 10 15  1  0  0  0
 11 12  1  0  0  0
 11 98  1  0  0  0
 12 13  2  0  0  0
 12 99  1  0  0  0
 13 14  1  0  0  0
 13 31  1  0  0  0
 14 15  2  0  0  0
 14100  1  0  0  0
 15101  1  0  0  0
 16 17  2  0  0  0
 16 21  1  0  0  0
 16 31  1  0  0  0
 17 18  1  0  0  0
 17102  1  0  0  0
 18 19  2  0  0  0
 18103  1  0  0  0
 19 20  1  0  0  0
 19 24  1  0  0  0
 20 21  2  0  0  0
 20104  1  0  0  0
 21 23  1  0  0  0
 22 28  1  0  0  0
 22 32  2  0  0  0
 26 27  1  0  0  0
 28105  1  0  0  0
 28106  1  0  0  0
 29107  1  0  0  0
 29108  1  0  0  0
 33 34  1  0  0  0
 33 66  1  0  0  0
 33 70  2  0  0  0
 34 36  1  0  0  0
 34 59  1  0  0  0
 34109  1  0  0  0
 35 44  2  0  0  0
 35 45  1  0  0  0
 35 68  1  0  0  0
 36 56  1  0  0  0
 36110  1  0  0  0
 37 39  1  0  0  0
 37 47  1  0  0  0
 37 66  1  0  0  0
 37111  1  0  0  0
 38 43  2  0  0  0
 38 46  1  0  0  0
 38 47  1  0  0  0
 39 64  1  0  0  0
 39 67  2  0  0  0
 40 52  1  0  0  0
 40 53  2  0  0  0
 40 58  1  0  0  0
 41112  1  0  0  0
 41113  1  0  0  0
 41114  1  0  0  0
 41 48  1  0  0  0
 42 43  1  0  0  0
 42 66  1  0  0  0
 42115  1  0  0  0
 42116  1  0  0  0
 43 44  1  0  0  0
 44117  1  0  0  0
 45 46  2  0  0  0
 45118  1  0  0  0
 46119  1  0  0  0
 47120  1  0  0  0
 47121  1  0  0  0
 48 56  1  0  0  0
 48 65  1  0  0  0
 48122  1  0  0  0
 49 50  1  0  0  0
 49 53  1  0  0  0
 49 64  1  0  0  0
 49123  1  0  0  0
 50 51  1  0  0  0
 50124  1  0  0  0
 50125  1  0  0  0
 51 52  1  0  0  0
 51126  1  0  0  0
 51127  1  0  0  0
 52128  1  0  0  0
 52129  1  0  0  0
 53 54  1  0  0  0
 54 55  2  0  0  0
 54130  1  0  0  0
 55 57  1  0  0  0
 55131  1  0  0  0
 56 69  2  0  0  0
 57 58  2  0  0  0
 57132  1  0  0  0
 58133  1  0  0  0
 59 60  1  0  0  0
 59 61  1  0  0  0
 59 62  1  0  0  0
 60134  1  0  0  0
 60135  1  0  0  0
 60136  1  0  0  0
 61137  1  0  0  0
 61138  1  0  0  0
 61139  1  0  0  0
 62140  1  0  0  0
 62141  1  0  0  0
 62142  1  0  0  0
 63 65  1  0  0  0
 63143  1  0  0  0
 63144  1  0  0  0
 63145  1  0  0  0
 64146  1  0  0  0
 65147  1  0  0  0
 68 84  1  0  0  0
 71 73  2  0  0  0
 71 74  1  0  0  0
 71148  1  0  0  0
 72 74  2  0  0  0
 72 76  1  0  0  0
 72149  1  0  0  0
 73 75  1  0  0  0
 73 82  1  0  0  0
 74 85  1  0  0  0
 75 76  2  0  0  0
 75 86  1  0  0  0
 76 88  1  0  0  0
 77 78  1  0  0  0
 77 79  1  0  0  0
 77 87  2  0  0  0
 78 80  1  0  0  0
 78150  1  0  0  0
 78151  1  0  0  0
 79 81  1  0  0  0
 79152  1  0  0  0
 79153  1  0  0  0
 80 85  1  0  0  0
 80154  1  0  0  0
 80155  1  0  0  0
 81 84  1  0  0  0
 81 85  1  0  0  0
 81156  1  0  0  0
 82157  1  0  0  0
 82158  1  0  0  0
 82159  1  0  0  0
 83 86  1  0  0  0
 83160  1  0  0  0
 83161  1  0  0  0
 83162  1  0  0  0
 84163  1  0  0  0
 84164  1  0  0  0
M  ISO  4   1 100  68 101  84 101  86 100
M  END
> <chiral flag>
0

> <version>
0

> <s_m_source_file>
/data/baiqing/PycharmProjects/Reinvent-master-3.2/result/LINK_invent/BTK/process_docking_weight1_custom_product_contain_oxygen_bond_distance_aromatic_linkinvent_7_9_3/rearranged_h_0102.sdf

> <i_m_source_file_index>
91

> <r_mmod_Potential_Energy-OPLS-2005>
641.275390625

> <r_mmod_Stretch_Energy-OPLS-2005>
228.123886108398

> <r_mmod_Bend_Energy-OPLS-2005>
286.691711425781

> <r_mmod_Torsional_Energy-OPLS-2005>
321.56982421875

> <r_mmod_Improper_Torsional_Energy-OPLS-2005>
34.4341468811035

> <r_mmod_Van_der_Waal_Energy-OPLS-2005>
150.541458129883

> <r_mmod_Electrostatic_Energy-OPLS-2005>
-351.740539550781

> <r_mmod_Solvation_Energy-OPLS-2005>
-222.916625976562

> <b_mmod_Minimization_Converged-OPLS-2005>
0

> <r_mmod_RMS_Derivative-OPLS-2005>
2.87009811401367

$$$$
92
                    3D
 Structure written by MMmdl.
156164  0  0  1  0            999 V2000
  -30.5754  -14.7735   20.5616 C   0  0  0  0  0  0
  -30.4575  -12.4904   19.4772 C   0  0  0  0  0  0
  -29.5234  -12.5105   18.2421 C   0  0  0  0  0  0
  -28.0530  -12.2892   18.6512 C   0  0  0  0  0  0
  -27.6419  -13.1855   19.8411 C   0  0  2  0  0  0
  -28.6846  -13.1040   20.9845 C   0  0  0  0  0  0
  -25.2586  -13.8044   20.5645 C   0  0  0  0  0  0
  -24.1843  -13.0394   20.9273 C   0  0  0  0  0  0
  -24.6347  -11.6843   20.8765 C   0  0  0  0  0  0
  -23.9005  -10.4258   21.0432 C   0  0  0  0  0  0
  -24.3579   -9.4179   21.9198 C   0  0  0  0  0  0
  -23.6268   -8.2209   22.0752 C   0  0  0  0  0  0
  -22.4252   -8.0252   21.3538 C   0  0  0  0  0  0
  -21.9877   -9.0223   20.4650 C   0  0  0  0  0  0
  -22.7189  -10.2112   20.3073 C   0  0  0  0  0  0
  -21.6838   -6.0720   22.5275 C   0  0  0  0  0  0
  -21.4001   -6.5629   23.8207 C   0  0  0  0  0  0
  -21.3657   -5.6786   24.9170 C   0  0  0  0  0  0
  -21.6042   -4.3048   24.7223 C   0  0  0  0  0  0
  -21.8827   -3.8140   23.4346 C   0  0  0  0  0  0
  -21.9192   -4.6951   22.3399 C   0  0  0  0  0  0
  -22.7886  -13.5249   21.1921 C   0  0  0  0  0  0
  -22.1662   -4.2138   21.0978 F   0  0  0  0  0  0
  -21.5634   -3.4534   25.7737 F   0  0  0  0  0  0
  -29.9846  -13.5244   20.4352 N   0  0  0  0  0  0
  -26.2900  -12.9138   20.3121 N   0  0  0  0  0  0
  -25.9240  -11.6355   20.5685 N   0  0  0  0  0  0
  -22.0473  -12.8237   22.0426 N   0  0  0  0  0  0
  -25.4492  -15.1743   20.3969 N   0  0  0  0  0  0
  -31.7125  -14.9174   20.0960 O   0  0  0  0  0  0
  -21.6621   -6.8854   21.4232 O   0  0  0  0  0  0
  -22.3657  -14.5586   20.6765 O   0  0  0  0  0  0
  -24.6276  -31.8567   23.1980 C   0  0  0  0  0  0
  -25.9107  -32.4763   23.8328 C   0  0  1  0  0  0
  -27.2321  -27.2859   20.1514 C   0  0  0  0  0  0
  -25.5909  -33.8569   24.2244 N   0  0  0  0  0  0
  -23.4244  -30.4784   21.5394 C   0  0  2  0  0  0
  -24.8741  -28.9160   20.1194 C   0  0  0  0  0  0
  -22.7495  -29.4618   22.4920 C   0  0  0  0  0  0
  -18.0291  -28.1397   22.8513 C   0  0  0  0  0  0
  -24.1472  -36.7265   23.2645 C   0  0  0  0  0  0
  -25.9653  -30.7806   21.3706 C   0  0  0  0  0  0
  -26.0414  -29.3990   20.7251 C   0  0  0  0  0  0
  -27.2243  -28.5979   20.7252 C   0  0  0  0  0  0
  -26.0426  -26.8558   19.5257 C   0  0  0  0  0  0
  -24.8763  -27.6503   19.5105 C   0  0  0  0  0  0
  -23.6429  -29.8038   20.1591 C   0  0  0  0  0  0
  -25.4102  -36.3065   24.0333 C   0  0  1  0  0  0
  -20.5897  -28.3692   23.1290 C   0  0  2  0  0  0
  -20.6775  -26.9412   22.5420 C   0  0  0  0  0  0
  -19.5741  -26.6394   21.5234 C   0  0  0  0  0  0
  -18.1920  -26.7951   22.1642 C   0  0  0  0  0  0
  -19.1546  -28.8867   23.2898 C   0  0  0  0  0  0
  -18.9477  -30.1476   23.8899 C   0  0  0  0  0  0
  -17.6475  -30.6604   24.0584 C   0  0  0  0  0  0
  -25.9054  -34.9445   23.5092 C   0  0  0  0  0  0
  -16.5362  -29.9110   23.6350 C   0  0  0  0  0  0
  -16.7280  -28.6527   23.0363 C   0  0  0  0  0  0
  -26.4484  -31.6587   25.0706 C   0  0  0  0  0  0
  -25.3710  -31.3765   26.1427 C   0  0  0  0  0  0
  -27.0321  -30.3012   24.6162 C   0  0  0  0  0  0
  -27.6025  -32.4327   25.7483 C   0  0  0  0  0  0
  -27.5563  -37.1783   24.8470 C   0  0  0  0  0  0
  -21.4202  -29.3035   22.3676 N   0  0  0  0  0  0
  -26.4263  -37.3767   23.9425 N   0  0  0  0  0  0
  -24.6906  -31.0571   22.0933 N   0  0  0  0  0  0
  -23.4207  -28.8167   23.3017 O   0  0  0  0  0  0
  -28.3697  -26.4565   20.1084 O   0  0  0  0  0  0
  -26.5631  -34.8925   22.4667 O   0  0  0  0  0  0
  -23.5440  -32.1351   23.7312 O   0  0  0  0  0  0
  -32.0200  -19.2353   21.9244 C   0  0  0  0  0  0
  -31.2535  -20.3113   21.4377 C   0  0  0  0  0  0
  -29.6571  -18.6900   20.6269 C   0  0  0  0  0  0
  -31.6037  -17.8866   21.8099 C   0  0  0  0  0  0
  -30.3899  -17.5306   21.1472 C   0  0  0  0  0  0
  -30.0307  -20.0840   20.7767 C   0  0  0  0  0  0
  -29.2233  -22.4329   20.6597 C   0  0  0  0  0  0
  -28.5752  -23.7243   19.9900 C   0  0  0  0  0  0
  -32.4972  -16.8450   22.4718 C   0  0  0  0  0  0
  -28.4053  -25.1116   20.7790 C   0  0  0  0  0  0
  -29.7968  -16.0520   21.2237 C   0  0  1  0  0  0
  -29.2605  -21.1856   20.2228 N   0  0  0  0  0  0
  -28.3703  -16.1229   20.8784 N   0  3  0  0  0  0
  -28.1842  -23.6589   18.8132 O   0  0  0  0  0  0
  -31.4887  -12.6583   19.1631 H   0  0  0  0  0  0
  -30.4529  -11.5062   19.9482 H   0  0  0  0  0  0
  -29.8309  -11.7462   17.5278 H   0  0  0  0  0  0
  -29.6196  -13.4658   17.7243 H   0  0  0  0  0  0
  -27.9372  -11.2402   18.9267 H   0  0  0  0  0  0
  -27.3907  -12.4556   17.8008 H   0  0  0  0  0  0
  -27.6322  -14.1876   19.4229 H   0  0  0  0  0  0
  -28.7479  -12.0812   21.3607 H   0  0  0  0  0  0
  -28.3905  -13.6963   21.8505 H   0  0  0  0  0  0
  -25.2726   -9.5654   22.4765 H   0  0  0  0  0  0
  -23.9988   -7.4591   22.7451 H   0  0  0  0  0  0
  -21.0816   -8.8734   19.8944 H   0  0  0  0  0  0
  -22.3649  -10.9654   19.6185 H   0  0  0  0  0  0
  -21.1981   -7.6136   23.9702 H   0  0  0  0  0  0
  -21.1471   -6.0517   25.9072 H   0  0  0  0  0  0
  -22.0611   -2.7602   23.2844 H   0  0  0  0  0  0
  -22.4050  -11.9875   22.4798 H   0  0  0  0  0  0
  -21.1097  -13.1289   22.2619 H   0  0  0  0  0  0
  -24.5887  -15.6832   20.5746 H   0  0  0  0  0  0
  -25.7387  -15.3879   19.4489 H   0  0  0  0  0  0
  -26.7182  -32.5417   23.1090 H   0  0  0  0  0  0
  -25.0025  -33.9692   25.0374 H   0  0  0  0  0  0
  -22.7203  -31.2996   21.3919 H   0  0  0  0  0  0
  -23.3722  -35.9605   23.3317 H   0  0  0  0  0  0
  -24.3583  -36.8877   22.2061 H   0  0  0  0  0  0
  -23.7233  -37.6475   23.6667 H   0  0  0  0  0  0
  -26.0942  -31.5375   20.5956 H   0  0  0  0  0  0
  -26.8475  -30.8387   21.9955 H   0  0  0  0  0  0
  -28.1255  -28.9771   21.1878 H   0  0  0  0  0  0
  -26.0112  -25.8916   19.0402 H   0  0  0  0  0  0
  -23.9837  -27.2752   19.0297 H   0  0  0  0  0  0
  -23.7652  -30.5769   19.3994 H   0  0  0  0  0  0
  -22.7617  -29.2353   19.8557 H   0  0  0  0  0  0
  -25.1296  -36.1891   25.0823 H   0  0  0  0  0  0
  -21.0003  -28.3257   24.1405 H   0  0  0  0  0  0
  -20.5679  -26.2302   23.3627 H   0  0  0  0  0  0
  -21.6639  -26.7437   22.1199 H   0  0  0  0  0  0
  -19.6894  -25.6311   21.1249 H   0  0  0  0  0  0
  -19.6671  -27.3227   20.6794 H   0  0  0  0  0  0
  -17.4198  -26.6714   21.4033 H   0  0  0  0  0  0
  -18.0288  -26.0097   22.9039 H   0  0  0  0  0  0
  -19.7956  -30.7304   24.2215 H   0  0  0  0  0  0
  -17.5039  -31.6283   24.5190 H   0  0  0  0  0  0
  -15.5358  -30.3015   23.7686 H   0  0  0  0  0  0
  -15.8680  -28.0871   22.7041 H   0  0  0  0  0  0
  -24.5876  -30.7122   25.7782 H   0  0  0  0  0  0
  -24.8898  -32.2942   26.4812 H   0  0  0  0  0  0
  -25.8014  -30.8983   27.0229 H   0  0  0  0  0  0
  -26.2905  -29.6768   24.1167 H   0  0  0  0  0  0
  -27.4007  -29.7276   25.4675 H   0  0  0  0  0  0
  -27.8783  -30.4309   23.9409 H   0  0  0  0  0  0
  -27.2628  -33.3641   26.2029 H   0  0  0  0  0  0
  -28.3852  -32.6862   25.0320 H   0  0  0  0  0  0
  -28.0662  -31.8460   26.5421 H   0  0  0  0  0  0
  -28.2577  -38.0084   24.7514 H   0  0  0  0  0  0
  -28.1049  -36.2610   24.6277 H   0  0  0  0  0  0
  -27.2291  -37.1426   25.8876 H   0  0  0  0  0  0
  -20.9369  -29.8745   21.6878 H   0  0  0  0  0  0
  -26.0125  -38.2825   24.1449 H   0  0  0  0  0  0
  -32.9500  -19.4672   22.4276 H   0  0  0  0  0  0
  -31.6389  -21.3136   21.5703 H   0  0  0  0  0  0
  -28.7200  -18.5304   20.1157 H   0  0  0  0  0  0
  -29.7090  -22.6505   21.6147 H   0  0  0  0  0  0
  -33.1702  -17.3058   23.1955 H   0  0  0  0  0  0
  -33.1194  -16.3500   21.7279 H   0  0  0  0  0  0
  -31.9306  -16.0891   23.0130 H   0  0  0  0  0  0
  -29.4204  -25.0777   20.3819 H   0  0  0  0  0  0
  -27.3856  -24.8880   20.4745 H   0  0  0  0  0  0
  -29.7804  -15.7918   22.2828 H   0  0  0  0  0  0
  -28.2680  -16.3370   19.9027 H   0  0  0  0  0  0
  -27.9324  -16.8480   21.4175 H   0  0  0  0  0  0
  -27.8963  -15.2617   21.0848 H   0  0  0  0  0  0
  1 25  1  0  0  0
  1 30  2  0  0  0
  1 81  1  0  0  0
  2  3  1  0  0  0
  2 25  1  0  0  0
  2 85  1  0  0  0
  2 86  1  0  0  0
  3  4  1  0  0  0
  3 87  1  0  0  0
  3 88  1  0  0  0
  4  5  1  0  0  0
  4 89  1  0  0  0
  4 90  1  0  0  0
  5  6  1  0  0  0
  5 26  1  0  0  0
  5 91  1  0  0  0
  6 25  1  0  0  0
  6 92  1  0  0  0
  6 93  1  0  0  0
  7  8  2  0  0  0
  7 26  1  0  0  0
  7 29  1  0  0  0
  8  9  1  0  0  0
  8 22  1  0  0  0
  9 10  1  0  0  0
  9 27  2  0  0  0
 10 11  2  0  0  0
 10 15  1  0  0  0
 11 12  1  0  0  0
 11 94  1  0  0  0
 12 13  2  0  0  0
 12 95  1  0  0  0
 13 14  1  0  0  0
 13 31  1  0  0  0
 14 15  2  0  0  0
 14 96  1  0  0  0
 15 97  1  0  0  0
 16 17  2  0  0  0
 16 21  1  0  0  0
 16 31  1  0  0  0
 17 18  1  0  0  0
 17 98  1  0  0  0
 18 19  2  0  0  0
 18 99  1  0  0  0
 19 20  1  0  0  0
 19 24  1  0  0  0
 20 21  2  0  0  0
 20100  1  0  0  0
 21 23  1  0  0  0
 22 28  1  0  0  0
 22 32  2  0  0  0
 26 27  1  0  0  0
 28101  1  0  0  0
 28102  1  0  0  0
 29103  1  0  0  0
 29104  1  0  0  0
 33 34  1  0  0  0
 33 66  1  0  0  0
 33 70  2  0  0  0
 34 36  1  0  0  0
 34 59  1  0  0  0
 34105  1  0  0  0
 35 44  2  0  0  0
 35 45  1  0  0  0
 35 68  1  0  0  0
 36 56  1  0  0  0
 36106  1  0  0  0
 37 39  1  0  0  0
 37 47  1  0  0  0
 37 66  1  0  0  0
 37107  1  0  0  0
 38 43  2  0  0  0
 38 46  1  0  0  0
 38 47  1  0  0  0
 39 64  1  0  0  0
 39 67  2  0  0  0
 40 52  1  0  0  0
 40 53  2  0  0  0
 40 58  1  0  0  0
 41108  1  0  0  0
 41109  1  0  0  0
 41110  1  0  0  0
 41 48  1  0  0  0
 42 43  1  0  0  0
 42 66  1  0  0  0
 42111  1  0  0  0
 42112  1  0  0  0
 43 44  1  0  0  0
 44113  1  0  0  0
 45 46  2  0  0  0
 45114  1  0  0  0
 46115  1  0  0  0
 47116  1  0  0  0
 47117  1  0  0  0
 48 56  1  0  0  0
 48 65  1  0  0  0
 48118  1  0  0  0
 49 50  1  0  0  0
 49 53  1  0  0  0
 49 64  1  0  0  0
 49119  1  0  0  0
 50 51  1  0  0  0
 50120  1  0  0  0
 50121  1  0  0  0
 51 52  1  0  0  0
 51122  1  0  0  0
 51123  1  0  0  0
 52124  1  0  0  0
 52125  1  0  0  0
 53 54  1  0  0  0
 54 55  2  0  0  0
 54126  1  0  0  0
 55 57  1  0  0  0
 55127  1  0  0  0
 56 69  2  0  0  0
 57 58  2  0  0  0
 57128  1  0  0  0
 58129  1  0  0  0
 59 60  1  0  0  0
 59 61  1  0  0  0
 59 62  1  0  0  0
 60130  1  0  0  0
 60131  1  0  0  0
 60132  1  0  0  0
 61133  1  0  0  0
 61134  1  0  0  0
 61135  1  0  0  0
 62136  1  0  0  0
 62137  1  0  0  0
 62138  1  0  0  0
 63 65  1  0  0  0
 63139  1  0  0  0
 63140  1  0  0  0
 63141  1  0  0  0
 64142  1  0  0  0
 65143  1  0  0  0
 68 80  1  0  0  0
 71 72  2  0  0  0
 71 74  1  0  0  0
 71144  1  0  0  0
 72 76  1  0  0  0
 72145  1  0  0  0
 73 75  1  0  0  0
 73 76  2  0  0  0
 73146  1  0  0  0
 74 75  2  0  0  0
 74 79  1  0  0  0
 75 81  1  0  0  0
 76 82  1  0  0  0
 77 78  1  0  0  0
 77 82  2  0  0  0
 77147  1  0  0  0
 78 80  1  0  0  0
 78 84  2  0  0  0
 79148  1  0  0  0
 79149  1  0  0  0
 79150  1  0  0  0
 80151  1  0  0  0
 80152  1  0  0  0
 81 83  1  0  0  0
 81153  1  0  0  0
 83154  1  0  0  0
 83155  1  0  0  0
 83156  1  0  0  0
M  CHG  1  83   1
M  ISO  4   1 100  68 101  80 101  81 100
M  END
> <chiral flag>
0

> <version>
0

> <s_m_source_file>
/data/baiqing/PycharmProjects/Reinvent-master-3.2/result/LINK_invent/BTK/process_docking_weight1_custom_product_contain_oxygen_bond_distance_aromatic_linkinvent_7_9_3/rearranged_h_0102.sdf

> <i_m_source_file_index>
92

> <r_mmod_Potential_Energy-OPLS-2005>
192.277313232422

> <r_mmod_Stretch_Energy-OPLS-2005>
141.860595703125

> <r_mmod_Bend_Energy-OPLS-2005>
394.349243164062

> <r_mmod_Torsional_Energy-OPLS-2005>
221.161880493164

> <r_mmod_Improper_Torsional_Energy-OPLS-2005>
10.0517740249634

> <r_mmod_Van_der_Waal_Energy-OPLS-2005>
153.164260864258

> <r_mmod_Electrostatic_Energy-OPLS-2005>
-316.341888427734

> <r_mmod_Solvation_Energy-OPLS-2005>
-490.647125244141

> <b_mmod_Minimization_Converged-OPLS-2005>
0

> <r_mmod_RMS_Derivative-OPLS-2005>
2.15250205993652

$$$$
93
                    3D
 Structure written by MMmdl.
158166  0  0  1  0            999 V2000
  -30.7152  -14.4234   20.5415 C   0  0  0  0  0  0
  -30.4111  -12.2579   19.4312 C   0  0  0  0  0  0
  -29.5016  -12.4905   18.2078 C   0  0  0  0  0  0
  -28.0195  -12.3629   18.6132 C   0  0  0  0  0  0
  -27.6622  -13.2001   19.8704 C   0  0  2  0  0  0
  -28.6993  -12.9835   20.9976 C   0  0  0  0  0  0
  -25.2645  -13.8124   20.5687 C   0  0  0  0  0  0
  -24.1857  -13.0442   20.9175 C   0  0  0  0  0  0
  -24.6372  -11.6901   20.8712 C   0  0  0  0  0  0
  -23.9032  -10.4284   21.0376 C   0  0  0  0  0  0
  -24.3576   -9.4214   21.9181 C   0  0  0  0  0  0
  -23.6263   -8.2247   22.0763 C   0  0  0  0  0  0
  -22.4261   -8.0274   21.3539 C   0  0  0  0  0  0
  -21.9871   -9.0246   20.4646 C   0  0  0  0  0  0
  -22.7187  -10.2133   20.3042 C   0  0  0  0  0  0
  -21.6853   -6.0714   22.5277 C   0  0  0  0  0  0
  -21.4012   -6.5621   23.8208 C   0  0  0  0  0  0
  -21.3687   -5.6781   24.9173 C   0  0  0  0  0  0
  -21.6034   -4.3039   24.7221 C   0  0  0  0  0  0
  -21.8825   -3.8136   23.4343 C   0  0  0  0  0  0
  -21.9193   -4.6943   22.3396 C   0  0  0  0  0  0
  -22.7886  -13.5270   21.1853 C   0  0  0  0  0  0
  -22.1667   -4.2129   21.0976 F   0  0  0  0  0  0
  -21.5646   -3.4535   25.7741 F   0  0  0  0  0  0
  -30.0384  -13.2510   20.4474 N   0  0  0  0  0  0
  -26.3027  -12.9265   20.3315 N   0  0  0  0  0  0
  -25.9289  -11.6448   20.5704 N   0  0  0  0  0  0
  -22.0532  -12.8247   22.0396 N   0  0  0  0  0  0
  -25.4463  -15.1838   20.4131 N   0  0  0  0  0  0
  -31.8588  -14.5847   20.1095 O   0  0  0  0  0  0
  -21.6648   -6.8861   21.4236 O   0  0  0  0  0  0
  -22.3577  -14.5605   20.6747 O   0  0  0  0  0  0
  -24.6092  -31.8729   23.2177 C   0  0  0  0  0  0
  -25.8995  -32.4814   23.8447 C   0  0  1  0  0  0
  -27.2134  -27.4600   20.0943 C   0  0  0  0  0  0
  -25.5857  -33.8599   24.2326 N   0  0  0  0  0  0
  -23.3902  -30.5007   21.5563 C   0  0  2  0  0  0
  -24.8295  -28.9722   20.1233 C   0  0  0  0  0  0
  -22.7379  -29.4701   22.5047 C   0  0  0  0  0  0
  -18.0260  -28.1341   22.8541 C   0  0  0  0  0  0
  -24.1492  -36.7293   23.2634 C   0  0  0  0  0  0
  -25.9202  -30.8429   21.3683 C   0  0  0  0  0  0
  -25.9900  -29.4769   20.7305 C   0  0  0  0  0  0
  -27.1801  -28.7197   20.7291 C   0  0  0  0  0  0
  -26.0462  -26.9919   19.4492 C   0  0  0  0  0  0
  -24.8474  -27.7205   19.4903 C   0  0  0  0  0  0
  -23.5945  -29.8420   20.1695 C   0  0  0  0  0  0
  -25.4105  -36.3085   24.0322 C   0  0  1  0  0  0
  -20.5836  -28.3648   23.1373 C   0  0  2  0  0  0
  -20.6781  -26.9383   22.5427 C   0  0  0  0  0  0
  -19.5731  -26.6343   21.5270 C   0  0  0  0  0  0
  -18.1910  -26.7864   22.1698 C   0  0  0  0  0  0
  -19.1517  -28.8817   23.2939 C   0  0  0  0  0  0
  -18.9442  -30.1455   23.8868 C   0  0  0  0  0  0
  -17.6446  -30.6575   24.0575 C   0  0  0  0  0  0
  -25.9020  -34.9457   23.5141 C   0  0  0  0  0  0
  -16.5333  -29.9072   23.6320 C   0  0  0  0  0  0
  -16.7245  -28.6500   23.0336 C   0  0  0  0  0  0
  -26.4432  -31.6567   25.0773 C   0  0  0  0  0  0
  -25.3693  -31.3775   26.1557 C   0  0  0  0  0  0
  -27.0308  -30.3031   24.6105 C   0  0  0  0  0  0
  -27.5978  -32.4330   25.7506 C   0  0  0  0  0  0
  -27.5568  -37.1814   24.8450 C   0  0  0  0  0  0
  -21.4098  -29.3052   22.3787 N   0  0  0  0  0  0
  -26.4281  -37.3757   23.9390 N   0  0  0  0  0  0
  -24.6567  -31.0880   22.1044 N   0  0  0  0  0  0
  -23.4213  -28.8183   23.2994 O   0  0  0  0  0  0
  -28.3902  -26.7489   20.0618 O   0  0  0  0  0  0
  -26.5608  -34.8890   22.4715 O   0  0  0  0  0  0
  -23.5278  -32.1467   23.7600 O   0  0  0  0  0  0
  -28.7531  -18.6705   19.9712 C   0  0  0  0  0  0
  -28.8123  -17.9536   22.2988 C   0  0  0  0  0  0
  -27.2566  -19.6974   21.6023 C   0  0  0  0  0  0
  -29.2945  -17.8459   20.9776 C   0  0  0  0  0  0
  -27.7347  -19.5944   20.2742 C   0  0  0  0  0  0
  -27.8078  -18.8859   22.6115 C   0  0  0  0  0  0
  -30.3915  -16.8537   20.6514 C   0  0  0  0  0  0
  -27.5637  -24.4207   19.9677 C   0  0  0  0  0  0
  -28.3981  -25.4721   20.7164 C   0  0  0  0  0  0
  -27.8714  -22.9412   20.2030 C   0  0  0  0  0  0
  -27.2317  -20.3759   19.2299 N   0  0  0  0  0  0
  -29.9841  -15.4749   20.9215 N   0  0  0  0  0  0
  -26.6037  -22.4226   17.8690 O   0  0  0  0  0  0
  -25.3673  -21.9222   20.0422 O   0  0  0  0  0  0
  -27.3732  -18.9959   23.8881 F   0  0  0  0  0  0
  -26.6195  -21.9761   19.2747 S   0  0  0  0  0  0
  -31.4654  -12.3192   19.1535 H   0  0  0  0  0  0
  -30.2705  -11.2461   19.8217 H   0  0  0  0  0  0
  -29.7348  -11.7692   17.4216 H   0  0  0  0  0  0
  -29.6912  -13.4816   17.7894 H   0  0  0  0  0  0
  -27.8244  -11.3072   18.8124 H   0  0  0  0  0  0
  -27.3751  -12.6379   17.7765 H   0  0  0  0  0  0
  -27.7044  -14.2467   19.5717 H   0  0  0  0  0  0
  -28.6546  -11.9571   21.3676 H   0  0  0  0  0  0
  -28.4700  -13.6109   21.8603 H   0  0  0  0  0  0
  -25.2717   -9.5715   22.4742 H   0  0  0  0  0  0
  -23.9995   -7.4634   22.7465 H   0  0  0  0  0  0
  -21.0805   -8.8716   19.8943 H   0  0  0  0  0  0
  -22.3615  -10.9653   19.6145 H   0  0  0  0  0  0
  -21.2002   -7.6131   23.9705 H   0  0  0  0  0  0
  -21.1518   -6.0516   25.9078 H   0  0  0  0  0  0
  -22.0579   -2.7596   23.2847 H   0  0  0  0  0  0
  -22.4141  -11.9851   22.4668 H   0  0  0  0  0  0
  -21.1184  -13.1316   22.2677 H   0  0  0  0  0  0
  -24.6937  -15.8525   20.5325 H   0  0  0  0  0  0
  -26.3083  -15.6111   20.1020 H   0  0  0  0  0  0
  -26.7057  -32.5536   23.1206 H   0  0  0  0  0  0
  -24.9922  -33.9724   25.0414 H   0  0  0  0  0  0
  -22.6718  -31.3132   21.4332 H   0  0  0  0  0  0
  -23.3715  -35.9668   23.3301 H   0  0  0  0  0  0
  -24.3560  -36.8923   22.2053 H   0  0  0  0  0  0
  -23.7327  -37.6530   23.6664 H   0  0  0  0  0  0
  -26.0339  -31.5996   20.5914 H   0  0  0  0  0  0
  -26.8097  -30.8965   21.9860 H   0  0  0  0  0  0
  -28.0785  -29.0984   21.1889 H   0  0  0  0  0  0
  -26.0349  -26.0853   18.8680 H   0  0  0  0  0  0
  -23.9611  -27.3389   19.0045 H   0  0  0  0  0  0
  -23.6939  -30.6171   19.4091 H   0  0  0  0  0  0
  -22.7119  -29.2628   19.8833 H   0  0  0  0  0  0
  -25.1292  -36.1911   25.0806 H   0  0  0  0  0  0
  -20.9942  -28.3264   24.1501 H   0  0  0  0  0  0
  -20.5829  -26.2266   23.3623 H   0  0  0  0  0  0
  -21.6616  -26.7543   22.1103 H   0  0  0  0  0  0
  -19.6903  -25.6252   21.1285 H   0  0  0  0  0  0
  -19.6648  -27.3171   20.6783 H   0  0  0  0  0  0
  -17.4182  -26.6581   21.4100 H   0  0  0  0  0  0
  -18.0326  -26.0029   22.9122 H   0  0  0  0  0  0
  -19.7932  -30.7363   24.2090 H   0  0  0  0  0  0
  -17.5014  -31.6265   24.5195 H   0  0  0  0  0  0
  -15.5330  -30.3027   23.7641 H   0  0  0  0  0  0
  -15.8626  -28.0872   22.6954 H   0  0  0  0  0  0
  -24.5688  -30.7240   25.8012 H   0  0  0  0  0  0
  -24.9046  -32.3038   26.5017 H   0  0  0  0  0  0
  -25.8009  -30.8949   27.0328 H   0  0  0  0  0  0
  -26.2926  -29.6792   24.1034 H   0  0  0  0  0  0
  -27.4097  -29.7187   25.4508 H   0  0  0  0  0  0
  -27.8712  -30.4441   23.9271 H   0  0  0  0  0  0
  -27.2497  -33.3555   26.2139 H   0  0  0  0  0  0
  -28.3734  -32.7014   25.0325 H   0  0  0  0  0  0
  -28.0690  -31.8431   26.5399 H   0  0  0  0  0  0
  -28.2617  -38.0086   24.7484 H   0  0  0  0  0  0
  -28.1034  -36.2631   24.6271 H   0  0  0  0  0  0
  -27.2260  -37.1457   25.8841 H   0  0  0  0  0  0
  -20.9195  -29.8880   21.7141 H   0  0  0  0  0  0
  -26.0148  -38.2823   24.1345 H   0  0  0  0  0  0
  -29.1220  -18.5985   18.9587 H   0  0  0  0  0  0
  -29.2123  -17.3272   23.0819 H   0  0  0  0  0  0
  -26.4779  -20.3978   21.8620 H   0  0  0  0  0  0
  -31.2826  -17.1097   21.2302 H   0  0  0  0  0  0
  -30.6759  -16.9595   19.5991 H   0  0  0  0  0  0
  -27.6711  -24.6069   18.8992 H   0  0  0  0  0  0
  -26.5141  -24.5535   20.2339 H   0  0  0  0  0  0
  -29.4390  -25.1522   20.7696 H   0  0  0  0  0  0
  -28.0561  -25.5713   21.7473 H   0  0  0  0  0  0
  -27.8048  -22.6793   21.2584 H   0  0  0  0  0  0
  -28.8685  -22.6841   19.8405 H   0  0  0  0  0  0
  -27.5700  -20.1251   18.3101 H   0  0  0  0  0  0
  -29.0357  -15.3068   21.2230 H   0  0  0  0  0  0
  1 25  1  0  0  0
  1 30  2  0  0  0
  1 82  1  0  0  0
  2  3  1  0  0  0
  2 25  1  0  0  0
  2 87  1  0  0  0
  2 88  1  0  0  0
  3  4  1  0  0  0
  3 89  1  0  0  0
  3 90  1  0  0  0
  4  5  1  0  0  0
  4 91  1  0  0  0
  4 92  1  0  0  0
  5  6  1  0  0  0
  5 26  1  0  0  0
  5 93  1  0  0  0
  6 25  1  0  0  0
  6 94  1  0  0  0
  6 95  1  0  0  0
  7  8  2  0  0  0
  7 26  1  0  0  0
  7 29  1  0  0  0
  8  9  1  0  0  0
  8 22  1  0  0  0
  9 10  1  0  0  0
  9 27  2  0  0  0
 10 11  2  0  0  0
 10 15  1  0  0  0
 11 12  1  0  0  0
 11 96  1  0  0  0
 12 13  2  0  0  0
 12 97  1  0  0  0
 13 14  1  0  0  0
 13 31  1  0  0  0
 14 15  2  0  0  0
 14 98  1  0  0  0
 15 99  1  0  0  0
 16 17  2  0  0  0
 16 21  1  0  0  0
 16 31  1  0  0  0
 17 18  1  0  0  0
 17100  1  0  0  0
 18 19  2  0  0  0
 18101  1  0  0  0
 19 20  1  0  0  0
 19 24  1  0  0  0
 20 21  2  0  0  0
 20102  1  0  0  0
 21 23  1  0  0  0
 22 28  1  0  0  0
 22 32  2  0  0  0
 26 27  1  0  0  0
 28103  1  0  0  0
 28104  1  0  0  0
 29105  1  0  0  0
 29106  1  0  0  0
 33 34  1  0  0  0
 33 66  1  0  0  0
 33 70  2  0  0  0
 34 36  1  0  0  0
 34 59  1  0  0  0
 34107  1  0  0  0
 35 44  2  0  0  0
 35 45  1  0  0  0
 35 68  1  0  0  0
 36 56  1  0  0  0
 36108  1  0  0  0
 37 39  1  0  0  0
 37 47  1  0  0  0
 37 66  1  0  0  0
 37109  1  0  0  0
 38 43  2  0  0  0
 38 46  1  0  0  0
 38 47  1  0  0  0
 39 64  1  0  0  0
 39 67  2  0  0  0
 40 52  1  0  0  0
 40 53  2  0  0  0
 40 58  1  0  0  0
 41110  1  0  0  0
 41111  1  0  0  0
 41112  1  0  0  0
 41 48  1  0  0  0
 42 43  1  0  0  0
 42 66  1  0  0  0
 42113  1  0  0  0
 42114  1  0  0  0
 43 44  1  0  0  0
 44115  1  0  0  0
 45 46  2  0  0  0
 45116  1  0  0  0
 46117  1  0  0  0
 47118  1  0  0  0
 47119  1  0  0  0
 48 56  1  0  0  0
 48 65  1  0  0  0
 48120  1  0  0  0
 49 50  1  0  0  0
 49 53  1  0  0  0
 49 64  1  0  0  0
 49121  1  0  0  0
 50 51  1  0  0  0
 50122  1  0  0  0
 50123  1  0  0  0
 51 52  1  0  0  0
 51124  1  0  0  0
 51125  1  0  0  0
 52126  1  0  0  0
 52127  1  0  0  0
 53 54  1  0  0  0
 54 55  2  0  0  0
 54128  1  0  0  0
 55 57  1  0  0  0
 55129  1  0  0  0
 56 69  2  0  0  0
 57 58  2  0  0  0
 57130  1  0  0  0
 58131  1  0  0  0
 59 60  1  0  0  0
 59 61  1  0  0  0
 59 62  1  0  0  0
 60132  1  0  0  0
 60133  1  0  0  0
 60134  1  0  0  0
 61135  1  0  0  0
 61136  1  0  0  0
 61137  1  0  0  0
 62138  1  0  0  0
 62139  1  0  0  0
 62140  1  0  0  0
 63 65  1  0  0  0
 63141  1  0  0  0
 63142  1  0  0  0
 63143  1  0  0  0
 64144  1  0  0  0
 65145  1  0  0  0
 68 79  1  0  0  0
 71 74  2  0  0  0
 71 75  1  0  0  0
 71146  1  0  0  0
 72 74  1  0  0  0
 72 76  2  0  0  0
 72147  1  0  0  0
 73 75  2  0  0  0
 73 76  1  0  0  0
 73148  1  0  0  0
 74 77  1  0  0  0
 75 81  1  0  0  0
 76 85  1  0  0  0
 77 82  1  0  0  0
 77149  1  0  0  0
 77150  1  0  0  0
 78 79  1  0  0  0
 78 80  1  0  0  0
 78151  1  0  0  0
 78152  1  0  0  0
 79153  1  0  0  0
 79154  1  0  0  0
 80155  1  0  0  0
 80156  1  0  0  0
 80 86  1  0  0  0
 81 86  1  0  0  0
 81157  1  0  0  0
 82158  1  0  0  0
 83 86  2  0  0  0
 84 86  2  0  0  0
M  ISO  4   1 100  68 101  79 101  82 100
M  END
> <chiral flag>
0

> <version>
0

> <s_m_source_file>
/data/baiqing/PycharmProjects/Reinvent-master-3.2/result/LINK_invent/BTK/process_docking_weight1_custom_product_contain_oxygen_bond_distance_aromatic_linkinvent_7_9_3/rearranged_h_0102.sdf

> <i_m_source_file_index>
93

> <r_mmod_Potential_Energy-OPLS-2005>
-347.372650146484

> <r_mmod_Stretch_Energy-OPLS-2005>
30.9928646087646

> <r_mmod_Bend_Energy-OPLS-2005>
93.2722015380859

> <r_mmod_Torsional_Energy-OPLS-2005>
228.136581420898

> <r_mmod_Improper_Torsional_Energy-OPLS-2005>
7.29952144622803

> <r_mmod_Van_der_Waal_Energy-OPLS-2005>
149.857223510742

> <r_mmod_Electrostatic_Energy-OPLS-2005>
-628.326538085938

> <r_mmod_Solvation_Energy-OPLS-2005>
-240.960739135742

> <b_mmod_Minimization_Converged-OPLS-2005>
0

> <r_mmod_RMS_Derivative-OPLS-2005>
7.43841552734375

$$$$
94
                    3D
 Structure written by MMmdl.
159168  0  0  1  0            999 V2000
  -30.4961  -14.8703   20.4172 C   0  0  0  0  0  0
  -30.4642  -12.5278   19.4845 C   0  0  0  0  0  0
  -29.5330  -12.5370   18.2465 C   0  0  0  0  0  0
  -28.0553  -12.3361   18.6479 C   0  0  0  0  0  0
  -27.6422  -13.2288   19.8462 C   0  0  2  0  0  0
  -28.6892  -13.1697   20.9788 C   0  0  0  0  0  0
  -25.2531  -13.8171   20.5684 C   0  0  0  0  0  0
  -24.1814  -13.0425   20.9197 C   0  0  0  0  0  0
  -24.6403  -11.6901   20.8726 C   0  0  0  0  0  0
  -23.9075  -10.4287   21.0394 C   0  0  0  0  0  0
  -24.3629   -9.4212   21.9182 C   0  0  0  0  0  0
  -23.6304   -8.2247   22.0753 C   0  0  0  0  0  0
  -22.4284   -8.0280   21.3537 C   0  0  0  0  0  0
  -21.9912   -9.0254   20.4642 C   0  0  0  0  0  0
  -22.7239  -10.2134   20.3051 C   0  0  0  0  0  0
  -21.6853   -6.0739   22.5278 C   0  0  0  0  0  0
  -21.4018   -6.5640   23.8215 C   0  0  0  0  0  0
  -21.3666   -5.6788   24.9171 C   0  0  0  0  0  0
  -21.6051   -4.3052   24.7225 C   0  0  0  0  0  0
  -21.8823   -3.8145   23.4345 C   0  0  0  0  0  0
  -21.9195   -4.6965   22.3399 C   0  0  0  0  0  0
  -22.7836  -13.5212   21.1867 C   0  0  0  0  0  0
  -22.1666   -4.2156   21.0977 F   0  0  0  0  0  0
  -21.5629   -3.4533   25.7736 F   0  0  0  0  0  0
  -29.9863  -13.5787   20.4171 N   0  0  0  0  0  0
  -26.2948  -12.9359   20.3243 N   0  0  0  0  0  0
  -25.9330  -11.6508   20.5708 N   0  0  0  0  0  0
  -22.0483  -12.8204   22.0425 N   0  0  0  0  0  0
  -25.4211  -15.1906   20.4143 N   0  0  0  0  0  0
  -31.6977  -15.0221   20.1622 O   0  0  0  0  0  0
  -21.6644   -6.8878   21.4235 O   0  0  0  0  0  0
  -22.3523  -14.5515   20.6715 O   0  0  0  0  0  0
  -24.6370  -31.8512   23.1917 C   0  0  0  0  0  0
  -25.9171  -32.4729   23.8288 C   0  0  1  0  0  0
  -27.2229  -27.2030   20.1528 C   0  0  0  0  0  0
  -25.5945  -33.8528   24.2228 N   0  0  0  0  0  0
  -23.4366  -30.4707   21.5375 C   0  0  2  0  0  0
  -24.8858  -28.9057   20.1129 C   0  0  0  0  0  0
  -22.7537  -29.4583   22.4893 C   0  0  0  0  0  0
  -18.0305  -28.1389   22.8487 C   0  0  0  0  0  0
  -24.1485  -36.7270   23.2635 C   0  0  0  0  0  0
  -25.9864  -30.7484   21.3775 C   0  0  0  0  0  0
  -26.0604  -29.3629   20.7245 C   0  0  0  0  0  0
  -27.2320  -28.5282   20.7258 C   0  0  0  0  0  0
  -26.0270  -26.8310   19.5004 C   0  0  0  0  0  0
  -24.8783  -27.6504   19.4866 C   0  0  0  0  0  0
  -23.6580  -29.7995   20.1563 C   0  0  0  0  0  0
  -25.4116  -36.3055   24.0319 C   0  0  1  0  0  0
  -20.5912  -28.3710   23.1257 C   0  0  2  0  0  0
  -20.6781  -26.9416   22.5411 C   0  0  0  0  0  0
  -19.5753  -26.6380   21.5217 C   0  0  0  0  0  0
  -18.1939  -26.7927   22.1631 C   0  0  0  0  0  0
  -19.1557  -28.8865   23.2865 C   0  0  0  0  0  0
  -18.9472  -30.1464   23.8883 C   0  0  0  0  0  0
  -17.6466  -30.6579   24.0565 C   0  0  0  0  0  0
  -25.9068  -34.9428   23.5086 C   0  0  0  0  0  0
  -16.5363  -29.9075   23.6332 C   0  0  0  0  0  0
  -16.7289  -28.6497   23.0352 C   0  0  0  0  0  0
  -26.4504  -31.6546   25.0690 C   0  0  0  0  0  0
  -25.3708  -31.3718   26.1400 C   0  0  0  0  0  0
  -27.0330  -30.2937   24.6197 C   0  0  0  0  0  0
  -27.6041  -32.4285   25.7490 C   0  0  0  0  0  0
  -27.5585  -37.1786   24.8465 C   0  0  0  0  0  0
  -21.4237  -29.3049   22.3642 N   0  0  0  0  0  0
  -26.4288  -37.3763   23.9415 N   0  0  0  0  0  0
  -24.7061  -31.0424   22.0923 N   0  0  0  0  0  0
  -23.4218  -28.8148   23.3022 O   0  0  0  0  0  0
  -28.3087  -26.2761   20.1899 O   0  0  0  0  0  0
  -26.5656  -34.8916   22.4664 O   0  0  0  0  0  0
  -23.5511  -32.1357   23.7190 O   0  0  0  0  0  0
  -28.9563  -18.4184   21.6787 C   0  0  0  0  0  0
  -28.7757  -19.8396   21.7929 C   0  0  0  0  0  0
  -29.9527  -20.1690   19.7713 C   0  0  0  0  0  0
  -29.6389  -17.7685   20.6071 C   0  0  0  0  0  0
  -30.1246  -18.7237   19.6402 C   0  0  0  0  0  0
  -29.2727  -20.8091   20.8623 C   0  0  0  0  0  0
  -29.7334  -22.7046   22.3266 C   0  0  0  0  0  0
  -30.5119  -24.0041   22.1982 C   0  0  0  0  0  0
  -30.5285  -24.2160   20.6923 C   0  0  0  0  0  0
  -29.2025  -23.5855   20.2623 C   0  0  2  0  0  0
  -30.8163  -18.2040   18.3944 C   0  0  0  0  0  0
  -29.4636  -16.1511   20.4244 C   0  0  0  0  0  0
  -28.0726  -24.7870   20.4797 C   0  0  0  0  0  0
  -29.1773  -22.3064   21.1549 N   0  0  0  0  0  0
  -29.6684  -22.1226   23.4141 O   0  0  0  0  0  0
  -31.4984  -12.6998   19.1803 H   0  0  0  0  0  0
  -30.4543  -11.5508   19.9706 H   0  0  0  0  0  0
  -29.8370  -11.7656   17.5392 H   0  0  0  0  0  0
  -29.6423  -13.4888   17.7239 H   0  0  0  0  0  0
  -27.9196  -11.2844   18.9039 H   0  0  0  0  0  0
  -27.4042  -12.5281   17.7952 H   0  0  0  0  0  0
  -27.6223  -14.2454   19.4591 H   0  0  0  0  0  0
  -28.7533  -12.1629   21.3937 H   0  0  0  0  0  0
  -28.4014  -13.8095   21.8128 H   0  0  0  0  0  0
  -25.2777   -9.5698   22.4755 H   0  0  0  0  0  0
  -24.0026   -7.4634   22.7460 H   0  0  0  0  0  0
  -21.0855   -8.8772   19.8942 H   0  0  0  0  0  0
  -22.3700  -10.9678   19.6168 H   0  0  0  0  0  0
  -21.2015   -7.6148   23.9723 H   0  0  0  0  0  0
  -21.1482   -6.0513   25.9077 H   0  0  0  0  0  0
  -22.0598   -2.7612   23.2837 H   0  0  0  0  0  0
  -22.4093  -11.9887   22.4853 H   0  0  0  0  0  0
  -21.1092  -13.1228   22.2600 H   0  0  0  0  0  0
  -24.6528  -15.8420   20.5326 H   0  0  0  0  0  0
  -26.2722  -15.6397   20.1021 H   0  0  0  0  0  0
  -26.7250  -32.5360   23.1039 H   0  0  0  0  0  0
  -25.0051  -33.9648   25.0347 H   0  0  0  0  0  0
  -22.7354  -31.2937   21.3863 H   0  0  0  0  0  0
  -23.3756  -35.9594   23.3281 H   0  0  0  0  0  0
  -24.3590  -36.8920   22.2059 H   0  0  0  0  0  0
  -23.7216  -37.6450   23.6681 H   0  0  0  0  0  0
  -26.1290  -31.5048   20.6042 H   0  0  0  0  0  0
  -26.8636  -30.8034   22.0112 H   0  0  0  0  0  0
  -28.1310  -28.8795   21.2121 H   0  0  0  0  0  0
  -25.9579  -25.8803   18.9932 H   0  0  0  0  0  0
  -23.9838  -27.2967   18.9928 H   0  0  0  0  0  0
  -23.7849  -30.5732   19.3973 H   0  0  0  0  0  0
  -22.7747  -29.2343   19.8528 H   0  0  0  0  0  0
  -25.1293  -36.1902   25.0810 H   0  0  0  0  0  0
  -21.0012  -28.3284   24.1376 H   0  0  0  0  0  0
  -20.5680  -26.2317   23.3625 H   0  0  0  0  0  0
  -21.6646  -26.7420   22.1207 H   0  0  0  0  0  0
  -19.6909  -25.6292   21.1251 H   0  0  0  0  0  0
  -19.6681  -27.3190   20.6748 H   0  0  0  0  0  0
  -17.4208  -26.6692   21.4037 H   0  0  0  0  0  0
  -18.0324  -26.0072   22.9027 H   0  0  0  0  0  0
  -19.7942  -30.7294   24.2242 H   0  0  0  0  0  0
  -17.5011  -31.6259   24.5169 H   0  0  0  0  0  0
  -15.5360  -30.2973   23.7635 H   0  0  0  0  0  0
  -15.8699  -28.0809   22.7061 H   0  0  0  0  0  0
  -24.5886  -30.7070   25.7722 H   0  0  0  0  0  0
  -24.8895  -32.2895   26.4786 H   0  0  0  0  0  0
  -25.8010  -30.8913   27.0195 H   0  0  0  0  0  0
  -26.2909  -29.6698   24.1199 H   0  0  0  0  0  0
  -27.3955  -29.7190   25.4727 H   0  0  0  0  0  0
  -27.8824  -30.4167   23.9475 H   0  0  0  0  0  0
  -27.2628  -33.3588   26.2040 H   0  0  0  0  0  0
  -28.3879  -32.6837   25.0350 H   0  0  0  0  0  0
  -28.0671  -31.8419   26.5433 H   0  0  0  0  0  0
  -28.2578  -38.0105   24.7535 H   0  0  0  0  0  0
  -28.1106  -36.2635   24.6261 H   0  0  0  0  0  0
  -27.2317  -37.1403   25.8871 H   0  0  0  0  0  0
  -20.9436  -29.8765   21.6833 H   0  0  0  0  0  0
  -26.0163  -38.2835   24.1419 H   0  0  0  0  0  0
  -28.4900  -17.8036   22.4366 H   0  0  0  0  0  0
  -28.2306  -20.1903   22.6579 H   0  0  0  0  0  0
  -30.3757  -20.8099   19.0094 H   0  0  0  0  0  0
  -31.5174  -23.9184   22.6106 H   0  0  0  0  0  0
  -29.9824  -24.8029   22.7197 H   0  0  0  0  0  0
  -31.3662  -23.6768   20.2463 H   0  0  0  0  0  0
  -30.6296  -25.2656   20.4168 H   0  0  0  0  0  0
  -29.2487  -23.3110   19.2076 H   0  0  0  0  0  0
  -31.3394  -19.0033   17.8689 H   0  0  0  0  0  0
  -30.0910  -17.7686   17.7072 H   0  0  0  0  0  0
  -31.5517  -17.4412   18.6484 H   0  0  0  0  0  0
  -28.9645  -16.0721   19.4594 H   0  0  0  0  0  0
  -28.6936  -15.8892   21.1465 H   0  0  0  0  0  0
  -27.7808  -24.7670   21.5304 H   0  0  0  0  0  0
  -27.1820  -24.4490   19.9566 H   0  0  0  0  0  0
  1 25  1  0  0  0
  1 30  2  0  0  0
  1 82  1  0  0  0
  2  3  1  0  0  0
  2 25  1  0  0  0
  2 86  1  0  0  0
  2 87  1  0  0  0
  3  4  1  0  0  0
  3 88  1  0  0  0
  3 89  1  0  0  0
  4  5  1  0  0  0
  4 90  1  0  0  0
  4 91  1  0  0  0
  5  6  1  0  0  0
  5 26  1  0  0  0
  5 92  1  0  0  0
  6 25  1  0  0  0
  6 93  1  0  0  0
  6 94  1  0  0  0
  7  8  2  0  0  0
  7 26  1  0  0  0
  7 29  1  0  0  0
  8  9  1  0  0  0
  8 22  1  0  0  0
  9 10  1  0  0  0
  9 27  2  0  0  0
 10 11  2  0  0  0
 10 15  1  0  0  0
 11 12  1  0  0  0
 11 95  1  0  0  0
 12 13  2  0  0  0
 12 96  1  0  0  0
 13 14  1  0  0  0
 13 31  1  0  0  0
 14 15  2  0  0  0
 14 97  1  0  0  0
 15 98  1  0  0  0
 16 17  2  0  0  0
 16 21  1  0  0  0
 16 31  1  0  0  0
 17 18  1  0  0  0
 17 99  1  0  0  0
 18 19  2  0  0  0
 18100  1  0  0  0
 19 20  1  0  0  0
 19 24  1  0  0  0
 20 21  2  0  0  0
 20101  1  0  0  0
 21 23  1  0  0  0
 22 28  1  0  0  0
 22 32  2  0  0  0
 26 27  1  0  0  0
 28102  1  0  0  0
 28103  1  0  0  0
 29104  1  0  0  0
 29105  1  0  0  0
 33 34  1  0  0  0
 33 66  1  0  0  0
 33 70  2  0  0  0
 34 36  1  0  0  0
 34 59  1  0  0  0
 34106  1  0  0  0
 35 44  2  0  0  0
 35 45  1  0  0  0
 35 68  1  0  0  0
 36 56  1  0  0  0
 36107  1  0  0  0
 37 39  1  0  0  0
 37 47  1  0  0  0
 37 66  1  0  0  0
 37108  1  0  0  0
 38 43  2  0  0  0
 38 46  1  0  0  0
 38 47  1  0  0  0
 39 64  1  0  0  0
 39 67  2  0  0  0
 40 52  1  0  0  0
 40 53  2  0  0  0
 40 58  1  0  0  0
 41109  1  0  0  0
 41110  1  0  0  0
 41111  1  0  0  0
 41 48  1  0  0  0
 42 43  1  0  0  0
 42 66  1  0  0  0
 42112  1  0  0  0
 42113  1  0  0  0
 43 44  1  0  0  0
 44114  1  0  0  0
 45 46  2  0  0  0
 45115  1  0  0  0
 46116  1  0  0  0
 47117  1  0  0  0
 47118  1  0  0  0
 48 56  1  0  0  0
 48 65  1  0  0  0
 48119  1  0  0  0
 49 50  1  0  0  0
 49 53  1  0  0  0
 49 64  1  0  0  0
 49120  1  0  0  0
 50 51  1  0  0  0
 50121  1  0  0  0
 50122  1  0  0  0
 51 52  1  0  0  0
 51123  1  0  0  0
 51124  1  0  0  0
 52125  1  0  0  0
 52126  1  0  0  0
 53 54  1  0  0  0
 54 55  2  0  0  0
 54127  1  0  0  0
 55 57  1  0  0  0
 55128  1  0  0  0
 56 69  2  0  0  0
 57 58  2  0  0  0
 57129  1  0  0  0
 58130  1  0  0  0
 59 60  1  0  0  0
 59 61  1  0  0  0
 59 62  1  0  0  0
 60131  1  0  0  0
 60132  1  0  0  0
 60133  1  0  0  0
 61134  1  0  0  0
 61135  1  0  0  0
 61136  1  0  0  0
 62137  1  0  0  0
 62138  1  0  0  0
 62139  1  0  0  0
 63 65  1  0  0  0
 63140  1  0  0  0
 63141  1  0  0  0
 63142  1  0  0  0
 64143  1  0  0  0
 65144  1  0  0  0
 68 83  1  0  0  0
 71 72  2  0  0  0
 71 74  1  0  0  0
 71145  1  0  0  0
 72 76  1  0  0  0
 72146  1  0  0  0
 73 75  1  0  0  0
 73 76  2  0  0  0
 73147  1  0  0  0
 74 75  2  0  0  0
 74 82  1  0  0  0
 75 81  1  0  0  0
 76 84  1  0  0  0
 77 78  1  0  0  0
 77 84  1  0  0  0
 77 85  2  0  0  0
 78 79  1  0  0  0
 78148  1  0  0  0
 78149  1  0  0  0
 79 80  1  0  0  0
 79150  1  0  0  0
 79151  1  0  0  0
 80 83  1  0  0  0
 80 84  1  0  0  0
 80152  1  0  0  0
 81153  1  0  0  0
 81154  1  0  0  0
 81155  1  0  0  0
 82156  1  0  0  0
 82157  1  0  0  0
 83158  1  0  0  0
 83159  1  0  0  0
M  ISO  4   1 100  68 101  82 100  83 101
M  END
> <chiral flag>
0

> <version>
0

> <s_m_source_file>
/data/baiqing/PycharmProjects/Reinvent-master-3.2/result/LINK_invent/BTK/process_docking_weight1_custom_product_contain_oxygen_bond_distance_aromatic_linkinvent_7_9_3/rearranged_h_0102.sdf

> <i_m_source_file_index>
94

> <r_mmod_Potential_Energy-OPLS-2005>
555.023193359375

> <r_mmod_Stretch_Energy-OPLS-2005>
196.495864868164

> <r_mmod_Bend_Energy-OPLS-2005>
292.039642333984

> <r_mmod_Torsional_Energy-OPLS-2005>
284.451782226562

> <r_mmod_Improper_Torsional_Energy-OPLS-2005>
12.0147733688354

> <r_mmod_Van_der_Waal_Energy-OPLS-2005>
135.411819458008

> <r_mmod_Electrostatic_Energy-OPLS-2005>
-291.235076904297

> <r_mmod_Solvation_Energy-OPLS-2005>
-212.974151611328

> <b_mmod_Minimization_Converged-OPLS-2005>
0

> <r_mmod_RMS_Derivative-OPLS-2005>
1.7927463054657

$$$$
95
                    3D
 Structure written by MMmdl.
160169  0  0  1  0            999 V2000
  -30.6811  -14.5318   20.5621 C   0  0  0  0  0  0
  -30.4249  -12.3467   19.4247 C   0  0  0  0  0  0
  -29.4914  -12.5045   18.2070 C   0  0  0  0  0  0
  -28.0153  -12.3570   18.6260 C   0  0  0  0  0  0
  -27.6553  -13.2117   19.8701 C   0  0  2  0  0  0
  -28.7004  -13.0240   20.9910 C   0  0  0  0  0  0
  -25.2567  -13.8173   20.5696 C   0  0  0  0  0  0
  -24.1827  -13.0441   20.9193 C   0  0  0  0  0  0
  -24.6389  -11.6912   20.8747 C   0  0  0  0  0  0
  -23.9059  -10.4295   21.0415 C   0  0  0  0  0  0
  -24.3613   -9.4211   21.9195 C   0  0  0  0  0  0
  -23.6289   -8.2245   22.0760 C   0  0  0  0  0  0
  -22.4272   -8.0280   21.3541 C   0  0  0  0  0  0
  -21.9909   -9.0256   20.4646 C   0  0  0  0  0  0
  -22.7239  -10.2138   20.3061 C   0  0  0  0  0  0
  -21.6847   -6.0738   22.5277 C   0  0  0  0  0  0
  -21.4014   -6.5640   23.8210 C   0  0  0  0  0  0
  -21.3655   -5.6792   24.9172 C   0  0  0  0  0  0
  -21.6046   -4.3053   24.7226 C   0  0  0  0  0  0
  -21.8818   -3.8144   23.4346 C   0  0  0  0  0  0
  -21.9194   -4.6963   22.3403 C   0  0  0  0  0  0
  -22.7852  -13.5237   21.1854 C   0  0  0  0  0  0
  -22.1661   -4.2149   21.0977 F   0  0  0  0  0  0
  -21.5633   -3.4537   25.7739 F   0  0  0  0  0  0
  -30.0191  -13.3472   20.4260 N   0  0  0  0  0  0
  -26.2992  -12.9347   20.3366 N   0  0  0  0  0  0
  -25.9316  -11.6499   20.5780 N   0  0  0  0  0  0
  -22.0496  -12.8222   22.0405 N   0  0  0  0  0  0
  -25.4288  -15.1893   20.4109 N   0  0  0  0  0  0
  -31.8284  -14.6938   20.1379 O   0  0  0  0  0  0
  -21.6631   -6.8882   21.4237 O   0  0  0  0  0  0
  -22.3537  -14.5541   20.6700 O   0  0  0  0  0  0
  -24.6187  -31.8642   23.2080 C   0  0  0  0  0  0
  -25.9063  -32.4801   23.8386 C   0  0  1  0  0  0
  -27.2293  -27.3921   20.0890 C   0  0  0  0  0  0
  -25.5908  -33.8607   24.2308 N   0  0  0  0  0  0
  -23.4089  -30.4896   21.5480 C   0  0  2  0  0  0
  -24.8553  -28.9534   20.1092 C   0  0  0  0  0  0
  -22.7421  -29.4656   22.4955 C   0  0  0  0  0  0
  -18.0263  -28.1356   22.8491 C   0  0  0  0  0  0
  -24.1487  -36.7306   23.2643 C   0  0  0  0  0  0
  -25.9443  -30.8130   21.3715 C   0  0  0  0  0  0
  -26.0198  -29.4467   20.7124 C   0  0  0  0  0  0
  -27.2096  -28.6717   20.7039 C   0  0  0  0  0  0
  -26.0404  -26.9232   19.4862 C   0  0  0  0  0  0
  -24.8621  -27.6920   19.4922 C   0  0  0  0  0  0
  -23.6199  -29.8251   20.1619 C   0  0  0  0  0  0
  -25.4109  -36.3094   24.0333 C   0  0  1  0  0  0
  -20.5860  -28.3671   23.1278 C   0  0  2  0  0  0
  -20.6752  -26.9401   22.5398 C   0  0  0  0  0  0
  -19.5737  -26.6368   21.5192 C   0  0  0  0  0  0
  -18.1911  -26.7900   22.1607 C   0  0  0  0  0  0
  -19.1517  -28.8825   23.2881 C   0  0  0  0  0  0
  -18.9455  -30.1427   23.8898 C   0  0  0  0  0  0
  -17.6462  -30.6575   24.0559 C   0  0  0  0  0  0
  -25.9048  -34.9460   23.5118 C   0  0  0  0  0  0
  -16.5347  -29.9077   23.6336 C   0  0  0  0  0  0
  -16.7254  -28.6484   23.0376 C   0  0  0  0  0  0
  -26.4476  -31.6595   25.0733 C   0  0  0  0  0  0
  -25.3739  -31.3689   26.1475 C   0  0  0  0  0  0
  -27.0338  -30.3032   24.6154 C   0  0  0  0  0  0
  -27.6024  -32.4353   25.7504 C   0  0  0  0  0  0
  -27.5575  -37.1796   24.8463 C   0  0  0  0  0  0
  -21.4143  -29.3047   22.3688 N   0  0  0  0  0  0
  -26.4281  -37.3790   23.9425 N   0  0  0  0  0  0
  -24.6757  -31.0710   22.0998 N   0  0  0  0  0  0
  -23.4171  -28.8196   23.3015 O   0  0  0  0  0  0
  -28.3495  -26.5738   20.1257 O   0  0  0  0  0  0
  -26.5617  -34.8909   22.4683 O   0  0  0  0  0  0
  -23.5366  -32.1420   23.7437 O   0  0  0  0  0  0
  -30.3771  -18.5245   19.5983 C   0  0  0  0  0  0
  -30.0953  -19.8018   19.0571 C   0  0  0  0  0  0
  -28.9548  -20.4297   21.0832 C   0  0  0  0  0  0
  -29.9773  -18.1772   20.9057 C   0  0  0  0  0  0
  -29.2194  -19.1412   21.6329 C   0  0  0  0  0  0
  -29.4061  -20.8023   19.7945 C   0  0  0  0  0  0
  -28.8339  -24.4646   18.9159 C   0  0  0  0  0  0
  -28.6273  -25.8079   19.0106 C   0  0  0  0  0  0
  -29.1304  -23.8259   17.5798 C   0  0  0  0  0  0
  -28.8128  -23.3411   19.9653 C   0  0  0  0  0  0
  -29.5994  -22.4030   17.8819 C   0  0  0  0  0  0
  -28.6917  -18.8338   23.0253 C   0  0  0  0  0  0
  -30.5128  -16.8644   21.5382 C   0  0  0  0  0  0
  -29.1730  -22.1000   19.2430 N   0  0  0  0  0  0
  -29.9726  -15.5620   21.0833 N   0  0  0  0  0  0
  -31.4662  -12.4597   19.1188 H   0  0  0  0  0  0
  -30.3455  -11.3423   19.8439 H   0  0  0  0  0  0
  -29.7374  -11.7640   17.4442 H   0  0  0  0  0  0
  -29.6459  -13.4822   17.7472 H   0  0  0  0  0  0
  -27.8387  -11.3026   18.8409 H   0  0  0  0  0  0
  -27.3591  -12.6111   17.7934 H   0  0  0  0  0  0
  -27.6891  -14.2549   19.5543 H   0  0  0  0  0  0
  -28.6950  -11.9927   21.3472 H   0  0  0  0  0  0
  -28.4600  -13.6364   21.8611 H   0  0  0  0  0  0
  -25.2752   -9.5685   22.4775 H   0  0  0  0  0  0
  -23.9993   -7.4636   22.7486 H   0  0  0  0  0  0
  -21.0840   -8.8781   19.8951 H   0  0  0  0  0  0
  -22.3698  -10.9682   19.6172 H   0  0  0  0  0  0
  -21.1999   -7.6143   23.9713 H   0  0  0  0  0  0
  -21.1481   -6.0522   25.9078 H   0  0  0  0  0  0
  -22.0600   -2.7609   23.2845 H   0  0  0  0  0  0
  -22.4114  -11.9876   22.4781 H   0  0  0  0  0  0
  -21.1126  -13.1266   22.2649 H   0  0  0  0  0  0
  -24.6631  -15.8456   20.5164 H   0  0  0  0  0  0
  -26.2822  -15.6275   20.0883 H   0  0  0  0  0  0
  -26.7133  -32.5494   23.1148 H   0  0  0  0  0  0
  -25.0064  -33.9781   25.0455 H   0  0  0  0  0  0
  -22.6988  -31.3074   21.4077 H   0  0  0  0  0  0
  -23.3747  -35.9643   23.3308 H   0  0  0  0  0  0
  -24.3574  -36.8930   22.2058 H   0  0  0  0  0  0
  -23.7250  -37.6505   23.6678 H   0  0  0  0  0  0
  -26.0682  -31.5801   20.6062 H   0  0  0  0  0  0
  -26.8272  -30.8609   21.9974 H   0  0  0  0  0  0
  -28.1053  -29.0434   21.1814 H   0  0  0  0  0  0
  -26.0122  -25.9453   19.0271 H   0  0  0  0  0  0
  -23.9658  -27.3016   19.0284 H   0  0  0  0  0  0
  -23.7329  -30.6022   19.4059 H   0  0  0  0  0  0
  -22.7416  -29.2500   19.8625 H   0  0  0  0  0  0
  -25.1288  -36.1938   25.0825 H   0  0  0  0  0  0
  -20.9942  -28.3242   24.1405 H   0  0  0  0  0  0
  -20.5636  -26.2292   23.3597 H   0  0  0  0  0  0
  -21.6633  -26.7425   22.1209 H   0  0  0  0  0  0
  -19.6916  -25.6272   21.1234 H   0  0  0  0  0  0
  -19.6669  -27.3173   20.6712 H   0  0  0  0  0  0
  -17.4182  -26.6640   21.4003 H   0  0  0  0  0  0
  -18.0326  -26.0020   22.8984 H   0  0  0  0  0  0
  -19.7938  -30.7231   24.2266 H   0  0  0  0  0  0
  -17.5032  -31.6262   24.5153 H   0  0  0  0  0  0
  -15.5354  -30.3002   23.7654 H   0  0  0  0  0  0
  -15.8640  -28.0806   22.7114 H   0  0  0  0  0  0
  -24.5913  -30.7035   25.7811 H   0  0  0  0  0  0
  -24.8927  -32.2829   26.4950 H   0  0  0  0  0  0
  -25.8095  -30.8839   27.0217 H   0  0  0  0  0  0
  -26.2892  -29.6755   24.1238 H   0  0  0  0  0  0
  -27.4120  -29.7310   25.4639 H   0  0  0  0  0  0
  -27.8722  -30.4351   23.9314 H   0  0  0  0  0  0
  -27.2615  -33.3663   26.2046 H   0  0  0  0  0  0
  -28.3834  -32.6901   25.0331 H   0  0  0  0  0  0
  -28.0684  -31.8508   26.5444 H   0  0  0  0  0  0
  -28.2563  -38.0119   24.7551 H   0  0  0  0  0  0
  -28.1097  -36.2648   24.6248 H   0  0  0  0  0  0
  -27.2295  -37.1399   25.8862 H   0  0  0  0  0  0
  -20.9299  -29.8794   21.6933 H   0  0  0  0  0  0
  -26.0152  -38.2855   24.1453 H   0  0  0  0  0  0
  -30.9545  -17.8209   19.0143 H   0  0  0  0  0  0
  -30.4590  -19.9980   18.0597 H   0  0  0  0  0  0
  -28.3966  -21.1435   21.6715 H   0  0  0  0  0  0
  -28.6735  -26.4319   18.1286 H   0  0  0  0  0  0
  -29.8676  -24.3917   17.0075 H   0  0  0  0  0  0
  -28.2069  -23.7978   17.0008 H   0  0  0  0  0  0
  -27.8166  -23.2576   20.4024 H   0  0  0  0  0  0
  -29.5233  -23.5520   20.7652 H   0  0  0  0  0  0
  -30.6879  -22.3469   17.8220 H   0  0  0  0  0  0
  -29.1807  -21.6984   17.1603 H   0  0  0  0  0  0
  -27.9269  -19.5502   23.3287 H   0  0  0  0  0  0
  -29.4953  -18.8715   23.7612 H   0  0  0  0  0  0
  -28.2336  -17.8448   23.0578 H   0  0  0  0  0  0
  -30.3946  -16.8945   22.6209 H   0  0  0  0  0  0
  -31.5948  -16.8797   21.3956 H   0  0  0  0  0  0
  -29.0183  -15.3603   21.3395 H   0  0  0  0  0  0
  1 25  1  0  0  0
  1 30  2  0  0  0
  1 85  1  0  0  0
  2  3  1  0  0  0
  2 25  1  0  0  0
  2 86  1  0  0  0
  2 87  1  0  0  0
  3  4  1  0  0  0
  3 88  1  0  0  0
  3 89  1  0  0  0
  4  5  1  0  0  0
  4 90  1  0  0  0
  4 91  1  0  0  0
  5  6  1  0  0  0
  5 26  1  0  0  0
  5 92  1  0  0  0
  6 25  1  0  0  0
  6 93  1  0  0  0
  6 94  1  0  0  0
  7  8  2  0  0  0
  7 26  1  0  0  0
  7 29  1  0  0  0
  8  9  1  0  0  0
  8 22  1  0  0  0
  9 10  1  0  0  0
  9 27  2  0  0  0
 10 11  2  0  0  0
 10 15  1  0  0  0
 11 12  1  0  0  0
 11 95  1  0  0  0
 12 13  2  0  0  0
 12 96  1  0  0  0
 13 14  1  0  0  0
 13 31  1  0  0  0
 14 15  2  0  0  0
 14 97  1  0  0  0
 15 98  1  0  0  0
 16 17  2  0  0  0
 16 21  1  0  0  0
 16 31  1  0  0  0
 17 18  1  0  0  0
 17 99  1  0  0  0
 18 19  2  0  0  0
 18100  1  0  0  0
 19 20  1  0  0  0
 19 24  1  0  0  0
 20 21  2  0  0  0
 20101  1  0  0  0
 21 23  1  0  0  0
 22 28  1  0  0  0
 22 32  2  0  0  0
 26 27  1  0  0  0
 28102  1  0  0  0
 28103  1  0  0  0
 29104  1  0  0  0
 29105  1  0  0  0
 33 34  1  0  0  0
 33 66  1  0  0  0
 33 70  2  0  0  0
 34 36  1  0  0  0
 34 59  1  0  0  0
 34106  1  0  0  0
 35 44  2  0  0  0
 35 45  1  0  0  0
 35 68  1  0  0  0
 36 56  1  0  0  0
 36107  1  0  0  0
 37 39  1  0  0  0
 37 47  1  0  0  0
 37 66  1  0  0  0
 37108  1  0  0  0
 38 43  2  0  0  0
 38 46  1  0  0  0
 38 47  1  0  0  0
 39 64  1  0  0  0
 39 67  2  0  0  0
 40 52  1  0  0  0
 40 53  2  0  0  0
 40 58  1  0  0  0
 41109  1  0  0  0
 41110  1  0  0  0
 41111  1  0  0  0
 41 48  1  0  0  0
 42 43  1  0  0  0
 42 66  1  0  0  0
 42112  1  0  0  0
 42113  1  0  0  0
 43 44  1  0  0  0
 44114  1  0  0  0
 45 46  2  0  0  0
 45115  1  0  0  0
 46116  1  0  0  0
 47117  1  0  0  0
 47118  1  0  0  0
 48 56  1  0  0  0
 48 65  1  0  0  0
 48119  1  0  0  0
 49 50  1  0  0  0
 49 53  1  0  0  0
 49 64  1  0  0  0
 49120  1  0  0  0
 50 51  1  0  0  0
 50121  1  0  0  0
 50122  1  0  0  0
 51 52  1  0  0  0
 51123  1  0  0  0
 51124  1  0  0  0
 52125  1  0  0  0
 52126  1  0  0  0
 53 54  1  0  0  0
 54 55  2  0  0  0
 54127  1  0  0  0
 55 57  1  0  0  0
 55128  1  0  0  0
 56 69  2  0  0  0
 57 58  2  0  0  0
 57129  1  0  0  0
 58130  1  0  0  0
 59 60  1  0  0  0
 59 61  1  0  0  0
 59 62  1  0  0  0
 60131  1  0  0  0
 60132  1  0  0  0
 60133  1  0  0  0
 61134  1  0  0  0
 61135  1  0  0  0
 61136  1  0  0  0
 62137  1  0  0  0
 62138  1  0  0  0
 62139  1  0  0  0
 63 65  1  0  0  0
 63140  1  0  0  0
 63141  1  0  0  0
 63142  1  0  0  0
 64143  1  0  0  0
 65144  1  0  0  0
 68 78  1  0  0  0
 71 72  2  0  0  0
 71 74  1  0  0  0
 71145  1  0  0  0
 72 76  1  0  0  0
 72146  1  0  0  0
 73 75  1  0  0  0
 73 76  2  0  0  0
 73147  1  0  0  0
 74 75  2  0  0  0
 74 83  1  0  0  0
 75 82  1  0  0  0
 76 84  1  0  0  0
 77 78  2  0  0  0
 77 79  1  0  0  0
 77 80  1  0  0  0
 78148  1  0  0  0
 79 81  1  0  0  0
 79149  1  0  0  0
 79150  1  0  0  0
 80 84  1  0  0  0
 80151  1  0  0  0
 80152  1  0  0  0
 81 84  1  0  0  0
 81153  1  0  0  0
 81154  1  0  0  0
 82155  1  0  0  0
 82156  1  0  0  0
 82157  1  0  0  0
 83 85  1  0  0  0
 83158  1  0  0  0
 83159  1  0  0  0
 85160  1  0  0  0
M  ISO  4   1 100  68 101  78 101  85 100
M  END
> <chiral flag>
0

> <version>
0

> <s_m_source_file>
/data/baiqing/PycharmProjects/Reinvent-master-3.2/result/LINK_invent/BTK/process_docking_weight1_custom_product_contain_oxygen_bond_distance_aromatic_linkinvent_7_9_3/rearranged_h_0102.sdf

> <i_m_source_file_index>
95

> <r_mmod_Potential_Energy-OPLS-2005>
-24.7734756469727

> <r_mmod_Stretch_Energy-OPLS-2005>
48.5858421325684

> <r_mmod_Bend_Energy-OPLS-2005>
157.974563598633

> <r_mmod_Torsional_Energy-OPLS-2005>
223.027694702148

> <r_mmod_Improper_Torsional_Energy-OPLS-2005>
4.23609781265259

> <r_mmod_Van_der_Waal_Energy-OPLS-2005>
149.644546508789

> <r_mmod_Electrostatic_Energy-OPLS-2005>
-406.628112792969

> <r_mmod_Solvation_Energy-OPLS-2005>
-225.056823730469

> <b_mmod_Minimization_Converged-OPLS-2005>
0

> <r_mmod_RMS_Derivative-OPLS-2005>
1.60319781303406

$$$$
96
                    3D
 Structure written by MMmdl.
164172  0  0  1  0            999 V2000
  -30.7398  -14.4015   20.6611 C   0  0  0  0  0  0
  -30.4216  -12.2946   19.4040 C   0  0  0  0  0  0
  -29.4917  -12.5213   18.1974 C   0  0  0  0  0  0
  -28.0130  -12.3805   18.6114 C   0  0  0  0  0  0
  -27.6656  -13.2030   19.8788 C   0  0  2  0  0  0
  -28.7038  -12.9481   20.9932 C   0  0  0  0  0  0
  -25.2600  -13.8157   20.5673 C   0  0  0  0  0  0
  -24.1868  -13.0434   20.9158 C   0  0  0  0  0  0
  -24.6386  -11.6902   20.8686 C   0  0  0  0  0  0
  -23.9065  -10.4293   21.0393 C   0  0  0  0  0  0
  -24.3606   -9.4208   21.9173 C   0  0  0  0  0  0
  -23.6298   -8.2235   22.0752 C   0  0  0  0  0  0
  -22.4274   -8.0277   21.3551 C   0  0  0  0  0  0
  -21.9909   -9.0240   20.4641 C   0  0  0  0  0  0
  -22.7225  -10.2126   20.3048 C   0  0  0  0  0  0
  -21.6851   -6.0715   22.5282 C   0  0  0  0  0  0
  -21.4013   -6.5637   23.8200 C   0  0  0  0  0  0
  -21.3658   -5.6783   24.9174 C   0  0  0  0  0  0
  -21.6052   -4.3048   24.7219 C   0  0  0  0  0  0
  -21.8817   -3.8140   23.4345 C   0  0  0  0  0  0
  -21.9190   -4.6955   22.3399 C   0  0  0  0  0  0
  -22.7863  -13.5248   21.1841 C   0  0  0  0  0  0
  -22.1662   -4.2134   21.0977 F   0  0  0  0  0  0
  -21.5626   -3.4543   25.7743 F   0  0  0  0  0  0
  -30.0458  -13.2540   20.4535 N   0  0  0  0  0  0
  -26.3042  -12.9317   20.3364 N   0  0  0  0  0  0
  -25.9331  -11.6485   20.5764 N   0  0  0  0  0  0
  -22.0504  -12.8227   22.0393 N   0  0  0  0  0  0
  -25.4350  -15.1869   20.4102 N   0  0  0  0  0  0
  -31.7986  -14.6677   20.0730 O   0  0  0  0  0  0
  -21.6639   -6.8874   21.4250 O   0  0  0  0  0  0
  -22.3565  -14.5521   20.6677 O   0  0  0  0  0  0
  -24.6096  -31.8693   23.2107 C   0  0  0  0  0  0
  -25.9021  -32.4846   23.8378 C   0  0  1  0  0  0
  -27.3059  -27.4777   20.1239 C   0  0  0  0  0  0
  -25.5872  -33.8624   24.2300 N   0  0  0  0  0  0
  -23.4019  -30.4883   21.5499 C   0  0  2  0  0  0
  -24.8681  -28.9587   20.1270 C   0  0  0  0  0  0
  -22.7403  -29.4646   22.4983 C   0  0  0  0  0  0
  -18.0263  -28.1406   22.8482 C   0  0  0  0  0  0
  -24.1492  -36.7308   23.2641 C   0  0  0  0  0  0
  -25.9278  -30.8524   21.3600 C   0  0  0  0  0  0
  -26.0221  -29.4871   20.7188 C   0  0  0  0  0  0
  -27.2318  -28.7588   20.7160 C   0  0  0  0  0  0
  -26.1238  -26.9659   19.5258 C   0  0  0  0  0  0
  -24.9118  -27.6895   19.5244 C   0  0  0  0  0  0
  -23.6182  -29.8094   20.1685 C   0  0  0  0  0  0
  -25.4104  -36.3097   24.0339 C   0  0  1  0  0  0
  -20.5866  -28.3660   23.1315 C   0  0  2  0  0  0
  -20.6773  -26.9414   22.5401 C   0  0  0  0  0  0
  -19.5749  -26.6393   21.5227 C   0  0  0  0  0  0
  -18.1918  -26.7946   22.1630 C   0  0  0  0  0  0
  -19.1524  -28.8848   23.2896 C   0  0  0  0  0  0
  -18.9465  -30.1454   23.8912 C   0  0  0  0  0  0
  -17.6471  -30.6599   24.0583 C   0  0  0  0  0  0
  -25.9032  -34.9481   23.5121 C   0  0  0  0  0  0
  -16.5355  -29.9113   23.6347 C   0  0  0  0  0  0
  -16.7266  -28.6546   23.0349 C   0  0  0  0  0  0
  -26.4450  -31.6603   25.0715 C   0  0  0  0  0  0
  -25.3705  -31.3719   26.1471 C   0  0  0  0  0  0
  -27.0278  -30.3042   24.6073 C   0  0  0  0  0  0
  -27.6049  -32.4311   25.7461 C   0  0  0  0  0  0
  -27.5566  -37.1794   24.8459 C   0  0  0  0  0  0
  -21.4141  -29.3015   22.3733 N   0  0  0  0  0  0
  -26.4286  -37.3774   23.9402 N   0  0  0  0  0  0
  -24.6629  -31.0851   22.0962 N   0  0  0  0  0  0
  -23.4171  -28.8208   23.3034 O   0  0  0  0  0  0
  -28.5127  -26.7832   20.1385 O   0  0  0  0  0  0
  -26.5607  -34.8931   22.4687 O   0  0  0  0  0  0
  -23.5266  -32.1409   23.7497 O   0  0  0  0  0  0
  -31.8157  -18.6923   23.3714 C   0  0  0  0  0  0
  -31.0999  -16.3666   23.4737 C   0  0  0  0  0  0
  -30.9542  -17.5997   21.3731 C   0  0  0  0  0  0
  -31.6335  -17.4990   24.1184 C   0  0  0  0  0  0
  -31.4628  -18.7608   22.0033 C   0  0  0  0  0  0
  -30.7736  -16.4012   22.1058 C   0  0  0  0  0  0
  -32.3965  -18.3729   26.3536 C   0  0  0  0  0  0
  -31.9571  -17.3881   25.5526 C   0  0  0  0  0  0
  -30.7418  -22.2480   20.5607 C   0  0  0  0  0  0
  -29.6775  -21.0548   22.4481 C   0  0  0  0  0  0
  -31.6671  -20.0579   21.2127 C   0  0  0  0  0  0
  -29.6860  -23.3789   20.6947 C   0  0  0  0  0  0
  -29.8425  -24.6225   19.7675 C   0  0  0  0  0  0
  -28.5103  -25.4363   19.6408 C   0  0  0  0  0  0
  -30.1780  -15.2496   21.5298 N   0  0  0  0  0  0
  -30.6628  -21.1418   21.3607 N   0  0  0  0  0  0
  -31.6220  -22.3804   19.7021 O   0  0  0  0  0  0
  -31.4660  -12.3943   19.1041 H   0  0  0  0  0  0
  -30.3213  -11.2743   19.7790 H   0  0  0  0  0  0
  -29.7272  -11.8129   17.4016 H   0  0  0  0  0  0
  -29.6641  -13.5150   17.7821 H   0  0  0  0  0  0
  -27.8193  -11.3223   18.7938 H   0  0  0  0  0  0
  -27.3624  -12.6696   17.7856 H   0  0  0  0  0  0
  -27.7241  -14.2561   19.6037 H   0  0  0  0  0  0
  -28.6737  -11.9035   21.3049 H   0  0  0  0  0  0
  -28.4492  -13.5154   21.8884 H   0  0  0  0  0  0
  -25.2750   -9.5670   22.4746 H   0  0  0  0  0  0
  -23.9983   -7.4633   22.7480 H   0  0  0  0  0  0
  -21.0826   -8.8767   19.8953 H   0  0  0  0  0  0
  -22.3692  -10.9660   19.6147 H   0  0  0  0  0  0
  -21.2013   -7.6146   23.9708 H   0  0  0  0  0  0
  -21.1486   -6.0519   25.9068 H   0  0  0  0  0  0
  -22.0599   -2.7611   23.2853 H   0  0  0  0  0  0
  -22.4131  -11.9888   22.4762 H   0  0  0  0  0  0
  -21.1113  -13.1257   22.2597 H   0  0  0  0  0  0
  -24.6744  -15.8477   20.5292 H   0  0  0  0  0  0
  -26.2960  -15.6260   20.1101 H   0  0  0  0  0  0
  -26.7105  -32.5567   23.1165 H   0  0  0  0  0  0
  -25.0034  -33.9782   25.0452 H   0  0  0  0  0  0
  -22.6919  -31.2988   21.3980 H   0  0  0  0  0  0
  -23.3753  -35.9640   23.3314 H   0  0  0  0  0  0
  -24.3579  -36.8895   22.2053 H   0  0  0  0  0  0
  -23.7228  -37.6513   23.6638 H   0  0  0  0  0  0
  -26.0317  -31.6204   20.5886 H   0  0  0  0  0  0
  -26.8133  -30.9118   21.9810 H   0  0  0  0  0  0
  -28.1071  -29.1954   21.1722 H   0  0  0  0  0  0
  -26.1248  -26.0017   19.0441 H   0  0  0  0  0  0
  -24.0406  -27.2501   19.0550 H   0  0  0  0  0  0
  -23.7215  -30.5778   19.3969 H   0  0  0  0  0  0
  -22.7527  -29.2127   19.8699 H   0  0  0  0  0  0
  -25.1280  -36.1976   25.0832 H   0  0  0  0  0  0
  -20.9959  -28.3258   24.1432 H   0  0  0  0  0  0
  -20.5669  -26.2308   23.3594 H   0  0  0  0  0  0
  -21.6651  -26.7459   22.1212 H   0  0  0  0  0  0
  -19.6910  -25.6309   21.1241 H   0  0  0  0  0  0
  -19.6693  -27.3229   20.6780 H   0  0  0  0  0  0
  -17.4180  -26.6700   21.4013 H   0  0  0  0  0  0
  -18.0318  -26.0083   22.9007 H   0  0  0  0  0  0
  -19.7947  -30.7268   24.2295 H   0  0  0  0  0  0
  -17.5036  -31.6288   24.5176 H   0  0  0  0  0  0
  -15.5367  -30.3034   23.7651 H   0  0  0  0  0  0
  -15.8672  -28.0883   22.7046 H   0  0  0  0  0  0
  -24.5907  -30.7009   25.7788 H   0  0  0  0  0  0
  -24.8878  -32.2920   26.4840 H   0  0  0  0  0  0
  -25.8083  -30.8940   27.0253 H   0  0  0  0  0  0
  -26.2826  -29.6831   24.1083 H   0  0  0  0  0  0
  -27.4039  -29.7258   25.4516 H   0  0  0  0  0  0
  -27.8676  -30.4383   23.9216 H   0  0  0  0  0  0
  -27.2695  -33.3646   26.2035 H   0  0  0  0  0  0
  -28.3869  -32.6849   25.0262 H   0  0  0  0  0  0
  -28.0718  -31.8424   26.5358 H   0  0  0  0  0  0
  -28.2598  -38.0087   24.7538 H   0  0  0  0  0  0
  -28.1061  -36.2641   24.6276 H   0  0  0  0  0  0
  -27.2316  -37.1457   25.8868 H   0  0  0  0  0  0
  -20.9311  -29.8728   21.6947 H   0  0  0  0  0  0
  -26.0188  -38.2846   24.1436 H   0  0  0  0  0  0
  -32.2188  -19.5723   23.8471 H   0  0  0  0  0  0
  -30.9480  -15.4546   24.0341 H   0  0  0  0  0  0
  -30.6747  -17.6307   20.3298 H   0  0  0  0  0  0
  -32.6011  -18.1724   27.3979 H   0  0  0  0  0  0
  -32.5554  -19.3831   26.0061 H   0  0  0  0  0  0
  -31.8222  -16.4131   26.0040 H   0  0  0  0  0  0
  -28.7022  -21.4525   22.1767 H   0  0  0  0  0  0
  -30.0342  -21.5981   23.3203 H   0  0  0  0  0  0
  -29.4597  -20.0420   22.7592 H   0  0  0  0  0  0
  -31.7431  -19.7889   20.1601 H   0  0  0  0  0  0
  -32.6416  -20.4629   21.4893 H   0  0  0  0  0  0
  -29.6281  -23.7002   21.7378 H   0  0  0  0  0  0
  -28.7246  -22.9253   20.4528 H   0  0  0  0  0  0
  -30.0581  -24.2752   18.7617 H   0  0  0  0  0  0
  -30.7164  -25.2109   20.0384 H   0  0  0  0  0  0
  -28.2695  -25.4826   18.5708 H   0  0  0  0  0  0
  -27.7065  -24.8859   20.1406 H   0  0  0  0  0  0
  -29.3423  -14.8986   21.9765 H   0  0  0  0  0  0
  1 25  1  0  0  0
  1 30  2  0  0  0
  1 85  1  0  0  0
  2  3  1  0  0  0
  2 25  1  0  0  0
  2 88  1  0  0  0
  2 89  1  0  0  0
  3  4  1  0  0  0
  3 90  1  0  0  0
  3 91  1  0  0  0
  4  5  1  0  0  0
  4 92  1  0  0  0
  4 93  1  0  0  0
  5  6  1  0  0  0
  5 26  1  0  0  0
  5 94  1  0  0  0
  6 25  1  0  0  0
  6 95  1  0  0  0
  6 96  1  0  0  0
  7  8  2  0  0  0
  7 26  1  0  0  0
  7 29  1  0  0  0
  8  9  1  0  0  0
  8 22  1  0  0  0
  9 10  1  0  0  0
  9 27  2  0  0  0
 10 11  2  0  0  0
 10 15  1  0  0  0
 11 12  1  0  0  0
 11 97  1  0  0  0
 12 13  2  0  0  0
 12 98  1  0  0  0
 13 14  1  0  0  0
 13 31  1  0  0  0
 14 15  2  0  0  0
 14 99  1  0  0  0
 15100  1  0  0  0
 16 17  2  0  0  0
 16 21  1  0  0  0
 16 31  1  0  0  0
 17 18  1  0  0  0
 17101  1  0  0  0
 18 19  2  0  0  0
 18102  1  0  0  0
 19 20  1  0  0  0
 19 24  1  0  0  0
 20 21  2  0  0  0
 20103  1  0  0  0
 21 23  1  0  0  0
 22 28  1  0  0  0
 22 32  2  0  0  0
 26 27  1  0  0  0
 28104  1  0  0  0
 28105  1  0  0  0
 29106  1  0  0  0
 29107  1  0  0  0
 33 34  1  0  0  0
 33 66  1  0  0  0
 33 70  2  0  0  0
 34 36  1  0  0  0
 34 59  1  0  0  0
 34108  1  0  0  0
 35 44  2  0  0  0
 35 45  1  0  0  0
 35 68  1  0  0  0
 36 56  1  0  0  0
 36109  1  0  0  0
 37 39  1  0  0  0
 37 47  1  0  0  0
 37 66  1  0  0  0
 37110  1  0  0  0
 38 43  2  0  0  0
 38 46  1  0  0  0
 38 47  1  0  0  0
 39 64  1  0  0  0
 39 67  2  0  0  0
 40 52  1  0  0  0
 40 53  2  0  0  0
 40 58  1  0  0  0
 41111  1  0  0  0
 41112  1  0  0  0
 41113  1  0  0  0
 41 48  1  0  0  0
 42 43  1  0  0  0
 42 66  1  0  0  0
 42114  1  0  0  0
 42115  1  0  0  0
 43 44  1  0  0  0
 44116  1  0  0  0
 45 46  2  0  0  0
 45117  1  0  0  0
 46118  1  0  0  0
 47119  1  0  0  0
 47120  1  0  0  0
 48 56  1  0  0  0
 48 65  1  0  0  0
 48121  1  0  0  0
 49 50  1  0  0  0
 49 53  1  0  0  0
 49 64  1  0  0  0
 49122  1  0  0  0
 50 51  1  0  0  0
 50123  1  0  0  0
 50124  1  0  0  0
 51 52  1  0  0  0
 51125  1  0  0  0
 51126  1  0  0  0
 52127  1  0  0  0
 52128  1  0  0  0
 53 54  1  0  0  0
 54 55  2  0  0  0
 54129  1  0  0  0
 55 57  1  0  0  0
 55130  1  0  0  0
 56 69  2  0  0  0
 57 58  2  0  0  0
 57131  1  0  0  0
 58132  1  0  0  0
 59 60  1  0  0  0
 59 61  1  0  0  0
 59 62  1  0  0  0
 60133  1  0  0  0
 60134  1  0  0  0
 60135  1  0  0  0
 61136  1  0  0  0
 61137  1  0  0  0
 61138  1  0  0  0
 62139  1  0  0  0
 62140  1  0  0  0
 62141  1  0  0  0
 63 65  1  0  0  0
 63142  1  0  0  0
 63143  1  0  0  0
 63144  1  0  0  0
 64145  1  0  0  0
 65146  1  0  0  0
 68 84  1  0  0  0
 71 74  2  0  0  0
 71 75  1  0  0  0
 71147  1  0  0  0
 72 74  1  0  0  0
 72 76  2  0  0  0
 72148  1  0  0  0
 73 75  2  0  0  0
 73 76  1  0  0  0
 73149  1  0  0  0
 74 78  1  0  0  0
 75 81  1  0  0  0
 76 85  1  0  0  0
 77 78  2  0  0  0
 77150  1  0  0  0
 77151  1  0  0  0
 78152  1  0  0  0
 79 82  1  0  0  0
 79 86  1  0  0  0
 79 87  2  0  0  0
 80 86  1  0  0  0
 80153  1  0  0  0
 80154  1  0  0  0
 80155  1  0  0  0
 81 86  1  0  0  0
 81156  1  0  0  0
 81157  1  0  0  0
 82 83  1  0  0  0
 82158  1  0  0  0
 82159  1  0  0  0
 83 84  1  0  0  0
 83160  1  0  0  0
 83161  1  0  0  0
 84162  1  0  0  0
 84163  1  0  0  0
 85164  1  0  0  0
M  ISO  4   1 100  68 101  84 101  85 100
M  END
> <chiral flag>
0

> <version>
0

> <s_m_source_file>
/data/baiqing/PycharmProjects/Reinvent-master-3.2/result/LINK_invent/BTK/process_docking_weight1_custom_product_contain_oxygen_bond_distance_aromatic_linkinvent_7_9_3/rearranged_h_0102.sdf

> <i_m_source_file_index>
96

> <r_mmod_Potential_Energy-OPLS-2005>
-43.6463775634766

> <r_mmod_Stretch_Energy-OPLS-2005>
44.9645729064941

> <r_mmod_Bend_Energy-OPLS-2005>
111.652191162109

> <r_mmod_Torsional_Energy-OPLS-2005>
249.722778320312

> <r_mmod_Improper_Torsional_Energy-OPLS-2005>
2.6923303604126

> <r_mmod_Van_der_Waal_Energy-OPLS-2005>
175.869415283203

> <r_mmod_Electrostatic_Energy-OPLS-2005>
-401.84326171875

> <r_mmod_Solvation_Energy-OPLS-2005>
-236.685607910156

> <b_mmod_Minimization_Converged-OPLS-2005>
0

> <r_mmod_RMS_Derivative-OPLS-2005>
11.2021045684814

$$$$
