0
                    3D
 Structure written by MMmdl.
152161  0  0  1  0            999 V2000
  -30.6287  -14.7395   20.5564 C   0  0  0  0  0  0
  -30.4378  -12.4744   19.4736 C   0  0  0  0  0  0
  -29.5123  -12.5322   18.2375 C   0  0  0  0  0  0
  -28.0399  -12.3408   18.6466 C   0  0  0  0  0  0
  -27.6463  -13.2283   19.8548 C   0  0  2  0  0  0
  -28.6842  -13.1266   20.9897 C   0  0  0  0  0  0
  -25.2528  -13.8188   20.5680 C   0  0  0  0  0  0
  -24.1808  -13.0437   20.9178 C   0  0  0  0  0  0
  -24.6395  -11.6913   20.8725 C   0  0  0  0  0  0
  -23.9069  -10.4293   21.0399 C   0  0  0  0  0  0
  -24.3621   -9.4211   21.9179 C   0  0  0  0  0  0
  -23.6296   -8.2247   22.0752 C   0  0  0  0  0  0
  -22.4277   -8.0283   21.3545 C   0  0  0  0  0  0
  -21.9911   -9.0255   20.4646 C   0  0  0  0  0  0
  -22.7239  -10.2134   20.3052 C   0  0  0  0  0  0
  -21.6854   -6.0738   22.5281 C   0  0  0  0  0  0
  -21.4014   -6.5641   23.8214 C   0  0  0  0  0  0
  -21.3660   -5.6793   24.9176 C   0  0  0  0  0  0
  -21.6045   -4.3056   24.7226 C   0  0  0  0  0  0
  -21.8819   -3.8149   23.4346 C   0  0  0  0  0  0
  -21.9193   -4.6966   22.3403 C   0  0  0  0  0  0
  -22.7832  -13.5223   21.1857 C   0  0  0  0  0  0
  -22.1661   -4.2151   21.0981 F   0  0  0  0  0  0
  -21.5629   -3.4539   25.7738 F   0  0  0  0  0  0
  -29.9954  -13.5121   20.4402 N   0  0  0  0  0  0
  -26.2953  -12.9387   20.3270 N   0  0  0  0  0  0
  -25.9323  -11.6530   20.5722 N   0  0  0  0  0  0
  -22.0486  -12.8212   22.0420 N   0  0  0  0  0  0
  -25.4242  -15.1909   20.4136 N   0  0  0  0  0  0
  -31.7338  -14.9002   20.0272 O   0  0  0  0  0  0
  -21.6640   -6.8880   21.4243 O   0  0  0  0  0  0
  -22.3509  -14.5530   20.6713 O   0  0  0  0  0  0
  -24.6328  -31.8539   23.1975 C   0  0  0  0  0  0
  -25.9146  -32.4750   23.8327 C   0  0  1  0  0  0
  -27.2224  -27.2531   20.1332 C   0  0  0  0  0  0
  -25.5934  -33.8552   24.2247 N   0  0  0  0  0  0
  -23.4317  -30.4757   21.5406 C   0  0  2  0  0  0
  -24.8828  -28.9222   20.1094 C   0  0  0  0  0  0
  -22.7515  -29.4593   22.4901 C   0  0  0  0  0  0
  -18.0294  -28.1389   22.8482 C   0  0  0  0  0  0
  -24.1490  -36.7281   23.2640 C   0  0  0  0  0  0
  -25.9791  -30.7636   21.3809 C   0  0  0  0  0  0
  -26.0551  -29.3850   20.7232 C   0  0  0  0  0  0
  -27.2309  -28.5623   20.7266 C   0  0  0  0  0  0
  -26.0316  -26.8647   19.4835 C   0  0  0  0  0  0
  -24.8763  -27.6697   19.4775 C   0  0  0  0  0  0
  -23.6527  -29.8094   20.1572 C   0  0  0  0  0  0
  -25.4118  -36.3065   24.0324 C   0  0  1  0  0  0
  -20.5900  -28.3704   23.1261 C   0  0  2  0  0  0
  -20.6782  -26.9419   22.5407 C   0  0  0  0  0  0
  -19.5756  -26.6383   21.5212 C   0  0  0  0  0  0
  -18.1937  -26.7930   22.1625 C   0  0  0  0  0  0
  -19.1549  -28.8864   23.2866 C   0  0  0  0  0  0
  -18.9469  -30.1464   23.8886 C   0  0  0  0  0  0
  -17.6467  -30.6590   24.0561 C   0  0  0  0  0  0
  -25.9059  -34.9437   23.5089 C   0  0  0  0  0  0
  -16.5358  -29.9085   23.6333 C   0  0  0  0  0  0
  -16.7280  -28.6503   23.0354 C   0  0  0  0  0  0
  -26.4509  -31.6581   25.0723 C   0  0  0  0  0  0
  -25.3725  -31.3737   26.1439 C   0  0  0  0  0  0
  -27.0363  -30.2994   24.6226 C   0  0  0  0  0  0
  -27.6056  -32.4330   25.7499 C   0  0  0  0  0  0
  -27.5578  -37.1795   24.8466 C   0  0  0  0  0  0
  -21.4219  -29.3047   22.3646 N   0  0  0  0  0  0
  -26.4292  -37.3766   23.9407 N   0  0  0  0  0  0
  -24.7001  -31.0491   22.0959 N   0  0  0  0  0  0
  -23.4205  -28.8134   23.3009 O   0  0  0  0  0  0
  -28.2680  -26.2972   20.1792 O   0  0  0  0  0  0
  -26.5634  -34.8915   22.4660 O   0  0  0  0  0  0
  -23.5473  -32.1366   23.7258 O   0  0  0  0  0  0
  -30.2078  -19.4629   19.9183 C   0  0  0  0  0  0
  -30.4677  -18.0432   20.0569 C   0  0  0  0  0  0
  -28.4610  -19.3092   21.4667 C   0  0  0  0  0  0
  -29.2014  -20.2041   20.6320 C   0  0  0  0  0  0
  -29.7376  -17.1969   20.9482 C   0  0  0  0  0  0
  -28.6960  -17.9045   21.6222 C   0  0  0  0  0  0
  -28.4015  -23.7052   20.6106 C   0  0  0  0  0  0
  -27.9549  -22.4904   21.2710 C   0  0  0  0  0  0
  -29.3741  -22.8682   19.9066 C   0  0  0  0  0  0
  -27.9415  -25.0217   20.7410 C   0  0  0  0  0  0
  -30.0993  -15.5080   22.7507 C   0  0  0  0  0  0
  -28.8994  -21.6782   20.5791 N   0  0  0  0  0  0
  -30.0363  -15.7621   21.2986 N   0  0  0  0  0  0
  -27.0854  -22.3191   22.1036 O   0  0  0  0  0  0
  -30.2257  -23.1452   19.0841 O   0  0  0  0  0  0
  -27.8750  -17.2332   22.4654 F   0  0  0  0  0  0
  -31.4766  -12.6099   19.1682 H   0  0  0  0  0  0
  -30.3972  -11.4875   19.9370 H   0  0  0  0  0  0
  -29.8012  -11.7696   17.5129 H   0  0  0  0  0  0
  -29.6310  -13.4932   17.7347 H   0  0  0  0  0  0
  -27.9021  -11.2893   18.9018 H   0  0  0  0  0  0
  -27.3812  -12.5367   17.7997 H   0  0  0  0  0  0
  -27.6526  -14.2580   19.4961 H   0  0  0  0  0  0
  -28.7228  -12.1123   21.3892 H   0  0  0  0  0  0
  -28.3724  -13.7572   21.8182 H   0  0  0  0  0  0
  -25.2766   -9.5689   22.4751 H   0  0  0  0  0  0
  -24.0007   -7.4638   22.7471 H   0  0  0  0  0  0
  -21.0842   -8.8773   19.8953 H   0  0  0  0  0  0
  -22.3697  -10.9671   19.6161 H   0  0  0  0  0  0
  -21.2005   -7.6149   23.9718 H   0  0  0  0  0  0
  -21.1482   -6.0523   25.9079 H   0  0  0  0  0  0
  -22.0597   -2.7611   23.2846 H   0  0  0  0  0  0
  -22.4109  -11.9874   22.4802 H   0  0  0  0  0  0
  -21.1107  -13.1237   22.2638 H   0  0  0  0  0  0
  -24.6691  -15.8524   20.5551 H   0  0  0  0  0  0
  -26.2975  -15.6343   20.1596 H   0  0  0  0  0  0
  -26.7213  -32.5401   23.1069 H   0  0  0  0  0  0
  -25.0072  -33.9687   25.0387 H   0  0  0  0  0  0
  -22.7288  -31.2982   21.3928 H   0  0  0  0  0  0
  -23.3753  -35.9614   23.3302 H   0  0  0  0  0  0
  -24.3578  -36.8908   22.2055 H   0  0  0  0  0  0
  -23.7246  -37.6482   23.6669 H   0  0  0  0  0  0
  -26.1197  -31.5238   20.6112 H   0  0  0  0  0  0
  -26.8553  -30.8135   22.0155 H   0  0  0  0  0  0
  -28.1256  -28.9058   21.2263 H   0  0  0  0  0  0
  -25.9827  -25.8979   19.0024 H   0  0  0  0  0  0
  -23.9804  -27.3096   18.9906 H   0  0  0  0  0  0
  -23.7777  -30.5857   19.4015 H   0  0  0  0  0  0
  -22.7713  -29.2428   19.8512 H   0  0  0  0  0  0
  -25.1302  -36.1909   25.0816 H   0  0  0  0  0  0
  -20.9993  -28.3286   24.1382 H   0  0  0  0  0  0
  -20.5680  -26.2316   23.3615 H   0  0  0  0  0  0
  -21.6649  -26.7439   22.1202 H   0  0  0  0  0  0
  -19.6919  -25.6291   21.1249 H   0  0  0  0  0  0
  -19.6693  -27.3187   20.6736 H   0  0  0  0  0  0
  -17.4205  -26.6674   21.4029 H   0  0  0  0  0  0
  -18.0340  -26.0075   22.9024 H   0  0  0  0  0  0
  -19.7945  -30.7282   24.2250 H   0  0  0  0  0  0
  -17.5022  -31.6269   24.5164 H   0  0  0  0  0  0
  -15.5358  -30.2984   23.7664 H   0  0  0  0  0  0
  -15.8680  -28.0819   22.7076 H   0  0  0  0  0  0
  -24.5905  -30.7081   25.7766 H   0  0  0  0  0  0
  -24.8911  -32.2908   26.4843 H   0  0  0  0  0  0
  -25.8037  -30.8929   27.0228 H   0  0  0  0  0  0
  -26.2955  -29.6732   24.1241 H   0  0  0  0  0  0
  -27.4025  -29.7269   25.4758 H   0  0  0  0  0  0
  -27.8840  -30.4262   23.9490 H   0  0  0  0  0  0
  -27.2657  -33.3636   26.2057 H   0  0  0  0  0  0
  -28.3876  -32.6882   25.0335 H   0  0  0  0  0  0
  -28.0714  -31.8470   26.5431 H   0  0  0  0  0  0
  -28.2597  -38.0091   24.7509 H   0  0  0  0  0  0
  -28.1072  -36.2621   24.6299 H   0  0  0  0  0  0
  -27.2294  -37.1452   25.8869 H   0  0  0  0  0  0
  -20.9409  -29.8767   21.6846 H   0  0  0  0  0  0
  -26.0168  -38.2839   24.1408 H   0  0  0  0  0  0
  -30.8403  -20.0122   19.2347 H   0  0  0  0  0  0
  -31.2850  -17.6184   19.4919 H   0  0  0  0  0  0
  -27.6517  -19.7139   22.0554 H   0  0  0  0  0  0
  -27.1340  -25.1587   21.4483 H   0  0  0  0  0  0
  -30.5277  -16.3663   23.2697 H   0  0  0  0  0  0
  -30.7184  -14.6487   23.0216 H   0  0  0  0  0  0
  -29.1109  -15.3314   23.1728 H   0  0  0  0  0  0
  1 25  1  0  0  0
  1 30  2  0  0  0
  1 83  1  0  0  0
  2  3  1  0  0  0
  2 25  1  0  0  0
  2 87  1  0  0  0
  2 88  1  0  0  0
  3  4  1  0  0  0
  3 89  1  0  0  0
  3 90  1  0  0  0
  4  5  1  0  0  0
  4 91  1  0  0  0
  4 92  1  0  0  0
  5  6  1  0  0  0
  5 26  1  0  0  0
  5 93  1  0  0  0
  6 25  1  0  0  0
  6 94  1  0  0  0
  6 95  1  0  0  0
  7  8  2  0  0  0
  7 26  1  0  0  0
  7 29  1  0  0  0
  8  9  1  0  0  0
  8 22  1  0  0  0
  9 10  1  0  0  0
  9 27  2  0  0  0
 10 11  2  0  0  0
 10 15  1  0  0  0
 11 12  1  0  0  0
 11 96  1  0  0  0
 12 13  2  0  0  0
 12 97  1  0  0  0
 13 14  1  0  0  0
 13 31  1  0  0  0
 14 15  2  0  0  0
 14 98  1  0  0  0
 15 99  1  0  0  0
 16 17  2  0  0  0
 16 21  1  0  0  0
 16 31  1  0  0  0
 17 18  1  0  0  0
 17100  1  0  0  0
 18 19  2  0  0  0
 18101  1  0  0  0
 19 20  1  0  0  0
 19 24  1  0  0  0
 20 21  2  0  0  0
 20102  1  0  0  0
 21 23  1  0  0  0
 22 28  1  0  0  0
 22 32  2  0  0  0
 26 27  1  0  0  0
 28103  1  0  0  0
 28104  1  0  0  0
 29105  1  0  0  0
 29106  1  0  0  0
 33 34  1  0  0  0
 33 66  1  0  0  0
 33 70  2  0  0  0
 34 36  1  0  0  0
 34 59  1  0  0  0
 34107  1  0  0  0
 35 44  2  0  0  0
 35 45  1  0  0  0
 35 68  1  0  0  0
 36 56  1  0  0  0
 36108  1  0  0  0
 37 39  1  0  0  0
 37 47  1  0  0  0
 37 66  1  0  0  0
 37109  1  0  0  0
 38 43  2  0  0  0
 38 46  1  0  0  0
 38 47  1  0  0  0
 39 64  1  0  0  0
 39 67  2  0  0  0
 40 52  1  0  0  0
 40 53  2  0  0  0
 40 58  1  0  0  0
 41110  1  0  0  0
 41111  1  0  0  0
 41112  1  0  0  0
 41 48  1  0  0  0
 42 43  1  0  0  0
 42 66  1  0  0  0
 42113  1  0  0  0
 42114  1  0  0  0
 43 44  1  0  0  0
 44115  1  0  0  0
 45 46  2  0  0  0
 45116  1  0  0  0
 46117  1  0  0  0
 47118  1  0  0  0
 47119  1  0  0  0
 48 56  1  0  0  0
 48 65  1  0  0  0
 48120  1  0  0  0
 49 50  1  0  0  0
 49 53  1  0  0  0
 49 64  1  0  0  0
 49121  1  0  0  0
 50 51  1  0  0  0
 50122  1  0  0  0
 50123  1  0  0  0
 51 52  1  0  0  0
 51124  1  0  0  0
 51125  1  0  0  0
 52126  1  0  0  0
 52127  1  0  0  0
 53 54  1  0  0  0
 54 55  2  0  0  0
 54128  1  0  0  0
 55 57  1  0  0  0
 55129  1  0  0  0
 56 69  2  0  0  0
 57 58  2  0  0  0
 57130  1  0  0  0
 58131  1  0  0  0
 59 60  1  0  0  0
 59 61  1  0  0  0
 59 62  1  0  0  0
 60132  1  0  0  0
 60133  1  0  0  0
 60134  1  0  0  0
 61135  1  0  0  0
 61136  1  0  0  0
 61137  1  0  0  0
 62138  1  0  0  0
 62139  1  0  0  0
 62140  1  0  0  0
 63 65  1  0  0  0
 63141  1  0  0  0
 63142  1  0  0  0
 63143  1  0  0  0
 64144  1  0  0  0
 65145  1  0  0  0
 68 80  1  0  0  0
 71 72  2  0  0  0
 71 74  1  0  0  0
 71146  1  0  0  0
 72 75  1  0  0  0
 72147  1  0  0  0
 73 74  2  0  0  0
 73 76  1  0  0  0
 73148  1  0  0  0
 74 82  1  0  0  0
 75 76  2  0  0  0
 75 83  1  0  0  0
 76 86  1  0  0  0
 77 78  1  0  0  0
 77 79  1  0  0  0
 77 80  2  0  0  0
 78 82  1  0  0  0
 78 84  2  0  0  0
 79 82  1  0  0  0
 79 85  2  0  0  0
 80149  1  0  0  0
 81 83  1  0  0  0
 81150  1  0  0  0
 81151  1  0  0  0
 81152  1  0  0  0
M  ISO  4   1 100  68 101  80 101  83 100
M  END
> <chiral flag>
0

> <version>
0

> <s_m_source_file>
/data/baiqing/PycharmProjects/Reinvent-master-3.2/result/LINK_invent/BTK/process_docking_weight1_custom_product_contain_oxygen_bond_distance_aromatic_linkinvent_7_9_3/rearranged_h_0084.sdf

> <i_m_source_file_index>
1

> <r_mmod_Potential_Energy-OPLS-2005>
376.231964111328

> <r_mmod_Stretch_Energy-OPLS-2005>
128.243377685547

> <r_mmod_Bend_Energy-OPLS-2005>
277.088073730469

> <r_mmod_Torsional_Energy-OPLS-2005>
283.546752929688

> <r_mmod_Improper_Torsional_Energy-OPLS-2005>
3.20462894439697

> <r_mmod_Van_der_Waal_Energy-OPLS-2005>
141.414627075195

> <r_mmod_Electrostatic_Energy-OPLS-2005>
-342.184204101562

> <r_mmod_Solvation_Energy-OPLS-2005>
-204.813827514648

> <b_mmod_Minimization_Converged-OPLS-2005>
0

> <r_mmod_RMS_Derivative-OPLS-2005>
0.46149206161499

$$$$
1
                    3D
 Structure written by MMmdl.
152160  0  0  1  0            999 V2000
  -30.5717  -14.8448   20.4172 C   0  0  0  0  0  0
  -30.4797  -12.5377   19.4113 C   0  0  0  0  0  0
  -29.5137  -12.5297   18.2030 C   0  0  0  0  0  0
  -28.0469  -12.3293   18.6434 C   0  0  0  0  0  0
  -27.6582  -13.2230   19.8490 C   0  0  2  0  0  0
  -28.7331  -13.1646   20.9629 C   0  0  0  0  0  0
  -25.2591  -13.8164   20.5687 C   0  0  0  0  0  0
  -24.1884  -13.0454   20.9187 C   0  0  0  0  0  0
  -24.6459  -11.6900   20.8751 C   0  0  0  0  0  0
  -23.9102  -10.4296   21.0403 C   0  0  0  0  0  0
  -24.3638   -9.4200   21.9177 C   0  0  0  0  0  0
  -23.6301   -8.2254   22.0774 C   0  0  0  0  0  0
  -22.4280   -8.0285   21.3579 C   0  0  0  0  0  0
  -21.9922   -9.0254   20.4670 C   0  0  0  0  0  0
  -22.7267  -10.2124   20.3057 C   0  0  0  0  0  0
  -21.6849   -6.0703   22.5263 C   0  0  0  0  0  0
  -21.3993   -6.5610   23.8183 C   0  0  0  0  0  0
  -21.3655   -5.6776   24.9152 C   0  0  0  0  0  0
  -21.6064   -4.3040   24.7208 C   0  0  0  0  0  0
  -21.8830   -3.8121   23.4331 C   0  0  0  0  0  0
  -21.9188   -4.6931   22.3380 C   0  0  0  0  0  0
  -22.7863  -13.5225   21.1760 C   0  0  0  0  0  0
  -22.1658   -4.2127   21.0947 F   0  0  0  0  0  0
  -21.5633   -3.4509   25.7711 F   0  0  0  0  0  0
  -30.0126  -13.5786   20.3588 N   0  0  0  0  0  0
  -26.3062  -12.9383   20.3326 N   0  0  0  0  0  0
  -25.9407  -11.6548   20.5818 N   0  0  0  0  0  0
  -22.0488  -12.8296   22.0322 N   0  0  0  0  0  0
  -25.4296  -15.1909   20.3946 N   0  0  0  0  0  0
  -31.7648  -14.9993   20.1469 O   0  0  0  0  0  0
  -21.6669   -6.8867   21.4240 O   0  0  0  0  0  0
  -22.3572  -14.5552   20.6581 O   0  0  0  0  0  0
  -24.6420  -31.8452   23.2001 C   0  0  0  0  0  0
  -25.9197  -32.4684   23.8403 C   0  0  1  0  0  0
  -27.2166  -27.1672   20.0856 C   0  0  0  0  0  0
  -25.5993  -33.8529   24.2273 N   0  0  0  0  0  0
  -23.4449  -30.4688   21.5436 C   0  0  2  0  0  0
  -24.9015  -28.9241   20.0800 C   0  0  0  0  0  0
  -22.7558  -29.4534   22.4883 C   0  0  0  0  0  0
  -18.0277  -28.1343   22.8432 C   0  0  0  0  0  0
  -24.1479  -36.7198   23.2650 C   0  0  0  0  0  0
  -26.0062  -30.6898   21.4368 C   0  0  0  0  0  0
  -26.0718  -29.3257   20.7428 C   0  0  0  0  0  0
  -27.2224  -28.4511   20.7591 C   0  0  0  0  0  0
  -26.0603  -26.9179   19.3133 C   0  0  0  0  0  0
  -24.9126  -27.7342   19.3442 C   0  0  0  0  0  0
  -23.6771  -29.8244   20.1522 C   0  0  0  0  0  0
  -25.4125  -36.3009   24.0310 C   0  0  1  0  0  0
  -20.5884  -28.3649   23.1195 C   0  0  2  0  0  0
  -20.6819  -26.9414   22.5245 C   0  0  0  0  0  0
  -19.5738  -26.6392   21.5109 C   0  0  0  0  0  0
  -18.1922  -26.7935   22.1455 C   0  0  0  0  0  0
  -19.1528  -28.8772   23.2822 C   0  0  0  0  0  0
  -18.9469  -30.1380   23.8864 C   0  0  0  0  0  0
  -17.6482  -30.6532   24.0590 C   0  0  0  0  0  0
  -25.9091  -34.9376   23.5096 C   0  0  0  0  0  0
  -16.5361  -29.9021   23.6405 C   0  0  0  0  0  0
  -16.7275  -28.6436   23.0331 C   0  0  0  0  0  0
  -26.4557  -31.6586   25.0866 C   0  0  0  0  0  0
  -25.3757  -31.3779   26.1566 C   0  0  0  0  0  0
  -27.0532  -30.2961   24.6639 C   0  0  0  0  0  0
  -27.6040  -32.4470   25.7657 C   0  0  0  0  0  0
  -27.5562  -37.1780   24.8472 C   0  0  0  0  0  0
  -21.4249  -29.3018   22.3611 N   0  0  0  0  0  0
  -26.4276  -37.3727   23.9395 N   0  0  0  0  0  0
  -24.7150  -31.0256   22.1080 N   0  0  0  0  0  0
  -23.4213  -28.8051   23.3003 O   0  0  0  0  0  0
  -28.2142  -26.1217   20.1395 O   0  0  0  0  0  0
  -26.5644  -34.8821   22.4659 O   0  0  0  0  0  0
  -23.5551  -32.1415   23.7127 O   0  0  0  0  0  0
  -27.9307  -18.8857   21.9225 C   0  0  0  0  0  0
  -28.5373  -20.0284   21.3906 C   0  0  0  0  0  0
  -28.4144  -17.6052   21.6209 C   0  0  0  0  0  0
  -30.0734  -18.6058   20.1443 C   0  0  0  0  0  0
  -29.5637  -19.9747   20.4397 C   0  0  0  0  0  0
  -29.5107  -17.3785   20.7579 C   0  0  0  0  0  0
  -30.0010  -21.3915   19.9026 C   0  0  0  0  0  0
  -29.5044  -22.7169   19.7772 C   0  0  0  0  0  0
  -27.7311  -24.7455   20.1021 C   0  0  0  0  0  0
  -28.1554  -23.3992   19.9372 C   0  0  0  0  0  0
  -26.9803  -22.4435   19.6956 C   0  0  0  0  0  0
  -29.6562  -15.8925   20.5207 N   0  0  0  0  0  0
  -31.4969  -12.7425   19.0602 H   0  0  0  0  0  0
  -30.5178  -11.5600   19.8891 H   0  0  0  0  0  0
  -29.8011  -11.7472   17.4964 H   0  0  0  0  0  0
  -29.5972  -13.4699   17.6559 H   0  0  0  0  0  0
  -27.9300  -11.2739   18.9053 H   0  0  0  0  0  0
  -27.3743  -12.5165   17.8063 H   0  0  0  0  0  0
  -27.6529  -14.2427   19.4656 H   0  0  0  0  0  0
  -28.8266  -12.1592   21.3739 H   0  0  0  0  0  0
  -28.4737  -13.8079   21.8076 H   0  0  0  0  0  0
  -25.2806   -9.5630   22.4711 H   0  0  0  0  0  0
  -23.9975   -7.4643   22.7516 H   0  0  0  0  0  0
  -21.0851   -8.8810   19.8962 H   0  0  0  0  0  0
  -22.3800  -10.9651   19.6122 H   0  0  0  0  0  0
  -21.2009   -7.6119   23.9677 H   0  0  0  0  0  0
  -21.1468   -6.0500   25.9058 H   0  0  0  0  0  0
  -22.0641   -2.7583   23.2840 H   0  0  0  0  0  0
  -22.4092  -11.9981   22.4804 H   0  0  0  0  0  0
  -21.1062  -13.1296   22.2399 H   0  0  0  0  0  0
  -24.6519  -15.8366   20.4733 H   0  0  0  0  0  0
  -26.2632  -15.6263   20.0208 H   0  0  0  0  0  0
  -26.7201  -32.5224   23.1073 H   0  0  0  0  0  0
  -25.0217  -33.9764   25.0471 H   0  0  0  0  0  0
  -22.7528  -31.3029   21.4079 H   0  0  0  0  0  0
  -23.3763  -35.9528   23.3344 H   0  0  0  0  0  0
  -24.3512  -36.8818   22.2067 H   0  0  0  0  0  0
  -23.7260  -37.6396   23.6702 H   0  0  0  0  0  0
  -26.2183  -31.4654   20.7034 H   0  0  0  0  0  0
  -26.8433  -30.6875   22.1227 H   0  0  0  0  0  0
  -28.0928  -28.7309   21.3351 H   0  0  0  0  0  0
  -26.0251  -26.0473   18.6705 H   0  0  0  0  0  0
  -24.0595  -27.4530   18.7402 H   0  0  0  0  0  0
  -23.8206  -30.6282   19.4289 H   0  0  0  0  0  0
  -22.7824  -29.2933   19.8183 H   0  0  0  0  0  0
  -25.1330  -36.1854   25.0810 H   0  0  0  0  0  0
  -21.0018  -28.3199   24.1314 H   0  0  0  0  0  0
  -21.6674  -26.7575   22.0887 H   0  0  0  0  0  0
  -20.5854  -26.2191   23.3354 H   0  0  0  0  0  0
  -19.6903  -25.6309   21.1133 H   0  0  0  0  0  0
  -19.6601  -27.3223   20.6621 H   0  0  0  0  0  0
  -17.4267  -26.6789   21.3709 H   0  0  0  0  0  0
  -18.0157  -26.0026   22.8747 H   0  0  0  0  0  0
  -19.7976  -30.7124   24.2203 H   0  0  0  0  0  0
  -17.5069  -31.6177   24.5202 H   0  0  0  0  0  0
  -15.5382  -30.2882   23.7755 H   0  0  0  0  0  0
  -15.8671  -28.0831   22.7000 H   0  0  0  0  0  0
  -24.5874  -30.7207   25.7844 H   0  0  0  0  0  0
  -24.9053  -32.3004   26.5011 H   0  0  0  0  0  0
  -25.8070  -30.8908   27.0327 H   0  0  0  0  0  0
  -26.3240  -29.6566   24.1645 H   0  0  0  0  0  0
  -27.4026  -29.7390   25.5344 H   0  0  0  0  0  0
  -27.9201  -30.4119   24.0116 H   0  0  0  0  0  0
  -27.2488  -33.3704   26.2235 H   0  0  0  0  0  0
  -28.3830  -32.7177   25.0517 H   0  0  0  0  0  0
  -28.0738  -31.8676   26.5618 H   0  0  0  0  0  0
  -28.2570  -38.0063   24.7455 H   0  0  0  0  0  0
  -28.1053  -36.2610   24.6382 H   0  0  0  0  0  0
  -27.2236  -37.1456   25.8847 H   0  0  0  0  0  0
  -20.9457  -29.8772   21.6823 H   0  0  0  0  0  0
  -26.0125  -38.2775   24.1455 H   0  0  0  0  0  0
  -27.0694  -19.0159   22.5617 H   0  0  0  0  0  0
  -28.1779  -20.9917   21.7194 H   0  0  0  0  0  0
  -27.8915  -16.7704   22.0657 H   0  0  0  0  0  0
  -30.8775  -18.4873   19.4300 H   0  0  0  0  0  0
  -31.0357  -21.3558   19.5920 H   0  0  0  0  0  0
  -30.2450  -23.4131   19.4019 H   0  0  0  0  0  0
  -26.6604  -24.7834   20.2418 H   0  0  0  0  0  0
  -27.1556  -21.4386   20.0214 H   0  0  0  0  0  0
  -26.8522  -22.2785   18.6246 H   0  0  0  0  0  0
  -26.0255  -22.7460   20.1362 H   0  0  0  0  0  0
  -28.7734  -15.4418   20.6891 H   0  0  0  0  0  0
  1 25  1  0  0  0
  1 30  2  0  0  0
  1 82  1  0  0  0
  2  3  1  0  0  0
  2 25  1  0  0  0
  2 83  1  0  0  0
  2 84  1  0  0  0
  3  4  1  0  0  0
  3 85  1  0  0  0
  3 86  1  0  0  0
  4  5  1  0  0  0
  4 87  1  0  0  0
  4 88  1  0  0  0
  5  6  1  0  0  0
  5 26  1  0  0  0
  5 89  1  0  0  0
  6 25  1  0  0  0
  6 90  1  0  0  0
  6 91  1  0  0  0
  7  8  2  0  0  0
  7 26  1  0  0  0
  7 29  1  0  0  0
  8  9  1  0  0  0
  8 22  1  0  0  0
  9 10  1  0  0  0
  9 27  2  0  0  0
 10 11  2  0  0  0
 10 15  1  0  0  0
 11 12  1  0  0  0
 11 92  1  0  0  0
 12 13  2  0  0  0
 12 93  1  0  0  0
 13 14  1  0  0  0
 13 31  1  0  0  0
 14 15  2  0  0  0
 14 94  1  0  0  0
 15 95  1  0  0  0
 16 17  2  0  0  0
 16 21  1  0  0  0
 16 31  1  0  0  0
 17 18  1  0  0  0
 17 96  1  0  0  0
 18 19  2  0  0  0
 18 97  1  0  0  0
 19 20  1  0  0  0
 19 24  1  0  0  0
 20 21  2  0  0  0
 20 98  1  0  0  0
 21 23  1  0  0  0
 22 28  1  0  0  0
 22 32  2  0  0  0
 26 27  1  0  0  0
 28 99  1  0  0  0
 28100  1  0  0  0
 29101  1  0  0  0
 29102  1  0  0  0
 33 34  1  0  0  0
 33 66  1  0  0  0
 33 70  2  0  0  0
 34 36  1  0  0  0
 34 59  1  0  0  0
 34103  1  0  0  0
 35 44  2  0  0  0
 35 45  1  0  0  0
 35 68  1  0  0  0
 36 56  1  0  0  0
 36104  1  0  0  0
 37 39  1  0  0  0
 37 47  1  0  0  0
 37 66  1  0  0  0
 37105  1  0  0  0
 38 43  2  0  0  0
 38 46  1  0  0  0
 38 47  1  0  0  0
 39 64  1  0  0  0
 39 67  2  0  0  0
 40 52  1  0  0  0
 40 53  2  0  0  0
 40 58  1  0  0  0
 41106  1  0  0  0
 41107  1  0  0  0
 41108  1  0  0  0
 41 48  1  0  0  0
 42 43  1  0  0  0
 42 66  1  0  0  0
 42109  1  0  0  0
 42110  1  0  0  0
 43 44  1  0  0  0
 44111  1  0  0  0
 45 46  2  0  0  0
 45112  1  0  0  0
 46113  1  0  0  0
 47114  1  0  0  0
 47115  1  0  0  0
 48 56  1  0  0  0
 48 65  1  0  0  0
 48116  1  0  0  0
 49 50  1  0  0  0
 49 53  1  0  0  0
 49 64  1  0  0  0
 49117  1  0  0  0
 50 51  1  0  0  0
 50118  1  0  0  0
 50119  1  0  0  0
 51 52  1  0  0  0
 51120  1  0  0  0
 51121  1  0  0  0
 52122  1  0  0  0
 52123  1  0  0  0
 53 54  1  0  0  0
 54 55  2  0  0  0
 54124  1  0  0  0
 55 57  1  0  0  0
 55125  1  0  0  0
 56 69  2  0  0  0
 57 58  2  0  0  0
 57126  1  0  0  0
 58127  1  0  0  0
 59 60  1  0  0  0
 59 61  1  0  0  0
 59 62  1  0  0  0
 60128  1  0  0  0
 60129  1  0  0  0
 60130  1  0  0  0
 61131  1  0  0  0
 61132  1  0  0  0
 61133  1  0  0  0
 62134  1  0  0  0
 62135  1  0  0  0
 62136  1  0  0  0
 63 65  1  0  0  0
 63137  1  0  0  0
 63138  1  0  0  0
 63139  1  0  0  0
 64140  1  0  0  0
 65141  1  0  0  0
 68 79  1  0  0  0
 71 72  2  0  0  0
 71 73  1  0  0  0
 71142  1  0  0  0
 72 75  1  0  0  0
 72143  1  0  0  0
 73 76  2  0  0  0
 73144  1  0  0  0
 74 75  2  0  0  0
 74 76  1  0  0  0
 74145  1  0  0  0
 75 77  1  0  0  0
 76 82  1  0  0  0
 77 78  2  0  0  0
 77146  1  0  0  0
 78 80  1  0  0  0
 78147  1  0  0  0
 79 80  2  0  0  0
 79148  1  0  0  0
 80 81  1  0  0  0
 81149  1  0  0  0
 81150  1  0  0  0
 81151  1  0  0  0
 82152  1  0  0  0
M  ISO  4   1 100  68 101  79 101  82 100
M  END
> <chiral flag>
0

> <version>
0

> <s_m_source_file>
/data/baiqing/PycharmProjects/Reinvent-master-3.2/result/LINK_invent/BTK/process_docking_weight1_custom_product_contain_oxygen_bond_distance_aromatic_linkinvent_7_9_3/rearranged_h_0084.sdf

> <i_m_source_file_index>
2

> <r_mmod_Potential_Energy-OPLS-2005>
565.716735839844

> <r_mmod_Stretch_Energy-OPLS-2005>
190.818832397461

> <r_mmod_Bend_Energy-OPLS-2005>
354.417236328125

> <r_mmod_Torsional_Energy-OPLS-2005>
248.404342651367

> <r_mmod_Improper_Torsional_Energy-OPLS-2005>
12.3155460357666

> <r_mmod_Van_der_Waal_Energy-OPLS-2005>
154.559265136719

> <r_mmod_Electrostatic_Energy-OPLS-2005>
-359.775054931641

> <r_mmod_Solvation_Energy-OPLS-2005>
-200.418212890625

> <b_mmod_Minimization_Converged-OPLS-2005>
0

> <r_mmod_RMS_Derivative-OPLS-2005>
9.62697124481201

$$$$
2
                    3D
 Structure written by MMmdl.
152161  0  0  1  0            999 V2000
  -30.6230  -14.7424   20.5658 C   0  0  0  0  0  0
  -30.4396  -12.4787   19.4723 C   0  0  0  0  0  0
  -29.5134  -12.5350   18.2358 C   0  0  0  0  0  0
  -28.0398  -12.3440   18.6415 C   0  0  0  0  0  0
  -27.6457  -13.2274   19.8524 C   0  0  2  0  0  0
  -28.6821  -13.1163   20.9864 C   0  0  0  0  0  0
  -25.2529  -13.8187   20.5678 C   0  0  0  0  0  0
  -24.1810  -13.0436   20.9180 C   0  0  0  0  0  0
  -24.6393  -11.6913   20.8719 C   0  0  0  0  0  0
  -23.9067  -10.4294   21.0396 C   0  0  0  0  0  0
  -24.3620   -9.4213   21.9178 C   0  0  0  0  0  0
  -23.6295   -8.2247   22.0754 C   0  0  0  0  0  0
  -22.4275   -8.0282   21.3546 C   0  0  0  0  0  0
  -21.9909   -9.0254   20.4648 C   0  0  0  0  0  0
  -22.7237  -10.2133   20.3051 C   0  0  0  0  0  0
  -21.6854   -6.0738   22.5282 C   0  0  0  0  0  0
  -21.4014   -6.5642   23.8216 C   0  0  0  0  0  0
  -21.3660   -5.6795   24.9178 C   0  0  0  0  0  0
  -21.6044   -4.3058   24.7229 C   0  0  0  0  0  0
  -21.8818   -3.8150   23.4351 C   0  0  0  0  0  0
  -21.9192   -4.6966   22.3406 C   0  0  0  0  0  0
  -22.7833  -13.5223   21.1862 C   0  0  0  0  0  0
  -22.1661   -4.2151   21.0983 F   0  0  0  0  0  0
  -21.5629   -3.4541   25.7741 F   0  0  0  0  0  0
  -29.9935  -13.5119   20.4426 N   0  0  0  0  0  0
  -26.2945  -12.9382   20.3242 N   0  0  0  0  0  0
  -25.9316  -11.6528   20.5700 N   0  0  0  0  0  0
  -22.0483  -12.8213   22.0423 N   0  0  0  0  0  0
  -25.4246  -15.1913   20.4150 N   0  0  0  0  0  0
  -31.7231  -14.9111   20.0278 O   0  0  0  0  0  0
  -21.6641   -6.8880   21.4244 O   0  0  0  0  0  0
  -22.3512  -14.5532   20.6714 O   0  0  0  0  0  0
  -24.6327  -31.8541   23.1973 C   0  0  0  0  0  0
  -25.9144  -32.4751   23.8327 C   0  0  1  0  0  0
  -27.2235  -27.2540   20.1324 C   0  0  0  0  0  0
  -25.5931  -33.8555   24.2248 N   0  0  0  0  0  0
  -23.4316  -30.4751   21.5407 C   0  0  2  0  0  0
  -24.8824  -28.9197   20.1116 C   0  0  0  0  0  0
  -22.7516  -29.4593   22.4905 C   0  0  0  0  0  0
  -18.0296  -28.1387   22.8483 C   0  0  0  0  0  0
  -24.1490  -36.7282   23.2642 C   0  0  0  0  0  0
  -25.9789  -30.7636   21.3803 C   0  0  0  0  0  0
  -26.0550  -29.3846   20.7237 C   0  0  0  0  0  0
  -27.2318  -28.5638   20.7245 C   0  0  0  0  0  0
  -26.0314  -26.8595   19.4912 C   0  0  0  0  0  0
  -24.8755  -27.6644   19.4842 C   0  0  0  0  0  0
  -23.6527  -29.8075   20.1579 C   0  0  0  0  0  0
  -25.4119  -36.3068   24.0324 C   0  0  1  0  0  0
  -20.5898  -28.3701   23.1265 C   0  0  2  0  0  0
  -20.6780  -26.9416   22.5408 C   0  0  0  0  0  0
  -19.5756  -26.6382   21.5210 C   0  0  0  0  0  0
  -18.1938  -26.7928   22.1624 C   0  0  0  0  0  0
  -19.1549  -28.8861   23.2866 C   0  0  0  0  0  0
  -18.9469  -30.1459   23.8887 C   0  0  0  0  0  0
  -17.6467  -30.6588   24.0560 C   0  0  0  0  0  0
  -25.9058  -34.9440   23.5091 C   0  0  0  0  0  0
  -16.5357  -29.9085   23.6333 C   0  0  0  0  0  0
  -16.7281  -28.6502   23.0355 C   0  0  0  0  0  0
  -26.4506  -31.6583   25.0724 C   0  0  0  0  0  0
  -25.3721  -31.3736   26.1435 C   0  0  0  0  0  0
  -27.0361  -30.3001   24.6224 C   0  0  0  0  0  0
  -27.6052  -32.4330   25.7501 C   0  0  0  0  0  0
  -27.5577  -37.1802   24.8469 C   0  0  0  0  0  0
  -21.4221  -29.3045   22.3649 N   0  0  0  0  0  0
  -26.4294  -37.3766   23.9401 N   0  0  0  0  0  0
  -24.6999  -31.0490   22.0957 N   0  0  0  0  0  0
  -23.4203  -28.8136   23.3013 O   0  0  0  0  0  0
  -28.2767  -26.3078   20.1599 O   0  0  0  0  0  0
  -26.5634  -34.8916   22.4663 O   0  0  0  0  0  0
  -23.5471  -32.1367   23.7256 O   0  0  0  0  0  0
  -28.8023  -19.4299   21.7745 C   0  0  0  0  0  0
  -29.9320  -19.3976   19.7276 C   0  0  0  0  0  0
  -29.0502  -18.0311   21.9416 C   0  0  0  0  0  0
  -30.1851  -17.9745   19.8741 C   0  0  0  0  0  0
  -29.2268  -20.2291   20.6702 C   0  0  0  0  0  0
  -29.7688  -17.2162   21.0140 C   0  0  0  0  0  0
  -28.4326  -23.7303   20.6401 C   0  0  0  0  0  0
  -28.0862  -22.5415   21.4001 C   0  0  0  0  0  0
  -29.2838  -22.8620   19.8252 C   0  0  0  0  0  0
  -28.0062  -25.0559   20.7948 C   0  0  0  0  0  0
  -30.0080  -15.4369   22.7632 C   0  0  0  0  0  0
  -28.9189  -21.7004   20.6064 N   0  0  0  0  0  0
  -30.0298  -15.7594   21.3226 N   0  0  0  0  0  0
  -27.3474  -22.4053   22.3557 O   0  0  0  0  0  0
  -29.9988  -23.1044   18.8708 O   0  0  0  0  0  0
  -31.4775  -12.6202   19.1668 H   0  0  0  0  0  0
  -30.4046  -11.4901   19.9325 H   0  0  0  0  0  0
  -29.8035  -11.7727   17.5116 H   0  0  0  0  0  0
  -29.6330  -13.4961   17.7330 H   0  0  0  0  0  0
  -27.8982  -11.2919   18.8915 H   0  0  0  0  0  0
  -27.3834  -12.5462   17.7944 H   0  0  0  0  0  0
  -27.6544  -14.2591   19.4992 H   0  0  0  0  0  0
  -28.7230  -12.0968   21.3726 H   0  0  0  0  0  0
  -28.3605  -13.7316   21.8219 H   0  0  0  0  0  0
  -25.2766   -9.5692   22.4749 H   0  0  0  0  0  0
  -24.0007   -7.4641   22.7473 H   0  0  0  0  0  0
  -21.0839   -8.8771   19.8955 H   0  0  0  0  0  0
  -22.3693  -10.9669   19.6159 H   0  0  0  0  0  0
  -21.2006   -7.6151   23.9720 H   0  0  0  0  0  0
  -21.1483   -6.0526   25.9082 H   0  0  0  0  0  0
  -22.0597   -2.7611   23.2851 H   0  0  0  0  0  0
  -22.4103  -11.9875   22.4806 H   0  0  0  0  0  0
  -21.1104  -13.1237   22.2635 H   0  0  0  0  0  0
  -24.6647  -15.8506   20.5424 H   0  0  0  0  0  0
  -26.2888  -15.6334   20.1276 H   0  0  0  0  0  0
  -26.7211  -32.5404   23.1070 H   0  0  0  0  0  0
  -25.0067  -33.9690   25.0386 H   0  0  0  0  0  0
  -22.7287  -31.2978   21.3922 H   0  0  0  0  0  0
  -23.3749  -35.9619   23.3318 H   0  0  0  0  0  0
  -24.3572  -36.8892   22.2052 H   0  0  0  0  0  0
  -23.7251  -37.6491   23.6659 H   0  0  0  0  0  0
  -26.1190  -31.5234   20.6102 H   0  0  0  0  0  0
  -26.8552  -30.8141   22.0148 H   0  0  0  0  0  0
  -28.1288  -28.9105   21.2181 H   0  0  0  0  0  0
  -25.9851  -25.8908   19.0137 H   0  0  0  0  0  0
  -23.9786  -27.3020   19.0008 H   0  0  0  0  0  0
  -23.7790  -30.5835   19.4017 H   0  0  0  0  0  0
  -22.7713  -29.2415   19.8515 H   0  0  0  0  0  0
  -25.1305  -36.1917   25.0818 H   0  0  0  0  0  0
  -20.9991  -28.3281   24.1382 H   0  0  0  0  0  0
  -20.5677  -26.2313   23.3613 H   0  0  0  0  0  0
  -21.6650  -26.7434   22.1203 H   0  0  0  0  0  0
  -19.6919  -25.6291   21.1245 H   0  0  0  0  0  0
  -19.6694  -27.3188   20.6735 H   0  0  0  0  0  0
  -17.4206  -26.6669   21.4029 H   0  0  0  0  0  0
  -18.0343  -26.0072   22.9024 H   0  0  0  0  0  0
  -19.7946  -30.7278   24.2254 H   0  0  0  0  0  0
  -17.5023  -31.6268   24.5163 H   0  0  0  0  0  0
  -15.5359  -30.2982   23.7663 H   0  0  0  0  0  0
  -15.8680  -28.0815   22.7077 H   0  0  0  0  0  0
  -24.5905  -30.7074   25.7760 H   0  0  0  0  0  0
  -24.8898  -32.2905   26.4837 H   0  0  0  0  0  0
  -25.8030  -30.8931   27.0229 H   0  0  0  0  0  0
  -26.2956  -29.6740   24.1231 H   0  0  0  0  0  0
  -27.4022  -29.7270   25.4754 H   0  0  0  0  0  0
  -27.8842  -30.4274   23.9490 H   0  0  0  0  0  0
  -27.2655  -33.3636   26.2063 H   0  0  0  0  0  0
  -28.3873  -32.6885   25.0338 H   0  0  0  0  0  0
  -28.0712  -31.8467   26.5432 H   0  0  0  0  0  0
  -28.2608  -38.0084   24.7493 H   0  0  0  0  0  0
  -28.1057  -36.2614   24.6328 H   0  0  0  0  0  0
  -27.2288  -37.1491   25.8871 H   0  0  0  0  0  0
  -20.9409  -29.8766   21.6847 H   0  0  0  0  0  0
  -26.0174  -38.2845   24.1387 H   0  0  0  0  0  0
  -28.2519  -19.9100   22.5716 H   0  0  0  0  0  0
  -30.3059  -19.8705   18.8312 H   0  0  0  0  0  0
  -28.6560  -17.5965   22.8470 H   0  0  0  0  0  0
  -30.7375  -17.4737   19.0915 H   0  0  0  0  0  0
  -27.3087  -25.2309   21.6032 H   0  0  0  0  0  0
  -28.9897  -15.4415   23.1521 H   0  0  0  0  0  0
  -30.5878  -16.1708   23.3248 H   0  0  0  0  0  0
  -30.4358  -14.4623   23.0124 H   0  0  0  0  0  0
  1 25  1  0  0  0
  1 30  2  0  0  0
  1 83  1  0  0  0
  2  3  1  0  0  0
  2 25  1  0  0  0
  2 86  1  0  0  0
  2 87  1  0  0  0
  3  4  1  0  0  0
  3 88  1  0  0  0
  3 89  1  0  0  0
  4  5  1  0  0  0
  4 90  1  0  0  0
  4 91  1  0  0  0
  5  6  1  0  0  0
  5 26  1  0  0  0
  5 92  1  0  0  0
  6 25  1  0  0  0
  6 93  1  0  0  0
  6 94  1  0  0  0
  7  8  2  0  0  0
  7 26  1  0  0  0
  7 29  1  0  0  0
  8  9  1  0  0  0
  8 22  1  0  0  0
  9 10  1  0  0  0
  9 27  2  0  0  0
 10 11  2  0  0  0
 10 15  1  0  0  0
 11 12  1  0  0  0
 11 95  1  0  0  0
 12 13  2  0  0  0
 12 96  1  0  0  0
 13 14  1  0  0  0
 13 31  1  0  0  0
 14 15  2  0  0  0
 14 97  1  0  0  0
 15 98  1  0  0  0
 16 17  2  0  0  0
 16 21  1  0  0  0
 16 31  1  0  0  0
 17 18  1  0  0  0
 17 99  1  0  0  0
 18 19  2  0  0  0
 18100  1  0  0  0
 19 20  1  0  0  0
 19 24  1  0  0  0
 20 21  2  0  0  0
 20101  1  0  0  0
 21 23  1  0  0  0
 22 28  1  0  0  0
 22 32  2  0  0  0
 26 27  1  0  0  0
 28102  1  0  0  0
 28103  1  0  0  0
 29104  1  0  0  0
 29105  1  0  0  0
 33 34  1  0  0  0
 33 66  1  0  0  0
 33 70  2  0  0  0
 34 36  1  0  0  0
 34 59  1  0  0  0
 34106  1  0  0  0
 35 44  2  0  0  0
 35 45  1  0  0  0
 35 68  1  0  0  0
 36 56  1  0  0  0
 36107  1  0  0  0
 37 39  1  0  0  0
 37 47  1  0  0  0
 37 66  1  0  0  0
 37108  1  0  0  0
 38 43  2  0  0  0
 38 46  1  0  0  0
 38 47  1  0  0  0
 39 64  1  0  0  0
 39 67  2  0  0  0
 40 52  1  0  0  0
 40 53  2  0  0  0
 40 58  1  0  0  0
 41109  1  0  0  0
 41110  1  0  0  0
 41111  1  0  0  0
 41 48  1  0  0  0
 42 43  1  0  0  0
 42 66  1  0  0  0
 42112  1  0  0  0
 42113  1  0  0  0
 43 44  1  0  0  0
 44114  1  0  0  0
 45 46  2  0  0  0
 45115  1  0  0  0
 46116  1  0  0  0
 47117  1  0  0  0
 47118  1  0  0  0
 48 56  1  0  0  0
 48 65  1  0  0  0
 48119  1  0  0  0
 49 50  1  0  0  0
 49 53  1  0  0  0
 49 64  1  0  0  0
 49120  1  0  0  0
 50 51  1  0  0  0
 50121  1  0  0  0
 50122  1  0  0  0
 51 52  1  0  0  0
 51123  1  0  0  0
 51124  1  0  0  0
 52125  1  0  0  0
 52126  1  0  0  0
 53 54  1  0  0  0
 54 55  2  0  0  0
 54127  1  0  0  0
 55 57  1  0  0  0
 55128  1  0  0  0
 56 69  2  0  0  0
 57 58  2  0  0  0
 57129  1  0  0  0
 58130  1  0  0  0
 59 60  1  0  0  0
 59 61  1  0  0  0
 59 62  1  0  0  0
 60131  1  0  0  0
 60132  1  0  0  0
 60133  1  0  0  0
 61134  1  0  0  0
 61135  1  0  0  0
 61136  1  0  0  0
 62137  1  0  0  0
 62138  1  0  0  0
 62139  1  0  0  0
 63 65  1  0  0  0
 63140  1  0  0  0
 63141  1  0  0  0
 63142  1  0  0  0
 64143  1  0  0  0
 65144  1  0  0  0
 68 80  1  0  0  0
 71 73  2  0  0  0
 71 75  1  0  0  0
 71145  1  0  0  0
 72 74  1  0  0  0
 72 75  2  0  0  0
 72146  1  0  0  0
 73 76  1  0  0  0
 73147  1  0  0  0
 74 76  2  0  0  0
 74148  1  0  0  0
 75 82  1  0  0  0
 76 83  1  0  0  0
 77 78  1  0  0  0
 77 79  1  0  0  0
 77 80  2  0  0  0
 78 82  1  0  0  0
 78 84  2  0  0  0
 79 82  1  0  0  0
 79 85  2  0  0  0
 80149  1  0  0  0
 81 83  1  0  0  0
 81150  1  0  0  0
 81151  1  0  0  0
 81152  1  0  0  0
M  ISO  4   1 100  68 101  80 101  83 100
M  END
> <chiral flag>
0

> <version>
0

> <s_m_source_file>
/data/baiqing/PycharmProjects/Reinvent-master-3.2/result/LINK_invent/BTK/process_docking_weight1_custom_product_contain_oxygen_bond_distance_aromatic_linkinvent_7_9_3/rearranged_h_0084.sdf

> <i_m_source_file_index>
3

> <r_mmod_Potential_Energy-OPLS-2005>
377.207000732422

> <r_mmod_Stretch_Energy-OPLS-2005>
130.824203491211

> <r_mmod_Bend_Energy-OPLS-2005>
280.953308105469

> <r_mmod_Torsional_Energy-OPLS-2005>
269.927795410156

> <r_mmod_Improper_Torsional_Energy-OPLS-2005>
2.65186333656311

> <r_mmod_Van_der_Waal_Energy-OPLS-2005>
145.187530517578

> <r_mmod_Electrostatic_Energy-OPLS-2005>
-331.562774658203

> <r_mmod_Solvation_Energy-OPLS-2005>
-209.309707641602

> <b_mmod_Minimization_Converged-OPLS-2005>
0

> <r_mmod_RMS_Derivative-OPLS-2005>
1.24566280841827

$$$$
3
                    3D
 Structure written by MMmdl.
150159  0  0  1  0            999 V2000
  -30.5692  -14.7421   20.4850 C   0  0  0  0  0  0
  -30.4511  -12.4556   19.4667 C   0  0  0  0  0  0
  -29.5167  -12.5196   18.2354 C   0  0  0  0  0  0
  -28.0415  -12.3384   18.6472 C   0  0  0  0  0  0
  -27.6514  -13.2208   19.8618 C   0  0  2  0  0  0
  -28.6968  -13.1055   20.9942 C   0  0  0  0  0  0
  -25.2559  -13.8174   20.5689 C   0  0  0  0  0  0
  -24.1830  -13.0437   20.9196 C   0  0  0  0  0  0
  -24.6401  -11.6907   20.8741 C   0  0  0  0  0  0
  -23.9068  -10.4291   21.0407 C   0  0  0  0  0  0
  -24.3618   -9.4205   21.9186 C   0  0  0  0  0  0
  -23.6292   -8.2241   22.0755 C   0  0  0  0  0  0
  -22.4275   -8.0280   21.3543 C   0  0  0  0  0  0
  -21.9909   -9.0255   20.4647 C   0  0  0  0  0  0
  -22.7237  -10.2136   20.3058 C   0  0  0  0  0  0
  -21.6853   -6.0734   22.5277 C   0  0  0  0  0  0
  -21.4013   -6.5638   23.8211 C   0  0  0  0  0  0
  -21.3661   -5.6792   24.9174 C   0  0  0  0  0  0
  -21.6046   -4.3055   24.7226 C   0  0  0  0  0  0
  -21.8819   -3.8144   23.4347 C   0  0  0  0  0  0
  -21.9194   -4.6961   22.3402 C   0  0  0  0  0  0
  -22.7851  -13.5229   21.1858 C   0  0  0  0  0  0
  -22.1663   -4.2146   21.0980 F   0  0  0  0  0  0
  -21.5630   -3.4539   25.7739 F   0  0  0  0  0  0
  -30.0028  -13.4861   20.4307 N   0  0  0  0  0  0
  -26.2984  -12.9356   20.3309 N   0  0  0  0  0  0
  -25.9333  -11.6509   20.5755 N   0  0  0  0  0  0
  -22.0493  -12.8223   22.0415 N   0  0  0  0  0  0
  -25.4275  -15.1895   20.4100 N   0  0  0  0  0  0
  -31.7264  -14.9244   20.0924 O   0  0  0  0  0  0
  -21.6639   -6.8876   21.4239 O   0  0  0  0  0  0
  -22.3536  -14.5535   20.6704 O   0  0  0  0  0  0
  -24.6314  -31.8549   23.1984 C   0  0  0  0  0  0
  -25.9134  -32.4756   23.8333 C   0  0  1  0  0  0
  -27.2250  -27.2670   20.1294 C   0  0  0  0  0  0
  -25.5927  -33.8558   24.2257 N   0  0  0  0  0  0
  -23.4299  -30.4768   21.5412 C   0  0  2  0  0  0
  -24.8813  -28.9255   20.1089 C   0  0  0  0  0  0
  -22.7508  -29.4598   22.4904 C   0  0  0  0  0  0
  -18.0293  -28.1387   22.8484 C   0  0  0  0  0  0
  -24.1489  -36.7287   23.2640 C   0  0  0  0  0  0
  -25.9762  -30.7685   21.3801 C   0  0  0  0  0  0
  -26.0527  -29.3913   20.7223 C   0  0  0  0  0  0
  -27.2303  -28.5734   20.7248 C   0  0  0  0  0  0
  -26.0356  -26.8726   19.4803 C   0  0  0  0  0  0
  -24.8772  -27.6731   19.4764 C   0  0  0  0  0  0
  -23.6501  -29.8107   20.1576 C   0  0  0  0  0  0
  -25.4115  -36.3072   24.0326 C   0  0  1  0  0  0
  -20.5898  -28.3700   23.1263 C   0  0  2  0  0  0
  -20.6781  -26.9416   22.5405 C   0  0  0  0  0  0
  -19.5756  -26.6381   21.5211 C   0  0  0  0  0  0
  -18.1937  -26.7927   22.1628 C   0  0  0  0  0  0
  -19.1547  -28.8861   23.2868 C   0  0  0  0  0  0
  -18.9469  -30.1460   23.8888 C   0  0  0  0  0  0
  -17.6468  -30.6588   24.0562 C   0  0  0  0  0  0
  -25.9054  -34.9440   23.5096 C   0  0  0  0  0  0
  -16.5358  -29.9085   23.6332 C   0  0  0  0  0  0
  -16.7280  -28.6503   23.0354 C   0  0  0  0  0  0
  -26.4501  -31.6579   25.0723 C   0  0  0  0  0  0
  -25.3721  -31.3735   26.1441 C   0  0  0  0  0  0
  -27.0351  -30.2993   24.6217 C   0  0  0  0  0  0
  -27.6049  -32.4325   25.7499 C   0  0  0  0  0  0
  -27.5577  -37.1802   24.8467 C   0  0  0  0  0  0
  -21.4213  -29.3046   22.3649 N   0  0  0  0  0  0
  -26.4294  -37.3768   23.9402 N   0  0  0  0  0  0
  -24.6980  -31.0509   22.0963 N   0  0  0  0  0  0
  -23.4201  -28.8136   23.3008 O   0  0  0  0  0  0
  -28.2753  -26.3204   20.1787 O   0  0  0  0  0  0
  -26.5632  -34.8914   22.4668 O   0  0  0  0  0  0
  -23.5459  -32.1370   23.7272 O   0  0  0  0  0  0
  -28.4147  -19.3382   21.3791 C   0  0  0  0  0  0
  -28.6190  -17.9253   21.4410 C   0  0  0  0  0  0
  -30.5052  -18.1406   20.0189 C   0  0  0  0  0  0
  -29.2142  -20.2597   20.6377 C   0  0  0  0  0  0
  -29.6714  -17.2542   20.7664 C   0  0  0  0  0  0
  -30.2800  -19.5711   19.9586 C   0  0  0  0  0  0
  -28.4329  -23.7445   20.6059 C   0  0  0  0  0  0
  -27.9293  -22.5503   21.2765 C   0  0  0  0  0  0
  -27.9469  -25.0473   20.7329 C   0  0  0  0  0  0
  -29.4929  -22.8503   19.8929 C   0  0  0  0  0  0
  -28.8819  -21.7191   20.6560 N   0  0  0  0  0  0
  -29.7268  -15.7694   20.8755 N   0  0  0  0  0  0
  -27.0121  -22.4075   22.0586 O   0  0  0  0  0  0
  -31.1316  -20.3109   19.2077 F   0  0  0  0  0  0
  -31.4873  -12.6086   19.1603 H   0  0  0  0  0  0
  -30.4187  -11.4666   19.9261 H   0  0  0  0  0  0
  -29.7977  -11.7565   17.5082 H   0  0  0  0  0  0
  -29.6392  -13.4802   17.7325 H   0  0  0  0  0  0
  -27.8950  -11.2863   18.8949 H   0  0  0  0  0  0
  -27.3838  -12.5451   17.8020 H   0  0  0  0  0  0
  -27.6590  -14.2508   19.5047 H   0  0  0  0  0  0
  -28.7335  -12.0856   21.3802 H   0  0  0  0  0  0
  -28.4237  -13.7328   21.8440 H   0  0  0  0  0  0
  -25.2766   -9.5679   22.4757 H   0  0  0  0  0  0
  -24.0002   -7.4631   22.7474 H   0  0  0  0  0  0
  -21.0839   -8.8773   19.8953 H   0  0  0  0  0  0
  -22.3696  -10.9675   19.6166 H   0  0  0  0  0  0
  -21.2003   -7.6146   23.9713 H   0  0  0  0  0  0
  -21.1484   -6.0523   25.9077 H   0  0  0  0  0  0
  -22.0597   -2.7606   23.2849 H   0  0  0  0  0  0
  -22.4110  -11.9886   22.4805 H   0  0  0  0  0  0
  -21.1109  -13.1249   22.2618 H   0  0  0  0  0  0
  -24.6575  -15.8417   20.5111 H   0  0  0  0  0  0
  -26.2692  -15.6257   20.0557 H   0  0  0  0  0  0
  -26.7202  -32.5412   23.1077 H   0  0  0  0  0  0
  -25.0057  -33.9692   25.0390 H   0  0  0  0  0  0
  -22.7266  -31.2991   21.3942 H   0  0  0  0  0  0
  -23.3747  -35.9625   23.3312 H   0  0  0  0  0  0
  -24.3575  -36.8900   22.2053 H   0  0  0  0  0  0
  -23.7250  -37.6494   23.6659 H   0  0  0  0  0  0
  -26.1149  -31.5293   20.6105 H   0  0  0  0  0  0
  -26.8530  -30.8180   22.0142 H   0  0  0  0  0  0
  -28.1244  -28.9185   21.2249 H   0  0  0  0  0  0
  -25.9906  -25.9060   18.9985 H   0  0  0  0  0  0
  -23.9820  -27.3108   18.9898 H   0  0  0  0  0  0
  -23.7730  -30.5874   19.4019 H   0  0  0  0  0  0
  -22.7692  -29.2432   19.8524 H   0  0  0  0  0  0
  -25.1299  -36.1923   25.0821 H   0  0  0  0  0  0
  -20.9994  -28.3282   24.1382 H   0  0  0  0  0  0
  -20.5678  -26.2313   23.3613 H   0  0  0  0  0  0
  -21.6649  -26.7436   22.1201 H   0  0  0  0  0  0
  -19.6918  -25.6290   21.1246 H   0  0  0  0  0  0
  -19.6690  -27.3187   20.6737 H   0  0  0  0  0  0
  -17.4204  -26.6666   21.4035 H   0  0  0  0  0  0
  -18.0347  -26.0071   22.9028 H   0  0  0  0  0  0
  -19.7944  -30.7279   24.2254 H   0  0  0  0  0  0
  -17.5022  -31.6267   24.5165 H   0  0  0  0  0  0
  -15.5359  -30.2987   23.7655 H   0  0  0  0  0  0
  -15.8680  -28.0818   22.7075 H   0  0  0  0  0  0
  -24.5883  -30.7104   25.7763 H   0  0  0  0  0  0
  -24.8932  -32.2912   26.4868 H   0  0  0  0  0  0
  -25.8030  -30.8900   27.0218 H   0  0  0  0  0  0
  -26.2942  -29.6738   24.1227 H   0  0  0  0  0  0
  -27.4010  -29.7259   25.4744 H   0  0  0  0  0  0
  -27.8829  -30.4260   23.9480 H   0  0  0  0  0  0
  -27.2645  -33.3622   26.2070 H   0  0  0  0  0  0
  -28.3863  -32.6891   25.0335 H   0  0  0  0  0  0
  -28.0714  -31.8458   26.5423 H   0  0  0  0  0  0
  -28.2605  -38.0089   24.7496 H   0  0  0  0  0  0
  -28.1064  -36.2619   24.6320 H   0  0  0  0  0  0
  -27.2292  -37.1482   25.8870 H   0  0  0  0  0  0
  -20.9399  -29.8771   21.6856 H   0  0  0  0  0  0
  -26.0176  -38.2846   24.1388 H   0  0  0  0  0  0
  -27.5767  -19.7268   21.9396 H   0  0  0  0  0  0
  -27.9237  -17.3468   22.0337 H   0  0  0  0  0  0
  -31.3323  -17.7308   19.4585 H   0  0  0  0  0  0
  -27.1165  -25.1720   21.4163 H   0  0  0  0  0  0
  -30.5402  -22.9998   20.1597 H   0  0  0  0  0  0
  -29.3912  -22.7119   18.8152 H   0  0  0  0  0  0
  -28.8841  -15.3800   21.2699 H   0  0  0  0  0  0
  1 25  1  0  0  0
  1 30  2  0  0  0
  1 82  1  0  0  0
  2  3  1  0  0  0
  2 25  1  0  0  0
  2 85  1  0  0  0
  2 86  1  0  0  0
  3  4  1  0  0  0
  3 87  1  0  0  0
  3 88  1  0  0  0
  4  5  1  0  0  0
  4 89  1  0  0  0
  4 90  1  0  0  0
  5  6  1  0  0  0
  5 26  1  0  0  0
  5 91  1  0  0  0
  6 25  1  0  0  0
  6 92  1  0  0  0
  6 93  1  0  0  0
  7  8  2  0  0  0
  7 26  1  0  0  0
  7 29  1  0  0  0
  8  9  1  0  0  0
  8 22  1  0  0  0
  9 10  1  0  0  0
  9 27  2  0  0  0
 10 11  2  0  0  0
 10 15  1  0  0  0
 11 12  1  0  0  0
 11 94  1  0  0  0
 12 13  2  0  0  0
 12 95  1  0  0  0
 13 14  1  0  0  0
 13 31  1  0  0  0
 14 15  2  0  0  0
 14 96  1  0  0  0
 15 97  1  0  0  0
 16 17  2  0  0  0
 16 21  1  0  0  0
 16 31  1  0  0  0
 17 18  1  0  0  0
 17 98  1  0  0  0
 18 19  2  0  0  0
 18 99  1  0  0  0
 19 20  1  0  0  0
 19 24  1  0  0  0
 20 21  2  0  0  0
 20100  1  0  0  0
 21 23  1  0  0  0
 22 28  1  0  0  0
 22 32  2  0  0  0
 26 27  1  0  0  0
 28101  1  0  0  0
 28102  1  0  0  0
 29103  1  0  0  0
 29104  1  0  0  0
 33 34  1  0  0  0
 33 66  1  0  0  0
 33 70  2  0  0  0
 34 36  1  0  0  0
 34 59  1  0  0  0
 34105  1  0  0  0
 35 44  2  0  0  0
 35 45  1  0  0  0
 35 68  1  0  0  0
 36 56  1  0  0  0
 36106  1  0  0  0
 37 39  1  0  0  0
 37 47  1  0  0  0
 37 66  1  0  0  0
 37107  1  0  0  0
 38 43  2  0  0  0
 38 46  1  0  0  0
 38 47  1  0  0  0
 39 64  1  0  0  0
 39 67  2  0  0  0
 40 52  1  0  0  0
 40 53  2  0  0  0
 40 58  1  0  0  0
 41108  1  0  0  0
 41109  1  0  0  0
 41110  1  0  0  0
 41 48  1  0  0  0
 42 43  1  0  0  0
 42 66  1  0  0  0
 42111  1  0  0  0
 42112  1  0  0  0
 43 44  1  0  0  0
 44113  1  0  0  0
 45 46  2  0  0  0
 45114  1  0  0  0
 46115  1  0  0  0
 47116  1  0  0  0
 47117  1  0  0  0
 48 56  1  0  0  0
 48 65  1  0  0  0
 48118  1  0  0  0
 49 50  1  0  0  0
 49 53  1  0  0  0
 49 64  1  0  0  0
 49119  1  0  0  0
 50 51  1  0  0  0
 50120  1  0  0  0
 50121  1  0  0  0
 51 52  1  0  0  0
 51122  1  0  0  0
 51123  1  0  0  0
 52124  1  0  0  0
 52125  1  0  0  0
 53 54  1  0  0  0
 54 55  2  0  0  0
 54126  1  0  0  0
 55 57  1  0  0  0
 55127  1  0  0  0
 56 69  2  0  0  0
 57 58  2  0  0  0
 57128  1  0  0  0
 58129  1  0  0  0
 59 60  1  0  0  0
 59 61  1  0  0  0
 59 62  1  0  0  0
 60130  1  0  0  0
 60131  1  0  0  0
 60132  1  0  0  0
 61133  1  0  0  0
 61134  1  0  0  0
 61135  1  0  0  0
 62136  1  0  0  0
 62137  1  0  0  0
 62138  1  0  0  0
 63 65  1  0  0  0
 63139  1  0  0  0
 63140  1  0  0  0
 63141  1  0  0  0
 64142  1  0  0  0
 65143  1  0  0  0
 68 79  1  0  0  0
 71 72  2  0  0  0
 71 74  1  0  0  0
 71144  1  0  0  0
 72 75  1  0  0  0
 72145  1  0  0  0
 73 75  2  0  0  0
 73 76  1  0  0  0
 73146  1  0  0  0
 74 76  2  0  0  0
 74 81  1  0  0  0
 75 82  1  0  0  0
 76 84  1  0  0  0
 77 78  1  0  0  0
 77 79  2  0  0  0
 77 80  1  0  0  0
 78 81  1  0  0  0
 78 83  2  0  0  0
 79147  1  0  0  0
 80 81  1  0  0  0
 80148  1  0  0  0
 80149  1  0  0  0
 82150  1  0  0  0
M  ISO  4   1 100  68 101  79 101  82 100
M  END
> <chiral flag>
0

> <version>
0

> <s_m_source_file>
/data/baiqing/PycharmProjects/Reinvent-master-3.2/result/LINK_invent/BTK/process_docking_weight1_custom_product_contain_oxygen_bond_distance_aromatic_linkinvent_7_9_3/rearranged_h_0084.sdf

> <i_m_source_file_index>
4

> <r_mmod_Potential_Energy-OPLS-2005>
227.970703125

> <r_mmod_Stretch_Energy-OPLS-2005>
107.681640625

> <r_mmod_Bend_Energy-OPLS-2005>
270.576690673828

> <r_mmod_Torsional_Energy-OPLS-2005>
220.03254699707

> <r_mmod_Improper_Torsional_Energy-OPLS-2005>
3.48363852500916

> <r_mmod_Van_der_Waal_Energy-OPLS-2005>
134.12727355957

> <r_mmod_Electrostatic_Energy-OPLS-2005>
-381.995819091797

> <r_mmod_Solvation_Energy-OPLS-2005>
-213.960922241211

> <b_mmod_Minimization_Converged-OPLS-2005>
0

> <r_mmod_RMS_Derivative-OPLS-2005>
0.390327841043472

$$$$
4
                    3D
 Structure written by MMmdl.
153162  0  0  1  0            999 V2000
  -30.6232  -14.7430   20.5638 C   0  0  0  0  0  0
  -30.4410  -12.4787   19.4728 C   0  0  0  0  0  0
  -29.5144  -12.5347   18.2369 C   0  0  0  0  0  0
  -28.0407  -12.3443   18.6436 C   0  0  0  0  0  0
  -27.6471  -13.2276   19.8545 C   0  0  2  0  0  0
  -28.6842  -13.1167   20.9880 C   0  0  0  0  0  0
  -25.2535  -13.8187   20.5682 C   0  0  0  0  0  0
  -24.1814  -13.0437   20.9179 C   0  0  0  0  0  0
  -24.6398  -11.6913   20.8720 C   0  0  0  0  0  0
  -23.9073  -10.4292   21.0395 C   0  0  0  0  0  0
  -24.3622   -9.4208   21.9177 C   0  0  0  0  0  0
  -23.6294   -8.2246   22.0753 C   0  0  0  0  0  0
  -22.4277   -8.0282   21.3543 C   0  0  0  0  0  0
  -21.9911   -9.0255   20.4646 C   0  0  0  0  0  0
  -22.7241  -10.2133   20.3051 C   0  0  0  0  0  0
  -21.6856   -6.0735   22.5279 C   0  0  0  0  0  0
  -21.4018   -6.5640   23.8212 C   0  0  0  0  0  0
  -21.3659   -5.6793   24.9173 C   0  0  0  0  0  0
  -21.6044   -4.3055   24.7223 C   0  0  0  0  0  0
  -21.8821   -3.8146   23.4345 C   0  0  0  0  0  0
  -21.9193   -4.6962   22.3401 C   0  0  0  0  0  0
  -22.7838  -13.5225   21.1852 C   0  0  0  0  0  0
  -22.1661   -4.2148   21.0979 F   0  0  0  0  0  0
  -21.5625   -3.4539   25.7735 F   0  0  0  0  0  0
  -29.9951  -13.5121   20.4428 N   0  0  0  0  0  0
  -26.2956  -12.9384   20.3259 N   0  0  0  0  0  0
  -25.9326  -11.6528   20.5715 N   0  0  0  0  0  0
  -22.0490  -12.8216   22.0415 N   0  0  0  0  0  0
  -25.4251  -15.1913   20.4150 N   0  0  0  0  0  0
  -31.7269  -14.9100   20.0329 O   0  0  0  0  0  0
  -21.6642   -6.8879   21.4240 O   0  0  0  0  0  0
  -22.3516  -14.5527   20.6699 O   0  0  0  0  0  0
  -24.6327  -31.8537   23.1975 C   0  0  0  0  0  0
  -25.9147  -32.4748   23.8326 C   0  0  1  0  0  0
  -27.2220  -27.2534   20.1322 C   0  0  0  0  0  0
  -25.5934  -33.8550   24.2247 N   0  0  0  0  0  0
  -23.4316  -30.4755   21.5406 C   0  0  2  0  0  0
  -24.8825  -28.9226   20.1091 C   0  0  0  0  0  0
  -22.7517  -29.4588   22.4900 C   0  0  0  0  0  0
  -18.0297  -28.1384   22.8482 C   0  0  0  0  0  0
  -24.1491  -36.7280   23.2639 C   0  0  0  0  0  0
  -25.9791  -30.7637   21.3809 C   0  0  0  0  0  0
  -26.0550  -29.3853   20.7229 C   0  0  0  0  0  0
  -27.2308  -28.5625   20.7259 C   0  0  0  0  0  0
  -26.0309  -26.8646   19.4836 C   0  0  0  0  0  0
  -24.8758  -27.6699   19.4773 C   0  0  0  0  0  0
  -23.6525  -29.8099   20.1570 C   0  0  0  0  0  0
  -25.4117  -36.3064   24.0324 C   0  0  1  0  0  0
  -20.5903  -28.3697   23.1262 C   0  0  2  0  0  0
  -20.6783  -26.9411   22.5405 C   0  0  0  0  0  0
  -19.5757  -26.6380   21.5210 C   0  0  0  0  0  0
  -18.1940  -26.7924   22.1625 C   0  0  0  0  0  0
  -19.1552  -28.8858   23.2866 C   0  0  0  0  0  0
  -18.9471  -30.1459   23.8884 C   0  0  0  0  0  0
  -17.6469  -30.6583   24.0561 C   0  0  0  0  0  0
  -25.9059  -34.9435   23.5089 C   0  0  0  0  0  0
  -16.5360  -29.9078   23.6332 C   0  0  0  0  0  0
  -16.7283  -28.6497   23.0352 C   0  0  0  0  0  0
  -26.4507  -31.6579   25.0723 C   0  0  0  0  0  0
  -25.3719  -31.3735   26.1435 C   0  0  0  0  0  0
  -27.0364  -30.2994   24.6225 C   0  0  0  0  0  0
  -27.6049  -32.4331   25.7503 C   0  0  0  0  0  0
  -27.5578  -37.1795   24.8463 C   0  0  0  0  0  0
  -21.4221  -29.3039   22.3647 N   0  0  0  0  0  0
  -26.4288  -37.3766   23.9410 N   0  0  0  0  0  0
  -24.7001  -31.0489   22.0959 N   0  0  0  0  0  0
  -23.4207  -28.8129   23.3008 O   0  0  0  0  0  0
  -28.2678  -26.2979   20.1767 O   0  0  0  0  0  0
  -26.5634  -34.8913   22.4660 O   0  0  0  0  0  0
  -23.5472  -32.1365   23.7258 O   0  0  0  0  0  0
  -28.5245  -19.3394   21.5874 C   0  0  0  0  0  0
  -28.7826  -17.9413   21.7395 C   0  0  0  0  0  0
  -30.3689  -18.0433   19.9918 C   0  0  0  0  0  0
  -29.1693  -20.2092   20.6585 C   0  0  0  0  0  0
  -29.7331  -17.2114   20.9671 C   0  0  0  0  0  0
  -30.1058  -19.4650   19.8558 C   0  0  0  0  0  0
  -28.4064  -23.7098   20.5991 C   0  0  0  0  0  0
  -27.9153  -22.5242   21.2977 C   0  0  0  0  0  0
  -27.9414  -25.0228   20.7369 C   0  0  0  0  0  0
  -29.4340  -22.7938   19.8610 C   0  0  0  0  0  0
  -29.9838  -15.4867   22.7474 C   0  0  0  0  0  0
  -28.8139  -21.6681   20.6278 N   0  0  0  0  0  0
  -30.0156  -15.7670   21.2996 N   0  0  0  0  0  0
  -27.0538  -22.4053   22.1447 O   0  0  0  0  0  0
  -30.7986  -20.1432   18.9091 F   0  0  0  0  0  0
  -31.4787  -12.6206   19.1668 H   0  0  0  0  0  0
  -30.4067  -11.4904   19.9334 H   0  0  0  0  0  0
  -29.8035  -11.7717   17.5130 H   0  0  0  0  0  0
  -29.6339  -13.4955   17.7338 H   0  0  0  0  0  0
  -27.8995  -11.2921   18.8937 H   0  0  0  0  0  0
  -27.3840  -12.5466   17.7967 H   0  0  0  0  0  0
  -27.6555  -14.2594   19.5020 H   0  0  0  0  0  0
  -28.7261  -12.0975   21.3750 H   0  0  0  0  0  0
  -28.3654  -13.7317   21.8244 H   0  0  0  0  0  0
  -25.2769   -9.5683   22.4750 H   0  0  0  0  0  0
  -24.0000   -7.4643   22.7480 H   0  0  0  0  0  0
  -21.0838   -8.8777   19.8960 H   0  0  0  0  0  0
  -22.3698  -10.9671   19.6160 H   0  0  0  0  0  0
  -21.2016   -7.6150   23.9714 H   0  0  0  0  0  0
  -21.1478   -6.0522   25.9075 H   0  0  0  0  0  0
  -22.0601   -2.7609   23.2847 H   0  0  0  0  0  0
  -22.4112  -11.9876   22.4797 H   0  0  0  0  0  0
  -21.1112  -13.1243   22.2637 H   0  0  0  0  0  0
  -24.6640  -15.8499   20.5391 H   0  0  0  0  0  0
  -26.2873  -15.6334   20.1216 H   0  0  0  0  0  0
  -26.7213  -32.5397   23.1067 H   0  0  0  0  0  0
  -25.0068  -33.9684   25.0383 H   0  0  0  0  0  0
  -22.7284  -31.2978   21.3935 H   0  0  0  0  0  0
  -23.3749  -35.9617   23.3303 H   0  0  0  0  0  0
  -24.3578  -36.8902   22.2053 H   0  0  0  0  0  0
  -23.7251  -37.6483   23.6666 H   0  0  0  0  0  0
  -26.1207  -31.5243   20.6119 H   0  0  0  0  0  0
  -26.8551  -30.8126   22.0161 H   0  0  0  0  0  0
  -28.1256  -28.9060   21.2258 H   0  0  0  0  0  0
  -25.9817  -25.8972   19.0038 H   0  0  0  0  0  0
  -23.9798  -27.3102   18.9902 H   0  0  0  0  0  0
  -23.7778  -30.5869   19.4019 H   0  0  0  0  0  0
  -22.7708  -29.2440   19.8505 H   0  0  0  0  0  0
  -25.1300  -36.1904   25.0816 H   0  0  0  0  0  0
  -20.9998  -28.3275   24.1382 H   0  0  0  0  0  0
  -20.5677  -26.2307   23.3612 H   0  0  0  0  0  0
  -21.6651  -26.7425   22.1205 H   0  0  0  0  0  0
  -19.6918  -25.6289   21.1243 H   0  0  0  0  0  0
  -19.6693  -27.3187   20.6737 H   0  0  0  0  0  0
  -17.4207  -26.6666   21.4031 H   0  0  0  0  0  0
  -18.0343  -26.0069   22.9025 H   0  0  0  0  0  0
  -19.7947  -30.7280   24.2247 H   0  0  0  0  0  0
  -17.5021  -31.6262   24.5165 H   0  0  0  0  0  0
  -15.5360  -30.2976   23.7662 H   0  0  0  0  0  0
  -15.8684  -28.0813   22.7071 H   0  0  0  0  0  0
  -24.5912  -30.7063   25.7765 H   0  0  0  0  0  0
  -24.8890  -32.2905   26.4821 H   0  0  0  0  0  0
  -25.8030  -30.8946   27.0235 H   0  0  0  0  0  0
  -26.2961  -29.6733   24.1231 H   0  0  0  0  0  0
  -27.4022  -29.7265   25.4756 H   0  0  0  0  0  0
  -27.8846  -30.4268   23.9494 H   0  0  0  0  0  0
  -27.2643  -33.3635   26.2061 H   0  0  0  0  0  0
  -28.3870  -32.6888   25.0342 H   0  0  0  0  0  0
  -28.0705  -31.8471   26.5437 H   0  0  0  0  0  0
  -28.2589  -38.0099   24.7515 H   0  0  0  0  0  0
  -28.1083  -36.2629   24.6284 H   0  0  0  0  0  0
  -27.2296  -37.1431   25.8866 H   0  0  0  0  0  0
  -20.9410  -29.8761   21.6848 H   0  0  0  0  0  0
  -26.0162  -38.2836   24.1414 H   0  0  0  0  0  0
  -27.7838  -19.7639   22.2496 H   0  0  0  0  0  0
  -28.2151  -17.4320   22.5042 H   0  0  0  0  0  0
  -31.1162  -17.6058   19.3469 H   0  0  0  0  0  0
  -27.1339  -25.1586   21.4451 H   0  0  0  0  0  0
  -30.4883  -22.9191   20.1122 H   0  0  0  0  0  0
  -29.3137  -22.6648   18.7843 H   0  0  0  0  0  0
  -28.9622  -15.4441   23.1242 H   0  0  0  0  0  0
  -30.5065  -16.2724   23.2950 H   0  0  0  0  0  0
  -30.4666  -14.5473   23.0285 H   0  0  0  0  0  0
  1 25  1  0  0  0
  1 30  2  0  0  0
  1 83  1  0  0  0
  2  3  1  0  0  0
  2 25  1  0  0  0
  2 86  1  0  0  0
  2 87  1  0  0  0
  3  4  1  0  0  0
  3 88  1  0  0  0
  3 89  1  0  0  0
  4  5  1  0  0  0
  4 90  1  0  0  0
  4 91  1  0  0  0
  5  6  1  0  0  0
  5 26  1  0  0  0
  5 92  1  0  0  0
  6 25  1  0  0  0
  6 93  1  0  0  0
  6 94  1  0  0  0
  7  8  2  0  0  0
  7 26  1  0  0  0
  7 29  1  0  0  0
  8  9  1  0  0  0
  8 22  1  0  0  0
  9 10  1  0  0  0
  9 27  2  0  0  0
 10 11  2  0  0  0
 10 15  1  0  0  0
 11 12  1  0  0  0
 11 95  1  0  0  0
 12 13  2  0  0  0
 12 96  1  0  0  0
 13 14  1  0  0  0
 13 31  1  0  0  0
 14 15  2  0  0  0
 14 97  1  0  0  0
 15 98  1  0  0  0
 16 17  2  0  0  0
 16 21  1  0  0  0
 16 31  1  0  0  0
 17 18  1  0  0  0
 17 99  1  0  0  0
 18 19  2  0  0  0
 18100  1  0  0  0
 19 20  1  0  0  0
 19 24  1  0  0  0
 20 21  2  0  0  0
 20101  1  0  0  0
 21 23  1  0  0  0
 22 28  1  0  0  0
 22 32  2  0  0  0
 26 27  1  0  0  0
 28102  1  0  0  0
 28103  1  0  0  0
 29104  1  0  0  0
 29105  1  0  0  0
 33 34  1  0  0  0
 33 66  1  0  0  0
 33 70  2  0  0  0
 34 36  1  0  0  0
 34 59  1  0  0  0
 34106  1  0  0  0
 35 44  2  0  0  0
 35 45  1  0  0  0
 35 68  1  0  0  0
 36 56  1  0  0  0
 36107  1  0  0  0
 37 39  1  0  0  0
 37 47  1  0  0  0
 37 66  1  0  0  0
 37108  1  0  0  0
 38 43  2  0  0  0
 38 46  1  0  0  0
 38 47  1  0  0  0
 39 64  1  0  0  0
 39 67  2  0  0  0
 40 52  1  0  0  0
 40 53  2  0  0  0
 40 58  1  0  0  0
 41109  1  0  0  0
 41110  1  0  0  0
 41111  1  0  0  0
 41 48  1  0  0  0
 42 43  1  0  0  0
 42 66  1  0  0  0
 42112  1  0  0  0
 42113  1  0  0  0
 43 44  1  0  0  0
 44114  1  0  0  0
 45 46  2  0  0  0
 45115  1  0  0  0
 46116  1  0  0  0
 47117  1  0  0  0
 47118  1  0  0  0
 48 56  1  0  0  0
 48 65  1  0  0  0
 48119  1  0  0  0
 49 50  1  0  0  0
 49 53  1  0  0  0
 49 64  1  0  0  0
 49120  1  0  0  0
 50 51  1  0  0  0
 50121  1  0  0  0
 50122  1  0  0  0
 51 52  1  0  0  0
 51123  1  0  0  0
 51124  1  0  0  0
 52125  1  0  0  0
 52126  1  0  0  0
 53 54  1  0  0  0
 54 55  2  0  0  0
 54127  1  0  0  0
 55 57  1  0  0  0
 55128  1  0  0  0
 56 69  2  0  0  0
 57 58  2  0  0  0
 57129  1  0  0  0
 58130  1  0  0  0
 59 60  1  0  0  0
 59 61  1  0  0  0
 59 62  1  0  0  0
 60131  1  0  0  0
 60132  1  0  0  0
 60133  1  0  0  0
 61134  1  0  0  0
 61135  1  0  0  0
 61136  1  0  0  0
 62137  1  0  0  0
 62138  1  0  0  0
 62139  1  0  0  0
 63 65  1  0  0  0
 63140  1  0  0  0
 63141  1  0  0  0
 63142  1  0  0  0
 64143  1  0  0  0
 65144  1  0  0  0
 68 79  1  0  0  0
 71 72  2  0  0  0
 71 74  1  0  0  0
 71145  1  0  0  0
 72 75  1  0  0  0
 72146  1  0  0  0
 73 75  2  0  0  0
 73 76  1  0  0  0
 73147  1  0  0  0
 74 76  2  0  0  0
 74 82  1  0  0  0
 75 83  1  0  0  0
 76 85  1  0  0  0
 77 78  1  0  0  0
 77 79  2  0  0  0
 77 80  1  0  0  0
 78 82  1  0  0  0
 78 84  2  0  0  0
 79148  1  0  0  0
 80 82  1  0  0  0
 80149  1  0  0  0
 80150  1  0  0  0
 81 83  1  0  0  0
 81151  1  0  0  0
 81152  1  0  0  0
 81153  1  0  0  0
M  ISO  4   1 100  68 101  79 101  83 100
M  END
> <chiral flag>
0

> <version>
0

> <s_m_source_file>
/data/baiqing/PycharmProjects/Reinvent-master-3.2/result/LINK_invent/BTK/process_docking_weight1_custom_product_contain_oxygen_bond_distance_aromatic_linkinvent_7_9_3/rearranged_h_0084.sdf

> <i_m_source_file_index>
5

> <r_mmod_Potential_Energy-OPLS-2005>
419.73681640625

> <r_mmod_Stretch_Energy-OPLS-2005>
126.345886230469

> <r_mmod_Bend_Energy-OPLS-2005>
278.296508789062

> <r_mmod_Torsional_Energy-OPLS-2005>
290.660827636719

> <r_mmod_Improper_Torsional_Energy-OPLS-2005>
2.87529015541077

> <r_mmod_Van_der_Waal_Energy-OPLS-2005>
144.188354492188

> <r_mmod_Electrostatic_Energy-OPLS-2005>
-317.833465576172

> <r_mmod_Solvation_Energy-OPLS-2005>
-194.963287353516

> <b_mmod_Minimization_Converged-OPLS-2005>
0

> <r_mmod_RMS_Derivative-OPLS-2005>
0.429122149944305

$$$$
5
                    3D
 Structure written by MMmdl.
150159  0  0  1  0            999 V2000
  -30.5692  -14.7421   20.4850 C   0  0  0  0  0  0
  -30.4511  -12.4556   19.4667 C   0  0  0  0  0  0
  -29.5167  -12.5196   18.2354 C   0  0  0  0  0  0
  -28.0415  -12.3384   18.6472 C   0  0  0  0  0  0
  -27.6514  -13.2208   19.8618 C   0  0  2  0  0  0
  -28.6968  -13.1055   20.9942 C   0  0  0  0  0  0
  -25.2559  -13.8174   20.5689 C   0  0  0  0  0  0
  -24.1830  -13.0437   20.9196 C   0  0  0  0  0  0
  -24.6401  -11.6907   20.8741 C   0  0  0  0  0  0
  -23.9068  -10.4291   21.0407 C   0  0  0  0  0  0
  -24.3618   -9.4205   21.9186 C   0  0  0  0  0  0
  -23.6292   -8.2241   22.0755 C   0  0  0  0  0  0
  -22.4275   -8.0280   21.3543 C   0  0  0  0  0  0
  -21.9909   -9.0255   20.4647 C   0  0  0  0  0  0
  -22.7237  -10.2136   20.3058 C   0  0  0  0  0  0
  -21.6853   -6.0734   22.5277 C   0  0  0  0  0  0
  -21.4013   -6.5638   23.8211 C   0  0  0  0  0  0
  -21.3661   -5.6792   24.9174 C   0  0  0  0  0  0
  -21.6046   -4.3055   24.7226 C   0  0  0  0  0  0
  -21.8819   -3.8144   23.4347 C   0  0  0  0  0  0
  -21.9194   -4.6961   22.3402 C   0  0  0  0  0  0
  -22.7851  -13.5229   21.1858 C   0  0  0  0  0  0
  -22.1663   -4.2146   21.0980 F   0  0  0  0  0  0
  -21.5630   -3.4539   25.7739 F   0  0  0  0  0  0
  -30.0028  -13.4861   20.4307 N   0  0  0  0  0  0
  -26.2984  -12.9356   20.3309 N   0  0  0  0  0  0
  -25.9333  -11.6509   20.5755 N   0  0  0  0  0  0
  -22.0493  -12.8223   22.0415 N   0  0  0  0  0  0
  -25.4275  -15.1895   20.4100 N   0  0  0  0  0  0
  -31.7264  -14.9244   20.0924 O   0  0  0  0  0  0
  -21.6639   -6.8876   21.4239 O   0  0  0  0  0  0
  -22.3536  -14.5535   20.6704 O   0  0  0  0  0  0
  -24.6314  -31.8549   23.1984 C   0  0  0  0  0  0
  -25.9134  -32.4756   23.8333 C   0  0  1  0  0  0
  -27.2250  -27.2670   20.1294 C   0  0  0  0  0  0
  -25.5927  -33.8558   24.2257 N   0  0  0  0  0  0
  -23.4299  -30.4768   21.5412 C   0  0  2  0  0  0
  -24.8813  -28.9255   20.1089 C   0  0  0  0  0  0
  -22.7508  -29.4598   22.4904 C   0  0  0  0  0  0
  -18.0293  -28.1387   22.8484 C   0  0  0  0  0  0
  -24.1489  -36.7287   23.2640 C   0  0  0  0  0  0
  -25.9762  -30.7685   21.3801 C   0  0  0  0  0  0
  -26.0527  -29.3913   20.7223 C   0  0  0  0  0  0
  -27.2303  -28.5734   20.7248 C   0  0  0  0  0  0
  -26.0356  -26.8726   19.4803 C   0  0  0  0  0  0
  -24.8772  -27.6731   19.4764 C   0  0  0  0  0  0
  -23.6501  -29.8107   20.1576 C   0  0  0  0  0  0
  -25.4115  -36.3072   24.0326 C   0  0  1  0  0  0
  -20.5898  -28.3700   23.1263 C   0  0  2  0  0  0
  -20.6781  -26.9416   22.5405 C   0  0  0  0  0  0
  -19.5756  -26.6381   21.5211 C   0  0  0  0  0  0
  -18.1937  -26.7927   22.1628 C   0  0  0  0  0  0
  -19.1547  -28.8861   23.2868 C   0  0  0  0  0  0
  -18.9469  -30.1460   23.8888 C   0  0  0  0  0  0
  -17.6468  -30.6588   24.0562 C   0  0  0  0  0  0
  -25.9054  -34.9440   23.5096 C   0  0  0  0  0  0
  -16.5358  -29.9085   23.6332 C   0  0  0  0  0  0
  -16.7280  -28.6503   23.0354 C   0  0  0  0  0  0
  -26.4501  -31.6579   25.0723 C   0  0  0  0  0  0
  -25.3721  -31.3735   26.1441 C   0  0  0  0  0  0
  -27.0351  -30.2993   24.6217 C   0  0  0  0  0  0
  -27.6049  -32.4325   25.7499 C   0  0  0  0  0  0
  -27.5577  -37.1802   24.8467 C   0  0  0  0  0  0
  -21.4213  -29.3046   22.3649 N   0  0  0  0  0  0
  -26.4294  -37.3768   23.9402 N   0  0  0  0  0  0
  -24.6980  -31.0509   22.0963 N   0  0  0  0  0  0
  -23.4201  -28.8136   23.3008 O   0  0  0  0  0  0
  -28.2753  -26.3204   20.1787 O   0  0  0  0  0  0
  -26.5632  -34.8914   22.4668 O   0  0  0  0  0  0
  -23.5459  -32.1370   23.7272 O   0  0  0  0  0  0
  -28.4147  -19.3382   21.3791 C   0  0  0  0  0  0
  -28.6190  -17.9253   21.4410 C   0  0  0  0  0  0
  -30.5052  -18.1406   20.0189 C   0  0  0  0  0  0
  -29.2142  -20.2597   20.6377 C   0  0  0  0  0  0
  -29.6714  -17.2542   20.7664 C   0  0  0  0  0  0
  -30.2800  -19.5711   19.9586 C   0  0  0  0  0  0
  -28.4329  -23.7445   20.6059 C   0  0  0  0  0  0
  -27.9293  -22.5503   21.2765 C   0  0  0  0  0  0
  -27.9469  -25.0473   20.7329 C   0  0  0  0  0  0
  -29.4929  -22.8503   19.8929 C   0  0  0  0  0  0
  -28.8819  -21.7191   20.6560 N   0  0  0  0  0  0
  -29.7268  -15.7694   20.8755 N   0  0  0  0  0  0
  -27.0121  -22.4075   22.0586 O   0  0  0  0  0  0
  -31.1316  -20.3109   19.2077 F   0  0  0  0  0  0
  -31.4873  -12.6086   19.1603 H   0  0  0  0  0  0
  -30.4187  -11.4666   19.9261 H   0  0  0  0  0  0
  -29.7977  -11.7565   17.5082 H   0  0  0  0  0  0
  -29.6392  -13.4802   17.7325 H   0  0  0  0  0  0
  -27.8950  -11.2863   18.8949 H   0  0  0  0  0  0
  -27.3838  -12.5451   17.8020 H   0  0  0  0  0  0
  -27.6590  -14.2508   19.5047 H   0  0  0  0  0  0
  -28.7335  -12.0856   21.3802 H   0  0  0  0  0  0
  -28.4237  -13.7328   21.8440 H   0  0  0  0  0  0
  -25.2766   -9.5679   22.4757 H   0  0  0  0  0  0
  -24.0002   -7.4631   22.7474 H   0  0  0  0  0  0
  -21.0839   -8.8773   19.8953 H   0  0  0  0  0  0
  -22.3696  -10.9675   19.6166 H   0  0  0  0  0  0
  -21.2003   -7.6146   23.9713 H   0  0  0  0  0  0
  -21.1484   -6.0523   25.9077 H   0  0  0  0  0  0
  -22.0597   -2.7606   23.2849 H   0  0  0  0  0  0
  -22.4110  -11.9886   22.4805 H   0  0  0  0  0  0
  -21.1109  -13.1249   22.2618 H   0  0  0  0  0  0
  -24.6575  -15.8417   20.5111 H   0  0  0  0  0  0
  -26.2692  -15.6257   20.0557 H   0  0  0  0  0  0
  -26.7202  -32.5412   23.1077 H   0  0  0  0  0  0
  -25.0057  -33.9692   25.0390 H   0  0  0  0  0  0
  -22.7266  -31.2991   21.3942 H   0  0  0  0  0  0
  -23.3747  -35.9625   23.3312 H   0  0  0  0  0  0
  -24.3575  -36.8900   22.2053 H   0  0  0  0  0  0
  -23.7250  -37.6494   23.6659 H   0  0  0  0  0  0
  -26.1149  -31.5293   20.6105 H   0  0  0  0  0  0
  -26.8530  -30.8180   22.0142 H   0  0  0  0  0  0
  -28.1244  -28.9185   21.2249 H   0  0  0  0  0  0
  -25.9906  -25.9060   18.9985 H   0  0  0  0  0  0
  -23.9820  -27.3108   18.9898 H   0  0  0  0  0  0
  -23.7730  -30.5874   19.4019 H   0  0  0  0  0  0
  -22.7692  -29.2432   19.8524 H   0  0  0  0  0  0
  -25.1299  -36.1923   25.0821 H   0  0  0  0  0  0
  -20.9994  -28.3282   24.1382 H   0  0  0  0  0  0
  -20.5678  -26.2313   23.3613 H   0  0  0  0  0  0
  -21.6649  -26.7436   22.1201 H   0  0  0  0  0  0
  -19.6918  -25.6290   21.1246 H   0  0  0  0  0  0
  -19.6690  -27.3187   20.6737 H   0  0  0  0  0  0
  -17.4204  -26.6666   21.4035 H   0  0  0  0  0  0
  -18.0347  -26.0071   22.9028 H   0  0  0  0  0  0
  -19.7944  -30.7279   24.2254 H   0  0  0  0  0  0
  -17.5022  -31.6267   24.5165 H   0  0  0  0  0  0
  -15.5359  -30.2987   23.7655 H   0  0  0  0  0  0
  -15.8680  -28.0818   22.7075 H   0  0  0  0  0  0
  -24.5883  -30.7104   25.7763 H   0  0  0  0  0  0
  -24.8932  -32.2912   26.4868 H   0  0  0  0  0  0
  -25.8030  -30.8900   27.0218 H   0  0  0  0  0  0
  -26.2942  -29.6738   24.1227 H   0  0  0  0  0  0
  -27.4010  -29.7259   25.4744 H   0  0  0  0  0  0
  -27.8829  -30.4260   23.9480 H   0  0  0  0  0  0
  -27.2645  -33.3622   26.2070 H   0  0  0  0  0  0
  -28.3863  -32.6891   25.0335 H   0  0  0  0  0  0
  -28.0714  -31.8458   26.5423 H   0  0  0  0  0  0
  -28.2605  -38.0089   24.7496 H   0  0  0  0  0  0
  -28.1064  -36.2619   24.6320 H   0  0  0  0  0  0
  -27.2292  -37.1482   25.8870 H   0  0  0  0  0  0
  -20.9399  -29.8771   21.6856 H   0  0  0  0  0  0
  -26.0176  -38.2846   24.1388 H   0  0  0  0  0  0
  -27.5767  -19.7268   21.9396 H   0  0  0  0  0  0
  -27.9237  -17.3468   22.0337 H   0  0  0  0  0  0
  -31.3323  -17.7308   19.4585 H   0  0  0  0  0  0
  -27.1165  -25.1720   21.4163 H   0  0  0  0  0  0
  -30.5402  -22.9998   20.1597 H   0  0  0  0  0  0
  -29.3912  -22.7119   18.8152 H   0  0  0  0  0  0
  -28.8841  -15.3800   21.2699 H   0  0  0  0  0  0
  1 25  1  0  0  0
  1 30  2  0  0  0
  1 82  1  0  0  0
  2  3  1  0  0  0
  2 25  1  0  0  0
  2 85  1  0  0  0
  2 86  1  0  0  0
  3  4  1  0  0  0
  3 87  1  0  0  0
  3 88  1  0  0  0
  4  5  1  0  0  0
  4 89  1  0  0  0
  4 90  1  0  0  0
  5  6  1  0  0  0
  5 26  1  0  0  0
  5 91  1  0  0  0
  6 25  1  0  0  0
  6 92  1  0  0  0
  6 93  1  0  0  0
  7  8  2  0  0  0
  7 26  1  0  0  0
  7 29  1  0  0  0
  8  9  1  0  0  0
  8 22  1  0  0  0
  9 10  1  0  0  0
  9 27  2  0  0  0
 10 11  2  0  0  0
 10 15  1  0  0  0
 11 12  1  0  0  0
 11 94  1  0  0  0
 12 13  2  0  0  0
 12 95  1  0  0  0
 13 14  1  0  0  0
 13 31  1  0  0  0
 14 15  2  0  0  0
 14 96  1  0  0  0
 15 97  1  0  0  0
 16 17  2  0  0  0
 16 21  1  0  0  0
 16 31  1  0  0  0
 17 18  1  0  0  0
 17 98  1  0  0  0
 18 19  2  0  0  0
 18 99  1  0  0  0
 19 20  1  0  0  0
 19 24  1  0  0  0
 20 21  2  0  0  0
 20100  1  0  0  0
 21 23  1  0  0  0
 22 28  1  0  0  0
 22 32  2  0  0  0
 26 27  1  0  0  0
 28101  1  0  0  0
 28102  1  0  0  0
 29103  1  0  0  0
 29104  1  0  0  0
 33 34  1  0  0  0
 33 66  1  0  0  0
 33 70  2  0  0  0
 34 36  1  0  0  0
 34 59  1  0  0  0
 34105  1  0  0  0
 35 44  2  0  0  0
 35 45  1  0  0  0
 35 68  1  0  0  0
 36 56  1  0  0  0
 36106  1  0  0  0
 37 39  1  0  0  0
 37 47  1  0  0  0
 37 66  1  0  0  0
 37107  1  0  0  0
 38 43  2  0  0  0
 38 46  1  0  0  0
 38 47  1  0  0  0
 39 64  1  0  0  0
 39 67  2  0  0  0
 40 52  1  0  0  0
 40 53  2  0  0  0
 40 58  1  0  0  0
 41108  1  0  0  0
 41109  1  0  0  0
 41110  1  0  0  0
 41 48  1  0  0  0
 42 43  1  0  0  0
 42 66  1  0  0  0
 42111  1  0  0  0
 42112  1  0  0  0
 43 44  1  0  0  0
 44113  1  0  0  0
 45 46  2  0  0  0
 45114  1  0  0  0
 46115  1  0  0  0
 47116  1  0  0  0
 47117  1  0  0  0
 48 56  1  0  0  0
 48 65  1  0  0  0
 48118  1  0  0  0
 49 50  1  0  0  0
 49 53  1  0  0  0
 49 64  1  0  0  0
 49119  1  0  0  0
 50 51  1  0  0  0
 50120  1  0  0  0
 50121  1  0  0  0
 51 52  1  0  0  0
 51122  1  0  0  0
 51123  1  0  0  0
 52124  1  0  0  0
 52125  1  0  0  0
 53 54  1  0  0  0
 54 55  2  0  0  0
 54126  1  0  0  0
 55 57  1  0  0  0
 55127  1  0  0  0
 56 69  2  0  0  0
 57 58  2  0  0  0
 57128  1  0  0  0
 58129  1  0  0  0
 59 60  1  0  0  0
 59 61  1  0  0  0
 59 62  1  0  0  0
 60130  1  0  0  0
 60131  1  0  0  0
 60132  1  0  0  0
 61133  1  0  0  0
 61134  1  0  0  0
 61135  1  0  0  0
 62136  1  0  0  0
 62137  1  0  0  0
 62138  1  0  0  0
 63 65  1  0  0  0
 63139  1  0  0  0
 63140  1  0  0  0
 63141  1  0  0  0
 64142  1  0  0  0
 65143  1  0  0  0
 68 79  1  0  0  0
 71 72  2  0  0  0
 71 74  1  0  0  0
 71144  1  0  0  0
 72 75  1  0  0  0
 72145  1  0  0  0
 73 75  2  0  0  0
 73 76  1  0  0  0
 73146  1  0  0  0
 74 76  2  0  0  0
 74 81  1  0  0  0
 75 82  1  0  0  0
 76 84  1  0  0  0
 77 78  1  0  0  0
 77 79  2  0  0  0
 77 80  1  0  0  0
 78 81  1  0  0  0
 78 83  2  0  0  0
 79147  1  0  0  0
 80 81  1  0  0  0
 80148  1  0  0  0
 80149  1  0  0  0
 82150  1  0  0  0
M  ISO  4   1 100  68 101  79 101  82 100
M  END
> <chiral flag>
0

> <version>
0

> <s_m_source_file>
/data/baiqing/PycharmProjects/Reinvent-master-3.2/result/LINK_invent/BTK/process_docking_weight1_custom_product_contain_oxygen_bond_distance_aromatic_linkinvent_7_9_3/rearranged_h_0084.sdf

> <i_m_source_file_index>
6

> <r_mmod_Potential_Energy-OPLS-2005>
227.970703125

> <r_mmod_Stretch_Energy-OPLS-2005>
107.681640625

> <r_mmod_Bend_Energy-OPLS-2005>
270.576690673828

> <r_mmod_Torsional_Energy-OPLS-2005>
220.03254699707

> <r_mmod_Improper_Torsional_Energy-OPLS-2005>
3.48363852500916

> <r_mmod_Van_der_Waal_Energy-OPLS-2005>
134.12727355957

> <r_mmod_Electrostatic_Energy-OPLS-2005>
-381.995819091797

> <r_mmod_Solvation_Energy-OPLS-2005>
-213.960922241211

> <b_mmod_Minimization_Converged-OPLS-2005>
0

> <r_mmod_RMS_Derivative-OPLS-2005>
0.390327841043472

$$$$
6
                    3D
 Structure written by MMmdl.
160169  0  0  1  0            999 V2000
  -30.5119  -14.9749   20.4133 C   0  0  0  0  0  0
  -30.4498  -12.6022   19.5043 C   0  0  0  0  0  0
  -29.5285  -12.5407   18.2616 C   0  0  0  0  0  0
  -28.0611  -12.3187   18.6762 C   0  0  0  0  0  0
  -27.6334  -13.2474   19.8425 C   0  0  2  0  0  0
  -28.6763  -13.2663   20.9815 C   0  0  0  0  0  0
  -25.2470  -13.8212   20.5708 C   0  0  0  0  0  0
  -24.1778  -13.0443   20.9216 C   0  0  0  0  0  0
  -24.6387  -11.6930   20.8741 C   0  0  0  0  0  0
  -23.9069  -10.4302   21.0392 C   0  0  0  0  0  0
  -24.3622   -9.4220   21.9170 C   0  0  0  0  0  0
  -23.6298   -8.2253   22.0747 C   0  0  0  0  0  0
  -22.4281   -8.0280   21.3542 C   0  0  0  0  0  0
  -21.9915   -9.0250   20.4645 C   0  0  0  0  0  0
  -22.7238  -10.2134   20.3046 C   0  0  0  0  0  0
  -21.6858   -6.0735   22.5275 C   0  0  0  0  0  0
  -21.4018   -6.5639   23.8208 C   0  0  0  0  0  0
  -21.3663   -5.6788   24.9170 C   0  0  0  0  0  0
  -21.6042   -4.3051   24.7218 C   0  0  0  0  0  0
  -21.8821   -3.8144   23.4338 C   0  0  0  0  0  0
  -21.9198   -4.6963   22.3396 C   0  0  0  0  0  0
  -22.7792  -13.5216   21.1874 C   0  0  0  0  0  0
  -22.1658   -4.2149   21.0971 F   0  0  0  0  0  0
  -21.5633   -3.4536   25.7730 F   0  0  0  0  0  0
  -29.9540  -13.6935   20.3920 N   0  0  0  0  0  0
  -26.2900  -12.9445   20.3253 N   0  0  0  0  0  0
  -25.9327  -11.6578   20.5735 N   0  0  0  0  0  0
  -22.0445  -12.8205   22.0432 N   0  0  0  0  0  0
  -25.4142  -15.1942   20.4139 N   0  0  0  0  0  0
  -31.7053  -15.0755   20.1065 O   0  0  0  0  0  0
  -21.6646   -6.8876   21.4236 O   0  0  0  0  0  0
  -22.3473  -14.5513   20.6715 O   0  0  0  0  0  0
  -24.6458  -31.8420   23.1865 C   0  0  0  0  0  0
  -25.9216  -32.4686   23.8262 C   0  0  1  0  0  0
  -27.2211  -27.1017   20.1425 C   0  0  0  0  0  0
  -25.5952  -33.8496   24.2167 N   0  0  0  0  0  0
  -23.4523  -30.4598   21.5326 C   0  0  2  0  0  0
  -24.9028  -28.8819   20.1120 C   0  0  0  0  0  0
  -22.7579  -29.4528   22.4846 C   0  0  0  0  0  0
  -18.0303  -28.1395   22.8465 C   0  0  0  0  0  0
  -24.1493  -36.7242   23.2643 C   0  0  0  0  0  0
  -26.0116  -30.7005   21.3955 C   0  0  0  0  0  0
  -26.0807  -29.3086   20.7365 C   0  0  0  0  0  0
  -27.2351  -28.4321   20.7414 C   0  0  0  0  0  0
  -26.0161  -26.7949   19.4675 C   0  0  0  0  0  0
  -24.8847  -27.6390   19.4653 C   0  0  0  0  0  0
  -23.6814  -29.7880   20.1534 C   0  0  0  0  0  0
  -25.4133  -36.3030   24.0309 C   0  0  1  0  0  0
  -20.5915  -28.3724   23.1223 C   0  0  2  0  0  0
  -20.6786  -26.9426   22.5397 C   0  0  0  0  0  0
  -19.5768  -26.6376   21.5199 C   0  0  0  0  0  0
  -18.1948  -26.7929   22.1610 C   0  0  0  0  0  0
  -19.1561  -28.8879   23.2832 C   0  0  0  0  0  0
  -18.9479  -30.1469   23.8868 C   0  0  0  0  0  0
  -17.6479  -30.6593   24.0554 C   0  0  0  0  0  0
  -25.9080  -34.9402   23.5045 C   0  0  0  0  0  0
  -16.5370  -29.9082   23.6341 C   0  0  0  0  0  0
  -16.7285  -28.6499   23.0359 C   0  0  0  0  0  0
  -26.4531  -31.6572   25.0718 C   0  0  0  0  0  0
  -25.3691  -31.3772   26.1394 C   0  0  0  0  0  0
  -27.0403  -30.2965   24.6334 C   0  0  0  0  0  0
  -27.6066  -32.4333   25.7505 C   0  0  0  0  0  0
  -27.5577  -37.1788   24.8468 C   0  0  0  0  0  0
  -21.4268  -29.3043   22.3594 N   0  0  0  0  0  0
  -26.4293  -37.3747   23.9406 N   0  0  0  0  0  0
  -24.7230  -31.0228   22.0930 N   0  0  0  0  0  0
  -23.4208  -28.8075   23.3004 O   0  0  0  0  0  0
  -28.2801  -26.1067   20.2125 O   0  0  0  0  0  0
  -26.5673  -34.8905   22.4628 O   0  0  0  0  0  0
  -23.5566  -32.1313   23.7062 O   0  0  0  0  0  0
  -29.8617  -20.1158   21.1126 C   0  0  0  0  0  0
  -30.0926  -18.6733   21.2845 C   0  0  0  0  0  0
  -28.7181  -19.6619   19.1284 C   0  0  0  0  0  0
  -28.9415  -18.2296   19.2858 C   0  0  0  0  0  0
  -29.1585  -20.7215   20.0063 C   0  0  0  0  0  0
  -29.6664  -17.6326   20.3739 C   0  0  0  0  0  0
  -28.9697  -23.5334   20.2525 C   0  0  0  0  0  0
  -28.1316  -24.6534   19.9608 C   0  0  0  0  0  0
  -30.3138  -23.7971   20.9029 C   0  0  0  0  0  0
  -31.4166  -23.7696   19.8197 C   0  0  0  0  0  0
  -31.2851  -22.5669   18.8576 C   0  0  0  0  0  0
  -29.8156  -22.3281   18.4319 C   0  0  0  0  0  0
  -28.3493  -17.3062   18.2351 C   0  0  0  0  0  0
  -28.9713  -22.1754   19.6274 N   0  0  0  0  0  0
  -29.6728  -16.1072   20.6349 N   0  0  0  0  0  0
  -31.4836  -12.7696   19.1959 H   0  0  0  0  0  0
  -30.4488  -11.6475   20.0330 H   0  0  0  0  0  0
  -29.8538  -11.7461   17.5894 H   0  0  0  0  0  0
  -29.6111  -13.4713   17.6970 H   0  0  0  0  0  0
  -27.9600  -11.2767   18.9818 H   0  0  0  0  0  0
  -27.4002  -12.4508   17.8186 H   0  0  0  0  0  0
  -27.5992  -14.2518   19.4200 H   0  0  0  0  0  0
  -28.7660  -12.2817   21.4428 H   0  0  0  0  0  0
  -28.3693  -13.9484   21.7761 H   0  0  0  0  0  0
  -25.2770   -9.5705   22.4744 H   0  0  0  0  0  0
  -24.0017   -7.4646   22.7468 H   0  0  0  0  0  0
  -21.0845   -8.8754   19.8952 H   0  0  0  0  0  0
  -22.3677  -10.9663   19.6154 H   0  0  0  0  0  0
  -21.2001   -7.6146   23.9711 H   0  0  0  0  0  0
  -21.1486   -6.0518   25.9074 H   0  0  0  0  0  0
  -22.0599   -2.7608   23.2834 H   0  0  0  0  0  0
  -22.4082  -11.9884   22.4832 H   0  0  0  0  0  0
  -21.1052  -13.1210   22.2636 H   0  0  0  0  0  0
  -24.6437  -15.8446   20.5227 H   0  0  0  0  0  0
  -26.2552  -15.6355   20.0691 H   0  0  0  0  0  0
  -26.7274  -32.5285   23.0981 H   0  0  0  0  0  0
  -25.0092  -33.9619   25.0310 H   0  0  0  0  0  0
  -22.7566  -31.2870   21.3751 H   0  0  0  0  0  0
  -23.3769  -35.9558   23.3300 H   0  0  0  0  0  0
  -24.3575  -36.8886   22.2058 H   0  0  0  0  0  0
  -23.7229  -37.6429   23.6685 H   0  0  0  0  0  0
  -26.1748  -31.4556   20.6253 H   0  0  0  0  0  0
  -26.8794  -30.7495   22.0416 H   0  0  0  0  0  0
  -28.1313  -28.7523   21.2545 H   0  0  0  0  0  0
  -25.8959  -25.8626   18.9414 H   0  0  0  0  0  0
  -23.9881  -27.3111   18.9586 H   0  0  0  0  0  0
  -23.8227  -30.5623   19.3984 H   0  0  0  0  0  0
  -22.7956  -29.2335   19.8382 H   0  0  0  0  0  0
  -25.1329  -36.1862   25.0802 H   0  0  0  0  0  0
  -20.9997  -28.3315   24.1351 H   0  0  0  0  0  0
  -20.5664  -26.2343   23.3620 H   0  0  0  0  0  0
  -21.6655  -26.7423   22.1212 H   0  0  0  0  0  0
  -19.6935  -25.6275   21.1261 H   0  0  0  0  0  0
  -19.6710  -27.3158   20.6703 H   0  0  0  0  0  0
  -17.4215  -26.6651   21.4020 H   0  0  0  0  0  0
  -18.0364  -26.0080   22.9016 H   0  0  0  0  0  0
  -19.7962  -30.7279   24.2230 H   0  0  0  0  0  0
  -17.5042  -31.6277   24.5148 H   0  0  0  0  0  0
  -15.5374  -30.2979   23.7683 H   0  0  0  0  0  0
  -15.8678  -28.0808   22.7097 H   0  0  0  0  0  0
  -24.5884  -30.7111   25.7706 H   0  0  0  0  0  0
  -24.8853  -32.2947   26.4754 H   0  0  0  0  0  0
  -25.7948  -30.8990   27.0221 H   0  0  0  0  0  0
  -26.3029  -29.6683   24.1325 H   0  0  0  0  0  0
  -27.3981  -29.7289   25.4937 H   0  0  0  0  0  0
  -27.8956  -30.4202   23.9687 H   0  0  0  0  0  0
  -27.2678  -33.3664   26.2020 H   0  0  0  0  0  0
  -28.3914  -32.6839   25.0350 H   0  0  0  0  0  0
  -28.0683  -31.8484   26.5472 H   0  0  0  0  0  0
  -28.2602  -38.0083   24.7518 H   0  0  0  0  0  0
  -28.1066  -36.2613   24.6296 H   0  0  0  0  0  0
  -27.2287  -37.1435   25.8869 H   0  0  0  0  0  0
  -20.9483  -29.8761   21.6776 H   0  0  0  0  0  0
  -26.0160  -38.2816   24.1413 H   0  0  0  0  0  0
  -30.2667  -20.7711   21.8681 H   0  0  0  0  0  0
  -30.6040  -18.3640   22.1846 H   0  0  0  0  0  0
  -28.1648  -19.9668   18.2512 H   0  0  0  0  0  0
  -27.2800  -24.4581   19.3337 H   0  0  0  0  0  0
  -30.5015  -23.0380   21.6620 H   0  0  0  0  0  0
  -30.3062  -24.7569   21.4221 H   0  0  0  0  0  0
  -32.4042  -23.7782   20.2817 H   0  0  0  0  0  0
  -31.3489  -24.6876   19.2339 H   0  0  0  0  0  0
  -31.6814  -21.6719   19.3381 H   0  0  0  0  0  0
  -31.9064  -22.7339   17.9764 H   0  0  0  0  0  0
  -29.7636  -21.4824   17.7460 H   0  0  0  0  0  0
  -29.4643  -23.1796   17.8457 H   0  0  0  0  0  0
  -28.1082  -17.8465   17.3191 H   0  0  0  0  0  0
  -27.4342  -16.8451   18.6058 H   0  0  0  0  0  0
  -29.0512  -16.5137   17.9736 H   0  0  0  0  0  0
  -28.7543  -15.7764   20.8853 H   0  0  0  0  0  0
  1 25  1  0  0  0
  1 30  2  0  0  0
  1 85  1  0  0  0
  2  3  1  0  0  0
  2 25  1  0  0  0
  2 86  1  0  0  0
  2 87  1  0  0  0
  3  4  1  0  0  0
  3 88  1  0  0  0
  3 89  1  0  0  0
  4  5  1  0  0  0
  4 90  1  0  0  0
  4 91  1  0  0  0
  5  6  1  0  0  0
  5 26  1  0  0  0
  5 92  1  0  0  0
  6 25  1  0  0  0
  6 93  1  0  0  0
  6 94  1  0  0  0
  7  8  2  0  0  0
  7 26  1  0  0  0
  7 29  1  0  0  0
  8  9  1  0  0  0
  8 22  1  0  0  0
  9 10  1  0  0  0
  9 27  2  0  0  0
 10 11  2  0  0  0
 10 15  1  0  0  0
 11 12  1  0  0  0
 11 95  1  0  0  0
 12 13  2  0  0  0
 12 96  1  0  0  0
 13 14  1  0  0  0
 13 31  1  0  0  0
 14 15  2  0  0  0
 14 97  1  0  0  0
 15 98  1  0  0  0
 16 17  2  0  0  0
 16 21  1  0  0  0
 16 31  1  0  0  0
 17 18  1  0  0  0
 17 99  1  0  0  0
 18 19  2  0  0  0
 18100  1  0  0  0
 19 20  1  0  0  0
 19 24  1  0  0  0
 20 21  2  0  0  0
 20101  1  0  0  0
 21 23  1  0  0  0
 22 28  1  0  0  0
 22 32  2  0  0  0
 26 27  1  0  0  0
 28102  1  0  0  0
 28103  1  0  0  0
 29104  1  0  0  0
 29105  1  0  0  0
 33 34  1  0  0  0
 33 66  1  0  0  0
 33 70  2  0  0  0
 34 36  1  0  0  0
 34 59  1  0  0  0
 34106  1  0  0  0
 35 44  2  0  0  0
 35 45  1  0  0  0
 35 68  1  0  0  0
 36 56  1  0  0  0
 36107  1  0  0  0
 37 39  1  0  0  0
 37 47  1  0  0  0
 37 66  1  0  0  0
 37108  1  0  0  0
 38 43  2  0  0  0
 38 46  1  0  0  0
 38 47  1  0  0  0
 39 64  1  0  0  0
 39 67  2  0  0  0
 40 52  1  0  0  0
 40 53  2  0  0  0
 40 58  1  0  0  0
 41109  1  0  0  0
 41110  1  0  0  0
 41111  1  0  0  0
 41 48  1  0  0  0
 42 43  1  0  0  0
 42 66  1  0  0  0
 42112  1  0  0  0
 42113  1  0  0  0
 43 44  1  0  0  0
 44114  1  0  0  0
 45 46  2  0  0  0
 45115  1  0  0  0
 46116  1  0  0  0
 47117  1  0  0  0
 47118  1  0  0  0
 48 56  1  0  0  0
 48 65  1  0  0  0
 48119  1  0  0  0
 49 50  1  0  0  0
 49 53  1  0  0  0
 49 64  1  0  0  0
 49120  1  0  0  0
 50 51  1  0  0  0
 50121  1  0  0  0
 50122  1  0  0  0
 51 52  1  0  0  0
 51123  1  0  0  0
 51124  1  0  0  0
 52125  1  0  0  0
 52126  1  0  0  0
 53 54  1  0  0  0
 54 55  2  0  0  0
 54127  1  0  0  0
 55 57  1  0  0  0
 55128  1  0  0  0
 56 69  2  0  0  0
 57 58  2  0  0  0
 57129  1  0  0  0
 58130  1  0  0  0
 59 60  1  0  0  0
 59 61  1  0  0  0
 59 62  1  0  0  0
 60131  1  0  0  0
 60132  1  0  0  0
 60133  1  0  0  0
 61134  1  0  0  0
 61135  1  0  0  0
 61136  1  0  0  0
 62137  1  0  0  0
 62138  1  0  0  0
 62139  1  0  0  0
 63 65  1  0  0  0
 63140  1  0  0  0
 63141  1  0  0  0
 63142  1  0  0  0
 64143  1  0  0  0
 65144  1  0  0  0
 68 78  1  0  0  0
 71 72  2  0  0  0
 71 75  1  0  0  0
 71145  1  0  0  0
 72 76  1  0  0  0
 72146  1  0  0  0
 73 74  1  0  0  0
 73 75  2  0  0  0
 73147  1  0  0  0
 74 76  2  0  0  0
 74 83  1  0  0  0
 75 84  1  0  0  0
 76 85  1  0  0  0
 77 78  2  0  0  0
 77 79  1  0  0  0
 77 84  1  0  0  0
 78148  1  0  0  0
 79 80  1  0  0  0
 79149  1  0  0  0
 79150  1  0  0  0
 80 81  1  0  0  0
 80151  1  0  0  0
 80152  1  0  0  0
 81 82  1  0  0  0
 81153  1  0  0  0
 81154  1  0  0  0
 82 84  1  0  0  0
 82155  1  0  0  0
 82156  1  0  0  0
 83157  1  0  0  0
 83158  1  0  0  0
 83159  1  0  0  0
 85160  1  0  0  0
M  ISO  4   1 100  68 101  78 101  85 100
M  END
> <chiral flag>
0

> <version>
0

> <s_m_source_file>
/data/baiqing/PycharmProjects/Reinvent-master-3.2/result/LINK_invent/BTK/process_docking_weight1_custom_product_contain_oxygen_bond_distance_aromatic_linkinvent_7_9_3/rearranged_h_0084.sdf

> <i_m_source_file_index>
7

> <r_mmod_Potential_Energy-OPLS-2005>
601.996032714844

> <r_mmod_Stretch_Energy-OPLS-2005>
250.57421875

> <r_mmod_Bend_Energy-OPLS-2005>
287.740386962891

> <r_mmod_Torsional_Energy-OPLS-2005>
302.904998779297

> <r_mmod_Improper_Torsional_Energy-OPLS-2005>
12.2816028594971

> <r_mmod_Van_der_Waal_Energy-OPLS-2005>
144.281127929688

> <r_mmod_Electrostatic_Energy-OPLS-2005>
-401.938262939453

> <r_mmod_Solvation_Energy-OPLS-2005>
-209.344970703125

> <b_mmod_Minimization_Converged-OPLS-2005>
0

> <r_mmod_RMS_Derivative-OPLS-2005>
1.43740367889404

$$$$
7
                    3D
 Structure written by MMmdl.
146154  0  0  1  0            999 V2000
  -30.3711  -15.4460   20.3678 C   0  0  0  0  0  0
  -30.4381  -12.9488   19.5139 C   0  0  0  0  0  0
  -29.5436  -12.6069   18.2931 C   0  0  0  0  0  0
  -28.1035  -12.2923   18.7341 C   0  0  0  0  0  0
  -27.6021  -13.2877   19.8079 C   0  0  2  0  0  0
  -28.6322  -13.5462   20.9277 C   0  0  0  0  0  0
  -25.2363  -13.8252   20.5754 C   0  0  0  0  0  0
  -24.1734  -13.0428   20.9270 C   0  0  0  0  0  0
  -24.6413  -11.6932   20.8759 C   0  0  0  0  0  0
  -23.9115  -10.4288   21.0401 C   0  0  0  0  0  0
  -24.3650   -9.4200   21.9181 C   0  0  0  0  0  0
  -23.6311   -8.2242   22.0752 C   0  0  0  0  0  0
  -22.4287   -8.0288   21.3546 C   0  0  0  0  0  0
  -21.9936   -9.0265   20.4646 C   0  0  0  0  0  0
  -22.7282  -10.2134   20.3054 C   0  0  0  0  0  0
  -21.6857   -6.0739   22.5278 C   0  0  0  0  0  0
  -21.4019   -6.5641   23.8214 C   0  0  0  0  0  0
  -21.3661   -5.6791   24.9175 C   0  0  0  0  0  0
  -21.6041   -4.3054   24.7221 C   0  0  0  0  0  0
  -21.8820   -3.8148   23.4341 C   0  0  0  0  0  0
  -21.9195   -4.6966   22.3400 C   0  0  0  0  0  0
  -22.7753  -13.5175   21.1908 C   0  0  0  0  0  0
  -22.1660   -4.2154   21.0977 F   0  0  0  0  0  0
  -21.5627   -3.4537   25.7733 F   0  0  0  0  0  0
  -29.8266  -14.1145   20.2701 N   0  0  0  0  0  0
  -26.2794  -12.9546   20.3191 N   0  0  0  0  0  0
  -25.9351  -11.6639   20.5697 N   0  0  0  0  0  0
  -22.0408  -12.8168   22.0465 N   0  0  0  0  0  0
  -25.3968  -15.1992   20.4186 N   0  0  0  0  0  0
  -31.6106  -15.4116   20.2748 O   0  0  0  0  0  0
  -21.6644   -6.8885   21.4242 O   0  0  0  0  0  0
  -22.3435  -14.5474   20.6743 O   0  0  0  0  0  0
  -24.6721  -31.8130   23.1620 C   0  0  0  0  0  0
  -25.9349  -32.4538   23.8127 C   0  0  1  0  0  0
  -27.2224  -26.8087   20.2165 C   0  0  0  0  0  0
  -25.5973  -33.8359   24.2023 N   0  0  0  0  0  0
  -23.4938  -30.4182   21.5148 C   0  0  2  0  0  0
  -24.9486  -28.7736   20.1315 C   0  0  0  0  0  0
  -22.7716  -29.4380   22.4771 C   0  0  0  0  0  0
  -18.0326  -28.1410   22.8460 C   0  0  0  0  0  0
  -24.1499  -36.7195   23.2650 C   0  0  0  0  0  0
  -26.0690  -30.5784   21.4134 C   0  0  0  0  0  0
  -26.1349  -29.1497   20.7745 C   0  0  0  0  0  0
  -27.2633  -28.1917   20.7882 C   0  0  0  0  0  0
  -26.0051  -26.6146   19.5230 C   0  0  0  0  0  0
  -24.9134  -27.5266   19.4868 C   0  0  0  0  0  0
  -23.7430  -29.7193   20.1492 C   0  0  0  0  0  0
  -25.4145  -36.2945   24.0291 C   0  0  1  0  0  0
  -20.5958  -28.3761   23.1174 C   0  0  2  0  0  0
  -20.6800  -26.9432   22.5405 C   0  0  0  0  0  0
  -19.5773  -26.6365   21.5220 C   0  0  0  0  0  0
  -18.1958  -26.7937   22.1627 C   0  0  0  0  0  0
  -19.1590  -28.8909   23.2800 C   0  0  0  0  0  0
  -18.9495  -30.1497   23.8836 C   0  0  0  0  0  0
  -17.6487  -30.6597   24.0549 C   0  0  0  0  0  0
  -25.9109  -34.9324   23.4993 C   0  0  0  0  0  0
  -16.5379  -29.9080   23.6341 C   0  0  0  0  0  0
  -16.7309  -28.6502   23.0361 C   0  0  0  0  0  0
  -26.4563  -31.6523   25.0704 C   0  0  0  0  0  0
  -25.3649  -31.3804   26.1331 C   0  0  0  0  0  0
  -27.0479  -30.2873   24.6523 C   0  0  0  0  0  0
  -27.6030  -32.4359   25.7521 C   0  0  0  0  0  0
  -27.5567  -37.1765   24.8473 C   0  0  0  0  0  0
  -21.4377  -29.3032   22.3513 N   0  0  0  0  0  0
  -26.4294  -37.3681   23.9390 N   0  0  0  0  0  0
  -24.7673  -30.9673   22.0825 N   0  0  0  0  0  0
  -23.4209  -28.7962   23.3063 O   0  0  0  0  0  0
  -28.2488  -25.6923   20.1095 O   0  0  0  0  0  0
  -26.5740  -34.8875   22.4605 O   0  0  0  0  0  0
  -23.5767  -32.1159   23.6637 O   0  0  0  0  0  0
  -29.8565  -21.1965   21.7564 C   0  0  0  0  0  0
  -29.0387  -19.7252   20.0453 C   0  0  0  0  0  0
  -30.4181  -18.7259   21.7512 C   0  0  0  0  0  0
  -29.0957  -21.2178   20.5637 C   0  0  0  0  0  0
  -30.4905  -20.0409   22.3022 C   0  0  0  0  0  0
  -29.6745  -18.3879   20.5972 C   0  0  0  0  0  0
  -28.6641  -22.8734   20.0590 C   0  0  0  0  0  0
  -28.1542  -24.0962   20.6381 N   0  0  0  0  0  0
  -31.2406  -20.2126   23.4657 N   0  0  0  0  0  0
  -29.5948  -16.7532   20.2613 N   0  0  0  0  0  0
  -29.0293  -23.0908   18.7824 F   0  0  0  0  0  0
  -31.4397  -13.1975   19.1612 H   0  0  0  0  0  0
  -30.5634  -12.0801   20.1627 H   0  0  0  0  0  0
  -29.9618  -11.7663   17.7382 H   0  0  0  0  0  0
  -29.5369  -13.4546   17.6062 H   0  0  0  0  0  0
  -28.0978  -11.2821   19.1449 H   0  0  0  0  0  0
  -27.4329  -12.2781   17.8740 H   0  0  0  0  0  0
  -27.4867  -14.2305   19.2714 H   0  0  0  0  0  0
  -28.8549  -12.6414   21.4955 H   0  0  0  0  0  0
  -28.2366  -14.2720   21.6406 H   0  0  0  0  0  0
  -25.2789   -9.5670   22.4763 H   0  0  0  0  0  0
  -24.0011   -7.4633   22.7479 H   0  0  0  0  0  0
  -21.0858   -8.8797   19.8963 H   0  0  0  0  0  0
  -22.3741  -10.9675   19.6168 H   0  0  0  0  0  0
  -21.2015   -7.6151   23.9721 H   0  0  0  0  0  0
  -21.1481   -6.0519   25.9080 H   0  0  0  0  0  0
  -22.0598   -2.7610   23.2839 H   0  0  0  0  0  0
  -22.4036  -11.9850   22.4877 H   0  0  0  0  0  0
  -21.1021  -13.1189   22.2653 H   0  0  0  0  0  0
  -24.6245  -15.8466   20.5326 H   0  0  0  0  0  0
  -26.2379  -15.6446   20.0770 H   0  0  0  0  0  0
  -26.7429  -32.5051   23.0849 H   0  0  0  0  0  0
  -25.0025  -33.9426   25.0106 H   0  0  0  0  0  0
  -22.8122  -31.2518   21.3311 H   0  0  0  0  0  0
  -23.3756  -35.9538   23.3336 H   0  0  0  0  0  0
  -24.3552  -36.8821   22.2058 H   0  0  0  0  0  0
  -23.7281  -37.6400   23.6695 H   0  0  0  0  0  0
  -26.2579  -31.3030   20.6205 H   0  0  0  0  0  0
  -26.9259  -30.6486   22.0710 H   0  0  0  0  0  0
  -28.1731  -28.4937   21.2870 H   0  0  0  0  0  0
  -25.8772  -25.6726   19.0084 H   0  0  0  0  0  0
  -24.0171  -27.2332   18.9573 H   0  0  0  0  0  0
  -23.9149  -30.4796   19.3861 H   0  0  0  0  0  0
  -22.8497  -29.1808   19.8275 H   0  0  0  0  0  0
  -25.1354  -36.1745   25.0786 H   0  0  0  0  0  0
  -21.0037  -28.3373   24.1300 H   0  0  0  0  0  0
  -20.5671  -26.2384   23.3657 H   0  0  0  0  0  0
  -21.6664  -26.7392   22.1216 H   0  0  0  0  0  0
  -19.6931  -25.6260   21.1288 H   0  0  0  0  0  0
  -19.6711  -27.3146   20.6727 H   0  0  0  0  0  0
  -17.4224  -26.6674   21.4035 H   0  0  0  0  0  0
  -18.0353  -26.0096   22.9040 H   0  0  0  0  0  0
  -19.7973  -30.7328   24.2181 H   0  0  0  0  0  0
  -17.5036  -31.6270   24.5163 H   0  0  0  0  0  0
  -15.5376  -30.2962   23.7691 H   0  0  0  0  0  0
  -15.8712  -28.0798   22.7109 H   0  0  0  0  0  0
  -24.5866  -30.7121   25.7627 H   0  0  0  0  0  0
  -24.8796  -32.3013   26.4573 H   0  0  0  0  0  0
  -25.7842  -30.9087   27.0227 H   0  0  0  0  0  0
  -26.3174  -29.6520   24.1504 H   0  0  0  0  0  0
  -27.3934  -29.7277   25.5224 H   0  0  0  0  0  0
  -27.9145  -30.4026   24.0013 H   0  0  0  0  0  0
  -27.2571  -33.3704   26.1957 H   0  0  0  0  0  0
  -28.3915  -32.6857   25.0407 H   0  0  0  0  0  0
  -28.0621  -31.8585   26.5557 H   0  0  0  0  0  0
  -28.2601  -38.0040   24.7458 H   0  0  0  0  0  0
  -28.1047  -36.2563   24.6390 H   0  0  0  0  0  0
  -27.2267  -37.1515   25.8873 H   0  0  0  0  0  0
  -20.9659  -29.8710   21.6610 H   0  0  0  0  0  0
  -26.0144  -38.2753   24.1346 H   0  0  0  0  0  0
  -30.0048  -22.1444   22.2559 H   0  0  0  0  0  0
  -28.4667  -19.6071   19.1369 H   0  0  0  0  0  0
  -30.9284  -17.9251   22.2679 H   0  0  0  0  0  0
  -31.5036  -21.1469   23.7658 H   0  0  0  0  0  0
  -31.9149  -19.5029   23.7365 H   0  0  0  0  0  0
  -28.6658  -16.5151   19.9467 H   0  0  0  0  0  0
  1 25  1  0  0  0
  1 30  2  0  0  0
  1 80  1  0  0  0
  2  3  1  0  0  0
  2 25  1  0  0  0
  2 82  1  0  0  0
  2 83  1  0  0  0
  3  4  1  0  0  0
  3 84  1  0  0  0
  3 85  1  0  0  0
  4  5  1  0  0  0
  4 86  1  0  0  0
  4 87  1  0  0  0
  5  6  1  0  0  0
  5 26  1  0  0  0
  5 88  1  0  0  0
  6 25  1  0  0  0
  6 89  1  0  0  0
  6 90  1  0  0  0
  7  8  2  0  0  0
  7 26  1  0  0  0
  7 29  1  0  0  0
  8  9  1  0  0  0
  8 22  1  0  0  0
  9 10  1  0  0  0
  9 27  2  0  0  0
 10 11  2  0  0  0
 10 15  1  0  0  0
 11 12  1  0  0  0
 11 91  1  0  0  0
 12 13  2  0  0  0
 12 92  1  0  0  0
 13 14  1  0  0  0
 13 31  1  0  0  0
 14 15  2  0  0  0
 14 93  1  0  0  0
 15 94  1  0  0  0
 16 17  2  0  0  0
 16 21  1  0  0  0
 16 31  1  0  0  0
 17 18  1  0  0  0
 17 95  1  0  0  0
 18 19  2  0  0  0
 18 96  1  0  0  0
 19 20  1  0  0  0
 19 24  1  0  0  0
 20 21  2  0  0  0
 20 97  1  0  0  0
 21 23  1  0  0  0
 22 28  1  0  0  0
 22 32  2  0  0  0
 26 27  1  0  0  0
 28 98  1  0  0  0
 28 99  1  0  0  0
 29100  1  0  0  0
 29101  1  0  0  0
 33 34  1  0  0  0
 33 66  1  0  0  0
 33 70  2  0  0  0
 34 36  1  0  0  0
 34 59  1  0  0  0
 34102  1  0  0  0
 35 44  2  0  0  0
 35 45  1  0  0  0
 35 68  1  0  0  0
 36 56  1  0  0  0
 36103  1  0  0  0
 37 39  1  0  0  0
 37 47  1  0  0  0
 37 66  1  0  0  0
 37104  1  0  0  0
 38 43  2  0  0  0
 38 46  1  0  0  0
 38 47  1  0  0  0
 39 64  1  0  0  0
 39 67  2  0  0  0
 40 52  1  0  0  0
 40 53  2  0  0  0
 40 58  1  0  0  0
 41105  1  0  0  0
 41106  1  0  0  0
 41107  1  0  0  0
 41 48  1  0  0  0
 42 43  1  0  0  0
 42 66  1  0  0  0
 42108  1  0  0  0
 42109  1  0  0  0
 43 44  1  0  0  0
 44110  1  0  0  0
 45 46  2  0  0  0
 45111  1  0  0  0
 46112  1  0  0  0
 47113  1  0  0  0
 47114  1  0  0  0
 48 56  1  0  0  0
 48 65  1  0  0  0
 48115  1  0  0  0
 49 50  1  0  0  0
 49 53  1  0  0  0
 49 64  1  0  0  0
 49116  1  0  0  0
 50 51  1  0  0  0
 50117  1  0  0  0
 50118  1  0  0  0
 51 52  1  0  0  0
 51119  1  0  0  0
 51120  1  0  0  0
 52121  1  0  0  0
 52122  1  0  0  0
 53 54  1  0  0  0
 54 55  2  0  0  0
 54123  1  0  0  0
 55 57  1  0  0  0
 55124  1  0  0  0
 56 69  2  0  0  0
 57 58  2  0  0  0
 57125  1  0  0  0
 58126  1  0  0  0
 59 60  1  0  0  0
 59 61  1  0  0  0
 59 62  1  0  0  0
 60127  1  0  0  0
 60128  1  0  0  0
 60129  1  0  0  0
 61130  1  0  0  0
 61131  1  0  0  0
 61132  1  0  0  0
 62133  1  0  0  0
 62134  1  0  0  0
 62135  1  0  0  0
 63 65  1  0  0  0
 63136  1  0  0  0
 63137  1  0  0  0
 63138  1  0  0  0
 64139  1  0  0  0
 65140  1  0  0  0
 68 78  1  0  0  0
 71 74  2  0  0  0
 71 75  1  0  0  0
 71141  1  0  0  0
 72 74  1  0  0  0
 72 76  2  0  0  0
 72142  1  0  0  0
 73 75  2  0  0  0
 73 76  1  0  0  0
 73143  1  0  0  0
 74 77  1  0  0  0
 75 79  1  0  0  0
 76 80  1  0  0  0
 77 78  2  0  0  0
 77 81  1  0  0  0
 79144  1  0  0  0
 79145  1  0  0  0
 80146  1  0  0  0
M  ISO  4   1 100  68 101  78 101  80 100
M  END
> <chiral flag>
0

> <version>
0

> <s_m_source_file>
/data/baiqing/PycharmProjects/Reinvent-master-3.2/result/LINK_invent/BTK/process_docking_weight1_custom_product_contain_oxygen_bond_distance_aromatic_linkinvent_7_9_3/rearranged_h_0084.sdf

> <i_m_source_file_index>
8

> <r_mmod_Potential_Energy-OPLS-2005>
1715.72045898438

> <r_mmod_Stretch_Energy-OPLS-2005>
773.322998046875

> <r_mmod_Bend_Energy-OPLS-2005>
489.875579833984

> <r_mmod_Torsional_Energy-OPLS-2005>
255.150344848633

> <r_mmod_Improper_Torsional_Energy-OPLS-2005>
12.7451982498169

> <r_mmod_Van_der_Waal_Energy-OPLS-2005>
122.232635498047

> <r_mmod_Electrostatic_Energy-OPLS-2005>
-345.423309326172

> <r_mmod_Solvation_Energy-OPLS-2005>
-242.463134765625

> <b_mmod_Minimization_Converged-OPLS-2005>
0

> <r_mmod_RMS_Derivative-OPLS-2005>
1.03487026691437

$$$$
8
                    3D
 Structure written by MMmdl.
152161  0  0  1  0            999 V2000
  -30.6095  -14.6650   20.5046 C   0  0  0  0  0  0
  -30.4452  -12.4092   19.4569 C   0  0  0  0  0  0
  -29.5122  -12.5106   18.2286 C   0  0  0  0  0  0
  -28.0357  -12.3420   18.6404 C   0  0  0  0  0  0
  -27.6549  -13.2160   19.8646 C   0  0  2  0  0  0
  -28.6994  -13.0743   20.9952 C   0  0  0  0  0  0
  -25.2569  -13.8166   20.5678 C   0  0  0  0  0  0
  -24.1835  -13.0437   20.9191 C   0  0  0  0  0  0
  -24.6400  -11.6908   20.8741 C   0  0  0  0  0  0
  -23.9066  -10.4292   21.0406 C   0  0  0  0  0  0
  -24.3616   -9.4207   21.9185 C   0  0  0  0  0  0
  -23.6289   -8.2244   22.0754 C   0  0  0  0  0  0
  -22.4272   -8.0282   21.3547 C   0  0  0  0  0  0
  -21.9907   -9.0257   20.4651 C   0  0  0  0  0  0
  -22.7236  -10.2136   20.3059 C   0  0  0  0  0  0
  -21.6854   -6.0735   22.5279 C   0  0  0  0  0  0
  -21.4014   -6.5638   23.8212 C   0  0  0  0  0  0
  -21.3659   -5.6791   24.9173 C   0  0  0  0  0  0
  -21.6044   -4.3054   24.7226 C   0  0  0  0  0  0
  -21.8818   -3.8146   23.4346 C   0  0  0  0  0  0
  -21.9193   -4.6963   22.3402 C   0  0  0  0  0  0
  -22.7856  -13.5235   21.1850 C   0  0  0  0  0  0
  -22.1662   -4.2148   21.0981 F   0  0  0  0  0  0
  -21.5628   -3.4538   25.7739 F   0  0  0  0  0  0
  -30.0141  -13.4295   20.4350 N   0  0  0  0  0  0
  -26.2999  -12.9346   20.3319 N   0  0  0  0  0  0
  -25.9329  -11.6502   20.5755 N   0  0  0  0  0  0
  -22.0494  -12.8236   22.0410 N   0  0  0  0  0  0
  -25.4275  -15.1885   20.4071 N   0  0  0  0  0  0
  -31.7653  -14.8397   20.1068 O   0  0  0  0  0  0
  -21.6638   -6.8879   21.4241 O   0  0  0  0  0  0
  -22.3547  -14.5543   20.6694 O   0  0  0  0  0  0
  -24.6280  -31.8601   23.2037 C   0  0  0  0  0  0
  -25.9121  -32.4781   23.8366 C   0  0  1  0  0  0
  -27.2196  -27.3001   20.1111 C   0  0  0  0  0  0
  -25.5930  -33.8582   24.2287 N   0  0  0  0  0  0
  -23.4229  -30.4861   21.5478 C   0  0  2  0  0  0
  -24.8694  -28.9481   20.1094 C   0  0  0  0  0  0
  -22.7490  -29.4624   22.4935 C   0  0  0  0  0  0
  -18.0290  -28.1389   22.8489 C   0  0  0  0  0  0
  -24.1491  -36.7296   23.2636 C   0  0  0  0  0  0
  -25.9683  -30.7832   21.3817 C   0  0  0  0  0  0
  -26.0413  -29.4112   20.7209 C   0  0  0  0  0  0
  -27.2183  -28.5983   20.7170 C   0  0  0  0  0  0
  -26.0231  -26.9130   19.4564 C   0  0  0  0  0  0
  -24.8636  -27.7044   19.4684 C   0  0  0  0  0  0
  -23.6385  -29.8286   20.1615 C   0  0  0  0  0  0
  -25.4113  -36.3086   24.0328 C   0  0  1  0  0  0
  -20.5892  -28.3694   23.1279 C   0  0  2  0  0  0
  -20.6779  -26.9416   22.5406 C   0  0  0  0  0  0
  -19.5749  -26.6390   21.5213 C   0  0  0  0  0  0
  -18.1933  -26.7930   22.1633 C   0  0  0  0  0  0
  -19.1543  -28.8859   23.2878 C   0  0  0  0  0  0
  -18.9461  -30.1460   23.8894 C   0  0  0  0  0  0
  -17.6460  -30.6589   24.0565 C   0  0  0  0  0  0
  -25.9051  -34.9453   23.5107 C   0  0  0  0  0  0
  -16.5352  -29.9086   23.6335 C   0  0  0  0  0  0
  -16.7276  -28.6505   23.0355 C   0  0  0  0  0  0
  -26.4493  -31.6591   25.0743 C   0  0  0  0  0  0
  -25.3718  -31.3743   26.1467 C   0  0  0  0  0  0
  -27.0329  -30.3006   24.6213 C   0  0  0  0  0  0
  -27.6059  -32.4321   25.7506 C   0  0  0  0  0  0
  -27.5580  -37.1805   24.8463 C   0  0  0  0  0  0
  -21.4200  -29.3046   22.3674 N   0  0  0  0  0  0
  -26.4293  -37.3780   23.9407 N   0  0  0  0  0  0
  -24.6920  -31.0595   22.1008 N   0  0  0  0  0  0
  -23.4208  -28.8150   23.3009 O   0  0  0  0  0  0
  -28.3110  -26.4038   20.1804 O   0  0  0  0  0  0
  -26.5622  -34.8917   22.4674 O   0  0  0  0  0  0
  -23.5435  -32.1411   23.7346 O   0  0  0  0  0  0
  -28.6647  -19.3330   21.2093 C   0  0  0  0  0  0
  -28.7391  -17.9108   21.2893 C   0  0  0  0  0  0
  -30.8567  -17.9384   20.1618 C   0  0  0  0  0  0
  -29.6886  -20.1147   20.6091 C   0  0  0  0  0  0
  -29.8343  -17.1623   20.7771 C   0  0  0  0  0  0
  -30.7849  -19.3685   20.0770 C   0  0  0  0  0  0
  -30.1591  -23.7851   20.8555 C   0  0  0  0  0  0
  -28.9476  -23.7855   20.2957 C   0  0  0  0  0  0
  -30.6008  -22.4106   21.0460 C   0  0  0  0  0  0
  -28.5977  -22.3638   20.1140 C   0  0  0  0  0  0
  -28.0084  -24.9737   19.8828 C   0  0  0  0  0  0
  -29.6279  -21.5948   20.5742 N   0  0  0  0  0  0
  -29.7923  -15.6958   20.9013 N   0  0  0  0  0  0
  -31.6559  -22.0460   21.5766 O   0  0  0  0  0  0
  -27.5532  -21.9208   19.6227 O   0  0  0  0  0  0
  -31.7888  -20.0276   19.4502 F   0  0  0  0  0  0
  -31.4845  -12.5453   19.1526 H   0  0  0  0  0  0
  -30.3921  -11.4141   19.9012 H   0  0  0  0  0  0
  -29.7814  -11.7562   17.4881 H   0  0  0  0  0  0
  -29.6487  -13.4778   17.7419 H   0  0  0  0  0  0
  -27.8784  -11.2890   18.8777 H   0  0  0  0  0  0
  -27.3800  -12.5639   17.7977 H   0  0  0  0  0  0
  -27.6720  -14.2503   19.5206 H   0  0  0  0  0  0
  -28.7173  -12.0511   21.3738 H   0  0  0  0  0  0
  -28.4370  -13.6996   21.8500 H   0  0  0  0  0  0
  -25.2760   -9.5681   22.4761 H   0  0  0  0  0  0
  -23.9998   -7.4633   22.7472 H   0  0  0  0  0  0
  -21.0837   -8.8776   19.8959 H   0  0  0  0  0  0
  -22.3690  -10.9676   19.6170 H   0  0  0  0  0  0
  -21.2006   -7.6145   23.9713 H   0  0  0  0  0  0
  -21.1483   -6.0523   25.9078 H   0  0  0  0  0  0
  -22.0598   -2.7608   23.2846 H   0  0  0  0  0  0
  -22.4102  -11.9895   22.4802 H   0  0  0  0  0  0
  -21.1116  -13.1273   22.2615 H   0  0  0  0  0  0
  -24.6534  -15.8374   20.5001 H   0  0  0  0  0  0
  -26.2659  -15.6245   20.0451 H   0  0  0  0  0  0
  -26.7191  -32.5446   23.1115 H   0  0  0  0  0  0
  -25.0065  -33.9728   25.0421 H   0  0  0  0  0  0
  -22.7170  -31.3074   21.4074 H   0  0  0  0  0  0
  -23.3752  -35.9630   23.3297 H   0  0  0  0  0  0
  -24.3582  -36.8917   22.2051 H   0  0  0  0  0  0
  -23.7242  -37.6498   23.6658 H   0  0  0  0  0  0
  -26.1046  -31.5466   20.6144 H   0  0  0  0  0  0
  -26.8468  -30.8299   22.0134 H   0  0  0  0  0  0
  -28.1118  -28.9454   21.2170 H   0  0  0  0  0  0
  -25.9343  -25.9746   18.9310 H   0  0  0  0  0  0
  -23.9692  -27.3474   18.9766 H   0  0  0  0  0  0
  -23.7578  -30.6082   19.4081 H   0  0  0  0  0  0
  -22.7580  -29.2599   19.8578 H   0  0  0  0  0  0
  -25.1291  -36.1943   25.0821 H   0  0  0  0  0  0
  -20.9984  -28.3265   24.1400 H   0  0  0  0  0  0
  -20.5694  -26.2297   23.3602 H   0  0  0  0  0  0
  -21.6645  -26.7455   22.1188 H   0  0  0  0  0  0
  -19.6910  -25.6303   21.1239 H   0  0  0  0  0  0
  -19.6681  -27.3204   20.6744 H   0  0  0  0  0  0
  -17.4198  -26.6673   21.4040 H   0  0  0  0  0  0
  -18.0339  -26.0075   22.9033 H   0  0  0  0  0  0
  -19.7934  -30.7282   24.2261 H   0  0  0  0  0  0
  -17.5012  -31.6269   24.5165 H   0  0  0  0  0  0
  -15.5351  -30.2986   23.7660 H   0  0  0  0  0  0
  -15.8676  -28.0823   22.7073 H   0  0  0  0  0  0
  -24.5874  -30.7118   25.7790 H   0  0  0  0  0  0
  -24.8933  -32.2918   26.4905 H   0  0  0  0  0  0
  -25.8029  -30.8899   27.0238 H   0  0  0  0  0  0
  -26.2909  -29.6765   24.1221 H   0  0  0  0  0  0
  -27.3990  -29.7257   25.4729 H   0  0  0  0  0  0
  -27.8799  -30.4275   23.9468 H   0  0  0  0  0  0
  -27.2684  -33.3627   26.2078 H   0  0  0  0  0  0
  -28.3872  -32.6869   25.0334 H   0  0  0  0  0  0
  -28.0726  -31.8448   26.5424 H   0  0  0  0  0  0
  -28.2599  -38.0102   24.7512 H   0  0  0  0  0  0
  -28.1076  -36.2632   24.6288 H   0  0  0  0  0  0
  -27.2299  -37.1458   25.8867 H   0  0  0  0  0  0
  -20.9377  -29.8775   21.6890 H   0  0  0  0  0  0
  -26.0174  -38.2857   24.1404 H   0  0  0  0  0  0
  -27.8013  -19.8255   21.6345 H   0  0  0  0  0  0
  -27.9196  -17.3900   21.7653 H   0  0  0  0  0  0
  -31.7168  -17.4459   19.7336 H   0  0  0  0  0  0
  -30.7242  -24.6613   21.1310 H   0  0  0  0  0  0
  -27.0601  -24.7185   20.3585 H   0  0  0  0  0  0
  -27.8629  -24.8802   18.8056 H   0  0  0  0  0  0
  -28.9188  -15.3456   21.2634 H   0  0  0  0  0  0
  1 25  1  0  0  0
  1 30  2  0  0  0
  1 83  1  0  0  0
  2  3  1  0  0  0
  2 25  1  0  0  0
  2 87  1  0  0  0
  2 88  1  0  0  0
  3  4  1  0  0  0
  3 89  1  0  0  0
  3 90  1  0  0  0
  4  5  1  0  0  0
  4 91  1  0  0  0
  4 92  1  0  0  0
  5  6  1  0  0  0
  5 26  1  0  0  0
  5 93  1  0  0  0
  6 25  1  0  0  0
  6 94  1  0  0  0
  6 95  1  0  0  0
  7  8  2  0  0  0
  7 26  1  0  0  0
  7 29  1  0  0  0
  8  9  1  0  0  0
  8 22  1  0  0  0
  9 10  1  0  0  0
  9 27  2  0  0  0
 10 11  2  0  0  0
 10 15  1  0  0  0
 11 12  1  0  0  0
 11 96  1  0  0  0
 12 13  2  0  0  0
 12 97  1  0  0  0
 13 14  1  0  0  0
 13 31  1  0  0  0
 14 15  2  0  0  0
 14 98  1  0  0  0
 15 99  1  0  0  0
 16 17  2  0  0  0
 16 21  1  0  0  0
 16 31  1  0  0  0
 17 18  1  0  0  0
 17100  1  0  0  0
 18 19  2  0  0  0
 18101  1  0  0  0
 19 20  1  0  0  0
 19 24  1  0  0  0
 20 21  2  0  0  0
 20102  1  0  0  0
 21 23  1  0  0  0
 22 28  1  0  0  0
 22 32  2  0  0  0
 26 27  1  0  0  0
 28103  1  0  0  0
 28104  1  0  0  0
 29105  1  0  0  0
 29106  1  0  0  0
 33 34  1  0  0  0
 33 66  1  0  0  0
 33 70  2  0  0  0
 34 36  1  0  0  0
 34 59  1  0  0  0
 34107  1  0  0  0
 35 44  2  0  0  0
 35 45  1  0  0  0
 35 68  1  0  0  0
 36 56  1  0  0  0
 36108  1  0  0  0
 37 39  1  0  0  0
 37 47  1  0  0  0
 37 66  1  0  0  0
 37109  1  0  0  0
 38 43  2  0  0  0
 38 46  1  0  0  0
 38 47  1  0  0  0
 39 64  1  0  0  0
 39 67  2  0  0  0
 40 52  1  0  0  0
 40 53  2  0  0  0
 40 58  1  0  0  0
 41110  1  0  0  0
 41111  1  0  0  0
 41112  1  0  0  0
 41 48  1  0  0  0
 42 43  1  0  0  0
 42 66  1  0  0  0
 42113  1  0  0  0
 42114  1  0  0  0
 43 44  1  0  0  0
 44115  1  0  0  0
 45 46  2  0  0  0
 45116  1  0  0  0
 46117  1  0  0  0
 47118  1  0  0  0
 47119  1  0  0  0
 48 56  1  0  0  0
 48 65  1  0  0  0
 48120  1  0  0  0
 49 50  1  0  0  0
 49 53  1  0  0  0
 49 64  1  0  0  0
 49121  1  0  0  0
 50 51  1  0  0  0
 50122  1  0  0  0
 50123  1  0  0  0
 51 52  1  0  0  0
 51124  1  0  0  0
 51125  1  0  0  0
 52126  1  0  0  0
 52127  1  0  0  0
 53 54  1  0  0  0
 54 55  2  0  0  0
 54128  1  0  0  0
 55 57  1  0  0  0
 55129  1  0  0  0
 56 69  2  0  0  0
 57 58  2  0  0  0
 57130  1  0  0  0
 58131  1  0  0  0
 59 60  1  0  0  0
 59 61  1  0  0  0
 59 62  1  0  0  0
 60132  1  0  0  0
 60133  1  0  0  0
 60134  1  0  0  0
 61135  1  0  0  0
 61136  1  0  0  0
 61137  1  0  0  0
 62138  1  0  0  0
 62139  1  0  0  0
 62140  1  0  0  0
 63 65  1  0  0  0
 63141  1  0  0  0
 63142  1  0  0  0
 63143  1  0  0  0
 64144  1  0  0  0
 65145  1  0  0  0
 68 81  1  0  0  0
 71 72  2  0  0  0
 71 74  1  0  0  0
 71146  1  0  0  0
 72 75  1  0  0  0
 72147  1  0  0  0
 73 75  2  0  0  0
 73 76  1  0  0  0
 73148  1  0  0  0
 74 76  2  0  0  0
 74 82  1  0  0  0
 75 83  1  0  0  0
 76 86  1  0  0  0
 77 78  2  0  0  0
 77 79  1  0  0  0
 77149  1  0  0  0
 78 80  1  0  0  0
 78 81  1  0  0  0
 79 82  1  0  0  0
 79 84  2  0  0  0
 80 82  1  0  0  0
 80 85  2  0  0  0
 81150  1  0  0  0
 81151  1  0  0  0
 83152  1  0  0  0
M  ISO  4   1 100  68 101  81 101  83 100
M  END
> <chiral flag>
0

> <version>
0

> <s_m_source_file>
/data/baiqing/PycharmProjects/Reinvent-master-3.2/result/LINK_invent/BTK/process_docking_weight1_custom_product_contain_oxygen_bond_distance_aromatic_linkinvent_7_9_3/rearranged_h_0084.sdf

> <i_m_source_file_index>
9

> <r_mmod_Potential_Energy-OPLS-2005>
41.9234924316406

> <r_mmod_Stretch_Energy-OPLS-2005>
86.7424392700195

> <r_mmod_Bend_Energy-OPLS-2005>
188.896743774414

> <r_mmod_Torsional_Energy-OPLS-2005>
240.533874511719

> <r_mmod_Improper_Torsional_Energy-OPLS-2005>
3.87953996658325

> <r_mmod_Van_der_Waal_Energy-OPLS-2005>
145.57975769043

> <r_mmod_Electrostatic_Energy-OPLS-2005>
-447.546844482422

> <r_mmod_Solvation_Energy-OPLS-2005>
-236.229049682617

> <b_mmod_Minimization_Converged-OPLS-2005>
0

> <r_mmod_RMS_Derivative-OPLS-2005>
0.484405189752579

$$$$
9
                    3D
 Structure written by MMmdl.
145154  0  0  1  0            999 V2000
  -30.5099  -15.1224   20.3662 C   0  0  0  0  0  0
  -30.4426  -12.6953   19.5357 C   0  0  0  0  0  0
  -29.5381  -12.5420   18.2877 C   0  0  0  0  0  0
  -28.0729  -12.3130   18.6977 C   0  0  0  0  0  0
  -27.6240  -13.2727   19.8290 C   0  0  2  0  0  0
  -28.6603  -13.3927   20.9666 C   0  0  0  0  0  0
  -25.2412  -13.8241   20.5673 C   0  0  0  0  0  0
  -24.1776  -13.0435   20.9248 C   0  0  0  0  0  0
  -24.6438  -11.6938   20.8787 C   0  0  0  0  0  0
  -23.9136  -10.4292   21.0410 C   0  0  0  0  0  0
  -24.3673   -9.4195   21.9173 C   0  0  0  0  0  0
  -23.6323   -8.2241   22.0750 C   0  0  0  0  0  0
  -22.4306   -8.0286   21.3542 C   0  0  0  0  0  0
  -21.9958   -9.0273   20.4652 C   0  0  0  0  0  0
  -22.7312  -10.2143   20.3058 C   0  0  0  0  0  0
  -21.6860   -6.0742   22.5275 C   0  0  0  0  0  0
  -21.4022   -6.5640   23.8199 C   0  0  0  0  0  0
  -21.3667   -5.6792   24.9164 C   0  0  0  0  0  0
  -21.6039   -4.3055   24.7221 C   0  0  0  0  0  0
  -21.8818   -3.8151   23.4342 C   0  0  0  0  0  0
  -21.9192   -4.6963   22.3402 C   0  0  0  0  0  0
  -22.7781  -13.5171   21.1897 C   0  0  0  0  0  0
  -22.1663   -4.2143   21.0976 F   0  0  0  0  0  0
  -21.5635   -3.4537   25.7731 F   0  0  0  0  0  0
  -29.9264  -13.8356   20.3655 N   0  0  0  0  0  0
  -26.2883  -12.9532   20.3216 N   0  0  0  0  0  0
  -25.9380  -11.6648   20.5770 N   0  0  0  0  0  0
  -22.0466  -12.8149   22.0469 N   0  0  0  0  0  0
  -25.3927  -15.1958   20.3959 N   0  0  0  0  0  0
  -31.7214  -15.1090   20.1100 O   0  0  0  0  0  0
  -21.6663   -6.8895   21.4240 O   0  0  0  0  0  0
  -22.3452  -14.5464   20.6720 O   0  0  0  0  0  0
  -24.6503  -31.8340   23.1786 C   0  0  0  0  0  0
  -25.9243  -32.4639   23.8207 C   0  0  1  0  0  0
  -27.2197  -27.0304   20.1647 C   0  0  0  0  0  0
  -25.5962  -33.8450   24.2115 N   0  0  0  0  0  0
  -23.4602  -30.4505   21.5256 C   0  0  2  0  0  0
  -24.9155  -28.8590   20.1116 C   0  0  0  0  0  0
  -22.7599  -29.4498   22.4803 C   0  0  0  0  0  0
  -18.0315  -28.1387   22.8469 C   0  0  0  0  0  0
  -24.1502  -36.7240   23.2652 C   0  0  0  0  0  0
  -26.0252  -30.6718   21.3983 C   0  0  0  0  0  0
  -26.0969  -29.2720   20.7427 C   0  0  0  0  0  0
  -27.2463  -28.3753   20.7538 C   0  0  0  0  0  0
  -26.0166  -26.7547   19.4790 C   0  0  0  0  0  0
  -24.8940  -27.6154   19.4625 C   0  0  0  0  0  0
  -23.6960  -29.7732   20.1487 C   0  0  0  0  0  0
  -25.4145  -36.2990   24.0297 C   0  0  1  0  0  0
  -20.5931  -28.3718   23.1195 C   0  0  2  0  0  0
  -20.6798  -26.9410   22.5397 C   0  0  0  0  0  0
  -19.5775  -26.6357   21.5208 C   0  0  0  0  0  0
  -18.1954  -26.7917   22.1626 C   0  0  0  0  0  0
  -19.1574  -28.8870   23.2823 C   0  0  0  0  0  0
  -18.9492  -30.1464   23.8851 C   0  0  0  0  0  0
  -17.6492  -30.6586   24.0544 C   0  0  0  0  0  0
  -25.9086  -34.9373   23.5019 C   0  0  0  0  0  0
  -16.5376  -29.9074   23.6341 C   0  0  0  0  0  0
  -16.7298  -28.6494   23.0363 C   0  0  0  0  0  0
  -26.4535  -31.6549   25.0697 C   0  0  0  0  0  0
  -25.3693  -31.3799   26.1378 C   0  0  0  0  0  0
  -27.0428  -30.2916   24.6394 C   0  0  0  0  0  0
  -27.6012  -32.4372   25.7520 C   0  0  0  0  0  0
  -27.5555  -37.1806   24.8484 C   0  0  0  0  0  0
  -21.4280  -29.3030   22.3557 N   0  0  0  0  0  0
  -26.4302  -37.3699   23.9371 N   0  0  0  0  0  0
  -24.7327  -31.0092   22.0885 N   0  0  0  0  0  0
  -23.4206  -28.8058   23.2998 O   0  0  0  0  0  0
  -28.2273  -25.9572   20.2004 O   0  0  0  0  0  0
  -26.5679  -34.8890   22.4608 O   0  0  0  0  0  0
  -23.5594  -32.1283   23.6927 O   0  0  0  0  0  0
  -28.5056  -17.0181   20.8771 C   0  0  0  0  0  0
  -28.1700  -18.4602   20.8442 C   0  0  0  0  0  0
  -29.7698  -16.6065   20.4792 C   0  0  0  0  0  0
  -29.1028  -19.4235   20.4516 C   0  0  0  0  0  0
  -28.4113  -23.1623   20.3462 C   0  0  0  0  0  0
  -27.7145  -21.8777   20.6544 C   0  0  0  0  0  0
  -27.8621  -24.5156   20.3968 C   0  0  0  0  0  0
  -29.6861  -22.2203   20.0605 C   0  0  0  0  0  0
  -28.8354  -20.9961   20.3901 N   0  0  0  0  0  0
  -26.5690  -21.7120   21.0180 O   0  0  0  0  0  0
  -26.9606  -18.8198   21.2043 F   0  0  0  0  0  0
  -30.5342  -18.2794   20.0938 S   0  0  0  0  0  0
  -31.4755  -12.8514   19.2215 H   0  0  0  0  0  0
  -30.4540  -11.7755   20.1215 H   0  0  0  0  0  0
  -29.8875  -11.7159   17.6687 H   0  0  0  0  0  0
  -29.6112  -13.4420   17.6747 H   0  0  0  0  0  0
  -27.9829  -11.2791   19.0314 H   0  0  0  0  0  0
  -27.4164  -12.4103   17.8318 H   0  0  0  0  0  0
  -27.5629  -14.2576   19.3642 H   0  0  0  0  0  0
  -28.7811  -12.4487   21.4993 H   0  0  0  0  0  0
  -28.3319  -14.1199   21.7081 H   0  0  0  0  0  0
  -25.2821   -9.5638   22.4757 H   0  0  0  0  0  0
  -24.0001   -7.4629   22.7487 H   0  0  0  0  0  0
  -21.0871   -8.8822   19.8974 H   0  0  0  0  0  0
  -22.3770  -10.9688   19.6174 H   0  0  0  0  0  0
  -21.2025   -7.6145   23.9696 H   0  0  0  0  0  0
  -21.1492   -6.0532   25.9062 H   0  0  0  0  0  0
  -22.0593   -2.7611   23.2849 H   0  0  0  0  0  0
  -22.4170  -11.9861   22.4868 H   0  0  0  0  0  0
  -21.1086  -13.1133   22.2686 H   0  0  0  0  0  0
  -24.5929  -15.8168   20.4633 H   0  0  0  0  0  0
  -26.1748  -15.6206   19.9167 H   0  0  0  0  0  0
  -26.7304  -32.5202   23.0919 H   0  0  0  0  0  0
  -25.0073  -33.9557   25.0233 H   0  0  0  0  0  0
  -22.7676  -31.2790   21.3625 H   0  0  0  0  0  0
  -23.3717  -35.9624   23.3394 H   0  0  0  0  0  0
  -24.3542  -36.8795   22.2049 H   0  0  0  0  0  0
  -23.7341  -37.6497   23.6647 H   0  0  0  0  0  0
  -26.1958  -31.4204   20.6232 H   0  0  0  0  0  0
  -26.8880  -30.7247   22.0505 H   0  0  0  0  0  0
  -28.1413  -28.6865   21.2732 H   0  0  0  0  0  0
  -25.9139  -25.8061   18.9701 H   0  0  0  0  0  0
  -23.9974  -27.2930   18.9498 H   0  0  0  0  0  0
  -23.8359  -30.5463   19.3923 H   0  0  0  0  0  0
  -22.8078  -29.2203   19.8365 H   0  0  0  0  0  0
  -25.1358  -36.1808   25.0792 H   0  0  0  0  0  0
  -21.0026  -28.3320   24.1316 H   0  0  0  0  0  0
  -20.5660  -26.2345   23.3631 H   0  0  0  0  0  0
  -21.6663  -26.7386   22.1210 H   0  0  0  0  0  0
  -19.6933  -25.6250   21.1271 H   0  0  0  0  0  0
  -19.6708  -27.3134   20.6709 H   0  0  0  0  0  0
  -17.4215  -26.6621   21.4040 H   0  0  0  0  0  0
  -18.0370  -26.0073   22.9043 H   0  0  0  0  0  0
  -19.7973  -30.7284   24.2192 H   0  0  0  0  0  0
  -17.5052  -31.6263   24.5148 H   0  0  0  0  0  0
  -15.5376  -30.2967   23.7691 H   0  0  0  0  0  0
  -15.8697  -28.0795   22.7110 H   0  0  0  0  0  0
  -24.5842  -30.7186   25.7700 H   0  0  0  0  0  0
  -24.8920  -32.3011   26.4724 H   0  0  0  0  0  0
  -25.7934  -30.9013   27.0211 H   0  0  0  0  0  0
  -26.3084  -29.6608   24.1370 H   0  0  0  0  0  0
  -27.3947  -29.7265   25.5037 H   0  0  0  0  0  0
  -27.9028  -30.4102   23.9800 H   0  0  0  0  0  0
  -27.2522  -33.3678   26.2019 H   0  0  0  0  0  0
  -28.3867  -32.6949   25.0404 H   0  0  0  0  0  0
  -28.0636  -31.8573   26.5520 H   0  0  0  0  0  0
  -28.2645  -38.0024   24.7375 H   0  0  0  0  0  0
  -28.0975  -36.2540   24.6519 H   0  0  0  0  0  0
  -27.2236  -37.1713   25.8882 H   0  0  0  0  0  0
  -20.9500  -29.8752   21.6735 H   0  0  0  0  0  0
  -26.0159  -38.2776   24.1295 H   0  0  0  0  0  0
  -27.7568  -16.3186   21.2081 H   0  0  0  0  0  0
  -26.8274  -24.5107   20.7100 H   0  0  0  0  0  0
  -30.5296  -22.3209   20.7456 H   0  0  0  0  0  0
  -30.0577  -22.1867   19.0351 H   0  0  0  0  0  0
  1 25  1  0  0  0
  1 30  2  0  0  0
  1 73  1  0  0  0
  2  3  1  0  0  0
  2 25  1  0  0  0
  2 83  1  0  0  0
  2 84  1  0  0  0
  3  4  1  0  0  0
  3 85  1  0  0  0
  3 86  1  0  0  0
  4  5  1  0  0  0
  4 87  1  0  0  0
  4 88  1  0  0  0
  5  6  1  0  0  0
  5 26  1  0  0  0
  5 89  1  0  0  0
  6 25  1  0  0  0
  6 90  1  0  0  0
  6 91  1  0  0  0
  7  8  2  0  0  0
  7 26  1  0  0  0
  7 29  1  0  0  0
  8  9  1  0  0  0
  8 22  1  0  0  0
  9 10  1  0  0  0
  9 27  2  0  0  0
 10 11  2  0  0  0
 10 15  1  0  0  0
 11 12  1  0  0  0
 11 92  1  0  0  0
 12 13  2  0  0  0
 12 93  1  0  0  0
 13 14  1  0  0  0
 13 31  1  0  0  0
 14 15  2  0  0  0
 14 94  1  0  0  0
 15 95  1  0  0  0
 16 17  2  0  0  0
 16 21  1  0  0  0
 16 31  1  0  0  0
 17 18  1  0  0  0
 17 96  1  0  0  0
 18 19  2  0  0  0
 18 97  1  0  0  0
 19 20  1  0  0  0
 19 24  1  0  0  0
 20 21  2  0  0  0
 20 98  1  0  0  0
 21 23  1  0  0  0
 22 28  1  0  0  0
 22 32  2  0  0  0
 26 27  1  0  0  0
 28 99  1  0  0  0
 28100  1  0  0  0
 29101  1  0  0  0
 29102  1  0  0  0
 33 34  1  0  0  0
 33 66  1  0  0  0
 33 70  2  0  0  0
 34 36  1  0  0  0
 34 59  1  0  0  0
 34103  1  0  0  0
 35 44  2  0  0  0
 35 45  1  0  0  0
 35 68  1  0  0  0
 36 56  1  0  0  0
 36104  1  0  0  0
 37 39  1  0  0  0
 37 47  1  0  0  0
 37 66  1  0  0  0
 37105  1  0  0  0
 38 43  2  0  0  0
 38 46  1  0  0  0
 38 47  1  0  0  0
 39 64  1  0  0  0
 39 67  2  0  0  0
 40 52  1  0  0  0
 40 53  2  0  0  0
 40 58  1  0  0  0
 41106  1  0  0  0
 41107  1  0  0  0
 41108  1  0  0  0
 41 48  1  0  0  0
 42 43  1  0  0  0
 42 66  1  0  0  0
 42109  1  0  0  0
 42110  1  0  0  0
 43 44  1  0  0  0
 44111  1  0  0  0
 45 46  2  0  0  0
 45112  1  0  0  0
 46113  1  0  0  0
 47114  1  0  0  0
 47115  1  0  0  0
 48 56  1  0  0  0
 48 65  1  0  0  0
 48116  1  0  0  0
 49 50  1  0  0  0
 49 53  1  0  0  0
 49 64  1  0  0  0
 49117  1  0  0  0
 50 51  1  0  0  0
 50118  1  0  0  0
 50119  1  0  0  0
 51 52  1  0  0  0
 51120  1  0  0  0
 51121  1  0  0  0
 52122  1  0  0  0
 52123  1  0  0  0
 53 54  1  0  0  0
 54 55  2  0  0  0
 54124  1  0  0  0
 55 57  1  0  0  0
 55125  1  0  0  0
 56 69  2  0  0  0
 57 58  2  0  0  0
 57126  1  0  0  0
 58127  1  0  0  0
 59 60  1  0  0  0
 59 61  1  0  0  0
 59 62  1  0  0  0
 60128  1  0  0  0
 60129  1  0  0  0
 60130  1  0  0  0
 61131  1  0  0  0
 61132  1  0  0  0
 61133  1  0  0  0
 62134  1  0  0  0
 62135  1  0  0  0
 62136  1  0  0  0
 63 65  1  0  0  0
 63137  1  0  0  0
 63138  1  0  0  0
 63139  1  0  0  0
 64140  1  0  0  0
 65141  1  0  0  0
 68 77  1  0  0  0
 71 72  1  0  0  0
 71 73  2  0  0  0
 71142  1  0  0  0
 72 74  2  0  0  0
 72 81  1  0  0  0
 73 82  1  0  0  0
 74 79  1  0  0  0
 74 82  1  0  0  0
 75 76  1  0  0  0
 75 77  2  0  0  0
 75 78  1  0  0  0
 76 79  1  0  0  0
 76 80  2  0  0  0
 77143  1  0  0  0
 78 79  1  0  0  0
 78144  1  0  0  0
 78145  1  0  0  0
M  ISO  4   1 100  68 101  73 100  77 101
M  END
> <chiral flag>
0

> <version>
0

> <s_m_source_file>
/data/baiqing/PycharmProjects/Reinvent-master-3.2/result/LINK_invent/BTK/process_docking_weight1_custom_product_contain_oxygen_bond_distance_aromatic_linkinvent_7_9_3/rearranged_h_0084.sdf

> <i_m_source_file_index>
10

> <r_mmod_Potential_Energy-OPLS-2005>
818.992614746094

> <r_mmod_Stretch_Energy-OPLS-2005>
339.104644775391

> <r_mmod_Bend_Energy-OPLS-2005>
423.492828369141

> <r_mmod_Torsional_Energy-OPLS-2005>
196.409576416016

> <r_mmod_Improper_Torsional_Energy-OPLS-2005>
4.39494609832764

> <r_mmod_Van_der_Waal_Energy-OPLS-2005>
106.992240905762

> <r_mmod_Electrostatic_Energy-OPLS-2005>
-360.1337890625

> <r_mmod_Solvation_Energy-OPLS-2005>
-208.965469360352

> <b_mmod_Minimization_Converged-OPLS-2005>
0

> <r_mmod_RMS_Derivative-OPLS-2005>
3.260249376297

$$$$
10
                    3D
 Structure written by MMmdl.
153161  0  0  1  0            999 V2000
  -30.6557  -14.4835   20.5799 C   0  0  0  0  0  0
  -30.4331  -12.3113   19.4210 C   0  0  0  0  0  0
  -29.5006  -12.5106   18.2065 C   0  0  0  0  0  0
  -28.0200  -12.3653   18.6151 C   0  0  0  0  0  0
  -27.6635  -13.1989   19.8749 C   0  0  2  0  0  0
  -28.7009  -12.9499   20.9944 C   0  0  0  0  0  0
  -25.2576  -13.8123   20.5570 C   0  0  0  0  0  0
  -24.1851  -13.0435   20.9193 C   0  0  0  0  0  0
  -24.6402  -11.6898   20.8775 C   0  0  0  0  0  0
  -23.9060  -10.4295   21.0441 C   0  0  0  0  0  0
  -24.3615   -9.4196   21.9195 C   0  0  0  0  0  0
  -23.6296   -8.2231   22.0751 C   0  0  0  0  0  0
  -22.4264   -8.0284   21.3563 C   0  0  0  0  0  0
  -21.9905   -9.0268   20.4674 C   0  0  0  0  0  0
  -22.7236  -10.2147   20.3093 C   0  0  0  0  0  0
  -21.6855   -6.0735   22.5277 C   0  0  0  0  0  0
  -21.4008   -6.5625   23.8214 C   0  0  0  0  0  0
  -21.3656   -5.6784   24.9176 C   0  0  0  0  0  0
  -21.6047   -4.3053   24.7221 C   0  0  0  0  0  0
  -21.8814   -3.8144   23.4345 C   0  0  0  0  0  0
  -21.9184   -4.6959   22.3400 C   0  0  0  0  0  0
  -22.7881  -13.5253   21.1853 C   0  0  0  0  0  0
  -22.1662   -4.2147   21.0974 F   0  0  0  0  0  0
  -21.5632   -3.4535   25.7732 F   0  0  0  0  0  0
  -30.0353  -13.2786   20.4565 N   0  0  0  0  0  0
  -26.3022  -12.9289   20.3312 N   0  0  0  0  0  0
  -25.9321  -11.6460   20.5774 N   0  0  0  0  0  0
  -22.0510  -12.8287   22.0442 N   0  0  0  0  0  0
  -25.4243  -15.1810   20.3693 N   0  0  0  0  0  0
  -31.7650  -14.7204   20.0879 O   0  0  0  0  0  0
  -21.6637   -6.8878   21.4241 O   0  0  0  0  0  0
  -22.3570  -14.5538   20.6661 O   0  0  0  0  0  0
  -24.6141  -31.8640   23.2066 C   0  0  0  0  0  0
  -25.9029  -32.4793   23.8361 C   0  0  1  0  0  0
  -27.2490  -27.4255   20.0801 C   0  0  0  0  0  0
  -25.5884  -33.8588   24.2304 N   0  0  0  0  0  0
  -23.4045  -30.4843   21.5473 C   0  0  2  0  0  0
  -24.8530  -28.9464   20.1128 C   0  0  0  0  0  0
  -22.7411  -29.4625   22.4987 C   0  0  0  0  0  0
  -18.0267  -28.1370   22.8476 C   0  0  0  0  0  0
  -24.1497  -36.7316   23.2618 C   0  0  0  0  0  0
  -25.9337  -30.8223   21.3648 C   0  0  0  0  0  0
  -26.0102  -29.4560   20.7111 C   0  0  0  0  0  0
  -27.2038  -28.6995   20.6963 C   0  0  0  0  0  0
  -26.0656  -26.9252   19.4880 C   0  0  0  0  0  0
  -24.8753  -27.6802   19.5014 C   0  0  0  0  0  0
  -23.6123  -29.8091   20.1642 C   0  0  0  0  0  0
  -25.4099  -36.3096   24.0339 C   0  0  1  0  0  0
  -20.5854  -28.3643   23.1308 C   0  0  2  0  0  0
  -20.6742  -26.9372   22.5408 C   0  0  0  0  0  0
  -19.5729  -26.6368   21.5193 C   0  0  0  0  0  0
  -18.1916  -26.7908   22.1623 C   0  0  0  0  0  0
  -19.1518  -28.8827   23.2885 C   0  0  0  0  0  0
  -18.9452  -30.1443   23.8879 C   0  0  0  0  0  0
  -17.6456  -30.6581   24.0554 C   0  0  0  0  0  0
  -25.9025  -34.9459   23.5130 C   0  0  0  0  0  0
  -16.5342  -29.9078   23.6331 C   0  0  0  0  0  0
  -16.7259  -28.6498   23.0339 C   0  0  0  0  0  0
  -26.4461  -31.6581   25.0702 C   0  0  0  0  0  0
  -25.3790  -31.3826   26.1562 C   0  0  0  0  0  0
  -27.0150  -30.2951   24.6127 C   0  0  0  0  0  0
  -27.6157  -32.4218   25.7359 C   0  0  0  0  0  0
  -27.5626  -37.1745   24.8419 C   0  0  0  0  0  0
  -21.4135  -29.3019   22.3727 N   0  0  0  0  0  0
  -26.4274  -37.3806   23.9465 N   0  0  0  0  0  0
  -24.6690  -31.0720   22.0977 N   0  0  0  0  0  0
  -23.4177  -28.8143   23.3016 O   0  0  0  0  0  0
  -28.4449  -26.7302   20.1071 O   0  0  0  0  0  0
  -26.5595  -34.8920   22.4696 O   0  0  0  0  0  0
  -23.5321  -32.1402   23.7439 O   0  0  0  0  0  0
  -28.2284  -18.7145   20.7107 C   0  0  0  0  0  0
  -30.5873  -19.0167   20.2164 C   0  0  0  0  0  0
  -28.4689  -17.3603   21.0300 C   0  0  0  0  0  0
  -30.8273  -17.6515   20.5149 C   0  0  0  0  0  0
  -29.2817  -19.5622   20.2963 C   0  0  0  0  0  0
  -29.7632  -16.8023   20.9093 C   0  0  0  0  0  0
  -28.9799  -20.9767   19.8490 C   0  0  0  0  0  0
  -28.7583  -24.2642   20.0437 C   0  0  0  0  0  0
  -29.9115  -23.3050   19.6601 C   0  0  0  0  0  0
  -28.6721  -25.5921   19.2519 C   0  0  0  0  0  0
  -29.9177  -15.4160   21.2193 N   0  0  0  0  0  0
  -29.8396  -21.9381   20.2185 N   0  0  0  0  0  0
  -27.9827  -21.2108   19.1654 O   0  0  0  0  0  0
  -27.9552  -23.9894   20.9418 O   0  0  0  0  0  0
  -31.4779  -12.4271   19.1235 H   0  0  0  0  0  0
  -30.3463  -11.2960   19.8088 H   0  0  0  0  0  0
  -29.7441  -11.7923   17.4225 H   0  0  0  0  0  0
  -29.6696  -13.5001   17.7768 H   0  0  0  0  0  0
  -27.8333  -11.3081   18.8084 H   0  0  0  0  0  0
  -27.3721  -12.6438   17.7822 H   0  0  0  0  0  0
  -27.7183  -14.2501   19.5885 H   0  0  0  0  0  0
  -28.6811  -11.9039   21.3026 H   0  0  0  0  0  0
  -28.4463  -13.5124   21.8937 H   0  0  0  0  0  0
  -25.2767   -9.5652   22.4763 H   0  0  0  0  0  0
  -23.9999   -7.4607   22.7457 H   0  0  0  0  0  0
  -21.0828   -8.8826   19.8986 H   0  0  0  0  0  0
  -22.3709  -10.9707   19.6216 H   0  0  0  0  0  0
  -21.2009   -7.6135   23.9709 H   0  0  0  0  0  0
  -21.1486   -6.0518   25.9076 H   0  0  0  0  0  0
  -22.0594   -2.7612   23.2844 H   0  0  0  0  0  0
  -22.4105  -11.9961   22.4884 H   0  0  0  0  0  0
  -21.1164  -13.1396   22.2682 H   0  0  0  0  0  0
  -24.6163  -15.7941   20.3687 H   0  0  0  0  0  0
  -26.1886  -15.5469   19.8147 H   0  0  0  0  0  0
  -26.7092  -32.5485   23.1105 H   0  0  0  0  0  0
  -25.0059  -33.9719   25.0473 H   0  0  0  0  0  0
  -22.6945  -31.3018   21.4014 H   0  0  0  0  0  0
  -23.3806  -35.9594   23.3125 H   0  0  0  0  0  0
  -24.3662  -36.9084   22.2075 H   0  0  0  0  0  0
  -23.7169  -37.6438   23.6734 H   0  0  0  0  0  0
  -26.0547  -31.5904   20.6000 H   0  0  0  0  0  0
  -26.8169  -30.8688   21.9898 H   0  0  0  0  0  0
  -28.0998  -29.0906   21.1578 H   0  0  0  0  0  0
  -26.0293  -25.9502   19.0274 H   0  0  0  0  0  0
  -23.9833  -27.2770   19.0424 H   0  0  0  0  0  0
  -23.7114  -30.5750   19.3941 H   0  0  0  0  0  0
  -22.7406  -29.2181   19.8771 H   0  0  0  0  0  0
  -25.1247  -36.1946   25.0824 H   0  0  0  0  0  0
  -20.9952  -28.3202   24.1428 H   0  0  0  0  0  0
  -20.5601  -26.2245   23.3591 H   0  0  0  0  0  0
  -21.6618  -26.7389   22.1231 H   0  0  0  0  0  0
  -19.6871  -25.6274   21.1226 H   0  0  0  0  0  0
  -19.6668  -27.3170   20.6710 H   0  0  0  0  0  0
  -17.4174  -26.6629   21.4044 H   0  0  0  0  0  0
  -18.0345  -26.0056   22.9036 H   0  0  0  0  0  0
  -19.7935  -30.7259   24.2228 H   0  0  0  0  0  0
  -17.5017  -31.6256   24.5166 H   0  0  0  0  0  0
  -15.5340  -30.2974   23.7656 H   0  0  0  0  0  0
  -15.8661  -28.0807   22.7064 H   0  0  0  0  0  0
  -24.5678  -30.7496   25.7952 H   0  0  0  0  0  0
  -24.9351  -32.3072   26.5280 H   0  0  0  0  0  0
  -25.8128  -30.8713   27.0172 H   0  0  0  0  0  0
  -26.2593  -29.6757   24.1291 H   0  0  0  0  0  0
  -27.3918  -29.7197   25.4591 H   0  0  0  0  0  0
  -27.8484  -30.4127   23.9207 H   0  0  0  0  0  0
  -27.2942  -33.3595   26.1909 H   0  0  0  0  0  0
  -28.3946  -32.6625   25.0111 H   0  0  0  0  0  0
  -28.0830  -31.8319   26.5256 H   0  0  0  0  0  0
  -28.2528  -38.0160   24.7696 H   0  0  0  0  0  0
  -28.1235  -36.2725   24.5928 H   0  0  0  0  0  0
  -27.2400  -37.1035   25.8819 H   0  0  0  0  0  0
  -20.9296  -29.8775   21.6973 H   0  0  0  0  0  0
  -26.0154  -38.2844   24.1642 H   0  0  0  0  0  0
  -27.2191  -19.1013   20.7703 H   0  0  0  0  0  0
  -31.4141  -19.6329   19.8888 H   0  0  0  0  0  0
  -27.6355  -16.7456   21.3448 H   0  0  0  0  0  0
  -31.8330  -17.2661   20.4286 H   0  0  0  0  0  0
  -30.8344  -23.7621   20.0192 H   0  0  0  0  0  0
  -30.0014  -23.2559   18.5753 H   0  0  0  0  0  0
  -27.9546  -25.5085   18.4379 H   0  0  0  0  0  0
  -29.6355  -25.7454   18.7682 H   0  0  0  0  0  0
  -29.1112  -15.0041   21.6636 H   0  0  0  0  0  0
  -30.5958  -21.6569   20.8259 H   0  0  0  0  0  0
  1 25  1  0  0  0
  1 30  2  0  0  0
  1 81  1  0  0  0
  2  3  1  0  0  0
  2 25  1  0  0  0
  2 85  1  0  0  0
  2 86  1  0  0  0
  3  4  1  0  0  0
  3 87  1  0  0  0
  3 88  1  0  0  0
  4  5  1  0  0  0
  4 89  1  0  0  0
  4 90  1  0  0  0
  5  6  1  0  0  0
  5 26  1  0  0  0
  5 91  1  0  0  0
  6 25  1  0  0  0
  6 92  1  0  0  0
  6 93  1  0  0  0
  7  8  2  0  0  0
  7 26  1  0  0  0
  7 29  1  0  0  0
  8  9  1  0  0  0
  8 22  1  0  0  0
  9 10  1  0  0  0
  9 27  2  0  0  0
 10 11  2  0  0  0
 10 15  1  0  0  0
 11 12  1  0  0  0
 11 94  1  0  0  0
 12 13  2  0  0  0
 12 95  1  0  0  0
 13 14  1  0  0  0
 13 31  1  0  0  0
 14 15  2  0  0  0
 14 96  1  0  0  0
 15 97  1  0  0  0
 16 17  2  0  0  0
 16 21  1  0  0  0
 16 31  1  0  0  0
 17 18  1  0  0  0
 17 98  1  0  0  0
 18 19  2  0  0  0
 18 99  1  0  0  0
 19 20  1  0  0  0
 19 24  1  0  0  0
 20 21  2  0  0  0
 20100  1  0  0  0
 21 23  1  0  0  0
 22 28  1  0  0  0
 22 32  2  0  0  0
 26 27  1  0  0  0
 28101  1  0  0  0
 28102  1  0  0  0
 29103  1  0  0  0
 29104  1  0  0  0
 33 34  1  0  0  0
 33 66  1  0  0  0
 33 70  2  0  0  0
 34 36  1  0  0  0
 34 59  1  0  0  0
 34105  1  0  0  0
 35 44  2  0  0  0
 35 45  1  0  0  0
 35 68  1  0  0  0
 36 56  1  0  0  0
 36106  1  0  0  0
 37 39  1  0  0  0
 37 47  1  0  0  0
 37 66  1  0  0  0
 37107  1  0  0  0
 38 43  2  0  0  0
 38 46  1  0  0  0
 38 47  1  0  0  0
 39 64  1  0  0  0
 39 67  2  0  0  0
 40 52  1  0  0  0
 40 53  2  0  0  0
 40 58  1  0  0  0
 41108  1  0  0  0
 41109  1  0  0  0
 41110  1  0  0  0
 41 48  1  0  0  0
 42 43  1  0  0  0
 42 66  1  0  0  0
 42111  1  0  0  0
 42112  1  0  0  0
 43 44  1  0  0  0
 44113  1  0  0  0
 45 46  2  0  0  0
 45114  1  0  0  0
 46115  1  0  0  0
 47116  1  0  0  0
 47117  1  0  0  0
 48 56  1  0  0  0
 48 65  1  0  0  0
 48118  1  0  0  0
 49 50  1  0  0  0
 49 53  1  0  0  0
 49 64  1  0  0  0
 49119  1  0  0  0
 50 51  1  0  0  0
 50120  1  0  0  0
 50121  1  0  0  0
 51 52  1  0  0  0
 51122  1  0  0  0
 51123  1  0  0  0
 52124  1  0  0  0
 52125  1  0  0  0
 53 54  1  0  0  0
 54 55  2  0  0  0
 54126  1  0  0  0
 55 57  1  0  0  0
 55127  1  0  0  0
 56 69  2  0  0  0
 57 58  2  0  0  0
 57128  1  0  0  0
 58129  1  0  0  0
 59 60  1  0  0  0
 59 61  1  0  0  0
 59 62  1  0  0  0
 60130  1  0  0  0
 60131  1  0  0  0
 60132  1  0  0  0
 61133  1  0  0  0
 61134  1  0  0  0
 61135  1  0  0  0
 62136  1  0  0  0
 62137  1  0  0  0
 62138  1  0  0  0
 63 65  1  0  0  0
 63139  1  0  0  0
 63140  1  0  0  0
 63141  1  0  0  0
 64142  1  0  0  0
 65143  1  0  0  0
 68 80  1  0  0  0
 71 73  2  0  0  0
 71 75  1  0  0  0
 71144  1  0  0  0
 72 74  1  0  0  0
 72 75  2  0  0  0
 72145  1  0  0  0
 73 76  1  0  0  0
 73146  1  0  0  0
 74 76  2  0  0  0
 74147  1  0  0  0
 75 77  1  0  0  0
 76 81  1  0  0  0
 77 82  1  0  0  0
 77 83  2  0  0  0
 78 79  1  0  0  0
 78 80  1  0  0  0
 78 84  2  0  0  0
 79 82  1  0  0  0
 79148  1  0  0  0
 79149  1  0  0  0
 80150  1  0  0  0
 80151  1  0  0  0
 81152  1  0  0  0
 82153  1  0  0  0
M  ISO  4   1 100  68 101  80 101  81 100
M  END
> <chiral flag>
0

> <version>
0

> <s_m_source_file>
/data/baiqing/PycharmProjects/Reinvent-master-3.2/result/LINK_invent/BTK/process_docking_weight1_custom_product_contain_oxygen_bond_distance_aromatic_linkinvent_7_9_3/rearranged_h_0084.sdf

> <i_m_source_file_index>
11

> <r_mmod_Potential_Energy-OPLS-2005>
-132.641723632812

> <r_mmod_Stretch_Energy-OPLS-2005>
40.6666526794434

> <r_mmod_Bend_Energy-OPLS-2005>
109.025543212891

> <r_mmod_Torsional_Energy-OPLS-2005>
234.310104370117

> <r_mmod_Improper_Torsional_Energy-OPLS-2005>
7.18282508850098

> <r_mmod_Van_der_Waal_Energy-OPLS-2005>
149.129684448242

> <r_mmod_Electrostatic_Energy-OPLS-2005>
-429.48095703125

> <r_mmod_Solvation_Energy-OPLS-2005>
-258.160705566406

> <b_mmod_Minimization_Converged-OPLS-2005>
0

> <r_mmod_RMS_Derivative-OPLS-2005>
3.18185758590698

$$$$
11
                    3D
 Structure written by MMmdl.
151160  0  0  1  0            999 V2000
  -30.5777  -14.7582   20.4645 C   0  0  0  0  0  0
  -30.4463  -12.4624   19.4686 C   0  0  0  0  0  0
  -29.5169  -12.5212   18.2346 C   0  0  0  0  0  0
  -28.0415  -12.3397   18.6454 C   0  0  0  0  0  0
  -27.6479  -13.2269   19.8553 C   0  0  2  0  0  0
  -28.6937  -13.1352   20.9890 C   0  0  0  0  0  0
  -25.2531  -13.8181   20.5680 C   0  0  0  0  0  0
  -24.1819  -13.0432   20.9199 C   0  0  0  0  0  0
  -24.6403  -11.6911   20.8735 C   0  0  0  0  0  0
  -23.9073  -10.4289   21.0402 C   0  0  0  0  0  0
  -24.3620   -9.4210   21.9186 C   0  0  0  0  0  0
  -23.6292   -8.2242   22.0754 C   0  0  0  0  0  0
  -22.4273   -8.0276   21.3542 C   0  0  0  0  0  0
  -21.9912   -9.0256   20.4650 C   0  0  0  0  0  0
  -22.7243  -10.2135   20.3060 C   0  0  0  0  0  0
  -21.6854   -6.0733   22.5282 C   0  0  0  0  0  0
  -21.4013   -6.5636   23.8214 C   0  0  0  0  0  0
  -21.3660   -5.6789   24.9176 C   0  0  0  0  0  0
  -21.6042   -4.3049   24.7226 C   0  0  0  0  0  0
  -21.8820   -3.8144   23.4345 C   0  0  0  0  0  0
  -21.9193   -4.6960   22.3404 C   0  0  0  0  0  0
  -22.7841  -13.5222   21.1861 C   0  0  0  0  0  0
  -22.1661   -4.2150   21.0979 F   0  0  0  0  0  0
  -21.5631   -3.4533   25.7734 F   0  0  0  0  0  0
  -29.9968  -13.5077   20.4171 N   0  0  0  0  0  0
  -26.2964  -12.9383   20.3280 N   0  0  0  0  0  0
  -25.9336  -11.6531   20.5742 N   0  0  0  0  0  0
  -22.0476  -12.8223   22.0417 N   0  0  0  0  0  0
  -25.4213  -15.1908   20.4088 N   0  0  0  0  0  0
  -31.7540  -14.9089   20.1196 O   0  0  0  0  0  0
  -21.6635   -6.8874   21.4239 O   0  0  0  0  0  0
  -22.3531  -14.5526   20.6703 O   0  0  0  0  0  0
  -24.6351  -31.8533   23.1980 C   0  0  0  0  0  0
  -25.9165  -32.4747   23.8337 C   0  0  1  0  0  0
  -27.2251  -27.2438   20.1140 C   0  0  0  0  0  0
  -25.5945  -33.8545   24.2250 N   0  0  0  0  0  0
  -23.4326  -30.4763   21.5438 C   0  0  2  0  0  0
  -24.8792  -28.9248   20.1109 C   0  0  0  0  0  0
  -22.7535  -29.4584   22.4920 C   0  0  0  0  0  0
  -18.0291  -28.1399   22.8487 C   0  0  0  0  0  0
  -24.1487  -36.7270   23.2643 C   0  0  0  0  0  0
  -25.9821  -30.7599   21.3823 C   0  0  0  0  0  0
  -26.0546  -29.3825   20.7191 C   0  0  0  0  0  0
  -27.2275  -28.5545   20.7110 C   0  0  0  0  0  0
  -26.0110  -26.8555   19.4964 C   0  0  0  0  0  0
  -24.8632  -27.6688   19.4913 C   0  0  0  0  0  0
  -23.6521  -29.8146   20.1596 C   0  0  0  0  0  0
  -25.4111  -36.3055   24.0330 C   0  0  1  0  0  0
  -20.5900  -28.3709   23.1277 C   0  0  2  0  0  0
  -20.6779  -26.9427   22.5413 C   0  0  0  0  0  0
  -19.5747  -26.6391   21.5222 C   0  0  0  0  0  0
  -18.1930  -26.7938   22.1634 C   0  0  0  0  0  0
  -19.1545  -28.8873   23.2873 C   0  0  0  0  0  0
  -18.9458  -30.1473   23.8889 C   0  0  0  0  0  0
  -17.6453  -30.6597   24.0564 C   0  0  0  0  0  0
  -25.9062  -34.9430   23.5091 C   0  0  0  0  0  0
  -16.5346  -29.9092   23.6337 C   0  0  0  0  0  0
  -16.7275  -28.6513   23.0356 C   0  0  0  0  0  0
  -26.4507  -31.6582   25.0748 C   0  0  0  0  0  0
  -25.3711  -31.3759   26.1457 C   0  0  0  0  0  0
  -27.0352  -30.2990   24.6267 C   0  0  0  0  0  0
  -27.6059  -32.4331   25.7516 C   0  0  0  0  0  0
  -27.5575  -37.1783   24.8461 C   0  0  0  0  0  0
  -21.4237  -29.3041   22.3669 N   0  0  0  0  0  0
  -26.4278  -37.3762   23.9419 N   0  0  0  0  0  0
  -24.7028  -31.0480   22.0975 N   0  0  0  0  0  0
  -23.4222  -28.8130   23.3032 O   0  0  0  0  0  0
  -28.3065  -26.3195   20.1899 O   0  0  0  0  0  0
  -26.5647  -34.8911   22.4669 O   0  0  0  0  0  0
  -23.5491  -32.1372   23.7255 O   0  0  0  0  0  0
  -30.1976  -19.6752   21.2239 C   0  0  0  0  0  0
  -30.3653  -18.2504   21.3855 C   0  0  0  0  0  0
  -29.0263  -17.9023   19.4625 C   0  0  0  0  0  0
  -29.4512  -20.3118   20.1770 C   0  0  0  0  0  0
  -29.7865  -17.2959   20.5002 C   0  0  0  0  0  0
  -28.8829  -19.3237   19.2998 C   0  0  0  0  0  0
  -28.5971  -23.7443   19.8355 C   0  0  0  0  0  0
  -28.2465  -25.0599   19.5162 C   0  0  0  0  0  0
  -28.4252  -22.4436   19.0197 C   0  0  0  0  0  0
  -29.2030  -22.8820   20.9808 C   0  0  0  0  0  0
  -29.3579  -21.7967   19.9647 N   0  0  0  0  0  0
  -29.7379  -15.8270   20.7491 N   0  0  0  0  0  0
  -28.1553  -19.7432   18.2351 F   0  0  0  0  0  0
  -31.4852  -12.6033   19.1656 H   0  0  0  0  0  0
  -30.4026  -11.4783   19.9378 H   0  0  0  0  0  0
  -29.8022  -11.7571   17.5101 H   0  0  0  0  0  0
  -29.6396  -13.4813   17.7306 H   0  0  0  0  0  0
  -27.8960  -11.2886   18.8971 H   0  0  0  0  0  0
  -27.3852  -12.5441   17.7985 H   0  0  0  0  0  0
  -27.6476  -14.2527   19.4868 H   0  0  0  0  0  0
  -28.7313  -12.1254   21.3995 H   0  0  0  0  0  0
  -28.4216  -13.7857   21.8213 H   0  0  0  0  0  0
  -25.2762   -9.5685   22.4762 H   0  0  0  0  0  0
  -24.0003   -7.4630   22.7472 H   0  0  0  0  0  0
  -21.0841   -8.8779   19.8956 H   0  0  0  0  0  0
  -22.3700  -10.9674   19.6166 H   0  0  0  0  0  0
  -21.2006   -7.6146   23.9718 H   0  0  0  0  0  0
  -21.1483   -6.0515   25.9077 H   0  0  0  0  0  0
  -22.0599   -2.7606   23.2842 H   0  0  0  0  0  0
  -22.4074  -11.9881   22.4820 H   0  0  0  0  0  0
  -21.1099  -13.1271   22.2616 H   0  0  0  0  0  0
  -24.6461  -15.8370   20.5099 H   0  0  0  0  0  0
  -26.2594  -15.6341   20.0565 H   0  0  0  0  0  0
  -26.7230  -32.5379   23.1074 H   0  0  0  0  0  0
  -25.0074  -33.9677   25.0384 H   0  0  0  0  0  0
  -22.7300  -31.2996   21.3986 H   0  0  0  0  0  0
  -23.3748  -35.9601   23.3291 H   0  0  0  0  0  0
  -24.3578  -36.8907   22.2059 H   0  0  0  0  0  0
  -23.7233  -37.6464   23.6676 H   0  0  0  0  0  0
  -26.1270  -31.5225   20.6161 H   0  0  0  0  0  0
  -26.8569  -30.8043   22.0201 H   0  0  0  0  0  0
  -28.1258  -28.8992   21.2047 H   0  0  0  0  0  0
  -25.8985  -25.8835   19.0422 H   0  0  0  0  0  0
  -23.9582  -27.3053   19.0245 H   0  0  0  0  0  0
  -23.7844  -30.5922   19.4060 H   0  0  0  0  0  0
  -22.7685  -29.2530   19.8504 H   0  0  0  0  0  0
  -25.1286  -36.1888   25.0818 H   0  0  0  0  0  0
  -20.9989  -28.3275   24.1398 H   0  0  0  0  0  0
  -20.5684  -26.2321   23.3616 H   0  0  0  0  0  0
  -21.6643  -26.7452   22.1201 H   0  0  0  0  0  0
  -19.6915  -25.6298   21.1264 H   0  0  0  0  0  0
  -19.6686  -27.3192   20.6743 H   0  0  0  0  0  0
  -17.4203  -26.6688   21.4033 H   0  0  0  0  0  0
  -18.0327  -26.0083   22.9034 H   0  0  0  0  0  0
  -19.7930  -30.7299   24.2257 H   0  0  0  0  0  0
  -17.5001  -31.6273   24.5177 H   0  0  0  0  0  0
  -15.5345  -30.2984   23.7673 H   0  0  0  0  0  0
  -15.8677  -28.0833   22.7074 H   0  0  0  0  0  0
  -24.5875  -30.7124   25.7779 H   0  0  0  0  0  0
  -24.8915  -32.2939   26.4863 H   0  0  0  0  0  0
  -25.8003  -30.8936   27.0253 H   0  0  0  0  0  0
  -26.2952  -29.6741   24.1258 H   0  0  0  0  0  0
  -27.3972  -29.7256   25.4814 H   0  0  0  0  0  0
  -27.8859  -30.4244   23.9568 H   0  0  0  0  0  0
  -27.2667  -33.3636   26.2080 H   0  0  0  0  0  0
  -28.3869  -32.6885   25.0344 H   0  0  0  0  0  0
  -28.0733  -31.8472   26.5439 H   0  0  0  0  0  0
  -28.2575  -38.0100   24.7519 H   0  0  0  0  0  0
  -28.1088  -36.2627   24.6254 H   0  0  0  0  0  0
  -27.2308  -37.1396   25.8871 H   0  0  0  0  0  0
  -20.9453  -29.8760   21.6852 H   0  0  0  0  0  0
  -26.0149  -38.2833   24.1423 H   0  0  0  0  0  0
  -30.6856  -20.3106   21.9491 H   0  0  0  0  0  0
  -30.9294  -17.8968   22.2373 H   0  0  0  0  0  0
  -28.5128  -17.2654   18.7572 H   0  0  0  0  0  0
  -27.8475  -25.2124   18.5239 H   0  0  0  0  0  0
  -28.8022  -22.4331   17.9959 H   0  0  0  0  0  0
  -27.4374  -21.9820   19.0602 H   0  0  0  0  0  0
  -28.5263  -22.5761   21.7802 H   0  0  0  0  0  0
  -30.1632  -23.1924   21.3947 H   0  0  0  0  0  0
  -28.8173  -15.4944   20.9906 H   0  0  0  0  0  0
  1 25  1  0  0  0
  1 30  2  0  0  0
  1 82  1  0  0  0
  2  3  1  0  0  0
  2 25  1  0  0  0
  2 84  1  0  0  0
  2 85  1  0  0  0
  3  4  1  0  0  0
  3 86  1  0  0  0
  3 87  1  0  0  0
  4  5  1  0  0  0
  4 88  1  0  0  0
  4 89  1  0  0  0
  5  6  1  0  0  0
  5 26  1  0  0  0
  5 90  1  0  0  0
  6 25  1  0  0  0
  6 91  1  0  0  0
  6 92  1  0  0  0
  7  8  2  0  0  0
  7 26  1  0  0  0
  7 29  1  0  0  0
  8  9  1  0  0  0
  8 22  1  0  0  0
  9 10  1  0  0  0
  9 27  2  0  0  0
 10 11  2  0  0  0
 10 15  1  0  0  0
 11 12  1  0  0  0
 11 93  1  0  0  0
 12 13  2  0  0  0
 12 94  1  0  0  0
 13 14  1  0  0  0
 13 31  1  0  0  0
 14 15  2  0  0  0
 14 95  1  0  0  0
 15 96  1  0  0  0
 16 17  2  0  0  0
 16 21  1  0  0  0
 16 31  1  0  0  0
 17 18  1  0  0  0
 17 97  1  0  0  0
 18 19  2  0  0  0
 18 98  1  0  0  0
 19 20  1  0  0  0
 19 24  1  0  0  0
 20 21  2  0  0  0
 20 99  1  0  0  0
 21 23  1  0  0  0
 22 28  1  0  0  0
 22 32  2  0  0  0
 26 27  1  0  0  0
 28100  1  0  0  0
 28101  1  0  0  0
 29102  1  0  0  0
 29103  1  0  0  0
 33 34  1  0  0  0
 33 66  1  0  0  0
 33 70  2  0  0  0
 34 36  1  0  0  0
 34 59  1  0  0  0
 34104  1  0  0  0
 35 44  2  0  0  0
 35 45  1  0  0  0
 35 68  1  0  0  0
 36 56  1  0  0  0
 36105  1  0  0  0
 37 39  1  0  0  0
 37 47  1  0  0  0
 37 66  1  0  0  0
 37106  1  0  0  0
 38 43  2  0  0  0
 38 46  1  0  0  0
 38 47  1  0  0  0
 39 64  1  0  0  0
 39 67  2  0  0  0
 40 52  1  0  0  0
 40 53  2  0  0  0
 40 58  1  0  0  0
 41107  1  0  0  0
 41108  1  0  0  0
 41109  1  0  0  0
 41 48  1  0  0  0
 42 43  1  0  0  0
 42 66  1  0  0  0
 42110  1  0  0  0
 42111  1  0  0  0
 43 44  1  0  0  0
 44112  1  0  0  0
 45 46  2  0  0  0
 45113  1  0  0  0
 46114  1  0  0  0
 47115  1  0  0  0
 47116  1  0  0  0
 48 56  1  0  0  0
 48 65  1  0  0  0
 48117  1  0  0  0
 49 50  1  0  0  0
 49 53  1  0  0  0
 49 64  1  0  0  0
 49118  1  0  0  0
 50 51  1  0  0  0
 50119  1  0  0  0
 50120  1  0  0  0
 51 52  1  0  0  0
 51121  1  0  0  0
 51122  1  0  0  0
 52123  1  0  0  0
 52124  1  0  0  0
 53 54  1  0  0  0
 54 55  2  0  0  0
 54125  1  0  0  0
 55 57  1  0  0  0
 55126  1  0  0  0
 56 69  2  0  0  0
 57 58  2  0  0  0
 57127  1  0  0  0
 58128  1  0  0  0
 59 60  1  0  0  0
 59 61  1  0  0  0
 59 62  1  0  0  0
 60129  1  0  0  0
 60130  1  0  0  0
 60131  1  0  0  0
 61132  1  0  0  0
 61133  1  0  0  0
 61134  1  0  0  0
 62135  1  0  0  0
 62136  1  0  0  0
 62137  1  0  0  0
 63 65  1  0  0  0
 63138  1  0  0  0
 63139  1  0  0  0
 63140  1  0  0  0
 64141  1  0  0  0
 65142  1  0  0  0
 68 78  1  0  0  0
 71 72  2  0  0  0
 71 74  1  0  0  0
 71143  1  0  0  0
 72 75  1  0  0  0
 72144  1  0  0  0
 73 75  2  0  0  0
 73 76  1  0  0  0
 73145  1  0  0  0
 74 76  2  0  0  0
 74 81  1  0  0  0
 75 82  1  0  0  0
 76 83  1  0  0  0
 77 78  2  0  0  0
 77 79  1  0  0  0
 77 80  1  0  0  0
 78146  1  0  0  0
 79 81  1  0  0  0
 79147  1  0  0  0
 79148  1  0  0  0
 80 81  1  0  0  0
 80149  1  0  0  0
 80150  1  0  0  0
 82151  1  0  0  0
M  ISO  4   1 100  68 101  78 101  82 100
M  END
> <chiral flag>
0

> <version>
0

> <s_m_source_file>
/data/baiqing/PycharmProjects/Reinvent-master-3.2/result/LINK_invent/BTK/process_docking_weight1_custom_product_contain_oxygen_bond_distance_aromatic_linkinvent_7_9_3/rearranged_h_0084.sdf

> <i_m_source_file_index>
12

> <r_mmod_Potential_Energy-OPLS-2005>
319.241180419922

> <r_mmod_Stretch_Energy-OPLS-2005>
116.558578491211

> <r_mmod_Bend_Energy-OPLS-2005>
247.297912597656

> <r_mmod_Torsional_Energy-OPLS-2005>
262.31591796875

> <r_mmod_Improper_Torsional_Energy-OPLS-2005>
11.455454826355

> <r_mmod_Van_der_Waal_Energy-OPLS-2005>
140.256866455078

> <r_mmod_Electrostatic_Energy-OPLS-2005>
-324.755737304688

> <r_mmod_Solvation_Energy-OPLS-2005>
-228.856842041016

> <b_mmod_Minimization_Converged-OPLS-2005>
0

> <r_mmod_RMS_Derivative-OPLS-2005>
1.10657286643982

$$$$
12
                    3D
 Structure written by MMmdl.
150159  0  0  1  0            999 V2000
  -30.5685  -14.7424   20.4852 C   0  0  0  0  0  0
  -30.4511  -12.4558   19.4667 C   0  0  0  0  0  0
  -29.5165  -12.5188   18.2354 C   0  0  0  0  0  0
  -28.0413  -12.3378   18.6472 C   0  0  0  0  0  0
  -27.6514  -13.2208   19.8617 C   0  0  2  0  0  0
  -28.6967  -13.1050   20.9940 C   0  0  0  0  0  0
  -25.2558  -13.8172   20.5689 C   0  0  0  0  0  0
  -24.1828  -13.0436   20.9197 C   0  0  0  0  0  0
  -24.6402  -11.6908   20.8741 C   0  0  0  0  0  0
  -23.9069  -10.4291   21.0407 C   0  0  0  0  0  0
  -24.3619   -9.4205   21.9183 C   0  0  0  0  0  0
  -23.6293   -8.2242   22.0753 C   0  0  0  0  0  0
  -22.4275   -8.0281   21.3544 C   0  0  0  0  0  0
  -21.9911   -9.0256   20.4648 C   0  0  0  0  0  0
  -22.7240  -10.2135   20.3057 C   0  0  0  0  0  0
  -21.6852   -6.0735   22.5279 C   0  0  0  0  0  0
  -21.4013   -6.5638   23.8212 C   0  0  0  0  0  0
  -21.3661   -5.6792   24.9175 C   0  0  0  0  0  0
  -21.6044   -4.3055   24.7226 C   0  0  0  0  0  0
  -21.8820   -3.8146   23.4348 C   0  0  0  0  0  0
  -21.9194   -4.6962   22.3403 C   0  0  0  0  0  0
  -22.7850  -13.5228   21.1859 C   0  0  0  0  0  0
  -22.1662   -4.2147   21.0981 F   0  0  0  0  0  0
  -21.5631   -3.4540   25.7739 F   0  0  0  0  0  0
  -30.0024  -13.4862   20.4306 N   0  0  0  0  0  0
  -26.2984  -12.9356   20.3312 N   0  0  0  0  0  0
  -25.9332  -11.6510   20.5754 N   0  0  0  0  0  0
  -22.0494  -12.8220   22.0416 N   0  0  0  0  0  0
  -25.4273  -15.1895   20.4100 N   0  0  0  0  0  0
  -31.7262  -14.9243   20.0934 O   0  0  0  0  0  0
  -21.6641   -6.8877   21.4240 O   0  0  0  0  0  0
  -22.3535  -14.5535   20.6705 O   0  0  0  0  0  0
  -24.6313  -31.8551   23.1983 C   0  0  0  0  0  0
  -25.9135  -32.4756   23.8333 C   0  0  1  0  0  0
  -27.2249  -27.2672   20.1291 C   0  0  0  0  0  0
  -25.5927  -33.8559   24.2254 N   0  0  0  0  0  0
  -23.4298  -30.4767   21.5413 C   0  0  2  0  0  0
  -24.8811  -28.9258   20.1087 C   0  0  0  0  0  0
  -22.7509  -29.4597   22.4906 C   0  0  0  0  0  0
  -18.0294  -28.1384   22.8486 C   0  0  0  0  0  0
  -24.1490  -36.7287   23.2640 C   0  0  0  0  0  0
  -25.9760  -30.7685   21.3802 C   0  0  0  0  0  0
  -26.0525  -29.3914   20.7220 C   0  0  0  0  0  0
  -27.2300  -28.5734   20.7249 C   0  0  0  0  0  0
  -26.0355  -26.8731   19.4795 C   0  0  0  0  0  0
  -24.8770  -27.6736   19.4759 C   0  0  0  0  0  0
  -23.6498  -29.8106   20.1575 C   0  0  0  0  0  0
  -25.4117  -36.3072   24.0325 C   0  0  1  0  0  0
  -20.5900  -28.3699   23.1264 C   0  0  2  0  0  0
  -20.6780  -26.9416   22.5406 C   0  0  0  0  0  0
  -19.5754  -26.6381   21.5212 C   0  0  0  0  0  0
  -18.1937  -26.7924   22.1630 C   0  0  0  0  0  0
  -19.1549  -28.8859   23.2870 C   0  0  0  0  0  0
  -18.9469  -30.1459   23.8888 C   0  0  0  0  0  0
  -17.6468  -30.6587   24.0562 C   0  0  0  0  0  0
  -25.9054  -34.9442   23.5094 C   0  0  0  0  0  0
  -16.5359  -29.9084   23.6331 C   0  0  0  0  0  0
  -16.7280  -28.6501   23.0354 C   0  0  0  0  0  0
  -26.4500  -31.6581   25.0723 C   0  0  0  0  0  0
  -25.3721  -31.3739   26.1442 C   0  0  0  0  0  0
  -27.0350  -30.2994   24.6218 C   0  0  0  0  0  0
  -27.6046  -32.4328   25.7500 C   0  0  0  0  0  0
  -27.5578  -37.1801   24.8467 C   0  0  0  0  0  0
  -21.4214  -29.3046   22.3651 N   0  0  0  0  0  0
  -26.4293  -37.3769   23.9405 N   0  0  0  0  0  0
  -24.6978  -31.0511   22.0963 N   0  0  0  0  0  0
  -23.4203  -28.8138   23.3011 O   0  0  0  0  0  0
  -28.2747  -26.3196   20.1796 O   0  0  0  0  0  0
  -26.5633  -34.8915   22.4667 O   0  0  0  0  0  0
  -23.5460  -32.1373   23.7272 O   0  0  0  0  0  0
  -28.4029  -19.3345   21.3720 C   0  0  0  0  0  0
  -30.2787  -19.5677   19.9757 C   0  0  0  0  0  0
  -28.6085  -17.9214   21.4327 C   0  0  0  0  0  0
  -30.5100  -18.1383   20.0304 C   0  0  0  0  0  0
  -29.2087  -20.2590   20.6419 C   0  0  0  0  0  0
  -29.6683  -17.2520   20.7675 C   0  0  0  0  0  0
  -28.4293  -23.7432   20.6065 C   0  0  0  0  0  0
  -27.9214  -22.5499   21.2755 C   0  0  0  0  0  0
  -27.9438  -25.0462   20.7318 C   0  0  0  0  0  0
  -29.4924  -22.8480   19.8987 C   0  0  0  0  0  0
  -28.8783  -21.7167   20.6595 N   0  0  0  0  0  0
  -29.7251  -15.7689   20.8757 N   0  0  0  0  0  0
  -27.0000  -22.4088   22.0534 O   0  0  0  0  0  0
  -31.4873  -12.6094   19.1601 H   0  0  0  0  0  0
  -30.4196  -11.4667   19.9265 H   0  0  0  0  0  0
  -29.7978  -11.7551   17.5089 H   0  0  0  0  0  0
  -29.6389  -13.4788   17.7316 H   0  0  0  0  0  0
  -27.8959  -11.2860   18.8961 H   0  0  0  0  0  0
  -27.3834  -12.5432   17.8020 H   0  0  0  0  0  0
  -27.6590  -14.2507   19.5044 H   0  0  0  0  0  0
  -28.7336  -12.0849   21.3792 H   0  0  0  0  0  0
  -28.4235  -13.7320   21.8440 H   0  0  0  0  0  0
  -25.2765   -9.5679   22.4756 H   0  0  0  0  0  0
  -24.0002   -7.4632   22.7472 H   0  0  0  0  0  0
  -21.0841   -8.8775   19.8954 H   0  0  0  0  0  0
  -22.3699  -10.9675   19.6168 H   0  0  0  0  0  0
  -21.2003   -7.6146   23.9714 H   0  0  0  0  0  0
  -21.1482   -6.0523   25.9077 H   0  0  0  0  0  0
  -22.0598   -2.7608   23.2849 H   0  0  0  0  0  0
  -22.4112  -11.9883   22.4805 H   0  0  0  0  0  0
  -21.1112  -13.1244   22.2625 H   0  0  0  0  0  0
  -24.6575  -15.8417   20.5130 H   0  0  0  0  0  0
  -26.2695  -15.6261   20.0572 H   0  0  0  0  0  0
  -26.7203  -32.5413   23.1078 H   0  0  0  0  0  0
  -25.0056  -33.9694   25.0388 H   0  0  0  0  0  0
  -22.7267  -31.2991   21.3942 H   0  0  0  0  0  0
  -23.3748  -35.9624   23.3310 H   0  0  0  0  0  0
  -24.3576  -36.8903   22.2053 H   0  0  0  0  0  0
  -23.7250  -37.6493   23.6660 H   0  0  0  0  0  0
  -26.1151  -31.5291   20.6108 H   0  0  0  0  0  0
  -26.8527  -30.8178   22.0143 H   0  0  0  0  0  0
  -28.1239  -28.9182   21.2254 H   0  0  0  0  0  0
  -25.9908  -25.9067   18.9974 H   0  0  0  0  0  0
  -23.9817  -27.3114   18.9890 H   0  0  0  0  0  0
  -23.7723  -30.5871   19.4016 H   0  0  0  0  0  0
  -22.7691  -29.2423   19.8529 H   0  0  0  0  0  0
  -25.1300  -36.1921   25.0818 H   0  0  0  0  0  0
  -20.9994  -28.3279   24.1384 H   0  0  0  0  0  0
  -20.5679  -26.2312   23.3613 H   0  0  0  0  0  0
  -21.6647  -26.7435   22.1201 H   0  0  0  0  0  0
  -19.6917  -25.6289   21.1246 H   0  0  0  0  0  0
  -19.6687  -27.3188   20.6739 H   0  0  0  0  0  0
  -17.4203  -26.6666   21.4037 H   0  0  0  0  0  0
  -18.0347  -26.0068   22.9029 H   0  0  0  0  0  0
  -19.7945  -30.7279   24.2251 H   0  0  0  0  0  0
  -17.5022  -31.6265   24.5167 H   0  0  0  0  0  0
  -15.5359  -30.2985   23.7655 H   0  0  0  0  0  0
  -15.8682  -28.0815   22.7074 H   0  0  0  0  0  0
  -24.5878  -30.7113   25.7763 H   0  0  0  0  0  0
  -24.8937  -32.2916   26.4871 H   0  0  0  0  0  0
  -25.8026  -30.8900   27.0217 H   0  0  0  0  0  0
  -26.2939  -29.6739   24.1226 H   0  0  0  0  0  0
  -27.4008  -29.7259   25.4745 H   0  0  0  0  0  0
  -27.8828  -30.4263   23.9482 H   0  0  0  0  0  0
  -27.2638  -33.3623   26.2072 H   0  0  0  0  0  0
  -28.3859  -32.6897   25.0335 H   0  0  0  0  0  0
  -28.0713  -31.8462   26.5425 H   0  0  0  0  0  0
  -28.2602  -38.0091   24.7498 H   0  0  0  0  0  0
  -28.1067  -36.2621   24.6314 H   0  0  0  0  0  0
  -27.2292  -37.1474   25.8869 H   0  0  0  0  0  0
  -20.9401  -29.8772   21.6857 H   0  0  0  0  0  0
  -26.0174  -38.2846   24.1392 H   0  0  0  0  0  0
  -27.5585  -19.7204   21.9252 H   0  0  0  0  0  0
  -30.9661  -20.1570   19.3856 H   0  0  0  0  0  0
  -27.9079  -17.3412   22.0169 H   0  0  0  0  0  0
  -31.3442  -17.7292   19.4781 H   0  0  0  0  0  0
  -27.1101  -25.1709   21.4114 H   0  0  0  0  0  0
  -30.5386  -22.9973   20.1702 H   0  0  0  0  0  0
  -29.3951  -22.7088   18.8208 H   0  0  0  0  0  0
  -28.8810  -15.3792   21.2665 H   0  0  0  0  0  0
  1 25  1  0  0  0
  1 30  2  0  0  0
  1 82  1  0  0  0
  2  3  1  0  0  0
  2 25  1  0  0  0
  2 84  1  0  0  0
  2 85  1  0  0  0
  3  4  1  0  0  0
  3 86  1  0  0  0
  3 87  1  0  0  0
  4  5  1  0  0  0
  4 88  1  0  0  0
  4 89  1  0  0  0
  5  6  1  0  0  0
  5 26  1  0  0  0
  5 90  1  0  0  0
  6 25  1  0  0  0
  6 91  1  0  0  0
  6 92  1  0  0  0
  7  8  2  0  0  0
  7 26  1  0  0  0
  7 29  1  0  0  0
  8  9  1  0  0  0
  8 22  1  0  0  0
  9 10  1  0  0  0
  9 27  2  0  0  0
 10 11  2  0  0  0
 10 15  1  0  0  0
 11 12  1  0  0  0
 11 93  1  0  0  0
 12 13  2  0  0  0
 12 94  1  0  0  0
 13 14  1  0  0  0
 13 31  1  0  0  0
 14 15  2  0  0  0
 14 95  1  0  0  0
 15 96  1  0  0  0
 16 17  2  0  0  0
 16 21  1  0  0  0
 16 31  1  0  0  0
 17 18  1  0  0  0
 17 97  1  0  0  0
 18 19  2  0  0  0
 18 98  1  0  0  0
 19 20  1  0  0  0
 19 24  1  0  0  0
 20 21  2  0  0  0
 20 99  1  0  0  0
 21 23  1  0  0  0
 22 28  1  0  0  0
 22 32  2  0  0  0
 26 27  1  0  0  0
 28100  1  0  0  0
 28101  1  0  0  0
 29102  1  0  0  0
 29103  1  0  0  0
 33 34  1  0  0  0
 33 66  1  0  0  0
 33 70  2  0  0  0
 34 36  1  0  0  0
 34 59  1  0  0  0
 34104  1  0  0  0
 35 44  2  0  0  0
 35 45  1  0  0  0
 35 68  1  0  0  0
 36 56  1  0  0  0
 36105  1  0  0  0
 37 39  1  0  0  0
 37 47  1  0  0  0
 37 66  1  0  0  0
 37106  1  0  0  0
 38 43  2  0  0  0
 38 46  1  0  0  0
 38 47  1  0  0  0
 39 64  1  0  0  0
 39 67  2  0  0  0
 40 52  1  0  0  0
 40 53  2  0  0  0
 40 58  1  0  0  0
 41107  1  0  0  0
 41108  1  0  0  0
 41109  1  0  0  0
 41 48  1  0  0  0
 42 43  1  0  0  0
 42 66  1  0  0  0
 42110  1  0  0  0
 42111  1  0  0  0
 43 44  1  0  0  0
 44112  1  0  0  0
 45 46  2  0  0  0
 45113  1  0  0  0
 46114  1  0  0  0
 47115  1  0  0  0
 47116  1  0  0  0
 48 56  1  0  0  0
 48 65  1  0  0  0
 48117  1  0  0  0
 49 50  1  0  0  0
 49 53  1  0  0  0
 49 64  1  0  0  0
 49118  1  0  0  0
 50 51  1  0  0  0
 50119  1  0  0  0
 50120  1  0  0  0
 51 52  1  0  0  0
 51121  1  0  0  0
 51122  1  0  0  0
 52123  1  0  0  0
 52124  1  0  0  0
 53 54  1  0  0  0
 54 55  2  0  0  0
 54125  1  0  0  0
 55 57  1  0  0  0
 55126  1  0  0  0
 56 69  2  0  0  0
 57 58  2  0  0  0
 57127  1  0  0  0
 58128  1  0  0  0
 59 60  1  0  0  0
 59 61  1  0  0  0
 59 62  1  0  0  0
 60129  1  0  0  0
 60130  1  0  0  0
 60131  1  0  0  0
 61132  1  0  0  0
 61133  1  0  0  0
 61134  1  0  0  0
 62135  1  0  0  0
 62136  1  0  0  0
 62137  1  0  0  0
 63 65  1  0  0  0
 63138  1  0  0  0
 63139  1  0  0  0
 63140  1  0  0  0
 64141  1  0  0  0
 65142  1  0  0  0
 68 79  1  0  0  0
 71 73  2  0  0  0
 71 75  1  0  0  0
 71143  1  0  0  0
 72 74  1  0  0  0
 72 75  2  0  0  0
 72144  1  0  0  0
 73 76  1  0  0  0
 73145  1  0  0  0
 74 76  2  0  0  0
 74146  1  0  0  0
 75 81  1  0  0  0
 76 82  1  0  0  0
 77 78  1  0  0  0
 77 79  2  0  0  0
 77 80  1  0  0  0
 78 81  1  0  0  0
 78 83  2  0  0  0
 79147  1  0  0  0
 80 81  1  0  0  0
 80148  1  0  0  0
 80149  1  0  0  0
 82150  1  0  0  0
M  ISO  4   1 100  68 101  79 101  82 100
M  END
> <chiral flag>
0

> <version>
0

> <s_m_source_file>
/data/baiqing/PycharmProjects/Reinvent-master-3.2/result/LINK_invent/BTK/process_docking_weight1_custom_product_contain_oxygen_bond_distance_aromatic_linkinvent_7_9_3/rearranged_h_0084.sdf

> <i_m_source_file_index>
13

> <r_mmod_Potential_Energy-OPLS-2005>
216.110015869141

> <r_mmod_Stretch_Energy-OPLS-2005>
106.537666320801

> <r_mmod_Bend_Energy-OPLS-2005>
270.702850341797

> <r_mmod_Torsional_Energy-OPLS-2005>
219.89909362793

> <r_mmod_Improper_Torsional_Energy-OPLS-2005>
3.45828318595886

> <r_mmod_Van_der_Waal_Energy-OPLS-2005>
134.482055664062

> <r_mmod_Electrostatic_Energy-OPLS-2005>
-389.401977539062

> <r_mmod_Solvation_Energy-OPLS-2005>
-217.736526489258

> <b_mmod_Minimization_Converged-OPLS-2005>
0

> <r_mmod_RMS_Derivative-OPLS-2005>
0.385791778564453

$$$$
13
                    3D
 Structure written by MMmdl.
150159  0  0  1  0            999 V2000
  -30.5812  -14.8839   20.4356 C   0  0  0  0  0  0
  -30.4336  -12.5472   19.4879 C   0  0  0  0  0  0
  -29.5143  -12.5187   18.2467 C   0  0  0  0  0  0
  -28.0459  -12.3181   18.6661 C   0  0  0  0  0  0
  -27.6310  -13.2453   19.8391 C   0  0  2  0  0  0
  -28.6761  -13.2557   20.9749 C   0  0  0  0  0  0
  -25.2466  -13.8216   20.5712 C   0  0  0  0  0  0
  -24.1780  -13.0440   20.9227 C   0  0  0  0  0  0
  -24.6394  -11.6925   20.8757 C   0  0  0  0  0  0
  -23.9078  -10.4294   21.0409 C   0  0  0  0  0  0
  -24.3626   -9.4207   21.9185 C   0  0  0  0  0  0
  -23.6298   -8.2244   22.0754 C   0  0  0  0  0  0
  -22.4280   -8.0282   21.3545 C   0  0  0  0  0  0
  -21.9919   -9.0257   20.4646 C   0  0  0  0  0  0
  -22.7250  -10.2135   20.3057 C   0  0  0  0  0  0
  -21.6855   -6.0736   22.5279 C   0  0  0  0  0  0
  -21.4016   -6.5640   23.8212 C   0  0  0  0  0  0
  -21.3660   -5.6793   24.9174 C   0  0  0  0  0  0
  -21.6044   -4.3056   24.7225 C   0  0  0  0  0  0
  -21.8819   -3.8147   23.4346 C   0  0  0  0  0  0
  -21.9194   -4.6964   22.3402 C   0  0  0  0  0  0
  -22.7799  -13.5210   21.1881 C   0  0  0  0  0  0
  -22.1662   -4.2149   21.0980 F   0  0  0  0  0  0
  -21.5628   -3.4539   25.7737 F   0  0  0  0  0  0
  -29.9572  -13.6444   20.3736 N   0  0  0  0  0  0
  -26.2892  -12.9446   20.3255 N   0  0  0  0  0  0
  -25.9326  -11.6576   20.5748 N   0  0  0  0  0  0
  -22.0452  -12.8196   22.0437 N   0  0  0  0  0  0
  -25.4118  -15.1947   20.4133 N   0  0  0  0  0  0
  -31.7866  -14.9199   20.1698 O   0  0  0  0  0  0
  -21.6643   -6.8880   21.4241 O   0  0  0  0  0  0
  -22.3480  -14.5513   20.6725 O   0  0  0  0  0  0
  -24.6401  -31.8475   23.1918 C   0  0  0  0  0  0
  -25.9187  -32.4714   23.8295 C   0  0  1  0  0  0
  -27.2151  -27.1728   20.1491 C   0  0  0  0  0  0
  -25.5948  -33.8519   24.2211 N   0  0  0  0  0  0
  -23.4425  -30.4679   21.5363 C   0  0  2  0  0  0
  -24.8933  -28.9016   20.1103 C   0  0  0  0  0  0
  -22.7553  -29.4562   22.4871 C   0  0  0  0  0  0
  -18.0302  -28.1394   22.8478 C   0  0  0  0  0  0
  -24.1491  -36.7265   23.2642 C   0  0  0  0  0  0
  -25.9963  -30.7316   21.3876 C   0  0  0  0  0  0
  -26.0690  -29.3456   20.7311 C   0  0  0  0  0  0
  -27.2343  -28.4948   20.7389 C   0  0  0  0  0  0
  -26.0200  -26.8255   19.4843 C   0  0  0  0  0  0
  -24.8786  -27.6526   19.4725 C   0  0  0  0  0  0
  -23.6681  -29.7995   20.1546 C   0  0  0  0  0  0
  -25.4122  -36.3044   24.0319 C   0  0  1  0  0  0
  -20.5913  -28.3717   23.1242 C   0  0  2  0  0  0
  -20.6787  -26.9423   22.5404 C   0  0  0  0  0  0
  -19.5761  -26.6382   21.5212 C   0  0  0  0  0  0
  -18.1942  -26.7933   22.1623 C   0  0  0  0  0  0
  -19.1558  -28.8873   23.2853 C   0  0  0  0  0  0
  -18.9475  -30.1470   23.8878 C   0  0  0  0  0  0
  -17.6472  -30.6591   24.0560 C   0  0  0  0  0  0
  -25.9069  -34.9418   23.5072 C   0  0  0  0  0  0
  -16.5363  -29.9084   23.6335 C   0  0  0  0  0  0
  -16.7287  -28.6503   23.0356 C   0  0  0  0  0  0
  -26.4521  -31.6571   25.0722 C   0  0  0  0  0  0
  -25.3712  -31.3747   26.1420 C   0  0  0  0  0  0
  -27.0388  -30.2972   24.6284 C   0  0  0  0  0  0
  -27.6052  -32.4335   25.7508 C   0  0  0  0  0  0
  -27.5576  -37.1789   24.8465 C   0  0  0  0  0  0
  -21.4249  -29.3048   22.3618 N   0  0  0  0  0  0
  -26.4289  -37.3753   23.9407 N   0  0  0  0  0  0
  -24.7124  -31.0359   22.0939 N   0  0  0  0  0  0
  -23.4210  -28.8106   23.3008 O   0  0  0  0  0  0
  -28.2445  -26.1747   20.1870 O   0  0  0  0  0  0
  -26.5651  -34.8908   22.4648 O   0  0  0  0  0  0
  -23.5527  -32.1337   23.7156 O   0  0  0  0  0  0
  -31.9721  -19.1735   21.1764 C   0  0  0  0  0  0
  -31.1410  -20.2748   20.8958 C   0  0  0  0  0  0
  -31.5249  -17.8480   21.0492 C   0  0  0  0  0  0
  -29.7912  -20.1713   20.4815 C   0  0  0  0  0  0
  -30.2105  -17.5483   20.6358 C   0  0  0  0  0  0
  -29.3615  -18.7451   20.3825 C   0  0  0  0  0  0
  -28.4314  -23.5150   20.4495 C   0  0  0  0  0  0
  -29.5860  -22.8509   19.8303 C   0  0  0  0  0  0
  -27.8974  -24.8215   20.5939 C   0  0  0  0  0  0
  -28.0171  -22.0981   20.9862 C   0  0  0  0  0  0
  -29.1332  -21.5213   20.1896 N   0  0  0  0  0  0
  -29.8214  -16.0752   20.5475 N   0  0  0  0  0  0
  -30.5869  -23.3241   19.3328 O   0  0  0  0  0  0
  -28.0832  -18.5132   19.9977 F   0  0  0  0  0  0
  -31.4702  -12.6868   19.1772 H   0  0  0  0  0  0
  -30.4072  -11.5910   20.0130 H   0  0  0  0  0  0
  -29.8213  -11.7244   17.5650 H   0  0  0  0  0  0
  -29.6143  -13.4540   17.6936 H   0  0  0  0  0  0
  -27.9311  -11.2753   18.9639 H   0  0  0  0  0  0
  -27.3832  -12.4648   17.8123 H   0  0  0  0  0  0
  -27.5997  -14.2511   19.4196 H   0  0  0  0  0  0
  -28.7486  -12.2780   21.4533 H   0  0  0  0  0  0
  -28.3890  -13.9625   21.7552 H   0  0  0  0  0  0
  -25.2769   -9.5684   22.4763 H   0  0  0  0  0  0
  -24.0006   -7.4635   22.7474 H   0  0  0  0  0  0
  -21.0850   -8.8778   19.8952 H   0  0  0  0  0  0
  -22.3708  -10.9675   19.6168 H   0  0  0  0  0  0
  -21.2009   -7.6149   23.9716 H   0  0  0  0  0  0
  -21.1482   -6.0523   25.9077 H   0  0  0  0  0  0
  -22.0598   -2.7610   23.2846 H   0  0  0  0  0  0
  -22.4078  -11.9863   22.4827 H   0  0  0  0  0  0
  -21.1066  -13.1210   22.2641 H   0  0  0  0  0  0
  -24.6395  -15.8423   20.5262 H   0  0  0  0  0  0
  -26.2504  -15.6413   20.0663 H   0  0  0  0  0  0
  -26.7253  -32.5336   23.1028 H   0  0  0  0  0  0
  -25.0076  -33.9641   25.0345 H   0  0  0  0  0  0
  -22.7434  -31.2928   21.3841 H   0  0  0  0  0  0
  -23.3757  -35.9593   23.3295 H   0  0  0  0  0  0
  -24.3576  -36.8903   22.2057 H   0  0  0  0  0  0
  -23.7243  -37.6458   23.6682 H   0  0  0  0  0  0
  -26.1480  -31.4870   20.6154 H   0  0  0  0  0  0
  -26.8683  -30.7819   22.0280 H   0  0  0  0  0  0
  -28.1302  -28.8252   21.2453 H   0  0  0  0  0  0
  -25.9513  -25.8648   18.9940 H   0  0  0  0  0  0
  -23.9821  -27.3085   18.9751 H   0  0  0  0  0  0
  -23.8019  -30.5750   19.3997 H   0  0  0  0  0  0
  -22.7839  -29.2395   19.8445 H   0  0  0  0  0  0
  -25.1309  -36.1877   25.0811 H   0  0  0  0  0  0
  -21.0005  -28.3306   24.1363 H   0  0  0  0  0  0
  -20.5682  -26.2331   23.3621 H   0  0  0  0  0  0
  -21.6654  -26.7433   22.1201 H   0  0  0  0  0  0
  -19.6923  -25.6287   21.1254 H   0  0  0  0  0  0
  -19.6698  -27.3181   20.6732 H   0  0  0  0  0  0
  -17.4211  -26.6677   21.4028 H   0  0  0  0  0  0
  -18.0343  -26.0080   22.9025 H   0  0  0  0  0  0
  -19.7951  -30.7292   24.2239 H   0  0  0  0  0  0
  -17.5025  -31.6269   24.5165 H   0  0  0  0  0  0
  -15.5362  -30.2980   23.7671 H   0  0  0  0  0  0
  -15.8688  -28.0815   22.7082 H   0  0  0  0  0  0
  -24.5905  -30.7079   25.7742 H   0  0  0  0  0  0
  -24.8885  -32.2923   26.4792 H   0  0  0  0  0  0
  -25.8003  -30.8961   27.0232 H   0  0  0  0  0  0
  -26.3003  -29.6697   24.1281 H   0  0  0  0  0  0
  -27.4002  -29.7266   25.4849 H   0  0  0  0  0  0
  -27.8909  -30.4218   23.9598 H   0  0  0  0  0  0
  -27.2641  -33.3647   26.2044 H   0  0  0  0  0  0
  -28.3885  -32.6879   25.0356 H   0  0  0  0  0  0
  -28.0696  -31.8490   26.5460 H   0  0  0  0  0  0
  -28.2589  -38.0091   24.7511 H   0  0  0  0  0  0
  -28.1078  -36.2620   24.6296 H   0  0  0  0  0  0
  -27.2293  -37.1440   25.8868 H   0  0  0  0  0  0
  -20.9454  -29.8763   21.6803 H   0  0  0  0  0  0
  -26.0159  -38.2823   24.1408 H   0  0  0  0  0  0
  -32.9892  -19.3537   21.4962 H   0  0  0  0  0  0
  -31.5834  -21.2540   21.0118 H   0  0  0  0  0  0
  -32.2242  -17.0625   21.2930 H   0  0  0  0  0  0
  -26.9932  -24.8750   21.1840 H   0  0  0  0  0  0
  -27.0522  -21.6980   20.6711 H   0  0  0  0  0  0
  -28.1568  -21.9232   22.0548 H   0  0  0  0  0  0
  -28.8262  -15.9145   20.5639 H   0  0  0  0  0  0
  1 25  1  0  0  0
  1 30  2  0  0  0
  1 82  1  0  0  0
  2  3  1  0  0  0
  2 25  1  0  0  0
  2 85  1  0  0  0
  2 86  1  0  0  0
  3  4  1  0  0  0
  3 87  1  0  0  0
  3 88  1  0  0  0
  4  5  1  0  0  0
  4 89  1  0  0  0
  4 90  1  0  0  0
  5  6  1  0  0  0
  5 26  1  0  0  0
  5 91  1  0  0  0
  6 25  1  0  0  0
  6 92  1  0  0  0
  6 93  1  0  0  0
  7  8  2  0  0  0
  7 26  1  0  0  0
  7 29  1  0  0  0
  8  9  1  0  0  0
  8 22  1  0  0  0
  9 10  1  0  0  0
  9 27  2  0  0  0
 10 11  2  0  0  0
 10 15  1  0  0  0
 11 12  1  0  0  0
 11 94  1  0  0  0
 12 13  2  0  0  0
 12 95  1  0  0  0
 13 14  1  0  0  0
 13 31  1  0  0  0
 14 15  2  0  0  0
 14 96  1  0  0  0
 15 97  1  0  0  0
 16 17  2  0  0  0
 16 21  1  0  0  0
 16 31  1  0  0  0
 17 18  1  0  0  0
 17 98  1  0  0  0
 18 19  2  0  0  0
 18 99  1  0  0  0
 19 20  1  0  0  0
 19 24  1  0  0  0
 20 21  2  0  0  0
 20100  1  0  0  0
 21 23  1  0  0  0
 22 28  1  0  0  0
 22 32  2  0  0  0
 26 27  1  0  0  0
 28101  1  0  0  0
 28102  1  0  0  0
 29103  1  0  0  0
 29104  1  0  0  0
 33 34  1  0  0  0
 33 66  1  0  0  0
 33 70  2  0  0  0
 34 36  1  0  0  0
 34 59  1  0  0  0
 34105  1  0  0  0
 35 44  2  0  0  0
 35 45  1  0  0  0
 35 68  1  0  0  0
 36 56  1  0  0  0
 36106  1  0  0  0
 37 39  1  0  0  0
 37 47  1  0  0  0
 37 66  1  0  0  0
 37107  1  0  0  0
 38 43  2  0  0  0
 38 46  1  0  0  0
 38 47  1  0  0  0
 39 64  1  0  0  0
 39 67  2  0  0  0
 40 52  1  0  0  0
 40 53  2  0  0  0
 40 58  1  0  0  0
 41108  1  0  0  0
 41109  1  0  0  0
 41110  1  0  0  0
 41 48  1  0  0  0
 42 43  1  0  0  0
 42 66  1  0  0  0
 42111  1  0  0  0
 42112  1  0  0  0
 43 44  1  0  0  0
 44113  1  0  0  0
 45 46  2  0  0  0
 45114  1  0  0  0
 46115  1  0  0  0
 47116  1  0  0  0
 47117  1  0  0  0
 48 56  1  0  0  0
 48 65  1  0  0  0
 48118  1  0  0  0
 49 50  1  0  0  0
 49 53  1  0  0  0
 49 64  1  0  0  0
 49119  1  0  0  0
 50 51  1  0  0  0
 50120  1  0  0  0
 50121  1  0  0  0
 51 52  1  0  0  0
 51122  1  0  0  0
 51123  1  0  0  0
 52124  1  0  0  0
 52125  1  0  0  0
 53 54  1  0  0  0
 54 55  2  0  0  0
 54126  1  0  0  0
 55 57  1  0  0  0
 55127  1  0  0  0
 56 69  2  0  0  0
 57 58  2  0  0  0
 57128  1  0  0  0
 58129  1  0  0  0
 59 60  1  0  0  0
 59 61  1  0  0  0
 59 62  1  0  0  0
 60130  1  0  0  0
 60131  1  0  0  0
 60132  1  0  0  0
 61133  1  0  0  0
 61134  1  0  0  0
 61135  1  0  0  0
 62136  1  0  0  0
 62137  1  0  0  0
 62138  1  0  0  0
 63 65  1  0  0  0
 63139  1  0  0  0
 63140  1  0  0  0
 63141  1  0  0  0
 64142  1  0  0  0
 65143  1  0  0  0
 68 79  1  0  0  0
 71 72  2  0  0  0
 71 73  1  0  0  0
 71144  1  0  0  0
 72 74  1  0  0  0
 72145  1  0  0  0
 73 75  2  0  0  0
 73146  1  0  0  0
 74 76  2  0  0  0
 74 81  1  0  0  0
 75 76  1  0  0  0
 75 82  1  0  0  0
 76 84  1  0  0  0
 77 78  1  0  0  0
 77 79  2  0  0  0
 77 80  1  0  0  0
 78 81  1  0  0  0
 78 83  2  0  0  0
 79147  1  0  0  0
 80 81  1  0  0  0
 80148  1  0  0  0
 80149  1  0  0  0
 82150  1  0  0  0
M  ISO  4   1 100  68 101  79 101  82 100
M  END
> <chiral flag>
0

> <version>
0

> <s_m_source_file>
/data/baiqing/PycharmProjects/Reinvent-master-3.2/result/LINK_invent/BTK/process_docking_weight1_custom_product_contain_oxygen_bond_distance_aromatic_linkinvent_7_9_3/rearranged_h_0084.sdf

> <i_m_source_file_index>
14

> <r_mmod_Potential_Energy-OPLS-2005>
424.202697753906

> <r_mmod_Stretch_Energy-OPLS-2005>
192.246795654297

> <r_mmod_Bend_Energy-OPLS-2005>
278.433990478516

> <r_mmod_Torsional_Energy-OPLS-2005>
242.282638549805

> <r_mmod_Improper_Torsional_Energy-OPLS-2005>
9.47599697113037

> <r_mmod_Van_der_Waal_Energy-OPLS-2005>
133.535385131836

> <r_mmod_Electrostatic_Energy-OPLS-2005>
-373.323394775391

> <r_mmod_Solvation_Energy-OPLS-2005>
-217.390335083008

> <b_mmod_Minimization_Converged-OPLS-2005>
0

> <r_mmod_RMS_Derivative-OPLS-2005>
0.174578055739403

$$$$
14
                    3D
 Structure written by MMmdl.
158166  0  0  1  0            999 V2000
  -30.6939  -14.5166   20.5397 C   0  0  0  0  0  0
  -30.4230  -12.3206   19.4351 C   0  0  0  0  0  0
  -29.5018  -12.5124   18.2114 C   0  0  0  0  0  0
  -28.0219  -12.3708   18.6182 C   0  0  0  0  0  0
  -27.6622  -13.2126   19.8728 C   0  0  2  0  0  0
  -28.7058  -13.0187   20.9965 C   0  0  0  0  0  0
  -25.2601  -13.8160   20.5674 C   0  0  0  0  0  0
  -24.1849  -13.0433   20.9164 C   0  0  0  0  0  0
  -24.6398  -11.6901   20.8695 C   0  0  0  0  0  0
  -23.9055  -10.4286   21.0362 C   0  0  0  0  0  0
  -24.3601   -9.4211   21.9160 C   0  0  0  0  0  0
  -23.6281   -8.2236   22.0741 C   0  0  0  0  0  0
  -22.4266   -8.0260   21.3532 C   0  0  0  0  0  0
  -21.9890   -9.0226   20.4632 C   0  0  0  0  0  0
  -22.7216  -10.2110   20.3027 C   0  0  0  0  0  0
  -21.6848   -6.0721   22.5279 C   0  0  0  0  0  0
  -21.4011   -6.5633   23.8210 C   0  0  0  0  0  0
  -21.3663   -5.6785   24.9174 C   0  0  0  0  0  0
  -21.6043   -4.3045   24.7224 C   0  0  0  0  0  0
  -21.8824   -3.8131   23.4349 C   0  0  0  0  0  0
  -21.9196   -4.6945   22.3409 C   0  0  0  0  0  0
  -22.7875  -13.5229   21.1836 C   0  0  0  0  0  0
  -22.1668   -4.2130   21.0979 F   0  0  0  0  0  0
  -21.5632   -3.4531   25.7736 F   0  0  0  0  0  0
  -30.0344  -13.3251   20.4400 N   0  0  0  0  0  0
  -26.3032  -12.9346   20.3344 N   0  0  0  0  0  0
  -25.9335  -11.6499   20.5739 N   0  0  0  0  0  0
  -22.0504  -12.8207   22.0379 N   0  0  0  0  0  0
  -25.4353  -15.1875   20.4090 N   0  0  0  0  0  0
  -31.8372  -14.6668   20.1025 O   0  0  0  0  0  0
  -21.6639   -6.8851   21.4227 O   0  0  0  0  0  0
  -22.3567  -14.5538   20.6702 O   0  0  0  0  0  0
  -24.6177  -31.8637   23.2054 C   0  0  0  0  0  0
  -25.9060  -32.4789   23.8374 C   0  0  1  0  0  0
  -27.2433  -27.4085   20.1056 C   0  0  0  0  0  0
  -25.5899  -33.8588   24.2302 N   0  0  0  0  0  0
  -23.4072  -30.4831   21.5478 C   0  0  2  0  0  0
  -24.8584  -28.9436   20.1124 C   0  0  0  0  0  0
  -22.7431  -29.4632   22.5014 C   0  0  0  0  0  0
  -18.0258  -28.1373   22.8497 C   0  0  0  0  0  0
  -24.1483  -36.7305   23.2644 C   0  0  0  0  0  0
  -25.9384  -30.8218   21.3624 C   0  0  0  0  0  0
  -26.0198  -29.4541   20.7092 C   0  0  0  0  0  0
  -27.2175  -28.6944   20.7027 C   0  0  0  0  0  0
  -26.0684  -26.9209   19.4981 C   0  0  0  0  0  0
  -24.8793  -27.6785   19.4996 C   0  0  0  0  0  0
  -23.6139  -29.8034   20.1673 C   0  0  0  0  0  0
  -25.4101  -36.3095   24.0349 C   0  0  1  0  0  0
  -20.5849  -28.3658   23.1321 C   0  0  2  0  0  0
  -20.6730  -26.9393   22.5423 C   0  0  0  0  0  0
  -19.5724  -26.6375   21.5212 C   0  0  0  0  0  0
  -18.1899  -26.7936   22.1605 C   0  0  0  0  0  0
  -19.1507  -28.8837   23.2899 C   0  0  0  0  0  0
  -18.9434  -30.1455   23.8898 C   0  0  0  0  0  0
  -17.6431  -30.6592   24.0552 C   0  0  0  0  0  0
  -25.9034  -34.9457   23.5125 C   0  0  0  0  0  0
  -16.5322  -29.9077   23.6349 C   0  0  0  0  0  0
  -16.7242  -28.6487   23.0381 C   0  0  0  0  0  0
  -26.4467  -31.6605   25.0732 C   0  0  0  0  0  0
  -25.3713  -31.3719   26.1467 C   0  0  0  0  0  0
  -27.0322  -30.3046   24.6173 C   0  0  0  0  0  0
  -27.6042  -32.4343   25.7477 C   0  0  0  0  0  0
  -27.5584  -37.1798   24.8458 C   0  0  0  0  0  0
  -21.4156  -29.3023   22.3748 N   0  0  0  0  0  0
  -26.4287  -37.3788   23.9419 N   0  0  0  0  0  0
  -24.6724  -31.0717   22.0960 N   0  0  0  0  0  0
  -23.4190  -28.8209   23.3083 O   0  0  0  0  0  0
  -28.3609  -26.5921   20.1236 O   0  0  0  0  0  0
  -26.5608  -34.8920   22.4695 O   0  0  0  0  0  0
  -23.5359  -32.1392   23.7449 O   0  0  0  0  0  0
  -31.5305  -19.0103   20.6262 C   0  0  0  0  0  0
  -29.1638  -19.2453   21.0598 C   0  0  0  0  0  0
  -31.4124  -17.5994   20.6797 C   0  0  0  0  0  0
  -29.0441  -17.8330   21.1160 C   0  0  0  0  0  0
  -30.4125  -19.8628   20.8086 C   0  0  0  0  0  0
  -30.1603  -16.9792   20.9216 C   0  0  0  0  0  0
  -28.4555  -25.7557   21.2191 C   0  0  0  0  0  0
  -30.5956  -21.3765   20.7964 C   0  0  0  0  0  0
  -28.9717  -24.4956   21.3074 C   0  0  0  0  0  0
  -28.9724  -23.8300   22.6758 C   0  0  0  0  0  0
  -28.9546  -23.8842   18.7972 C   0  0  0  0  0  0
  -29.5793  -23.6259   20.1752 C   0  0  2  0  0  0
  -29.9521  -15.5524   21.0063 N   0  0  0  0  0  0
  -29.5537  -22.1567   20.4318 N   0  0  0  0  0  0
  -31.7023  -21.8525   21.0573 O   0  0  0  0  0  0
  -31.4708  -12.4053   19.1410 H   0  0  0  0  0  0
  -30.3104  -11.3144   19.8422 H   0  0  0  0  0  0
  -29.7457  -11.7878   17.4331 H   0  0  0  0  0  0
  -29.6705  -13.4981   17.7745 H   0  0  0  0  0  0
  -27.8296  -11.3151   18.8135 H   0  0  0  0  0  0
  -27.3746  -12.6460   17.7851 H   0  0  0  0  0  0
  -27.6983  -14.2580   19.5663 H   0  0  0  0  0  0
  -28.6865  -11.9893   21.3587 H   0  0  0  0  0  0
  -28.4661  -13.6366   21.8630 H   0  0  0  0  0  0
  -25.2741   -9.5708   22.4746 H   0  0  0  0  0  0
  -23.9992   -7.4634   22.7471 H   0  0  0  0  0  0
  -21.0819   -8.8733   19.8948 H   0  0  0  0  0  0
  -22.3652  -10.9634   19.6128 H   0  0  0  0  0  0
  -21.2001   -7.6138   23.9703 H   0  0  0  0  0  0
  -21.1483   -6.0518   25.9080 H   0  0  0  0  0  0
  -22.0597   -2.7591   23.2848 H   0  0  0  0  0  0
  -22.4106  -11.9845   22.4736 H   0  0  0  0  0  0
  -21.1128  -13.1248   22.2596 H   0  0  0  0  0  0
  -24.6709  -15.8455   20.5156 H   0  0  0  0  0  0
  -26.2892  -15.6184   20.0783 H   0  0  0  0  0  0
  -26.7145  -32.5495   23.1152 H   0  0  0  0  0  0
  -25.0097  -33.9735   25.0482 H   0  0  0  0  0  0
  -22.6962  -31.3005   21.4044 H   0  0  0  0  0  0
  -23.3750  -35.9632   23.3277 H   0  0  0  0  0  0
  -24.3587  -36.8940   22.2065 H   0  0  0  0  0  0
  -23.7208  -37.6490   23.6672 H   0  0  0  0  0  0
  -26.0548  -31.5875   20.5936 H   0  0  0  0  0  0
  -26.8228  -30.8743   21.9865 H   0  0  0  0  0  0
  -28.1132  -29.0789   21.1689 H   0  0  0  0  0  0
  -26.0741  -25.9400   19.0400 H   0  0  0  0  0  0
  -23.9886  -27.2759   19.0361 H   0  0  0  0  0  0
  -23.7002  -30.5666   19.3946 H   0  0  0  0  0  0
  -22.7413  -29.2086   19.8899 H   0  0  0  0  0  0
  -25.1281  -36.1951   25.0845 H   0  0  0  0  0  0
  -20.9935  -28.3196   24.1445 H   0  0  0  0  0  0
  -20.5605  -26.2274   23.3613 H   0  0  0  0  0  0
  -21.6595  -26.7426   22.1223 H   0  0  0  0  0  0
  -19.6869  -25.6278   21.1256 H   0  0  0  0  0  0
  -19.6681  -27.3181   20.6741 H   0  0  0  0  0  0
  -17.4190  -26.6727   21.3976 H   0  0  0  0  0  0
  -18.0271  -26.0056   22.8973 H   0  0  0  0  0  0
  -19.7908  -30.7268   24.2258 H   0  0  0  0  0  0
  -17.4985  -31.6272   24.5142 H   0  0  0  0  0  0
  -15.5321  -30.2966   23.7684 H   0  0  0  0  0  0
  -15.8634  -28.0789   22.7131 H   0  0  0  0  0  0
  -24.5910  -30.7047   25.7793 H   0  0  0  0  0  0
  -24.8876  -32.2875   26.4893 H   0  0  0  0  0  0
  -25.8046  -30.8904   27.0248 H   0  0  0  0  0  0
  -26.2904  -29.6783   24.1211 H   0  0  0  0  0  0
  -27.4043  -29.7318   25.4683 H   0  0  0  0  0  0
  -27.8755  -30.4344   23.9382 H   0  0  0  0  0  0
  -27.2667  -33.3655   26.2050 H   0  0  0  0  0  0
  -28.3829  -32.6889   25.0275 H   0  0  0  0  0  0
  -28.0745  -31.8482   26.5383 H   0  0  0  0  0  0
  -28.2579  -38.0118   24.7541 H   0  0  0  0  0  0
  -28.1095  -36.2652   24.6227 H   0  0  0  0  0  0
  -27.2322  -37.1375   25.8864 H   0  0  0  0  0  0
  -20.9355  -29.8714   21.6921 H   0  0  0  0  0  0
  -26.0172  -38.2868   24.1411 H   0  0  0  0  0  0
  -32.5061  -19.4435   20.4511 H   0  0  0  0  0  0
  -28.2860  -19.8520   21.2278 H   0  0  0  0  0  0
  -32.3098  -17.0139   20.5439 H   0  0  0  0  0  0
  -28.0703  -17.4084   21.3158 H   0  0  0  0  0  0
  -28.0575  -26.2420   22.1014 H   0  0  0  0  0  0
  -28.6238  -24.5066   23.4580 H   0  0  0  0  0  0
  -29.9807  -23.5150   22.9480 H   0  0  0  0  0  0
  -28.3196  -22.9567   22.6851 H   0  0  0  0  0  0
  -29.0998  -24.9138   18.4706 H   0  0  0  0  0  0
  -27.8841  -23.6750   18.8009 H   0  0  0  0  0  0
  -29.4142  -23.2466   18.0410 H   0  0  0  0  0  0
  -30.6234  -23.9362   20.1092 H   0  0  0  0  0  0
  -29.0350  -15.2719   21.3133 H   0  0  0  0  0  0
  -28.6944  -21.6730   20.2183 H   0  0  0  0  0  0
  1 25  1  0  0  0
  1 30  2  0  0  0
  1 83  1  0  0  0
  2  3  1  0  0  0
  2 25  1  0  0  0
  2 86  1  0  0  0
  2 87  1  0  0  0
  3  4  1  0  0  0
  3 88  1  0  0  0
  3 89  1  0  0  0
  4  5  1  0  0  0
  4 90  1  0  0  0
  4 91  1  0  0  0
  5  6  1  0  0  0
  5 26  1  0  0  0
  5 92  1  0  0  0
  6 25  1  0  0  0
  6 93  1  0  0  0
  6 94  1  0  0  0
  7  8  2  0  0  0
  7 26  1  0  0  0
  7 29  1  0  0  0
  8  9  1  0  0  0
  8 22  1  0  0  0
  9 10  1  0  0  0
  9 27  2  0  0  0
 10 11  2  0  0  0
 10 15  1  0  0  0
 11 12  1  0  0  0
 11 95  1  0  0  0
 12 13  2  0  0  0
 12 96  1  0  0  0
 13 14  1  0  0  0
 13 31  1  0  0  0
 14 15  2  0  0  0
 14 97  1  0  0  0
 15 98  1  0  0  0
 16 17  2  0  0  0
 16 21  1  0  0  0
 16 31  1  0  0  0
 17 18  1  0  0  0
 17 99  1  0  0  0
 18 19  2  0  0  0
 18100  1  0  0  0
 19 20  1  0  0  0
 19 24  1  0  0  0
 20 21  2  0  0  0
 20101  1  0  0  0
 21 23  1  0  0  0
 22 28  1  0  0  0
 22 32  2  0  0  0
 26 27  1  0  0  0
 28102  1  0  0  0
 28103  1  0  0  0
 29104  1  0  0  0
 29105  1  0  0  0
 33 34  1  0  0  0
 33 66  1  0  0  0
 33 70  2  0  0  0
 34 36  1  0  0  0
 34 59  1  0  0  0
 34106  1  0  0  0
 35 44  2  0  0  0
 35 45  1  0  0  0
 35 68  1  0  0  0
 36 56  1  0  0  0
 36107  1  0  0  0
 37 39  1  0  0  0
 37 47  1  0  0  0
 37 66  1  0  0  0
 37108  1  0  0  0
 38 43  2  0  0  0
 38 46  1  0  0  0
 38 47  1  0  0  0
 39 64  1  0  0  0
 39 67  2  0  0  0
 40 52  1  0  0  0
 40 53  2  0  0  0
 40 58  1  0  0  0
 41109  1  0  0  0
 41110  1  0  0  0
 41111  1  0  0  0
 41 48  1  0  0  0
 42 43  1  0  0  0
 42 66  1  0  0  0
 42112  1  0  0  0
 42113  1  0  0  0
 43 44  1  0  0  0
 44114  1  0  0  0
 45 46  2  0  0  0
 45115  1  0  0  0
 46116  1  0  0  0
 47117  1  0  0  0
 47118  1  0  0  0
 48 56  1  0  0  0
 48 65  1  0  0  0
 48119  1  0  0  0
 49 50  1  0  0  0
 49 53  1  0  0  0
 49 64  1  0  0  0
 49120  1  0  0  0
 50 51  1  0  0  0
 50121  1  0  0  0
 50122  1  0  0  0
 51 52  1  0  0  0
 51123  1  0  0  0
 51124  1  0  0  0
 52125  1  0  0  0
 52126  1  0  0  0
 53 54  1  0  0  0
 54 55  2  0  0  0
 54127  1  0  0  0
 55 57  1  0  0  0
 55128  1  0  0  0
 56 69  2  0  0  0
 57 58  2  0  0  0
 57129  1  0  0  0
 58130  1  0  0  0
 59 60  1  0  0  0
 59 61  1  0  0  0
 59 62  1  0  0  0
 60131  1  0  0  0
 60132  1  0  0  0
 60133  1  0  0  0
 61134  1  0  0  0
 61135  1  0  0  0
 61136  1  0  0  0
 62137  1  0  0  0
 62138  1  0  0  0
 62139  1  0  0  0
 63 65  1  0  0  0
 63140  1  0  0  0
 63141  1  0  0  0
 63142  1  0  0  0
 64143  1  0  0  0
 65144  1  0  0  0
 68 77  1  0  0  0
 71 73  2  0  0  0
 71 75  1  0  0  0
 71145  1  0  0  0
 72 74  1  0  0  0
 72 75  2  0  0  0
 72146  1  0  0  0
 73 76  1  0  0  0
 73147  1  0  0  0
 74 76  2  0  0  0
 74148  1  0  0  0
 75 78  1  0  0  0
 76 83  1  0  0  0
 77 79  2  0  0  0
 77149  1  0  0  0
 78 84  1  0  0  0
 78 85  2  0  0  0
 79 80  1  0  0  0
 79 82  1  0  0  0
 80150  1  0  0  0
 80151  1  0  0  0
 80152  1  0  0  0
 81153  1  0  0  0
 81154  1  0  0  0
 81155  1  0  0  0
 81 82  1  0  0  0
 82 84  1  0  0  0
 82156  1  0  0  0
 83157  1  0  0  0
 84158  1  0  0  0
M  ISO  4   1 100  68 101  77 101  83 100
M  END
> <chiral flag>
0

> <version>
0

> <s_m_source_file>
/data/baiqing/PycharmProjects/Reinvent-master-3.2/result/LINK_invent/BTK/process_docking_weight1_custom_product_contain_oxygen_bond_distance_aromatic_linkinvent_7_9_3/rearranged_h_0084.sdf

> <i_m_source_file_index>
15

> <r_mmod_Potential_Energy-OPLS-2005>
-74.3631134033203

> <r_mmod_Stretch_Energy-OPLS-2005>
48.8970909118652

> <r_mmod_Bend_Energy-OPLS-2005>
118.689437866211

> <r_mmod_Torsional_Energy-OPLS-2005>
226.734924316406

> <r_mmod_Improper_Torsional_Energy-OPLS-2005>
4.3875846862793

> <r_mmod_Van_der_Waal_Energy-OPLS-2005>
151.83235168457

> <r_mmod_Electrostatic_Energy-OPLS-2005>
-426.149963378906

> <r_mmod_Solvation_Energy-OPLS-2005>
-218.260589599609

> <b_mmod_Minimization_Converged-OPLS-2005>
0

> <r_mmod_RMS_Derivative-OPLS-2005>
2.59779262542725

$$$$
15
                    3D
 Structure written by MMmdl.
165174  0  0  1  0            999 V2000
  -30.7339  -14.4789   20.6613 C   0  0  0  0  0  0
  -30.4133  -12.3400   19.4345 C   0  0  0  0  0  0
  -29.4983  -12.5347   18.2088 C   0  0  0  0  0  0
  -28.0198  -12.3716   18.6082 C   0  0  0  0  0  0
  -27.6528  -13.2133   19.8559 C   0  0  2  0  0  0
  -28.6787  -13.0156   20.9846 C   0  0  0  0  0  0
  -25.2576  -13.8175   20.5661 C   0  0  0  0  0  0
  -24.1839  -13.0445   20.9171 C   0  0  0  0  0  0
  -24.6387  -11.6916   20.8706 C   0  0  0  0  0  0
  -23.9063  -10.4297   21.0397 C   0  0  0  0  0  0
  -24.3629   -9.4216   21.9172 C   0  0  0  0  0  0
  -23.6309   -8.2251   22.0746 C   0  0  0  0  0  0
  -22.4286   -8.0283   21.3543 C   0  0  0  0  0  0
  -21.9924   -9.0245   20.4634 C   0  0  0  0  0  0
  -22.7242  -10.2124   20.3041 C   0  0  0  0  0  0
  -21.6854   -6.0743   22.5284 C   0  0  0  0  0  0
  -21.4014   -6.5645   23.8214 C   0  0  0  0  0  0
  -21.3666   -5.6798   24.9180 C   0  0  0  0  0  0
  -21.6051   -4.3061   24.7224 C   0  0  0  0  0  0
  -21.8829   -3.8154   23.4345 C   0  0  0  0  0  0
  -21.9201   -4.6974   22.3399 C   0  0  0  0  0  0
  -22.7863  -13.5231   21.1886 C   0  0  0  0  0  0
  -22.1668   -4.2160   21.0977 F   0  0  0  0  0  0
  -21.5621   -3.4544   25.7735 F   0  0  0  0  0  0
  -30.0241  -13.3242   20.4642 N   0  0  0  0  0  0
  -26.2970  -12.9343   20.3217 N   0  0  0  0  0  0
  -25.9294  -11.6499   20.5645 N   0  0  0  0  0  0
  -22.0518  -12.8172   22.0417 N   0  0  0  0  0  0
  -25.4353  -15.1895   20.4126 N   0  0  0  0  0  0
  -31.7943  -14.6966   20.0644 O   0  0  0  0  0  0
  -21.6646   -6.8881   21.4244 O   0  0  0  0  0  0
  -22.3527  -14.5544   20.6777 O   0  0  0  0  0  0
  -24.6192  -31.8624   23.2097 C   0  0  0  0  0  0
  -25.9077  -32.4784   23.8389 C   0  0  1  0  0  0
  -27.2316  -27.4102   20.1073 C   0  0  0  0  0  0
  -25.5912  -33.8592   24.2313 N   0  0  0  0  0  0
  -23.4085  -30.4861   21.5497 C   0  0  2  0  0  0
  -24.8556  -28.9467   20.1179 C   0  0  0  0  0  0
  -22.7424  -29.4628   22.4984 C   0  0  0  0  0  0
  -18.0265  -28.1375   22.8488 C   0  0  0  0  0  0
  -24.1491  -36.7310   23.2655 C   0  0  0  0  0  0
  -25.9392  -30.8233   21.3667 C   0  0  0  0  0  0
  -26.0178  -29.4553   20.7146 C   0  0  0  0  0  0
  -27.2124  -28.6948   20.7043 C   0  0  0  0  0  0
  -26.0573  -26.9215   19.5011 C   0  0  0  0  0  0
  -24.8703  -27.6791   19.5084 C   0  0  0  0  0  0
  -23.6200  -29.8178   20.1652 C   0  0  0  0  0  0
  -25.4106  -36.3099   24.0351 C   0  0  1  0  0  0
  -20.5856  -28.3670   23.1302 C   0  0  2  0  0  0
  -20.6752  -26.9402   22.5412 C   0  0  0  0  0  0
  -19.5743  -26.6382   21.5201 C   0  0  0  0  0  0
  -18.1915  -26.7923   22.1607 C   0  0  0  0  0  0
  -19.1515  -28.8840   23.2886 C   0  0  0  0  0  0
  -18.9452  -30.1446   23.8897 C   0  0  0  0  0  0
  -17.6454  -30.6587   24.0553 C   0  0  0  0  0  0
  -25.9031  -34.9462   23.5122 C   0  0  0  0  0  0
  -16.5342  -29.9085   23.6339 C   0  0  0  0  0  0
  -16.7255  -28.6506   23.0359 C   0  0  0  0  0  0
  -26.4491  -31.6575   25.0736 C   0  0  0  0  0  0
  -25.3773  -31.3651   26.1489 C   0  0  0  0  0  0
  -27.0357  -30.3028   24.6141 C   0  0  0  0  0  0
  -27.6050  -32.4324   25.7506 C   0  0  0  0  0  0
  -27.5574  -37.1801   24.8474 C   0  0  0  0  0  0
  -21.4145  -29.3029   22.3720 N   0  0  0  0  0  0
  -26.4286  -37.3786   23.9425 N   0  0  0  0  0  0
  -24.6736  -31.0733   22.0991 N   0  0  0  0  0  0
  -23.4183  -28.8175   23.3040 O   0  0  0  0  0  0
  -28.3734  -26.6353   20.0780 O   0  0  0  0  0  0
  -26.5584  -34.8929   22.4679 O   0  0  0  0  0  0
  -23.5387  -32.1357   23.7508 O   0  0  0  0  0  0
  -29.3493  -18.3633   19.2531 C   0  0  0  0  0  0
  -29.5353  -17.0571   19.7615 C   0  0  0  0  0  0
  -30.0526  -19.2862   21.3608 C   0  0  0  0  0  0
  -30.2771  -17.9797   21.8817 C   0  0  0  0  0  0
  -29.6217  -19.5028   20.0382 C   0  0  0  0  0  0
  -30.0227  -16.8138   21.0737 C   0  0  0  0  0  0
  -27.1875  -23.4022   20.5960 C   0  0  0  0  0  0
  -28.2984  -24.1512   20.6087 C   0  0  0  0  0  0
  -27.5389  -22.0540   20.1951 C   0  0  0  0  0  0
  -29.4016  -23.2654   20.2606 C   0  0  0  0  0  0
  -30.3618  -18.6824   24.2775 C   0  0  0  0  0  0
  -30.8127  -17.9374   23.2537 C   0  0  0  0  0  0
  -25.7651  -23.7987   20.9574 C   0  0  0  0  0  0
  -30.2298  -15.0652   22.9324 C   0  0  0  0  0  0
  -29.6051  -20.9094   19.3927 C   0  0  0  0  0  0
  -28.4616  -25.6081   21.0932 C   0  0  0  0  0  0
  -28.8730  -22.0367   20.0308 N   0  0  0  0  0  0
  -30.2132  -15.4221   21.5024 N   0  0  0  0  0  0
  -26.7720  -21.1055   20.0023 O   0  0  0  0  0  0
  -30.5962  -23.5621   20.1535 O   0  0  0  0  0  0
  -31.4612  -12.4312   19.1432 H   0  0  0  0  0  0
  -30.3067  -11.3279   19.8281 H   0  0  0  0  0  0
  -29.7555  -11.8225   17.4233 H   0  0  0  0  0  0
  -29.6592  -13.5288   17.7870 H   0  0  0  0  0  0
  -27.8422  -11.3146   18.8095 H   0  0  0  0  0  0
  -27.3727  -12.6358   17.7713 H   0  0  0  0  0  0
  -27.6936  -14.2595   19.5528 H   0  0  0  0  0  0
  -28.6535  -11.9917   21.3594 H   0  0  0  0  0  0
  -28.3692  -13.6428   21.8176 H   0  0  0  0  0  0
  -25.2768   -9.5692   22.4749 H   0  0  0  0  0  0
  -24.0022   -7.4641   22.7463 H   0  0  0  0  0  0
  -21.0862   -8.8758   19.8928 H   0  0  0  0  0  0
  -22.3706  -10.9668   19.6150 H   0  0  0  0  0  0
  -21.2000   -7.6151   23.9721 H   0  0  0  0  0  0
  -21.1479   -6.0521   25.9080 H   0  0  0  0  0  0
  -22.0600   -2.7617   23.2845 H   0  0  0  0  0  0
  -22.4121  -11.9784   22.4739 H   0  0  0  0  0  0
  -21.1135  -13.1162   22.2660 H   0  0  0  0  0  0
  -24.6837  -15.8575   20.5423 H   0  0  0  0  0  0
  -26.3001  -15.6238   20.1167 H   0  0  0  0  0  0
  -26.7159  -32.5512   23.1153 H   0  0  0  0  0  0
  -25.0086  -33.9746   25.0478 H   0  0  0  0  0  0
  -22.7004  -31.3053   21.4098 H   0  0  0  0  0  0
  -23.3760  -35.9639   23.3310 H   0  0  0  0  0  0
  -24.3592  -36.8931   22.2072 H   0  0  0  0  0  0
  -23.7249  -37.6521   23.6663 H   0  0  0  0  0  0
  -26.0617  -31.5909   20.6020 H   0  0  0  0  0  0
  -26.8227  -30.8699   21.9921 H   0  0  0  0  0  0
  -28.1121  -29.0815   21.1629 H   0  0  0  0  0  0
  -26.0621  -25.9481   19.0296 H   0  0  0  0  0  0
  -23.9774  -27.2830   19.0444 H   0  0  0  0  0  0
  -23.7316  -30.5919   19.4047 H   0  0  0  0  0  0
  -22.7433  -29.2395   19.8699 H   0  0  0  0  0  0
  -25.1286  -36.1936   25.0842 H   0  0  0  0  0  0
  -20.9916  -28.3239   24.1434 H   0  0  0  0  0  0
  -20.5651  -26.2279   23.3607 H   0  0  0  0  0  0
  -21.6624  -26.7445   22.1213 H   0  0  0  0  0  0
  -19.6912  -25.6297   21.1235 H   0  0  0  0  0  0
  -19.6681  -27.3193   20.6735 H   0  0  0  0  0  0
  -17.4172  -26.6676   21.4011 H   0  0  0  0  0  0
  -18.0303  -26.0061   22.8998 H   0  0  0  0  0  0
  -19.7935  -30.7244   24.2271 H   0  0  0  0  0  0
  -17.5023  -31.6268   24.5144 H   0  0  0  0  0  0
  -15.5346  -30.2974   23.7692 H   0  0  0  0  0  0
  -15.8655  -28.0824   22.7078 H   0  0  0  0  0  0
  -24.5981  -30.6942   25.7833 H   0  0  0  0  0  0
  -24.8928  -32.2790   26.4940 H   0  0  0  0  0  0
  -25.8160  -30.8840   27.0241 H   0  0  0  0  0  0
  -26.2904  -29.6734   24.1251 H   0  0  0  0  0  0
  -27.4191  -29.7308   25.4605 H   0  0  0  0  0  0
  -27.8708  -30.4363   23.9260 H   0  0  0  0  0  0
  -27.2641  -33.3627   26.2052 H   0  0  0  0  0  0
  -28.3851  -32.6852   25.0317 H   0  0  0  0  0  0
  -28.0704  -31.8465   26.5438 H   0  0  0  0  0  0
  -28.2571  -38.0110   24.7522 H   0  0  0  0  0  0
  -28.1071  -36.2636   24.6269 H   0  0  0  0  0  0
  -27.2292  -37.1430   25.8876 H   0  0  0  0  0  0
  -20.9321  -29.8745   21.6926 H   0  0  0  0  0  0
  -26.0169  -38.2864   24.1418 H   0  0  0  0  0  0
  -29.0261  -18.4808   18.2284 H   0  0  0  0  0  0
  -29.3150  -16.2302   19.1008 H   0  0  0  0  0  0
  -30.2905  -20.1496   21.9663 H   0  0  0  0  0  0
  -30.8173  -18.6176   25.2559 H   0  0  0  0  0  0
  -29.5315  -19.3656   24.1606 H   0  0  0  0  0  0
  -31.6585  -17.2903   23.4251 H   0  0  0  0  0  0
  -25.7098  -24.8089   21.3598 H   0  0  0  0  0  0
  -25.3618  -23.1160   21.7063 H   0  0  0  0  0  0
  -25.1270  -23.7448   20.0744 H   0  0  0  0  0  0
  -29.4783  -15.6253   23.4899 H   0  0  0  0  0  0
  -31.2143  -15.2406   23.3622 H   0  0  0  0  0  0
  -30.0331  -14.0111   23.1259 H   0  0  0  0  0  0
  -29.2202  -20.8232   18.3753 H   0  0  0  0  0  0
  -30.6536  -21.1813   19.2628 H   0  0  0  0  0  0
  -29.4410  -25.7010   21.5629 H   0  0  0  0  0  0
  -27.7499  -25.7967   21.8990 H   0  0  0  0  0  0
  1 25  1  0  0  0
  1 30  2  0  0  0
  1 88  1  0  0  0
  2  3  1  0  0  0
  2 25  1  0  0  0
  2 91  1  0  0  0
  2 92  1  0  0  0
  3  4  1  0  0  0
  3 93  1  0  0  0
  3 94  1  0  0  0
  4  5  1  0  0  0
  4 95  1  0  0  0
  4 96  1  0  0  0
  5  6  1  0  0  0
  5 26  1  0  0  0
  5 97  1  0  0  0
  6 25  1  0  0  0
  6 98  1  0  0  0
  6 99  1  0  0  0
  7  8  2  0  0  0
  7 26  1  0  0  0
  7 29  1  0  0  0
  8  9  1  0  0  0
  8 22  1  0  0  0
  9 10  1  0  0  0
  9 27  2  0  0  0
 10 11  2  0  0  0
 10 15  1  0  0  0
 11 12  1  0  0  0
 11100  1  0  0  0
 12 13  2  0  0  0
 12101  1  0  0  0
 13 14  1  0  0  0
 13 31  1  0  0  0
 14 15  2  0  0  0
 14102  1  0  0  0
 15103  1  0  0  0
 16 17  2  0  0  0
 16 21  1  0  0  0
 16 31  1  0  0  0
 17 18  1  0  0  0
 17104  1  0  0  0
 18 19  2  0  0  0
 18105  1  0  0  0
 19 20  1  0  0  0
 19 24  1  0  0  0
 20 21  2  0  0  0
 20106  1  0  0  0
 21 23  1  0  0  0
 22 28  1  0  0  0
 22 32  2  0  0  0
 26 27  1  0  0  0
 28107  1  0  0  0
 28108  1  0  0  0
 29109  1  0  0  0
 29110  1  0  0  0
 33 34  1  0  0  0
 33 66  1  0  0  0
 33 70  2  0  0  0
 34 36  1  0  0  0
 34 59  1  0  0  0
 34111  1  0  0  0
 35 44  2  0  0  0
 35 45  1  0  0  0
 35 68  1  0  0  0
 36 56  1  0  0  0
 36112  1  0  0  0
 37 39  1  0  0  0
 37 47  1  0  0  0
 37 66  1  0  0  0
 37113  1  0  0  0
 38 43  2  0  0  0
 38 46  1  0  0  0
 38 47  1  0  0  0
 39 64  1  0  0  0
 39 67  2  0  0  0
 40 52  1  0  0  0
 40 53  2  0  0  0
 40 58  1  0  0  0
 41114  1  0  0  0
 41115  1  0  0  0
 41116  1  0  0  0
 41 48  1  0  0  0
 42 43  1  0  0  0
 42 66  1  0  0  0
 42117  1  0  0  0
 42118  1  0  0  0
 43 44  1  0  0  0
 44119  1  0  0  0
 45 46  2  0  0  0
 45120  1  0  0  0
 46121  1  0  0  0
 47122  1  0  0  0
 47123  1  0  0  0
 48 56  1  0  0  0
 48 65  1  0  0  0
 48124  1  0  0  0
 49 50  1  0  0  0
 49 53  1  0  0  0
 49 64  1  0  0  0
 49125  1  0  0  0
 50 51  1  0  0  0
 50126  1  0  0  0
 50127  1  0  0  0
 51 52  1  0  0  0
 51128  1  0  0  0
 51129  1  0  0  0
 52130  1  0  0  0
 52131  1  0  0  0
 53 54  1  0  0  0
 54 55  2  0  0  0
 54132  1  0  0  0
 55 57  1  0  0  0
 55133  1  0  0  0
 56 69  2  0  0  0
 57 58  2  0  0  0
 57134  1  0  0  0
 58135  1  0  0  0
 59 60  1  0  0  0
 59 61  1  0  0  0
 59 62  1  0  0  0
 60136  1  0  0  0
 60137  1  0  0  0
 60138  1  0  0  0
 61139  1  0  0  0
 61140  1  0  0  0
 61141  1  0  0  0
 62142  1  0  0  0
 62143  1  0  0  0
 62144  1  0  0  0
 63 65  1  0  0  0
 63145  1  0  0  0
 63146  1  0  0  0
 63147  1  0  0  0
 64148  1  0  0  0
 65149  1  0  0  0
 68 86  1  0  0  0
 71 72  2  0  0  0
 71 75  1  0  0  0
 71150  1  0  0  0
 72 76  1  0  0  0
 72151  1  0  0  0
 73 74  1  0  0  0
 73 75  2  0  0  0
 73152  1  0  0  0
 74 76  2  0  0  0
 74 82  1  0  0  0
 75 85  1  0  0  0
 76 88  1  0  0  0
 77 78  2  0  0  0
 77 79  1  0  0  0
 77 83  1  0  0  0
 78 80  1  0  0  0
 78 86  1  0  0  0
 79 87  1  0  0  0
 79 89  2  0  0  0
 80 87  1  0  0  0
 80 90  2  0  0  0
 81 82  2  0  0  0
 81153  1  0  0  0
 81154  1  0  0  0
 82155  1  0  0  0
 83156  1  0  0  0
 83157  1  0  0  0
 83158  1  0  0  0
 84 88  1  0  0  0
 84159  1  0  0  0
 84160  1  0  0  0
 84161  1  0  0  0
 85 87  1  0  0  0
 85162  1  0  0  0
 85163  1  0  0  0
 86164  1  0  0  0
 86165  1  0  0  0
M  ISO  4   1 100  68 101  86 101  88 100
M  END
> <chiral flag>
0

> <version>
0

> <s_m_source_file>
/data/baiqing/PycharmProjects/Reinvent-master-3.2/result/LINK_invent/BTK/process_docking_weight1_custom_product_contain_oxygen_bond_distance_aromatic_linkinvent_7_9_3/rearranged_h_0084.sdf

> <i_m_source_file_index>
16

> <r_mmod_Potential_Energy-OPLS-2005>
127.566856384277

> <r_mmod_Stretch_Energy-OPLS-2005>
56.0722236633301

> <r_mmod_Bend_Energy-OPLS-2005>
160.101058959961

> <r_mmod_Torsional_Energy-OPLS-2005>
316.561126708984

> <r_mmod_Improper_Torsional_Energy-OPLS-2005>
4.28645610809326

> <r_mmod_Van_der_Waal_Energy-OPLS-2005>
149.54801940918

> <r_mmod_Electrostatic_Energy-OPLS-2005>
-359.51416015625

> <r_mmod_Solvation_Energy-OPLS-2005>
-213.876846313477

> <b_mmod_Minimization_Converged-OPLS-2005>
0

> <r_mmod_RMS_Derivative-OPLS-2005>
2.25689268112183

$$$$
16
                    3D
 Structure written by MMmdl.
151160  0  0  1  0            999 V2000
  -30.6711  -14.6336   20.4173 C   0  0  0  0  0  0
  -30.4078  -12.3694   19.4717 C   0  0  0  0  0  0
  -29.5025  -12.4856   18.2265 C   0  0  0  0  0  0
  -28.0229  -12.3376   18.6296 C   0  0  0  0  0  0
  -27.6378  -13.2323   19.8395 C   0  0  2  0  0  0
  -28.6787  -13.1505   20.9756 C   0  0  0  0  0  0
  -25.2477  -13.8209   20.5669 C   0  0  0  0  0  0
  -24.1774  -13.0448   20.9190 C   0  0  0  0  0  0
  -24.6366  -11.6932   20.8719 C   0  0  0  0  0  0
  -23.9053  -10.4309   21.0394 C   0  0  0  0  0  0
  -24.3615   -9.4228   21.9168 C   0  0  0  0  0  0
  -23.6315   -8.2242   22.0743 C   0  0  0  0  0  0
  -22.4290   -8.0269   21.3545 C   0  0  0  0  0  0
  -21.9910   -9.0236   20.4641 C   0  0  0  0  0  0
  -22.7221  -10.2127   20.3053 C   0  0  0  0  0  0
  -21.6860   -6.0737   22.5285 C   0  0  0  0  0  0
  -21.4010   -6.5636   23.8222 C   0  0  0  0  0  0
  -21.3666   -5.6783   24.9182 C   0  0  0  0  0  0
  -21.6047   -4.3049   24.7226 C   0  0  0  0  0  0
  -21.8813   -3.8146   23.4348 C   0  0  0  0  0  0
  -21.9189   -4.6965   22.3408 C   0  0  0  0  0  0
  -22.7797  -13.5218   21.1873 C   0  0  0  0  0  0
  -22.1657   -4.2147   21.0988 F   0  0  0  0  0  0
  -21.5643   -3.4531   25.7749 F   0  0  0  0  0  0
  -30.0009  -13.4376   20.4099 N   0  0  0  0  0  0
  -26.2904  -12.9420   20.3214 N   0  0  0  0  0  0
  -25.9285  -11.6566   20.5690 N   0  0  0  0  0  0
  -22.0432  -12.8234   22.0442 N   0  0  0  0  0  0
  -25.4175  -15.1935   20.4128 N   0  0  0  0  0  0
  -31.8752  -14.6498   20.1490 O   0  0  0  0  0  0
  -21.6649   -6.8870   21.4250 O   0  0  0  0  0  0
  -22.3492  -14.5527   20.6722 O   0  0  0  0  0  0
  -24.6230  -31.8620   23.2047 C   0  0  0  0  0  0
  -25.9092  -32.4781   23.8369 C   0  0  1  0  0  0
  -27.2163  -27.3454   20.1125 C   0  0  0  0  0  0
  -25.5912  -33.8582   24.2277 N   0  0  0  0  0  0
  -23.4150  -30.4858   21.5480 C   0  0  2  0  0  0
  -24.8611  -28.9436   20.1111 C   0  0  0  0  0  0
  -22.7446  -29.4632   22.4963 C   0  0  0  0  0  0
  -18.0264  -28.1380   22.8486 C   0  0  0  0  0  0
  -24.1489  -36.7312   23.2637 C   0  0  0  0  0  0
  -25.9538  -30.7993   21.3724 C   0  0  0  0  0  0
  -26.0294  -29.4280   20.7152 C   0  0  0  0  0  0
  -27.2154  -28.6397   20.7083 C   0  0  0  0  0  0
  -26.0316  -26.9014   19.4922 C   0  0  0  0  0  0
  -24.8616  -27.6836   19.4908 C   0  0  0  0  0  0
  -23.6274  -29.8215   20.1623 C   0  0  0  0  0  0
  -25.4107  -36.3084   24.0327 C   0  0  1  0  0  0
  -20.5856  -28.3685   23.1295 C   0  0  2  0  0  0
  -20.6752  -26.9418   22.5415 C   0  0  0  0  0  0
  -19.5741  -26.6381   21.5215 C   0  0  0  0  0  0
  -18.1914  -26.7928   22.1616 C   0  0  0  0  0  0
  -19.1512  -28.8848   23.2881 C   0  0  0  0  0  0
  -18.9442  -30.1448   23.8892 C   0  0  0  0  0  0
  -17.6451  -30.6592   24.0549 C   0  0  0  0  0  0
  -25.9053  -34.9456   23.5105 C   0  0  0  0  0  0
  -16.5339  -29.9091   23.6327 C   0  0  0  0  0  0
  -16.7251  -28.6501   23.0357 C   0  0  0  0  0  0
  -26.4492  -31.6579   25.0729 C   0  0  0  0  0  0
  -25.3739  -31.3726   26.1472 C   0  0  0  0  0  0
  -27.0307  -30.2984   24.6184 C   0  0  0  0  0  0
  -27.6064  -32.4316   25.7476 C   0  0  0  0  0  0
  -27.5591  -37.1783   24.8434 C   0  0  0  0  0  0
  -21.4164  -29.3041   22.3700 N   0  0  0  0  0  0
  -26.4273  -37.3789   23.9425 N   0  0  0  0  0  0
  -24.6825  -31.0652   22.0985 N   0  0  0  0  0  0
  -23.4178  -28.8169   23.3032 O   0  0  0  0  0  0
  -28.3039  -26.4742   20.1203 O   0  0  0  0  0  0
  -26.5635  -34.8921   22.4677 O   0  0  0  0  0  0
  -23.5406  -32.1409   23.7401 O   0  0  0  0  0  0
  -29.3999  -19.4803   20.3305 C   0  0  0  0  0  0
  -30.1627  -18.8766   18.2094 C   0  0  0  0  0  0
  -29.9393  -18.4234   19.4834 C   0  0  0  0  0  0
  -29.3191  -20.7320   19.7008 C   0  0  0  0  0  0
  -28.4804  -24.0037   20.5667 C   0  0  0  0  0  0
  -28.4052  -22.8165   21.2154 C   0  0  0  0  0  0
  -27.9723  -22.4859   22.4410 C   0  0  0  0  0  0
  -30.3364  -16.9784   19.7399 C   0  0  0  0  0  0
  -28.1457  -25.3013   20.8711 C   0  0  0  0  0  0
  -29.8984  -15.9147   20.4915 C   0  0  0  0  0  0
  -29.0804  -23.2894   19.3671 C   0  0  0  0  0  0
  -28.9256  -22.0557   20.1728 N   0  0  0  0  0  0
  -29.8110  -20.5713   18.0285 S   0  0  0  0  0  0
  -31.4571  -12.4364   19.1802 H   0  0  0  0  0  0
  -30.2929  -11.3895   19.9368 H   0  0  0  0  0  0
  -29.7680  -11.7224   17.4932 H   0  0  0  0  0  0
  -29.6570  -13.4509   17.7399 H   0  0  0  0  0  0
  -27.8525  -11.2883   18.8743 H   0  0  0  0  0  0
  -27.3743  -12.5554   17.7806 H   0  0  0  0  0  0
  -27.6366  -14.2567   19.4689 H   0  0  0  0  0  0
  -28.6719  -12.1612   21.4333 H   0  0  0  0  0  0
  -28.4322  -13.8538   21.7710 H   0  0  0  0  0  0
  -25.2754   -9.5736   22.4737 H   0  0  0  0  0  0
  -24.0045   -7.4639   22.7455 H   0  0  0  0  0  0
  -21.0837   -8.8743   19.8952 H   0  0  0  0  0  0
  -22.3655  -10.9666   19.6166 H   0  0  0  0  0  0
  -21.1990   -7.6146   23.9734 H   0  0  0  0  0  0
  -21.1498   -6.0509   25.9093 H   0  0  0  0  0  0
  -22.0585   -2.7610   23.2832 H   0  0  0  0  0  0
  -22.4048  -11.9914   22.4885 H   0  0  0  0  0  0
  -21.1047  -13.1272   22.2605 H   0  0  0  0  0  0
  -24.6503  -15.8463   20.5343 H   0  0  0  0  0  0
  -26.2736  -15.6422   20.1117 H   0  0  0  0  0  0
  -26.7159  -32.5458   23.1120 H   0  0  0  0  0  0
  -24.9966  -33.9728   25.0354 H   0  0  0  0  0  0
  -22.7069  -31.3054   21.4077 H   0  0  0  0  0  0
  -23.3738  -35.9657   23.3296 H   0  0  0  0  0  0
  -24.3579  -36.8934   22.2049 H   0  0  0  0  0  0
  -23.7264  -37.6526   23.6657 H   0  0  0  0  0  0
  -26.0820  -31.5651   20.6062 H   0  0  0  0  0  0
  -26.8346  -30.8453   22.0009 H   0  0  0  0  0  0
  -28.1143  -29.0057   21.1845 H   0  0  0  0  0  0
  -26.0104  -25.9284   19.0223 H   0  0  0  0  0  0
  -23.9658  -27.3065   19.0163 H   0  0  0  0  0  0
  -23.7404  -30.5986   19.4052 H   0  0  0  0  0  0
  -22.7477  -29.2485   19.8648 H   0  0  0  0  0  0
  -25.1285  -36.1926   25.0817 H   0  0  0  0  0  0
  -20.9935  -28.3256   24.1424 H   0  0  0  0  0  0
  -20.5648  -26.2309   23.3612 H   0  0  0  0  0  0
  -21.6623  -26.7447   22.1224 H   0  0  0  0  0  0
  -19.6909  -25.6293   21.1251 H   0  0  0  0  0  0
  -19.6689  -27.3169   20.6734 H   0  0  0  0  0  0
  -17.4199  -26.6667   21.4006 H   0  0  0  0  0  0
  -18.0307  -26.0059   22.8999 H   0  0  0  0  0  0
  -19.7929  -30.7249   24.2269 H   0  0  0  0  0  0
  -17.5015  -31.6281   24.5143 H   0  0  0  0  0  0
  -15.5339  -30.2995   23.7663 H   0  0  0  0  0  0
  -15.8643  -28.0817   22.7090 H   0  0  0  0  0  0
  -24.5852  -30.7159   25.7787 H   0  0  0  0  0  0
  -24.9019  -32.2906   26.4982 H   0  0  0  0  0  0
  -25.8059  -30.8808   27.0194 H   0  0  0  0  0  0
  -26.2864  -29.6744   24.1221 H   0  0  0  0  0  0
  -27.3985  -29.7236   25.4697 H   0  0  0  0  0  0
  -27.8752  -30.4235   23.9402 H   0  0  0  0  0  0
  -27.2664  -33.3582   26.2112 H   0  0  0  0  0  0
  -28.3823  -32.6943   25.0272 H   0  0  0  0  0  0
  -28.0795  -31.8419   26.5336 H   0  0  0  0  0  0
  -28.2545  -38.0144   24.7579 H   0  0  0  0  0  0
  -28.1148  -36.2687   24.6115 H   0  0  0  0  0  0
  -27.2338  -37.1259   25.8838 H   0  0  0  0  0  0
  -20.9343  -29.8783   21.6926 H   0  0  0  0  0  0
  -26.0152  -38.2848   24.1487 H   0  0  0  0  0  0
  -29.1535  -19.3020   21.3677 H   0  0  0  0  0  0
  -30.5421  -18.3264   17.3574 H   0  0  0  0  0  0
  -27.5941  -23.2273   23.1295 H   0  0  0  0  0  0
  -27.9903  -21.4592   22.7769 H   0  0  0  0  0  0
  -31.2218  -16.7579   19.1568 H   0  0  0  0  0  0
  -27.7018  -25.5289   21.8318 H   0  0  0  0  0  0
  -29.0208  -16.0019   21.1137 H   0  0  0  0  0  0
  -30.1256  -23.5006   19.1332 H   0  0  0  0  0  0
  -28.4850  -23.2600   18.4527 H   0  0  0  0  0  0
  1 25  1  0  0  0
  1 30  2  0  0  0
  1 80  1  0  0  0
  2  3  1  0  0  0
  2 25  1  0  0  0
  2 84  1  0  0  0
  2 85  1  0  0  0
  3  4  1  0  0  0
  3 86  1  0  0  0
  3 87  1  0  0  0
  4  5  1  0  0  0
  4 88  1  0  0  0
  4 89  1  0  0  0
  5  6  1  0  0  0
  5 26  1  0  0  0
  5 90  1  0  0  0
  6 25  1  0  0  0
  6 91  1  0  0  0
  6 92  1  0  0  0
  7  8  2  0  0  0
  7 26  1  0  0  0
  7 29  1  0  0  0
  8  9  1  0  0  0
  8 22  1  0  0  0
  9 10  1  0  0  0
  9 27  2  0  0  0
 10 11  2  0  0  0
 10 15  1  0  0  0
 11 12  1  0  0  0
 11 93  1  0  0  0
 12 13  2  0  0  0
 12 94  1  0  0  0
 13 14  1  0  0  0
 13 31  1  0  0  0
 14 15  2  0  0  0
 14 95  1  0  0  0
 15 96  1  0  0  0
 16 17  2  0  0  0
 16 21  1  0  0  0
 16 31  1  0  0  0
 17 18  1  0  0  0
 17 97  1  0  0  0
 18 19  2  0  0  0
 18 98  1  0  0  0
 19 20  1  0  0  0
 19 24  1  0  0  0
 20 21  2  0  0  0
 20 99  1  0  0  0
 21 23  1  0  0  0
 22 28  1  0  0  0
 22 32  2  0  0  0
 26 27  1  0  0  0
 28100  1  0  0  0
 28101  1  0  0  0
 29102  1  0  0  0
 29103  1  0  0  0
 33 34  1  0  0  0
 33 66  1  0  0  0
 33 70  2  0  0  0
 34 36  1  0  0  0
 34 59  1  0  0  0
 34104  1  0  0  0
 35 44  2  0  0  0
 35 45  1  0  0  0
 35 68  1  0  0  0
 36 56  1  0  0  0
 36105  1  0  0  0
 37 39  1  0  0  0
 37 47  1  0  0  0
 37 66  1  0  0  0
 37106  1  0  0  0
 38 43  2  0  0  0
 38 46  1  0  0  0
 38 47  1  0  0  0
 39 64  1  0  0  0
 39 67  2  0  0  0
 40 52  1  0  0  0
 40 53  2  0  0  0
 40 58  1  0  0  0
 41107  1  0  0  0
 41108  1  0  0  0
 41109  1  0  0  0
 41 48  1  0  0  0
 42 43  1  0  0  0
 42 66  1  0  0  0
 42110  1  0  0  0
 42111  1  0  0  0
 43 44  1  0  0  0
 44112  1  0  0  0
 45 46  2  0  0  0
 45113  1  0  0  0
 46114  1  0  0  0
 47115  1  0  0  0
 47116  1  0  0  0
 48 56  1  0  0  0
 48 65  1  0  0  0
 48117  1  0  0  0
 49 50  1  0  0  0
 49 53  1  0  0  0
 49 64  1  0  0  0
 49118  1  0  0  0
 50 51  1  0  0  0
 50119  1  0  0  0
 50120  1  0  0  0
 51 52  1  0  0  0
 51121  1  0  0  0
 51122  1  0  0  0
 52123  1  0  0  0
 52124  1  0  0  0
 53 54  1  0  0  0
 54 55  2  0  0  0
 54125  1  0  0  0
 55 57  1  0  0  0
 55126  1  0  0  0
 56 69  2  0  0  0
 57 58  2  0  0  0
 57127  1  0  0  0
 58128  1  0  0  0
 59 60  1  0  0  0
 59 61  1  0  0  0
 59 62  1  0  0  0
 60129  1  0  0  0
 60130  1  0  0  0
 60131  1  0  0  0
 61132  1  0  0  0
 61133  1  0  0  0
 61134  1  0  0  0
 62135  1  0  0  0
 62136  1  0  0  0
 62137  1  0  0  0
 63 65  1  0  0  0
 63138  1  0  0  0
 63139  1  0  0  0
 63140  1  0  0  0
 64141  1  0  0  0
 65142  1  0  0  0
 68 79  1  0  0  0
 71 73  1  0  0  0
 71 74  2  0  0  0
 71143  1  0  0  0
 72 73  2  0  0  0
 72 83  1  0  0  0
 72144  1  0  0  0
 73 78  1  0  0  0
 74 82  1  0  0  0
 74 83  1  0  0  0
 75 76  1  0  0  0
 75 79  2  0  0  0
 75 81  1  0  0  0
 76 77  2  0  0  0
 76 82  1  0  0  0
 77145  1  0  0  0
 77146  1  0  0  0
 78 80  2  0  0  0
 78147  1  0  0  0
 79148  1  0  0  0
 80149  1  0  0  0
 81 82  1  0  0  0
 81150  1  0  0  0
 81151  1  0  0  0
M  ISO  4   1 100  68 101  79 101  80 100
M  END
> <chiral flag>
0

> <version>
0

> <s_m_source_file>
/data/baiqing/PycharmProjects/Reinvent-master-3.2/result/LINK_invent/BTK/process_docking_weight1_custom_product_contain_oxygen_bond_distance_aromatic_linkinvent_7_9_3/rearranged_h_0084.sdf

> <i_m_source_file_index>
17

> <r_mmod_Potential_Energy-OPLS-2005>
110.926277160645

> <r_mmod_Stretch_Energy-OPLS-2005>
64.6676712036133

> <r_mmod_Bend_Energy-OPLS-2005>
200.574081420898

> <r_mmod_Torsional_Energy-OPLS-2005>
222.702041625977

> <r_mmod_Improper_Torsional_Energy-OPLS-2005>
5.6722297668457

> <r_mmod_Van_der_Waal_Energy-OPLS-2005>
121.639495849609

> <r_mmod_Electrostatic_Energy-OPLS-2005>
-358.137725830078

> <r_mmod_Solvation_Energy-OPLS-2005>
-197.511795043945

> <b_mmod_Minimization_Converged-OPLS-2005>
0

> <r_mmod_RMS_Derivative-OPLS-2005>
2.31022572517395

$$$$
17
                    3D
 Structure written by MMmdl.
149158  0  0  1  0            999 V2000
  -30.5740  -14.7508   20.4693 C   0  0  0  0  0  0
  -30.4506  -12.4588   19.4657 C   0  0  0  0  0  0
  -29.5165  -12.5143   18.2341 C   0  0  0  0  0  0
  -28.0419  -12.3314   18.6477 C   0  0  0  0  0  0
  -27.6485  -13.2211   19.8559 C   0  0  2  0  0  0
  -28.6960  -13.1241   20.9884 C   0  0  0  0  0  0
  -25.2539  -13.8158   20.5679 C   0  0  0  0  0  0
  -24.1822  -13.0423   20.9209 C   0  0  0  0  0  0
  -24.6400  -11.6899   20.8750 C   0  0  0  0  0  0
  -23.9069  -10.4284   21.0411 C   0  0  0  0  0  0
  -24.3618   -9.4199   21.9188 C   0  0  0  0  0  0
  -23.6291   -8.2236   22.0756 C   0  0  0  0  0  0
  -22.4274   -8.0277   21.3545 C   0  0  0  0  0  0
  -21.9911   -9.0252   20.4648 C   0  0  0  0  0  0
  -22.7242  -10.2131   20.3059 C   0  0  0  0  0  0
  -21.6851   -6.0734   22.5279 C   0  0  0  0  0  0
  -21.4013   -6.5639   23.8212 C   0  0  0  0  0  0
  -21.3659   -5.6792   24.9174 C   0  0  0  0  0  0
  -21.6044   -4.3054   24.7225 C   0  0  0  0  0  0
  -21.8819   -3.8146   23.4346 C   0  0  0  0  0  0
  -21.9192   -4.6962   22.3402 C   0  0  0  0  0  0
  -22.7844  -13.5218   21.1865 C   0  0  0  0  0  0
  -22.1661   -4.2148   21.0980 F   0  0  0  0  0  0
  -21.5629   -3.4538   25.7739 F   0  0  0  0  0  0
  -30.0001  -13.4984   20.4176 N   0  0  0  0  0  0
  -26.2969  -12.9349   20.3289 N   0  0  0  0  0  0
  -25.9329  -11.6504   20.5754 N   0  0  0  0  0  0
  -22.0483  -12.8214   22.0421 N   0  0  0  0  0  0
  -25.4218  -15.1876   20.4051 N   0  0  0  0  0  0
  -31.7526  -14.9133   20.1371 O   0  0  0  0  0  0
  -21.6636   -6.8876   21.4241 O   0  0  0  0  0  0
  -22.3533  -14.5525   20.6709 O   0  0  0  0  0  0
  -24.6337  -31.8549   23.1986 C   0  0  0  0  0  0
  -25.9156  -32.4753   23.8334 C   0  0  1  0  0  0
  -27.2260  -27.2543   20.1117 C   0  0  0  0  0  0
  -25.5944  -33.8555   24.2254 N   0  0  0  0  0  0
  -23.4307  -30.4797   21.5433 C   0  0  2  0  0  0
  -24.8773  -28.9302   20.1106 C   0  0  0  0  0  0
  -22.7516  -29.4605   22.4908 C   0  0  0  0  0  0
  -18.0295  -28.1389   22.8483 C   0  0  0  0  0  0
  -24.1490  -36.7281   23.2639 C   0  0  0  0  0  0
  -25.9800  -30.7651   21.3805 C   0  0  0  0  0  0
  -26.0531  -29.3889   20.7176 C   0  0  0  0  0  0
  -27.2276  -28.5641   20.7084 C   0  0  0  0  0  0
  -26.0092  -26.8626   19.4989 C   0  0  0  0  0  0
  -24.8609  -27.6740   19.4930 C   0  0  0  0  0  0
  -23.6493  -29.8182   20.1588 C   0  0  0  0  0  0
  -25.4118  -36.3068   24.0324 C   0  0  1  0  0  0
  -20.5902  -28.3706   23.1261 C   0  0  2  0  0  0
  -20.6784  -26.9421   22.5404 C   0  0  0  0  0  0
  -19.5755  -26.6385   21.5211 C   0  0  0  0  0  0
  -18.1937  -26.7930   22.1626 C   0  0  0  0  0  0
  -19.1549  -28.8863   23.2867 C   0  0  0  0  0  0
  -18.9469  -30.1463   23.8887 C   0  0  0  0  0  0
  -17.6467  -30.6589   24.0562 C   0  0  0  0  0  0
  -25.9061  -34.9439   23.5091 C   0  0  0  0  0  0
  -16.5358  -29.9084   23.6333 C   0  0  0  0  0  0
  -16.7281  -28.6502   23.0354 C   0  0  0  0  0  0
  -26.4511  -31.6582   25.0731 C   0  0  0  0  0  0
  -25.3724  -31.3738   26.1443 C   0  0  0  0  0  0
  -27.0363  -30.2995   24.6234 C   0  0  0  0  0  0
  -27.6058  -32.4328   25.7509 C   0  0  0  0  0  0
  -27.5579  -37.1797   24.8465 C   0  0  0  0  0  0
  -21.4221  -29.3051   22.3650 N   0  0  0  0  0  0
  -26.4290  -37.3769   23.9408 N   0  0  0  0  0  0
  -24.7009  -31.0507   22.0969 N   0  0  0  0  0  0
  -23.4209  -28.8139   23.3006 O   0  0  0  0  0  0
  -28.3164  -26.3407   20.1783 O   0  0  0  0  0  0
  -26.5633  -34.8915   22.4660 O   0  0  0  0  0  0
  -23.5483  -32.1375   23.7273 O   0  0  0  0  0  0
  -28.3545  -19.3300   19.9913 C   0  0  0  0  0  0
  -30.5668  -19.6337   20.7255 C   0  0  0  0  0  0
  -28.5010  -17.9112   20.1167 C   0  0  0  0  0  0
  -30.7469  -18.2015   20.8233 C   0  0  0  0  0  0
  -29.3636  -20.2939   20.2959 C   0  0  0  0  0  0
  -29.7042  -17.2759   20.5266 C   0  0  0  0  0  0
  -28.6488  -23.7647   19.8539 C   0  0  0  0  0  0
  -28.4603  -22.5188   19.1304 C   0  0  0  0  0  0
  -29.3401  -22.9801   20.8743 C   0  0  0  0  0  0
  -28.2379  -25.0630   19.5412 C   0  0  0  0  0  0
  -29.1311  -21.7616   20.1292 N   0  0  0  0  0  0
  -29.7050  -15.8007   20.7201 N   0  0  0  0  0  0
  -27.9000  -22.2909   18.0756 O   0  0  0  0  0  0
  -29.8478  -23.3033   21.9306 O   0  0  0  0  0  0
  -31.4871  -12.6099   19.1590 H   0  0  0  0  0  0
  -30.4166  -11.4739   19.9340 H   0  0  0  0  0  0
  -29.7994  -11.7480   17.5112 H   0  0  0  0  0  0
  -29.6368  -13.4724   17.7258 H   0  0  0  0  0  0
  -27.8998  -11.2808   18.9035 H   0  0  0  0  0  0
  -27.3835  -12.5292   17.8011 H   0  0  0  0  0  0
  -27.6488  -14.2464   19.4862 H   0  0  0  0  0  0
  -28.7344  -12.1114   21.3927 H   0  0  0  0  0  0
  -28.4265  -13.7698   21.8258 H   0  0  0  0  0  0
  -25.2763   -9.5673   22.4762 H   0  0  0  0  0  0
  -23.9998   -7.4627   22.7474 H   0  0  0  0  0  0
  -21.0841   -8.8774   19.8952 H   0  0  0  0  0  0
  -22.3702  -10.9671   19.6168 H   0  0  0  0  0  0
  -21.2005   -7.6147   23.9715 H   0  0  0  0  0  0
  -21.1481   -6.0522   25.9078 H   0  0  0  0  0  0
  -22.0599   -2.7608   23.2847 H   0  0  0  0  0  0
  -22.4096  -11.9876   22.4812 H   0  0  0  0  0  0
  -21.1101  -13.1243   22.2624 H   0  0  0  0  0  0
  -24.6449  -15.8332   20.4974 H   0  0  0  0  0  0
  -26.2473  -15.6169   20.0115 H   0  0  0  0  0  0
  -26.7223  -32.5398   23.1075 H   0  0  0  0  0  0
  -25.0085  -33.9690   25.0395 H   0  0  0  0  0  0
  -22.7278  -31.3028   21.3986 H   0  0  0  0  0  0
  -23.3755  -35.9611   23.3296 H   0  0  0  0  0  0
  -24.3580  -36.8912   22.2055 H   0  0  0  0  0  0
  -23.7241  -37.6478   23.6670 H   0  0  0  0  0  0
  -26.1229  -31.5281   20.6140 H   0  0  0  0  0  0
  -26.8558  -30.8104   22.0163 H   0  0  0  0  0  0
  -28.1265  -28.9115   21.1980 H   0  0  0  0  0  0
  -25.8875  -25.8929   19.0430 H   0  0  0  0  0  0
  -23.9563  -27.3098   19.0253 H   0  0  0  0  0  0
  -23.7762  -30.5966   19.4055 H   0  0  0  0  0  0
  -22.7667  -29.2545   19.8510 H   0  0  0  0  0  0
  -25.1300  -36.1911   25.0817 H   0  0  0  0  0  0
  -20.9994  -28.3284   24.1382 H   0  0  0  0  0  0
  -20.5686  -26.2315   23.3611 H   0  0  0  0  0  0
  -21.6651  -26.7443   22.1196 H   0  0  0  0  0  0
  -19.6919  -25.6292   21.1246 H   0  0  0  0  0  0
  -19.6691  -27.3190   20.6736 H   0  0  0  0  0  0
  -17.4206  -26.6674   21.4031 H   0  0  0  0  0  0
  -18.0342  -26.0075   22.9025 H   0  0  0  0  0  0
  -19.7944  -30.7283   24.2252 H   0  0  0  0  0  0
  -17.5020  -31.6268   24.5165 H   0  0  0  0  0  0
  -15.5358  -30.2983   23.7663 H   0  0  0  0  0  0
  -15.8681  -28.0818   22.7075 H   0  0  0  0  0  0
  -24.5904  -30.7082   25.7767 H   0  0  0  0  0  0
  -24.8910  -32.2909   26.4847 H   0  0  0  0  0  0
  -25.8032  -30.8927   27.0233 H   0  0  0  0  0  0
  -26.2957  -29.6736   24.1241 H   0  0  0  0  0  0
  -27.4018  -29.7265   25.4766 H   0  0  0  0  0  0
  -27.8847  -30.4261   23.9504 H   0  0  0  0  0  0
  -27.2660  -33.3635   26.2065 H   0  0  0  0  0  0
  -28.3881  -32.6878   25.0348 H   0  0  0  0  0  0
  -28.0711  -31.8468   26.5444 H   0  0  0  0  0  0
  -28.2592  -38.0099   24.7515 H   0  0  0  0  0  0
  -28.1080  -36.2629   24.6288 H   0  0  0  0  0  0
  -27.2296  -37.1441   25.8868 H   0  0  0  0  0  0
  -20.9409  -29.8778   21.6857 H   0  0  0  0  0  0
  -26.0167  -38.2841   24.1411 H   0  0  0  0  0  0
  -27.3918  -19.6921   19.6584 H   0  0  0  0  0  0
  -31.4144  -20.2538   20.9801 H   0  0  0  0  0  0
  -27.6402  -17.3007   19.8860 H   0  0  0  0  0  0
  -31.7001  -17.8230   21.1645 H   0  0  0  0  0  0
  -27.7683  -25.1745   18.5753 H   0  0  0  0  0  0
  -28.7878  -15.4347   20.9226 H   0  0  0  0  0  0
  1 25  1  0  0  0
  1 30  2  0  0  0
  1 82  1  0  0  0
  2  3  1  0  0  0
  2 25  1  0  0  0
  2 85  1  0  0  0
  2 86  1  0  0  0
  3  4  1  0  0  0
  3 87  1  0  0  0
  3 88  1  0  0  0
  4  5  1  0  0  0
  4 89  1  0  0  0
  4 90  1  0  0  0
  5  6  1  0  0  0
  5 26  1  0  0  0
  5 91  1  0  0  0
  6 25  1  0  0  0
  6 92  1  0  0  0
  6 93  1  0  0  0
  7  8  2  0  0  0
  7 26  1  0  0  0
  7 29  1  0  0  0
  8  9  1  0  0  0
  8 22  1  0  0  0
  9 10  1  0  0  0
  9 27  2  0  0  0
 10 11  2  0  0  0
 10 15  1  0  0  0
 11 12  1  0  0  0
 11 94  1  0  0  0
 12 13  2  0  0  0
 12 95  1  0  0  0
 13 14  1  0  0  0
 13 31  1  0  0  0
 14 15  2  0  0  0
 14 96  1  0  0  0
 15 97  1  0  0  0
 16 17  2  0  0  0
 16 21  1  0  0  0
 16 31  1  0  0  0
 17 18  1  0  0  0
 17 98  1  0  0  0
 18 19  2  0  0  0
 18 99  1  0  0  0
 19 20  1  0  0  0
 19 24  1  0  0  0
 20 21  2  0  0  0
 20100  1  0  0  0
 21 23  1  0  0  0
 22 28  1  0  0  0
 22 32  2  0  0  0
 26 27  1  0  0  0
 28101  1  0  0  0
 28102  1  0  0  0
 29103  1  0  0  0
 29104  1  0  0  0
 33 34  1  0  0  0
 33 66  1  0  0  0
 33 70  2  0  0  0
 34 36  1  0  0  0
 34 59  1  0  0  0
 34105  1  0  0  0
 35 44  2  0  0  0
 35 45  1  0  0  0
 35 68  1  0  0  0
 36 56  1  0  0  0
 36106  1  0  0  0
 37 39  1  0  0  0
 37 47  1  0  0  0
 37 66  1  0  0  0
 37107  1  0  0  0
 38 43  2  0  0  0
 38 46  1  0  0  0
 38 47  1  0  0  0
 39 64  1  0  0  0
 39 67  2  0  0  0
 40 52  1  0  0  0
 40 53  2  0  0  0
 40 58  1  0  0  0
 41108  1  0  0  0
 41109  1  0  0  0
 41110  1  0  0  0
 41 48  1  0  0  0
 42 43  1  0  0  0
 42 66  1  0  0  0
 42111  1  0  0  0
 42112  1  0  0  0
 43 44  1  0  0  0
 44113  1  0  0  0
 45 46  2  0  0  0
 45114  1  0  0  0
 46115  1  0  0  0
 47116  1  0  0  0
 47117  1  0  0  0
 48 56  1  0  0  0
 48 65  1  0  0  0
 48118  1  0  0  0
 49 50  1  0  0  0
 49 53  1  0  0  0
 49 64  1  0  0  0
 49119  1  0  0  0
 50 51  1  0  0  0
 50120  1  0  0  0
 50121  1  0  0  0
 51 52  1  0  0  0
 51122  1  0  0  0
 51123  1  0  0  0
 52124  1  0  0  0
 52125  1  0  0  0
 53 54  1  0  0  0
 54 55  2  0  0  0
 54126  1  0  0  0
 55 57  1  0  0  0
 55127  1  0  0  0
 56 69  2  0  0  0
 57 58  2  0  0  0
 57128  1  0  0  0
 58129  1  0  0  0
 59 60  1  0  0  0
 59 61  1  0  0  0
 59 62  1  0  0  0
 60130  1  0  0  0
 60131  1  0  0  0
 60132  1  0  0  0
 61133  1  0  0  0
 61134  1  0  0  0
 61135  1  0  0  0
 62136  1  0  0  0
 62137  1  0  0  0
 62138  1  0  0  0
 63 65  1  0  0  0
 63139  1  0  0  0
 63140  1  0  0  0
 63141  1  0  0  0
 64142  1  0  0  0
 65143  1  0  0  0
 68 80  1  0  0  0
 71 73  2  0  0  0
 71 75  1  0  0  0
 71144  1  0  0  0
 72 74  1  0  0  0
 72 75  2  0  0  0
 72145  1  0  0  0
 73 76  1  0  0  0
 73146  1  0  0  0
 74 76  2  0  0  0
 74147  1  0  0  0
 75 81  1  0  0  0
 76 82  1  0  0  0
 77 78  1  0  0  0
 77 79  1  0  0  0
 77 80  2  0  0  0
 78 81  1  0  0  0
 78 83  2  0  0  0
 79 81  1  0  0  0
 79 84  2  0  0  0
 80148  1  0  0  0
 82149  1  0  0  0
M  ISO  4   1 100  68 101  80 101  82 100
M  END
> <chiral flag>
0

> <version>
0

> <s_m_source_file>
/data/baiqing/PycharmProjects/Reinvent-master-3.2/result/LINK_invent/BTK/process_docking_weight1_custom_product_contain_oxygen_bond_distance_aromatic_linkinvent_7_9_3/rearranged_h_0084.sdf

> <i_m_source_file_index>
18

> <r_mmod_Potential_Energy-OPLS-2005>
205.04655456543

> <r_mmod_Stretch_Energy-OPLS-2005>
112.029167175293

> <r_mmod_Bend_Energy-OPLS-2005>
265.751098632812

> <r_mmod_Torsional_Energy-OPLS-2005>
227.429061889648

> <r_mmod_Improper_Torsional_Energy-OPLS-2005>
5.86768484115601

> <r_mmod_Van_der_Waal_Energy-OPLS-2005>
136.00553894043

> <r_mmod_Electrostatic_Energy-OPLS-2005>
-398.190032958984

> <r_mmod_Solvation_Energy-OPLS-2005>
-233.616638183594

> <b_mmod_Minimization_Converged-OPLS-2005>
0

> <r_mmod_RMS_Derivative-OPLS-2005>
0.452697724103928

$$$$
18
                    3D
 Structure written by MMmdl.
149157  0  0  1  0            999 V2000
  -30.5408  -14.7128   20.5228 C   0  0  0  0  0  0
  -30.4413  -12.4483   19.4548 C   0  0  0  0  0  0
  -29.5005  -12.5248   18.2286 C   0  0  0  0  0  0
  -28.0226  -12.3681   18.6377 C   0  0  0  0  0  0
  -27.6495  -13.2289   19.8744 C   0  0  2  0  0  0
  -28.6915  -13.0589   21.0002 C   0  0  0  0  0  0
  -25.2453  -13.8250   20.5670 C   0  0  0  0  0  0
  -24.1776  -13.0468   20.9200 C   0  0  0  0  0  0
  -24.6400  -11.6962   20.8774 C   0  0  0  0  0  0
  -23.9085  -10.4316   21.0429 C   0  0  0  0  0  0
  -24.3654   -9.4206   21.9174 C   0  0  0  0  0  0
  -23.6322   -8.2245   22.0732 C   0  0  0  0  0  0
  -22.4281   -8.0313   21.3569 C   0  0  0  0  0  0
  -21.9944   -9.0265   20.4651 C   0  0  0  0  0  0
  -22.7269  -10.2137   20.3062 C   0  0  0  0  0  0
  -21.6841   -6.0768   22.5280 C   0  0  0  0  0  0
  -21.3997   -6.5662   23.8221 C   0  0  0  0  0  0
  -21.3645   -5.6799   24.9178 C   0  0  0  0  0  0
  -21.6056   -4.3070   24.7204 C   0  0  0  0  0  0
  -21.8835   -3.8175   23.4321 C   0  0  0  0  0  0
  -21.9199   -4.7002   22.3392 C   0  0  0  0  0  0
  -22.7773  -13.5170   21.1852 C   0  0  0  0  0  0
  -22.1673   -4.2202   21.0966 F   0  0  0  0  0  0
  -21.5622   -3.4556   25.7711 F   0  0  0  0  0  0
  -29.9938  -13.4533   20.4495 N   0  0  0  0  0  0
  -26.2936  -12.9455   20.3400 N   0  0  0  0  0  0
  -25.9331  -11.6599   20.5854 N   0  0  0  0  0  0
  -22.0497  -12.8148   22.0476 N   0  0  0  0  0  0
  -25.4046  -15.1987   20.4016 N   0  0  0  0  0  0
  -31.6682  -14.9240   20.0682 O   0  0  0  0  0  0
  -21.6653   -6.8912   21.4242 O   0  0  0  0  0  0
  -22.3408  -14.5465   20.6701 O   0  0  0  0  0  0
  -24.6315  -31.8563   23.1949 C   0  0  0  0  0  0
  -25.9145  -32.4740   23.8282 C   0  0  1  0  0  0
  -27.2001  -27.2652   20.1506 C   0  0  0  0  0  0
  -25.5937  -33.8533   24.2237 N   0  0  0  0  0  0
  -23.4223  -30.4849   21.5402 C   0  0  2  0  0  0
  -24.8617  -28.9195   20.1201 C   0  0  0  0  0  0
  -22.7478  -29.4639   22.4872 C   0  0  0  0  0  0
  -18.0290  -28.1437   22.8455 C   0  0  0  0  0  0
  -24.1496  -36.7271   23.2651 C   0  0  0  0  0  0
  -25.9699  -30.7724   21.3674 C   0  0  0  0  0  0
  -26.0366  -29.3904   20.7245 C   0  0  0  0  0  0
  -27.2137  -28.5784   20.7218 C   0  0  0  0  0  0
  -26.0093  -26.8463   19.5227 C   0  0  0  0  0  0
  -24.8532  -27.6510   19.5072 C   0  0  0  0  0  0
  -23.6393  -29.8208   20.1552 C   0  0  0  0  0  0
  -25.4112  -36.3048   24.0334 C   0  0  1  0  0  0
  -20.5903  -28.3717   23.1257 C   0  0  2  0  0  0
  -20.6800  -26.9429   22.5421 C   0  0  0  0  0  0
  -19.5769  -26.6392   21.5220 C   0  0  0  0  0  0
  -18.1943  -26.7978   22.1592 C   0  0  0  0  0  0
  -19.1560  -28.8868   23.2864 C   0  0  0  0  0  0
  -18.9482  -30.1476   23.8857 C   0  0  0  0  0  0
  -17.6489  -30.6606   24.0575 C   0  0  0  0  0  0
  -25.9056  -34.9428   23.5086 C   0  0  0  0  0  0
  -16.5372  -29.9126   23.6333 C   0  0  0  0  0  0
  -16.7279  -28.6571   23.0302 C   0  0  0  0  0  0
  -26.4478  -31.6570   25.0705 C   0  0  0  0  0  0
  -25.3689  -31.3767   26.1440 C   0  0  0  0  0  0
  -27.0273  -30.2960   24.6176 C   0  0  0  0  0  0
  -27.6056  -32.4243   25.7464 C   0  0  0  0  0  0
  -27.5546  -37.1801   24.8473 C   0  0  0  0  0  0
  -21.4188  -29.3078   22.3641 N   0  0  0  0  0  0
  -26.4259  -37.3751   23.9435 N   0  0  0  0  0  0
  -24.6946  -31.0555   22.0890 N   0  0  0  0  0  0
  -23.4193  -28.8167   23.2954 O   0  0  0  0  0  0
  -28.3210  -26.4224   20.0959 O   0  0  0  0  0  0
  -26.5625  -34.8902   22.4658 O   0  0  0  0  0  0
  -23.5455  -32.1353   23.7252 O   0  0  0  0  0  0
  -28.7331  -19.3555   21.7508 C   0  0  0  0  0  0
  -29.1855  -18.0056   21.9427 C   0  0  0  0  0  0
  -29.0146  -19.0930   19.3910 C   0  0  0  0  0  0
  -28.5935  -19.9494   20.4623 C   0  0  0  0  0  0
  -29.5457  -17.1428   20.8642 C   0  0  0  0  0  0
  -29.4717  -17.7468   19.5754 C   0  0  0  0  0  0
  -27.9349  -23.7431   20.3054 C   0  0  0  0  0  0
  -27.8645  -21.3024   20.2173 C   0  0  0  0  0  0
  -28.4113  -25.1524   20.8842 C   0  0  0  0  0  0
  -28.4254  -22.5427   20.6116 N   0  0  0  0  0  0
  -29.7614  -15.6961   21.1082 N   0  0  0  0  0  0
  -29.7576  -17.0064   18.4762 F   0  0  0  0  0  0
  -26.3535  -21.1560   19.4825 S   0  0  0  0  0  0
  -31.4706  -12.6134   19.1372 H   0  0  0  0  0  0
  -30.4188  -11.4475   19.8857 H   0  0  0  0  0  0
  -29.7639  -11.7579   17.4991 H   0  0  0  0  0  0
  -29.6396  -13.4798   17.7195 H   0  0  0  0  0  0
  -27.8495  -11.3134   18.8518 H   0  0  0  0  0  0
  -27.3706  -12.6151   17.7975 H   0  0  0  0  0  0
  -27.6747  -14.2725   19.5553 H   0  0  0  0  0  0
  -28.7179  -12.0217   21.3378 H   0  0  0  0  0  0
  -28.4181  -13.6425   21.8768 H   0  0  0  0  0  0
  -25.2812   -9.5679   22.4736 H   0  0  0  0  0  0
  -24.0069   -7.4621   22.7412 H   0  0  0  0  0  0
  -21.0893   -8.8769   19.8934 H   0  0  0  0  0  0
  -22.3736  -10.9678   19.6180 H   0  0  0  0  0  0
  -21.1972   -7.6175   23.9741 H   0  0  0  0  0  0
  -21.1443   -6.0527   25.9088 H   0  0  0  0  0  0
  -22.0625   -2.7648   23.2800 H   0  0  0  0  0  0
  -22.4180  -11.9814   22.4803 H   0  0  0  0  0  0
  -21.1116  -13.1134   22.2784 H   0  0  0  0  0  0
  -24.6189  -15.8370   20.4719 H   0  0  0  0  0  0
  -26.2479  -15.6518   20.0721 H   0  0  0  0  0  0
  -26.7206  -32.5359   23.1016 H   0  0  0  0  0  0
  -25.0100  -33.9698   25.0382 H   0  0  0  0  0  0
  -22.7223  -31.3113   21.3943 H   0  0  0  0  0  0
  -23.3727  -35.9616   23.3302 H   0  0  0  0  0  0
  -24.3606  -36.8870   22.2070 H   0  0  0  0  0  0
  -23.7280  -37.6488   23.6642 H   0  0  0  0  0  0
  -26.1095  -31.5178   20.5806 H   0  0  0  0  0  0
  -26.8524  -30.8250   21.9942 H   0  0  0  0  0  0
  -28.1248  -28.9438   21.1725 H   0  0  0  0  0  0
  -25.9694  -25.8839   19.0350 H   0  0  0  0  0  0
  -23.9525  -27.2913   19.0265 H   0  0  0  0  0  0
  -23.7789  -30.5981   19.4058 H   0  0  0  0  0  0
  -22.7504  -29.2729   19.8373 H   0  0  0  0  0  0
  -25.1290  -36.1859   25.0806 H   0  0  0  0  0  0
  -21.0008  -28.3289   24.1373 H   0  0  0  0  0  0
  -20.5711  -26.2299   23.3623 H   0  0  0  0  0  0
  -21.6669  -26.7459   22.1212 H   0  0  0  0  0  0
  -19.6961  -25.6308   21.1231 H   0  0  0  0  0  0
  -19.6756  -27.3226   20.6792 H   0  0  0  0  0  0
  -17.4246  -26.6678   21.4003 H   0  0  0  0  0  0
  -18.0319  -26.0169   22.9020 H   0  0  0  0  0  0
  -19.7977  -30.7313   24.2187 H   0  0  0  0  0  0
  -17.5072  -31.6289   24.5222 H   0  0  0  0  0  0
  -15.5398  -30.3053   23.7720 H   0  0  0  0  0  0
  -15.8661  -28.0956   22.6979 H   0  0  0  0  0  0
  -24.6000  -30.6892   25.7856 H   0  0  0  0  0  0
  -24.8750  -32.2966   26.4583 H   0  0  0  0  0  0
  -25.8075  -30.9248   27.0363 H   0  0  0  0  0  0
  -26.2866  -29.6742   24.1148 H   0  0  0  0  0  0
  -27.3926  -29.7147   25.4653 H   0  0  0  0  0  0
  -27.8711  -30.4182   23.9383 H   0  0  0  0  0  0
  -27.2733  -33.3634   26.1875 H   0  0  0  0  0  0
  -28.3975  -32.6623   25.0349 H   0  0  0  0  0  0
  -28.0557  -31.8441   26.5540 H   0  0  0  0  0  0
  -28.2566  -38.0085   24.7474 H   0  0  0  0  0  0
  -28.1019  -36.2626   24.6294 H   0  0  0  0  0  0
  -27.2283  -37.1439   25.8874 H   0  0  0  0  0  0
  -20.9348  -29.8805   21.6874 H   0  0  0  0  0  0
  -26.0107  -38.2779   24.1459 H   0  0  0  0  0  0
  -28.4067  -19.9198   22.6153 H   0  0  0  0  0  0
  -29.2013  -17.6269   22.9563 H   0  0  0  0  0  0
  -28.8971  -19.4409   18.3736 H   0  0  0  0  0  0
  -27.0824  -23.8734   19.6378 H   0  0  0  0  0  0
  -29.4776  -25.0376   21.0904 H   0  0  0  0  0  0
  -27.9589  -25.3061   21.8637 H   0  0  0  0  0  0
  -29.0532  -15.2907   21.6977 H   0  0  0  0  0  0
  1 25  1  0  0  0
  1 30  2  0  0  0
  1 81  1  0  0  0
  2  3  1  0  0  0
  2 25  1  0  0  0
  2 84  1  0  0  0
  2 85  1  0  0  0
  3  4  1  0  0  0
  3 86  1  0  0  0
  3 87  1  0  0  0
  4  5  1  0  0  0
  4 88  1  0  0  0
  4 89  1  0  0  0
  5  6  1  0  0  0
  5 26  1  0  0  0
  5 90  1  0  0  0
  6 25  1  0  0  0
  6 91  1  0  0  0
  6 92  1  0  0  0
  7  8  2  0  0  0
  7 26  1  0  0  0
  7 29  1  0  0  0
  8  9  1  0  0  0
  8 22  1  0  0  0
  9 10  1  0  0  0
  9 27  2  0  0  0
 10 11  2  0  0  0
 10 15  1  0  0  0
 11 12  1  0  0  0
 11 93  1  0  0  0
 12 13  2  0  0  0
 12 94  1  0  0  0
 13 14  1  0  0  0
 13 31  1  0  0  0
 14 15  2  0  0  0
 14 95  1  0  0  0
 15 96  1  0  0  0
 16 17  2  0  0  0
 16 21  1  0  0  0
 16 31  1  0  0  0
 17 18  1  0  0  0
 17 97  1  0  0  0
 18 19  2  0  0  0
 18 98  1  0  0  0
 19 20  1  0  0  0
 19 24  1  0  0  0
 20 21  2  0  0  0
 20 99  1  0  0  0
 21 23  1  0  0  0
 22 28  1  0  0  0
 22 32  2  0  0  0
 26 27  1  0  0  0
 28100  1  0  0  0
 28101  1  0  0  0
 29102  1  0  0  0
 29103  1  0  0  0
 33 34  1  0  0  0
 33 66  1  0  0  0
 33 70  2  0  0  0
 34 36  1  0  0  0
 34 59  1  0  0  0
 34104  1  0  0  0
 35 44  2  0  0  0
 35 45  1  0  0  0
 35 68  1  0  0  0
 36 56  1  0  0  0
 36105  1  0  0  0
 37 39  1  0  0  0
 37 47  1  0  0  0
 37 66  1  0  0  0
 37106  1  0  0  0
 38 43  2  0  0  0
 38 46  1  0  0  0
 38 47  1  0  0  0
 39 64  1  0  0  0
 39 67  2  0  0  0
 40 52  1  0  0  0
 40 53  2  0  0  0
 40 58  1  0  0  0
 41107  1  0  0  0
 41108  1  0  0  0
 41109  1  0  0  0
 41 48  1  0  0  0
 42 43  1  0  0  0
 42 66  1  0  0  0
 42110  1  0  0  0
 42111  1  0  0  0
 43 44  1  0  0  0
 44112  1  0  0  0
 45 46  2  0  0  0
 45113  1  0  0  0
 46114  1  0  0  0
 47115  1  0  0  0
 47116  1  0  0  0
 48 56  1  0  0  0
 48 65  1  0  0  0
 48117  1  0  0  0
 49 50  1  0  0  0
 49 53  1  0  0  0
 49 64  1  0  0  0
 49118  1  0  0  0
 50 51  1  0  0  0
 50119  1  0  0  0
 50120  1  0  0  0
 51 52  1  0  0  0
 51121  1  0  0  0
 51122  1  0  0  0
 52123  1  0  0  0
 52124  1  0  0  0
 53 54  1  0  0  0
 54 55  2  0  0  0
 54125  1  0  0  0
 55 57  1  0  0  0
 55126  1  0  0  0
 56 69  2  0  0  0
 57 58  2  0  0  0
 57127  1  0  0  0
 58128  1  0  0  0
 59 60  1  0  0  0
 59 61  1  0  0  0
 59 62  1  0  0  0
 60129  1  0  0  0
 60130  1  0  0  0
 60131  1  0  0  0
 61132  1  0  0  0
 61133  1  0  0  0
 61134  1  0  0  0
 62135  1  0  0  0
 62136  1  0  0  0
 62137  1  0  0  0
 63 65  1  0  0  0
 63138  1  0  0  0
 63139  1  0  0  0
 63140  1  0  0  0
 64141  1  0  0  0
 65142  1  0  0  0
 68 79  1  0  0  0
 71 72  2  0  0  0
 71 74  1  0  0  0
 71143  1  0  0  0
 72 75  1  0  0  0
 72144  1  0  0  0
 73 74  2  0  0  0
 73 76  1  0  0  0
 73145  1  0  0  0
 74 78  1  0  0  0
 75 76  2  0  0  0
 75 81  1  0  0  0
 76 82  1  0  0  0
 77 79  1  0  0  0
 77 80  2  0  0  0
 77146  1  0  0  0
 78 80  1  0  0  0
 78 83  2  0  0  0
 79147  1  0  0  0
 79148  1  0  0  0
 81149  1  0  0  0
M  ISO  4   1 100  68 101  79 101  81 100
M  END
> <chiral flag>
0

> <version>
0

> <s_m_source_file>
/data/baiqing/PycharmProjects/Reinvent-master-3.2/result/LINK_invent/BTK/process_docking_weight1_custom_product_contain_oxygen_bond_distance_aromatic_linkinvent_7_9_3/rearranged_h_0084.sdf

> <i_m_source_file_index>
19

> <r_mmod_Potential_Energy-OPLS-2005>
104.071746826172

> <r_mmod_Stretch_Energy-OPLS-2005>
116.225936889648

> <r_mmod_Bend_Energy-OPLS-2005>
174.318435668945

> <r_mmod_Torsional_Energy-OPLS-2005>
258.688079833984

> <r_mmod_Improper_Torsional_Energy-OPLS-2005>
5.7087869644165

> <r_mmod_Van_der_Waal_Energy-OPLS-2005>
148.911743164062

> <r_mmod_Electrostatic_Energy-OPLS-2005>
-454.597320556641

> <r_mmod_Solvation_Energy-OPLS-2005>
-218.34440612793

> <b_mmod_Minimization_Converged-OPLS-2005>
0

> <r_mmod_RMS_Derivative-OPLS-2005>
7.35072994232178

$$$$
19
                    3D
 Structure written by MMmdl.
150158  0  0  1  0            999 V2000
  -30.6108  -14.6777   20.4828 C   0  0  0  0  0  0
  -30.4398  -12.4129   19.4591 C   0  0  0  0  0  0
  -29.5096  -12.5077   18.2287 C   0  0  0  0  0  0
  -28.0330  -12.3414   18.6411 C   0  0  0  0  0  0
  -27.6506  -13.2208   19.8615 C   0  0  2  0  0  0
  -28.6967  -13.0969   20.9924 C   0  0  0  0  0  0
  -25.2544  -13.8174   20.5693 C   0  0  0  0  0  0
  -24.1813  -13.0430   20.9173 C   0  0  0  0  0  0
  -24.6395  -11.6906   20.8730 C   0  0  0  0  0  0
  -23.9067  -10.4288   21.0400 C   0  0  0  0  0  0
  -24.3617   -9.4206   21.9181 C   0  0  0  0  0  0
  -23.6291   -8.2243   22.0753 C   0  0  0  0  0  0
  -22.4273   -8.0280   21.3544 C   0  0  0  0  0  0
  -21.9908   -9.0253   20.4646 C   0  0  0  0  0  0
  -22.7237  -10.2131   20.3052 C   0  0  0  0  0  0
  -21.6853   -6.0735   22.5279 C   0  0  0  0  0  0
  -21.4015   -6.5639   23.8212 C   0  0  0  0  0  0
  -21.3659   -5.6792   24.9174 C   0  0  0  0  0  0
  -21.6044   -4.3054   24.7225 C   0  0  0  0  0  0
  -21.8819   -3.8146   23.4346 C   0  0  0  0  0  0
  -21.9193   -4.6963   22.3402 C   0  0  0  0  0  0
  -22.7837  -13.5221   21.1846 C   0  0  0  0  0  0
  -22.1661   -4.2148   21.0980 F   0  0  0  0  0  0
  -21.5628   -3.4538   25.7738 F   0  0  0  0  0  0
  -30.0079  -13.4454   20.4239 N   0  0  0  0  0  0
  -26.2981  -12.9367   20.3328 N   0  0  0  0  0  0
  -25.9328  -11.6516   20.5761 N   0  0  0  0  0  0
  -22.0488  -12.8214   22.0410 N   0  0  0  0  0  0
  -25.4230  -15.1902   20.4167 N   0  0  0  0  0  0
  -31.7825  -14.8246   20.1231 O   0  0  0  0  0  0
  -21.6639   -6.8877   21.4241 O   0  0  0  0  0  0
  -22.3515  -14.5528   20.6701 O   0  0  0  0  0  0
  -24.6279  -31.8582   23.2011 C   0  0  0  0  0  0
  -25.9119  -32.4771   23.8346 C   0  0  1  0  0  0
  -27.2237  -27.3001   20.1186 C   0  0  0  0  0  0
  -25.5927  -33.8572   24.2271 N   0  0  0  0  0  0
  -23.4226  -30.4818   21.5442 C   0  0  2  0  0  0
  -24.8693  -28.9348   20.1105 C   0  0  0  0  0  0
  -22.7484  -29.4617   22.4927 C   0  0  0  0  0  0
  -18.0288  -28.1385   22.8486 C   0  0  0  0  0  0
  -24.1489  -36.7291   23.2639 C   0  0  0  0  0  0
  -25.9657  -30.7832   21.3752 C   0  0  0  0  0  0
  -26.0395  -29.4094   20.7161 C   0  0  0  0  0  0
  -27.2196  -28.6044   20.7090 C   0  0  0  0  0  0
  -26.0288  -26.8844   19.4865 C   0  0  0  0  0  0
  -24.8671  -27.6788   19.4863 C   0  0  0  0  0  0
  -23.6382  -29.8170   20.1596 C   0  0  0  0  0  0
  -25.4115  -36.3079   24.0327 C   0  0  1  0  0  0
  -20.5890  -28.3692   23.1278 C   0  0  2  0  0  0
  -20.6777  -26.9413   22.5409 C   0  0  0  0  0  0
  -19.5751  -26.6383   21.5212 C   0  0  0  0  0  0
  -18.1932  -26.7927   22.1626 C   0  0  0  0  0  0
  -19.1541  -28.8855   23.2877 C   0  0  0  0  0  0
  -18.9463  -30.1457   23.8895 C   0  0  0  0  0  0
  -17.6462  -30.6587   24.0563 C   0  0  0  0  0  0
  -25.9052  -34.9448   23.5100 C   0  0  0  0  0  0
  -16.5354  -29.9085   23.6330 C   0  0  0  0  0  0
  -16.7275  -28.6502   23.0352 C   0  0  0  0  0  0
  -26.4497  -31.6586   25.0724 C   0  0  0  0  0  0
  -25.3726  -31.3730   26.1448 C   0  0  0  0  0  0
  -27.0344  -30.3008   24.6192 C   0  0  0  0  0  0
  -27.6051  -32.4327   25.7497 C   0  0  0  0  0  0
  -27.5579  -37.1802   24.8465 C   0  0  0  0  0  0
  -21.4195  -29.3043   22.3671 N   0  0  0  0  0  0
  -26.4292  -37.3774   23.9407 N   0  0  0  0  0  0
  -24.6910  -31.0579   22.0969 N   0  0  0  0  0  0
  -23.4200  -28.8155   23.3013 O   0  0  0  0  0  0
  -28.3347  -26.4367   20.1750 O   0  0  0  0  0  0
  -26.5623  -34.8917   22.4668 O   0  0  0  0  0  0
  -23.5438  -32.1387   23.7329 O   0  0  0  0  0  0
  -31.1101  -19.3372   20.2412 C   0  0  0  0  0  0
  -31.0833  -17.9091   20.2845 C   0  0  0  0  0  0
  -28.8064  -19.4469   20.8983 C   0  0  0  0  0  0
  -29.9865  -20.1611   20.5574 C   0  0  0  0  0  0
  -29.9127  -17.2005   20.6585 C   0  0  0  0  0  0
  -28.7767  -18.0141   20.9442 C   0  0  0  0  0  0
  -30.1715  -21.6982   20.6967 C   0  0  0  0  0  0
  -29.2983  -24.0227   20.4600 C   0  0  0  0  0  0
  -28.1085  -24.9671   20.0116 C   0  0  0  0  0  0
  -29.7891  -15.7385   20.7825 N   0  0  0  0  0  0
  -29.2078  -22.6361   20.3775 N   0  0  0  0  0  0
  -31.2927  -22.0380   21.0925 O   0  0  0  0  0  0
  -30.3045  -24.6038   20.8861 O   0  0  0  0  0  0
  -27.6228  -17.3970   21.2952 F   0  0  0  0  0  0
  -31.4803  -12.5417   19.1559 H   0  0  0  0  0  0
  -30.3811  -11.4224   19.9130 H   0  0  0  0  0  0
  -29.7792  -11.7492   17.4925 H   0  0  0  0  0  0
  -29.6463  -13.4725   17.7374 H   0  0  0  0  0  0
  -27.8757  -11.2893   18.8816 H   0  0  0  0  0  0
  -27.3776  -12.5604   17.7974 H   0  0  0  0  0  0
  -27.6602  -14.2521   19.5086 H   0  0  0  0  0  0
  -28.7163  -12.0808   21.3891 H   0  0  0  0  0  0
  -28.4394  -13.7410   21.8347 H   0  0  0  0  0  0
  -25.2764   -9.5682   22.4753 H   0  0  0  0  0  0
  -24.0000   -7.4636   22.7474 H   0  0  0  0  0  0
  -21.0838   -8.8772   19.8953 H   0  0  0  0  0  0
  -22.3696  -10.9669   19.6160 H   0  0  0  0  0  0
  -21.2009   -7.6148   23.9715 H   0  0  0  0  0  0
  -21.1480   -6.0522   25.9077 H   0  0  0  0  0  0
  -22.0599   -2.7608   23.2847 H   0  0  0  0  0  0
  -22.4108  -11.9875   22.4794 H   0  0  0  0  0  0
  -21.1109  -13.1242   22.2627 H   0  0  0  0  0  0
  -24.6618  -15.8430   20.5650 H   0  0  0  0  0  0
  -26.2926  -15.6523   20.1826 H   0  0  0  0  0  0
  -26.7186  -32.5434   23.1092 H   0  0  0  0  0  0
  -25.0069  -33.9713   25.0413 H   0  0  0  0  0  0
  -22.7173  -31.3030   21.4006 H   0  0  0  0  0  0
  -23.3749  -35.9626   23.3304 H   0  0  0  0  0  0
  -24.3579  -36.8911   22.2053 H   0  0  0  0  0  0
  -23.7245  -37.6494   23.6661 H   0  0  0  0  0  0
  -26.1003  -31.5465   20.6076 H   0  0  0  0  0  0
  -26.8449  -30.8308   22.0063 H   0  0  0  0  0  0
  -28.1164  -28.9635   21.1943 H   0  0  0  0  0  0
  -25.9613  -25.9265   18.9934 H   0  0  0  0  0  0
  -23.9707  -27.3105   19.0063 H   0  0  0  0  0  0
  -23.7591  -30.5938   19.4036 H   0  0  0  0  0  0
  -22.7576  -29.2480   19.8561 H   0  0  0  0  0  0
  -25.1296  -36.1930   25.0820 H   0  0  0  0  0  0
  -20.9983  -28.3268   24.1398 H   0  0  0  0  0  0
  -20.5678  -26.2301   23.3610 H   0  0  0  0  0  0
  -21.6645  -26.7440   22.1202 H   0  0  0  0  0  0
  -19.6913  -25.6294   21.1242 H   0  0  0  0  0  0
  -19.6687  -27.3193   20.6742 H   0  0  0  0  0  0
  -17.4200  -26.6671   21.4031 H   0  0  0  0  0  0
  -18.0336  -26.0071   22.9025 H   0  0  0  0  0  0
  -19.7939  -30.7274   24.2263 H   0  0  0  0  0  0
  -17.5017  -31.6267   24.5165 H   0  0  0  0  0  0
  -15.5354  -30.2986   23.7654 H   0  0  0  0  0  0
  -15.8676  -28.0821   22.7068 H   0  0  0  0  0  0
  -24.5899  -30.7081   25.7776 H   0  0  0  0  0  0
  -24.8920  -32.2899   26.4871 H   0  0  0  0  0  0
  -25.8046  -30.8907   27.0225 H   0  0  0  0  0  0
  -26.2925  -29.6756   24.1211 H   0  0  0  0  0  0
  -27.4031  -29.7268   25.4703 H   0  0  0  0  0  0
  -27.8798  -30.4290   23.9427 H   0  0  0  0  0  0
  -27.2655  -33.3626   26.2071 H   0  0  0  0  0  0
  -28.3863  -32.6891   25.0328 H   0  0  0  0  0  0
  -28.0717  -31.8457   26.5418 H   0  0  0  0  0  0
  -28.2597  -38.0098   24.7509 H   0  0  0  0  0  0
  -28.1074  -36.2629   24.6295 H   0  0  0  0  0  0
  -27.2296  -37.1455   25.8868 H   0  0  0  0  0  0
  -20.9374  -29.8769   21.6883 H   0  0  0  0  0  0
  -26.0173  -38.2849   24.1405 H   0  0  0  0  0  0
  -32.0487  -19.8141   19.9924 H   0  0  0  0  0  0
  -31.9899  -17.3703   20.0503 H   0  0  0  0  0  0
  -27.9173  -19.9922   21.1786 H   0  0  0  0  0  0
  -27.2313  -24.6657   20.5856 H   0  0  0  0  0  0
  -27.9017  -24.7520   18.9629 H   0  0  0  0  0  0
  -28.8665  -15.4476   21.0683 H   0  0  0  0  0  0
  -28.3389  -22.2659   20.0265 H   0  0  0  0  0  0
  1 25  1  0  0  0
  1 30  2  0  0  0
  1 80  1  0  0  0
  2  3  1  0  0  0
  2 25  1  0  0  0
  2 85  1  0  0  0
  2 86  1  0  0  0
  3  4  1  0  0  0
  3 87  1  0  0  0
  3 88  1  0  0  0
  4  5  1  0  0  0
  4 89  1  0  0  0
  4 90  1  0  0  0
  5  6  1  0  0  0
  5 26  1  0  0  0
  5 91  1  0  0  0
  6 25  1  0  0  0
  6 92  1  0  0  0
  6 93  1  0  0  0
  7  8  2  0  0  0
  7 26  1  0  0  0
  7 29  1  0  0  0
  8  9  1  0  0  0
  8 22  1  0  0  0
  9 10  1  0  0  0
  9 27  2  0  0  0
 10 11  2  0  0  0
 10 15  1  0  0  0
 11 12  1  0  0  0
 11 94  1  0  0  0
 12 13  2  0  0  0
 12 95  1  0  0  0
 13 14  1  0  0  0
 13 31  1  0  0  0
 14 15  2  0  0  0
 14 96  1  0  0  0
 15 97  1  0  0  0
 16 17  2  0  0  0
 16 21  1  0  0  0
 16 31  1  0  0  0
 17 18  1  0  0  0
 17 98  1  0  0  0
 18 19  2  0  0  0
 18 99  1  0  0  0
 19 20  1  0  0  0
 19 24  1  0  0  0
 20 21  2  0  0  0
 20100  1  0  0  0
 21 23  1  0  0  0
 22 28  1  0  0  0
 22 32  2  0  0  0
 26 27  1  0  0  0
 28101  1  0  0  0
 28102  1  0  0  0
 29103  1  0  0  0
 29104  1  0  0  0
 33 34  1  0  0  0
 33 66  1  0  0  0
 33 70  2  0  0  0
 34 36  1  0  0  0
 34 59  1  0  0  0
 34105  1  0  0  0
 35 44  2  0  0  0
 35 45  1  0  0  0
 35 68  1  0  0  0
 36 56  1  0  0  0
 36106  1  0  0  0
 37 39  1  0  0  0
 37 47  1  0  0  0
 37 66  1  0  0  0
 37107  1  0  0  0
 38 43  2  0  0  0
 38 46  1  0  0  0
 38 47  1  0  0  0
 39 64  1  0  0  0
 39 67  2  0  0  0
 40 52  1  0  0  0
 40 53  2  0  0  0
 40 58  1  0  0  0
 41108  1  0  0  0
 41109  1  0  0  0
 41110  1  0  0  0
 41 48  1  0  0  0
 42 43  1  0  0  0
 42 66  1  0  0  0
 42111  1  0  0  0
 42112  1  0  0  0
 43 44  1  0  0  0
 44113  1  0  0  0
 45 46  2  0  0  0
 45114  1  0  0  0
 46115  1  0  0  0
 47116  1  0  0  0
 47117  1  0  0  0
 48 56  1  0  0  0
 48 65  1  0  0  0
 48118  1  0  0  0
 49 50  1  0  0  0
 49 53  1  0  0  0
 49 64  1  0  0  0
 49119  1  0  0  0
 50 51  1  0  0  0
 50120  1  0  0  0
 50121  1  0  0  0
 51 52  1  0  0  0
 51122  1  0  0  0
 51123  1  0  0  0
 52124  1  0  0  0
 52125  1  0  0  0
 53 54  1  0  0  0
 54 55  2  0  0  0
 54126  1  0  0  0
 55 57  1  0  0  0
 55127  1  0  0  0
 56 69  2  0  0  0
 57 58  2  0  0  0
 57128  1  0  0  0
 58129  1  0  0  0
 59 60  1  0  0  0
 59 61  1  0  0  0
 59 62  1  0  0  0
 60130  1  0  0  0
 60131  1  0  0  0
 60132  1  0  0  0
 61133  1  0  0  0
 61134  1  0  0  0
 61135  1  0  0  0
 62136  1  0  0  0
 62137  1  0  0  0
 62138  1  0  0  0
 63 65  1  0  0  0
 63139  1  0  0  0
 63140  1  0  0  0
 63141  1  0  0  0
 64142  1  0  0  0
 65143  1  0  0  0
 68 79  1  0  0  0
 71 72  2  0  0  0
 71 74  1  0  0  0
 71144  1  0  0  0
 72 75  1  0  0  0
 72145  1  0  0  0
 73 74  2  0  0  0
 73 76  1  0  0  0
 73146  1  0  0  0
 74 77  1  0  0  0
 75 76  2  0  0  0
 75 80  1  0  0  0
 76 84  1  0  0  0
 77 81  1  0  0  0
 77 82  2  0  0  0
 78 79  1  0  0  0
 78 81  1  0  0  0
 78 83  2  0  0  0
 79147  1  0  0  0
 79148  1  0  0  0
 80149  1  0  0  0
 81150  1  0  0  0
M  ISO  4   1 100  68 101  79 101  80 100
M  END
> <chiral flag>
0

> <version>
0

> <s_m_source_file>
/data/baiqing/PycharmProjects/Reinvent-master-3.2/result/LINK_invent/BTK/process_docking_weight1_custom_product_contain_oxygen_bond_distance_aromatic_linkinvent_7_9_3/rearranged_h_0084.sdf

> <i_m_source_file_index>
20

> <r_mmod_Potential_Energy-OPLS-2005>
-114.081840515137

> <r_mmod_Stretch_Energy-OPLS-2005>
91.3526306152344

> <r_mmod_Bend_Energy-OPLS-2005>
150.067779541016

> <r_mmod_Torsional_Energy-OPLS-2005>
219.889465332031

> <r_mmod_Improper_Torsional_Energy-OPLS-2005>
5.02043676376343

> <r_mmod_Van_der_Waal_Energy-OPLS-2005>
151.793029785156

> <r_mmod_Electrostatic_Energy-OPLS-2005>
-507.714721679688

> <r_mmod_Solvation_Energy-OPLS-2005>
-284.386077880859

> <b_mmod_Minimization_Converged-OPLS-2005>
0

> <r_mmod_RMS_Derivative-OPLS-2005>
0.106859803199768

$$$$
20
                    3D
 Structure written by MMmdl.
154163  0  0  1  0            999 V2000
  -30.6195  -14.8249   20.4361 C   0  0  0  0  0  0
  -30.4255  -12.5055   19.4880 C   0  0  0  0  0  0
  -29.5105  -12.5158   18.2445 C   0  0  0  0  0  0
  -28.0402  -12.3282   18.6604 C   0  0  0  0  0  0
  -27.6352  -13.2452   19.8447 C   0  0  2  0  0  0
  -28.6808  -13.2373   20.9819 C   0  0  0  0  0  0
  -25.2485  -13.8218   20.5706 C   0  0  0  0  0  0
  -24.1792  -13.0440   20.9207 C   0  0  0  0  0  0
  -24.6395  -11.6927   20.8736 C   0  0  0  0  0  0
  -23.9073  -10.4297   21.0394 C   0  0  0  0  0  0
  -24.3622   -9.4215   21.9179 C   0  0  0  0  0  0
  -23.6299   -8.2246   22.0751 C   0  0  0  0  0  0
  -22.4286   -8.0277   21.3537 C   0  0  0  0  0  0
  -21.9917   -9.0247   20.4635 C   0  0  0  0  0  0
  -22.7242  -10.2128   20.3044 C   0  0  0  0  0  0
  -21.6855   -6.0732   22.5277 C   0  0  0  0  0  0
  -21.4016   -6.5638   23.8204 C   0  0  0  0  0  0
  -21.3662   -5.6792   24.9166 C   0  0  0  0  0  0
  -21.6046   -4.3053   24.7222 C   0  0  0  0  0  0
  -21.8825   -3.8142   23.4340 C   0  0  0  0  0  0
  -21.9194   -4.6959   22.3398 C   0  0  0  0  0  0
  -22.7810  -13.5205   21.1867 C   0  0  0  0  0  0
  -22.1667   -4.2143   21.0979 F   0  0  0  0  0  0
  -21.5627   -3.4536   25.7733 F   0  0  0  0  0  0
  -29.9724  -13.6005   20.3873 N   0  0  0  0  0  0
  -26.2913  -12.9449   20.3274 N   0  0  0  0  0  0
  -25.9332  -11.6577   20.5749 N   0  0  0  0  0  0
  -22.0460  -12.8186   22.0412 N   0  0  0  0  0  0
  -25.4153  -15.1943   20.4144 N   0  0  0  0  0  0
  -31.8170  -14.8364   20.1449 O   0  0  0  0  0  0
  -21.6649   -6.8876   21.4238 O   0  0  0  0  0  0
  -22.3491  -14.5513   20.6719 O   0  0  0  0  0  0
  -24.6382  -31.8495   23.1961 C   0  0  0  0  0  0
  -25.9185  -32.4727   23.8315 C   0  0  1  0  0  0
  -27.2165  -27.2120   20.1396 C   0  0  0  0  0  0
  -25.5970  -33.8530   24.2256 N   0  0  0  0  0  0
  -23.4390  -30.4717   21.5389 C   0  0  2  0  0  0
  -24.8911  -28.9175   20.1033 C   0  0  0  0  0  0
  -22.7541  -29.4578   22.4885 C   0  0  0  0  0  0
  -18.0296  -28.1395   22.8476 C   0  0  0  0  0  0
  -24.1486  -36.7253   23.2642 C   0  0  0  0  0  0
  -25.9895  -30.7475   21.3849 C   0  0  0  0  0  0
  -26.0651  -29.3672   20.7242 C   0  0  0  0  0  0
  -27.2335  -28.5255   20.7361 C   0  0  0  0  0  0
  -26.0278  -26.8580   19.4643 C   0  0  0  0  0  0
  -24.8803  -27.6731   19.4588 C   0  0  0  0  0  0
  -23.6624  -29.8079   20.1545 C   0  0  0  0  0  0
  -25.4113  -36.3049   24.0335 C   0  0  1  0  0  0
  -20.5906  -28.3716   23.1244 C   0  0  2  0  0  0
  -20.6781  -26.9424   22.5400 C   0  0  0  0  0  0
  -19.5763  -26.6386   21.5205 C   0  0  0  0  0  0
  -18.1942  -26.7940   22.1608 C   0  0  0  0  0  0
  -19.1550  -28.8877   23.2851 C   0  0  0  0  0  0
  -18.9469  -30.1474   23.8878 C   0  0  0  0  0  0
  -17.6467  -30.6594   24.0562 C   0  0  0  0  0  0
  -25.9062  -34.9423   23.5094 C   0  0  0  0  0  0
  -16.5356  -29.9087   23.6344 C   0  0  0  0  0  0
  -16.7278  -28.6502   23.0363 C   0  0  0  0  0  0
  -26.4546  -31.6561   25.0714 C   0  0  0  0  0  0
  -25.3762  -31.3700   26.1423 C   0  0  0  0  0  0
  -27.0418  -30.2979   24.6233 C   0  0  0  0  0  0
  -27.6096  -32.4308   25.7487 C   0  0  0  0  0  0
  -27.5573  -37.1786   24.8473 C   0  0  0  0  0  0
  -21.4241  -29.3050   22.3627 N   0  0  0  0  0  0
  -26.4286  -37.3756   23.9418 N   0  0  0  0  0  0
  -24.7081  -31.0413   22.0966 N   0  0  0  0  0  0
  -23.4208  -28.8128   23.3014 O   0  0  0  0  0  0
  -28.2142  -26.1930   20.2339 O   0  0  0  0  0  0
  -26.5613  -34.8908   22.4652 O   0  0  0  0  0  0
  -23.5517  -32.1339   23.7221 O   0  0  0  0  0  0
  -32.0672  -19.1597   20.1008 C   0  0  0  0  0  0
  -31.1760  -20.2443   20.1887 C   0  0  0  0  0  0
  -31.6400  -17.8256   20.2373 C   0  0  0  0  0  0
  -29.7955  -20.0609   20.4288 C   0  0  0  0  0  0
  -30.2860  -17.4838   20.4702 C   0  0  0  0  0  0
  -29.3792  -18.6450   20.5684 C   0  0  0  0  0  0
  -28.0760  -23.5654   20.8232 C   0  0  0  0  0  0
  -27.2393  -22.6142   21.5380 C   0  0  0  0  0  0
  -29.1511  -22.6698   20.2560 C   0  0  0  0  0  0
  -26.2426  -22.9039   22.3971 C   0  0  0  0  0  0
  -27.7557  -24.9446   20.7892 C   0  0  0  0  0  0
  -27.6643  -21.1905   21.2820 C   0  0  0  0  0  0
  -28.9386  -21.3051   20.5870 N   0  0  0  0  0  0
  -29.8945  -16.0223   20.6028 N   0  0  0  0  0  0
  -30.0954  -23.0727   19.5698 O   0  0  0  0  0  0
  -28.0729  -18.3757   20.8028 F   0  0  0  0  0  0
  -31.4668  -12.6162   19.1827 H   0  0  0  0  0  0
  -30.3703  -11.5422   19.9974 H   0  0  0  0  0  0
  -29.8052  -11.7296   17.5477 H   0  0  0  0  0  0
  -29.6252  -13.4597   17.7080 H   0  0  0  0  0  0
  -27.9110  -11.2828   18.9430 H   0  0  0  0  0  0
  -27.3792  -12.4961   17.8094 H   0  0  0  0  0  0
  -27.6115  -14.2567   19.4377 H   0  0  0  0  0  0
  -28.7354  -12.2584   21.4603 H   0  0  0  0  0  0
  -28.4033  -13.9475   21.7624 H   0  0  0  0  0  0
  -25.2767   -9.5700   22.4760 H   0  0  0  0  0  0
  -24.0007   -7.4641   22.7480 H   0  0  0  0  0  0
  -21.0848   -8.8758   19.8946 H   0  0  0  0  0  0
  -22.3695  -10.9658   19.6154 H   0  0  0  0  0  0
  -21.2012   -7.6150   23.9705 H   0  0  0  0  0  0
  -21.1478   -6.0522   25.9071 H   0  0  0  0  0  0
  -22.0602   -2.7603   23.2838 H   0  0  0  0  0  0
  -22.4086  -11.9843   22.4784 H   0  0  0  0  0  0
  -21.1073  -13.1196   22.2619 H   0  0  0  0  0  0
  -24.6465  -15.8454   20.5312 H   0  0  0  0  0  0
  -26.2637  -15.6402   20.0902 H   0  0  0  0  0  0
  -26.7251  -32.5368   23.1050 H   0  0  0  0  0  0
  -25.0187  -33.9659   25.0452 H   0  0  0  0  0  0
  -22.7388  -31.2966   21.3901 H   0  0  0  0  0  0
  -23.3765  -35.9572   23.3297 H   0  0  0  0  0  0
  -24.3581  -36.8869   22.2059 H   0  0  0  0  0  0
  -23.7217  -37.6448   23.6659 H   0  0  0  0  0  0
  -26.1319  -31.5056   20.6142 H   0  0  0  0  0  0
  -26.8648  -30.7982   22.0203 H   0  0  0  0  0  0
  -28.1222  -28.8520   21.2566 H   0  0  0  0  0  0
  -25.9646  -25.8941   18.9777 H   0  0  0  0  0  0
  -23.9851  -27.3238   18.9621 H   0  0  0  0  0  0
  -23.7897  -30.5858   19.4011 H   0  0  0  0  0  0
  -22.7808  -29.2441   19.8460 H   0  0  0  0  0  0
  -25.1301  -36.1890   25.0832 H   0  0  0  0  0  0
  -20.9997  -28.3282   24.1366 H   0  0  0  0  0  0
  -20.5674  -26.2323   23.3607 H   0  0  0  0  0  0
  -21.6643  -26.7437   22.1194 H   0  0  0  0  0  0
  -19.6916  -25.6292   21.1249 H   0  0  0  0  0  0
  -19.6711  -27.3190   20.6734 H   0  0  0  0  0  0
  -17.4217  -26.6695   21.4004 H   0  0  0  0  0  0
  -18.0332  -26.0083   22.9005 H   0  0  0  0  0  0
  -19.7946  -30.7287   24.2234 H   0  0  0  0  0  0
  -17.5026  -31.6271   24.5161 H   0  0  0  0  0  0
  -15.5356  -30.2984   23.7686 H   0  0  0  0  0  0
  -15.8673  -28.0818   22.7099 H   0  0  0  0  0  0
  -24.5998  -30.6980   25.7752 H   0  0  0  0  0  0
  -24.8888  -32.2851   26.4794 H   0  0  0  0  0  0
  -25.8094  -30.8940   27.0230 H   0  0  0  0  0  0
  -26.3026  -29.6695   24.1256 H   0  0  0  0  0  0
  -27.4095  -29.7278   25.4773 H   0  0  0  0  0  0
  -27.8901  -30.4257   23.9503 H   0  0  0  0  0  0
  -27.2733  -33.3656   26.1984 H   0  0  0  0  0  0
  -28.3948  -32.6775   25.0327 H   0  0  0  0  0  0
  -28.0715  -31.8467   26.5459 H   0  0  0  0  0  0
  -28.2588  -38.0084   24.7520 H   0  0  0  0  0  0
  -28.1064  -36.2612   24.6306 H   0  0  0  0  0  0
  -27.2287  -37.1434   25.8874 H   0  0  0  0  0  0
  -20.9443  -29.8769   21.6817 H   0  0  0  0  0  0
  -26.0154  -38.2828   24.1428 H   0  0  0  0  0  0
  -33.1178  -19.3558   19.9352 H   0  0  0  0  0  0
  -31.5987  -21.2338   20.0999 H   0  0  0  0  0  0
  -32.4111  -17.0777   20.1616 H   0  0  0  0  0  0
  -25.9318  -23.9067   22.6463 H   0  0  0  0  0  0
  -25.7096  -22.1057   22.8950 H   0  0  0  0  0  0
  -26.8704  -25.1962   21.3501 H   0  0  0  0  0  0
  -26.9303  -20.6826   20.6549 H   0  0  0  0  0  0
  -27.7759  -20.6444   22.2198 H   0  0  0  0  0  0
  -28.9145  -15.8786   20.7934 H   0  0  0  0  0  0
  1 25  1  0  0  0
  1 30  2  0  0  0
  1 84  1  0  0  0
  2  3  1  0  0  0
  2 25  1  0  0  0
  2 87  1  0  0  0
  2 88  1  0  0  0
  3  4  1  0  0  0
  3 89  1  0  0  0
  3 90  1  0  0  0
  4  5  1  0  0  0
  4 91  1  0  0  0
  4 92  1  0  0  0
  5  6  1  0  0  0
  5 26  1  0  0  0
  5 93  1  0  0  0
  6 25  1  0  0  0
  6 94  1  0  0  0
  6 95  1  0  0  0
  7  8  2  0  0  0
  7 26  1  0  0  0
  7 29  1  0  0  0
  8  9  1  0  0  0
  8 22  1  0  0  0
  9 10  1  0  0  0
  9 27  2  0  0  0
 10 11  2  0  0  0
 10 15  1  0  0  0
 11 12  1  0  0  0
 11 96  1  0  0  0
 12 13  2  0  0  0
 12 97  1  0  0  0
 13 14  1  0  0  0
 13 31  1  0  0  0
 14 15  2  0  0  0
 14 98  1  0  0  0
 15 99  1  0  0  0
 16 17  2  0  0  0
 16 21  1  0  0  0
 16 31  1  0  0  0
 17 18  1  0  0  0
 17100  1  0  0  0
 18 19  2  0  0  0
 18101  1  0  0  0
 19 20  1  0  0  0
 19 24  1  0  0  0
 20 21  2  0  0  0
 20102  1  0  0  0
 21 23  1  0  0  0
 22 28  1  0  0  0
 22 32  2  0  0  0
 26 27  1  0  0  0
 28103  1  0  0  0
 28104  1  0  0  0
 29105  1  0  0  0
 29106  1  0  0  0
 33 34  1  0  0  0
 33 66  1  0  0  0
 33 70  2  0  0  0
 34 36  1  0  0  0
 34 59  1  0  0  0
 34107  1  0  0  0
 35 44  2  0  0  0
 35 45  1  0  0  0
 35 68  1  0  0  0
 36 56  1  0  0  0
 36108  1  0  0  0
 37 39  1  0  0  0
 37 47  1  0  0  0
 37 66  1  0  0  0
 37109  1  0  0  0
 38 43  2  0  0  0
 38 46  1  0  0  0
 38 47  1  0  0  0
 39 64  1  0  0  0
 39 67  2  0  0  0
 40 52  1  0  0  0
 40 53  2  0  0  0
 40 58  1  0  0  0
 41110  1  0  0  0
 41111  1  0  0  0
 41112  1  0  0  0
 41 48  1  0  0  0
 42 43  1  0  0  0
 42 66  1  0  0  0
 42113  1  0  0  0
 42114  1  0  0  0
 43 44  1  0  0  0
 44115  1  0  0  0
 45 46  2  0  0  0
 45116  1  0  0  0
 46117  1  0  0  0
 47118  1  0  0  0
 47119  1  0  0  0
 48 56  1  0  0  0
 48 65  1  0  0  0
 48120  1  0  0  0
 49 50  1  0  0  0
 49 53  1  0  0  0
 49 64  1  0  0  0
 49121  1  0  0  0
 50 51  1  0  0  0
 50122  1  0  0  0
 50123  1  0  0  0
 51 52  1  0  0  0
 51124  1  0  0  0
 51125  1  0  0  0
 52126  1  0  0  0
 52127  1  0  0  0
 53 54  1  0  0  0
 54 55  2  0  0  0
 54128  1  0  0  0
 55 57  1  0  0  0
 55129  1  0  0  0
 56 69  2  0  0  0
 57 58  2  0  0  0
 57130  1  0  0  0
 58131  1  0  0  0
 59 60  1  0  0  0
 59 61  1  0  0  0
 59 62  1  0  0  0
 60132  1  0  0  0
 60133  1  0  0  0
 60134  1  0  0  0
 61135  1  0  0  0
 61136  1  0  0  0
 61137  1  0  0  0
 62138  1  0  0  0
 62139  1  0  0  0
 62140  1  0  0  0
 63 65  1  0  0  0
 63141  1  0  0  0
 63142  1  0  0  0
 63143  1  0  0  0
 64144  1  0  0  0
 65145  1  0  0  0
 68 81  1  0  0  0
 71 72  2  0  0  0
 71 73  1  0  0  0
 71146  1  0  0  0
 72 74  1  0  0  0
 72147  1  0  0  0
 73 75  2  0  0  0
 73148  1  0  0  0
 74 76  2  0  0  0
 74 83  1  0  0  0
 75 76  1  0  0  0
 75 84  1  0  0  0
 76 86  1  0  0  0
 77 78  1  0  0  0
 77 79  1  0  0  0
 77 81  2  0  0  0
 78 80  2  0  0  0
 78 82  1  0  0  0
 79 83  1  0  0  0
 79 85  2  0  0  0
 80149  1  0  0  0
 80150  1  0  0  0
 81151  1  0  0  0
 82 83  1  0  0  0
 82152  1  0  0  0
 82153  1  0  0  0
 84154  1  0  0  0
M  ISO  4   1 100  68 101  81 101  84 100
M  END
> <chiral flag>
0

> <version>
0

> <s_m_source_file>
/data/baiqing/PycharmProjects/Reinvent-master-3.2/result/LINK_invent/BTK/process_docking_weight1_custom_product_contain_oxygen_bond_distance_aromatic_linkinvent_7_9_3/rearranged_h_0084.sdf

> <i_m_source_file_index>
21

> <r_mmod_Potential_Energy-OPLS-2005>
448.382141113281

> <r_mmod_Stretch_Energy-OPLS-2005>
176.329833984375

> <r_mmod_Bend_Energy-OPLS-2005>
282.938720703125

> <r_mmod_Torsional_Energy-OPLS-2005>
259.542785644531

> <r_mmod_Improper_Torsional_Energy-OPLS-2005>
4.8592734336853

> <r_mmod_Van_der_Waal_Energy-OPLS-2005>
151.798980712891

> <r_mmod_Electrostatic_Energy-OPLS-2005>
-356.013366699219

> <r_mmod_Solvation_Energy-OPLS-2005>
-205.123474121094

> <b_mmod_Minimization_Converged-OPLS-2005>
0

> <r_mmod_RMS_Derivative-OPLS-2005>
1.30329775810242

$$$$
21
                    3D
 Structure written by MMmdl.
151159  0  0  1  0            999 V2000
  -30.6145  -14.6628   20.4885 C   0  0  0  0  0  0
  -30.4403  -12.4051   19.4561 C   0  0  0  0  0  0
  -29.5090  -12.5081   18.2272 C   0  0  0  0  0  0
  -28.0323  -12.3430   18.6399 C   0  0  0  0  0  0
  -27.6518  -13.2193   19.8633 C   0  0  2  0  0  0
  -28.6979  -13.0857   20.9933 C   0  0  0  0  0  0
  -25.2545  -13.8168   20.5692 C   0  0  0  0  0  0
  -24.1812  -13.0424   20.9165 C   0  0  0  0  0  0
  -24.6392  -11.6901   20.8724 C   0  0  0  0  0  0
  -23.9065  -10.4285   21.0395 C   0  0  0  0  0  0
  -24.3616   -9.4203   21.9177 C   0  0  0  0  0  0
  -23.6290   -8.2241   22.0751 C   0  0  0  0  0  0
  -22.4271   -8.0280   21.3544 C   0  0  0  0  0  0
  -21.9907   -9.0252   20.4644 C   0  0  0  0  0  0
  -22.7236  -10.2129   20.3049 C   0  0  0  0  0  0
  -21.6853   -6.0734   22.5279 C   0  0  0  0  0  0
  -21.4015   -6.5637   23.8213 C   0  0  0  0  0  0
  -21.3659   -5.6788   24.9174 C   0  0  0  0  0  0
  -21.6046   -4.3052   24.7224 C   0  0  0  0  0  0
  -21.8820   -3.8144   23.4344 C   0  0  0  0  0  0
  -21.9194   -4.6962   22.3401 C   0  0  0  0  0  0
  -22.7837  -13.5219   21.1842 C   0  0  0  0  0  0
  -22.1662   -4.2149   21.0978 F   0  0  0  0  0  0
  -21.5629   -3.4535   25.7736 F   0  0  0  0  0  0
  -30.0115  -13.4318   20.4275 N   0  0  0  0  0  0
  -26.2986  -12.9361   20.3336 N   0  0  0  0  0  0
  -25.9327  -11.6509   20.5759 N   0  0  0  0  0  0
  -22.0487  -12.8211   22.0407 N   0  0  0  0  0  0
  -25.4219  -15.1896   20.4178 N   0  0  0  0  0  0
  -31.7820  -14.8187   20.1193 O   0  0  0  0  0  0
  -21.6636   -6.8877   21.4242 O   0  0  0  0  0  0
  -22.3515  -14.5529   20.6703 O   0  0  0  0  0  0
  -24.6264  -31.8593   23.2020 C   0  0  0  0  0  0
  -25.9111  -32.4776   23.8350 C   0  0  1  0  0  0
  -27.2238  -27.3133   20.1253 C   0  0  0  0  0  0
  -25.5925  -33.8576   24.2278 N   0  0  0  0  0  0
  -23.4208  -30.4823   21.5446 C   0  0  2  0  0  0
  -24.8687  -28.9351   20.1130 C   0  0  0  0  0  0
  -22.7477  -29.4622   22.4937 C   0  0  0  0  0  0
  -18.0286  -28.1387   22.8485 C   0  0  0  0  0  0
  -24.1489  -36.7293   23.2639 C   0  0  0  0  0  0
  -25.9622  -30.7887   21.3742 C   0  0  0  0  0  0
  -26.0375  -29.4145   20.7189 C   0  0  0  0  0  0
  -27.2204  -28.6157   20.7143 C   0  0  0  0  0  0
  -26.0381  -26.8929   19.4845 C   0  0  0  0  0  0
  -24.8710  -27.6797   19.4860 C   0  0  0  0  0  0
  -23.6366  -29.8158   20.1605 C   0  0  0  0  0  0
  -25.4115  -36.3082   24.0328 C   0  0  1  0  0  0
  -20.5887  -28.3691   23.1282 C   0  0  2  0  0  0
  -20.6775  -26.9414   22.5411 C   0  0  0  0  0  0
  -19.5752  -26.6387   21.5212 C   0  0  0  0  0  0
  -18.1932  -26.7929   22.1624 C   0  0  0  0  0  0
  -19.1538  -28.8856   23.2878 C   0  0  0  0  0  0
  -18.9463  -30.1460   23.8893 C   0  0  0  0  0  0
  -17.6462  -30.6587   24.0565 C   0  0  0  0  0  0
  -25.9051  -34.9450   23.5104 C   0  0  0  0  0  0
  -16.5353  -29.9087   23.6330 C   0  0  0  0  0  0
  -16.7274  -28.6506   23.0347 C   0  0  0  0  0  0
  -26.4493  -31.6585   25.0721 C   0  0  0  0  0  0
  -25.3729  -31.3724   26.1451 C   0  0  0  0  0  0
  -27.0336  -30.3008   24.6176 C   0  0  0  0  0  0
  -27.6050  -32.4322   25.7492 C   0  0  0  0  0  0
  -27.5579  -37.1803   24.8466 C   0  0  0  0  0  0
  -21.4191  -29.3043   22.3678 N   0  0  0  0  0  0
  -26.4293  -37.3776   23.9406 N   0  0  0  0  0  0
  -24.6886  -31.0602   22.0971 N   0  0  0  0  0  0
  -23.4196  -28.8162   23.3021 O   0  0  0  0  0  0
  -28.3318  -26.4522   20.1471 O   0  0  0  0  0  0
  -26.5621  -34.8918   22.4672 O   0  0  0  0  0  0
  -23.5427  -32.1393   23.7345 O   0  0  0  0  0  0
  -31.0375  -19.3176   20.1463 C   0  0  0  0  0  0
  -31.0668  -17.9005   20.3317 C   0  0  0  0  0  0
  -28.6711  -19.3620   20.5342 C   0  0  0  0  0  0
  -29.8408  -20.0953   20.2170 C   0  0  0  0  0  0
  -29.8846  -17.1686   20.6114 C   0  0  0  0  0  0
  -28.6952  -17.9444   20.7215 C   0  0  0  0  0  0
  -29.0430  -23.9097   20.0704 C   0  0  0  0  0  0
  -29.8431  -21.6097   19.8896 C   0  0  0  0  0  0
  -28.0990  -25.0544   20.6059 C   0  0  0  0  0  0
  -29.0019  -22.6250   20.3779 N   0  0  0  0  0  0
  -29.7940  -15.7162   20.8067 N   0  0  0  0  0  0
  -30.7452  -21.9313   19.0087 N   0  3  0  0  0  0
  -27.5358  -17.2952   20.9943 F   0  0  0  0  0  0
  -31.4807  -12.5341   19.1524 H   0  0  0  0  0  0
  -30.3805  -11.4119   19.9037 H   0  0  0  0  0  0
  -29.7764  -11.7531   17.4867 H   0  0  0  0  0  0
  -29.6477  -13.4749   17.7407 H   0  0  0  0  0  0
  -27.8738  -11.2904   18.8780 H   0  0  0  0  0  0
  -27.3769  -12.5656   17.7971 H   0  0  0  0  0  0
  -27.6640  -14.2523   19.5151 H   0  0  0  0  0  0
  -28.7131  -12.0669   21.3836 H   0  0  0  0  0  0
  -28.4416  -13.7245   21.8399 H   0  0  0  0  0  0
  -25.2763   -9.5683   22.4747 H   0  0  0  0  0  0
  -24.0002   -7.4634   22.7470 H   0  0  0  0  0  0
  -21.0839   -8.8770   19.8950 H   0  0  0  0  0  0
  -22.3696  -10.9666   19.6156 H   0  0  0  0  0  0
  -21.2006   -7.6144   23.9717 H   0  0  0  0  0  0
  -21.1481   -6.0516   25.9077 H   0  0  0  0  0  0
  -22.0600   -2.7607   23.2843 H   0  0  0  0  0  0
  -22.4102  -11.9869   22.4790 H   0  0  0  0  0  0
  -21.1111  -13.1244   22.2627 H   0  0  0  0  0  0
  -24.6589  -15.8398   20.5673 H   0  0  0  0  0  0
  -26.2940  -15.6583   20.2053 H   0  0  0  0  0  0
  -26.7181  -32.5448   23.1102 H   0  0  0  0  0  0
  -25.0074  -33.9720   25.0424 H   0  0  0  0  0  0
  -22.7151  -31.3030   21.4004 H   0  0  0  0  0  0
  -23.3748  -35.9629   23.3306 H   0  0  0  0  0  0
  -24.3581  -36.8909   22.2053 H   0  0  0  0  0  0
  -23.7246  -37.6498   23.6657 H   0  0  0  0  0  0
  -26.0942  -31.5511   20.6050 H   0  0  0  0  0  0
  -26.8421  -30.8386   22.0039 H   0  0  0  0  0  0
  -28.1173  -28.9788   21.1962 H   0  0  0  0  0  0
  -26.0014  -25.9390   18.9783 H   0  0  0  0  0  0
  -23.9783  -27.3098   19.0004 H   0  0  0  0  0  0
  -23.7570  -30.5913   19.4032 H   0  0  0  0  0  0
  -22.7566  -29.2453   19.8580 H   0  0  0  0  0  0
  -25.1296  -36.1936   25.0821 H   0  0  0  0  0  0
  -20.9978  -28.3268   24.1403 H   0  0  0  0  0  0
  -20.5679  -26.2301   23.3612 H   0  0  0  0  0  0
  -21.6646  -26.7447   22.1205 H   0  0  0  0  0  0
  -19.6915  -25.6298   21.1242 H   0  0  0  0  0  0
  -19.6687  -27.3197   20.6742 H   0  0  0  0  0  0
  -17.4202  -26.6675   21.4027 H   0  0  0  0  0  0
  -18.0333  -26.0072   22.9022 H   0  0  0  0  0  0
  -19.7940  -30.7279   24.2255 H   0  0  0  0  0  0
  -17.5017  -31.6265   24.5174 H   0  0  0  0  0  0
  -15.5354  -30.2989   23.7655 H   0  0  0  0  0  0
  -15.8674  -28.0828   22.7057 H   0  0  0  0  0  0
  -24.5903  -30.7073   25.7783 H   0  0  0  0  0  0
  -24.8922  -32.2892   26.4875 H   0  0  0  0  0  0
  -25.8058  -30.8905   27.0226 H   0  0  0  0  0  0
  -26.2910  -29.6760   24.1201 H   0  0  0  0  0  0
  -27.4034  -29.7262   25.4679 H   0  0  0  0  0  0
  -27.8779  -30.4292   23.9399 H   0  0  0  0  0  0
  -27.2655  -33.3622   26.2067 H   0  0  0  0  0  0
  -28.3860  -32.6887   25.0320 H   0  0  0  0  0  0
  -28.0719  -31.8452   26.5412 H   0  0  0  0  0  0
  -28.2601  -38.0096   24.7508 H   0  0  0  0  0  0
  -28.1071  -36.2628   24.6298 H   0  0  0  0  0  0
  -27.2298  -37.1464   25.8869 H   0  0  0  0  0  0
  -20.9369  -29.8767   21.6888 H   0  0  0  0  0  0
  -26.0175  -38.2854   24.1399 H   0  0  0  0  0  0
  -31.9730  -19.8113   19.9376 H   0  0  0  0  0  0
  -32.0146  -17.3888   20.2520 H   0  0  0  0  0  0
  -27.7343  -19.8899   20.6022 H   0  0  0  0  0  0
  -29.7863  -24.3031   19.3717 H   0  0  0  0  0  0
  -28.1947  -25.0678   21.6917 H   0  0  0  0  0  0
  -27.0773  -24.7273   20.4230 H   0  0  0  0  0  0
  -28.8749  -15.4152   21.0944 H   0  0  0  0  0  0
  -31.3460  -21.2331   18.5747 H   0  0  0  0  0  0
  -30.8949  -22.8724   18.6617 H   0  0  0  0  0  0
  1 25  1  0  0  0
  1 30  2  0  0  0
  1 81  1  0  0  0
  2  3  1  0  0  0
  2 25  1  0  0  0
  2 84  1  0  0  0
  2 85  1  0  0  0
  3  4  1  0  0  0
  3 86  1  0  0  0
  3 87  1  0  0  0
  4  5  1  0  0  0
  4 88  1  0  0  0
  4 89  1  0  0  0
  5  6  1  0  0  0
  5 26  1  0  0  0
  5 90  1  0  0  0
  6 25  1  0  0  0
  6 91  1  0  0  0
  6 92  1  0  0  0
  7  8  2  0  0  0
  7 26  1  0  0  0
  7 29  1  0  0  0
  8  9  1  0  0  0
  8 22  1  0  0  0
  9 10  1  0  0  0
  9 27  2  0  0  0
 10 11  2  0  0  0
 10 15  1  0  0  0
 11 12  1  0  0  0
 11 93  1  0  0  0
 12 13  2  0  0  0
 12 94  1  0  0  0
 13 14  1  0  0  0
 13 31  1  0  0  0
 14 15  2  0  0  0
 14 95  1  0  0  0
 15 96  1  0  0  0
 16 17  2  0  0  0
 16 21  1  0  0  0
 16 31  1  0  0  0
 17 18  1  0  0  0
 17 97  1  0  0  0
 18 19  2  0  0  0
 18 98  1  0  0  0
 19 20  1  0  0  0
 19 24  1  0  0  0
 20 21  2  0  0  0
 20 99  1  0  0  0
 21 23  1  0  0  0
 22 28  1  0  0  0
 22 32  2  0  0  0
 26 27  1  0  0  0
 28100  1  0  0  0
 28101  1  0  0  0
 29102  1  0  0  0
 29103  1  0  0  0
 33 34  1  0  0  0
 33 66  1  0  0  0
 33 70  2  0  0  0
 34 36  1  0  0  0
 34 59  1  0  0  0
 34104  1  0  0  0
 35 44  2  0  0  0
 35 45  1  0  0  0
 35 68  1  0  0  0
 36 56  1  0  0  0
 36105  1  0  0  0
 37 39  1  0  0  0
 37 47  1  0  0  0
 37 66  1  0  0  0
 37106  1  0  0  0
 38 43  2  0  0  0
 38 46  1  0  0  0
 38 47  1  0  0  0
 39 64  1  0  0  0
 39 67  2  0  0  0
 40 52  1  0  0  0
 40 53  2  0  0  0
 40 58  1  0  0  0
 41107  1  0  0  0
 41108  1  0  0  0
 41109  1  0  0  0
 41 48  1  0  0  0
 42 43  1  0  0  0
 42 66  1  0  0  0
 42110  1  0  0  0
 42111  1  0  0  0
 43 44  1  0  0  0
 44112  1  0  0  0
 45 46  2  0  0  0
 45113  1  0  0  0
 46114  1  0  0  0
 47115  1  0  0  0
 47116  1  0  0  0
 48 56  1  0  0  0
 48 65  1  0  0  0
 48117  1  0  0  0
 49 50  1  0  0  0
 49 53  1  0  0  0
 49 64  1  0  0  0
 49118  1  0  0  0
 50 51  1  0  0  0
 50119  1  0  0  0
 50120  1  0  0  0
 51 52  1  0  0  0
 51121  1  0  0  0
 51122  1  0  0  0
 52123  1  0  0  0
 52124  1  0  0  0
 53 54  1  0  0  0
 54 55  2  0  0  0
 54125  1  0  0  0
 55 57  1  0  0  0
 55126  1  0  0  0
 56 69  2  0  0  0
 57 58  2  0  0  0
 57127  1  0  0  0
 58128  1  0  0  0
 59 60  1  0  0  0
 59 61  1  0  0  0
 59 62  1  0  0  0
 60129  1  0  0  0
 60130  1  0  0  0
 60131  1  0  0  0
 61132  1  0  0  0
 61133  1  0  0  0
 61134  1  0  0  0
 62135  1  0  0  0
 62136  1  0  0  0
 62137  1  0  0  0
 63 65  1  0  0  0
 63138  1  0  0  0
 63139  1  0  0  0
 63140  1  0  0  0
 64141  1  0  0  0
 65142  1  0  0  0
 68 79  1  0  0  0
 71 72  2  0  0  0
 71 74  1  0  0  0
 71143  1  0  0  0
 72 75  1  0  0  0
 72144  1  0  0  0
 73 74  2  0  0  0
 73 76  1  0  0  0
 73145  1  0  0  0
 74 78  1  0  0  0
 75 76  2  0  0  0
 75 81  1  0  0  0
 76 83  1  0  0  0
 77 79  1  0  0  0
 77 80  2  0  0  0
 77146  1  0  0  0
 78 80  1  0  0  0
 78 82  2  0  0  0
 79147  1  0  0  0
 79148  1  0  0  0
 81149  1  0  0  0
 82150  1  0  0  0
 82151  1  0  0  0
M  CHG  1  82   1
M  ISO  4   1 100  68 101  79 101  81 100
M  END
> <chiral flag>
0

> <version>
0

> <s_m_source_file>
/data/baiqing/PycharmProjects/Reinvent-master-3.2/result/LINK_invent/BTK/process_docking_weight1_custom_product_contain_oxygen_bond_distance_aromatic_linkinvent_7_9_3/rearranged_h_0084.sdf

> <i_m_source_file_index>
22

> <r_mmod_Potential_Energy-OPLS-2005>
-15.3665800094604

> <r_mmod_Stretch_Energy-OPLS-2005>
98.200439453125

> <r_mmod_Bend_Energy-OPLS-2005>
143.710006713867

> <r_mmod_Torsional_Energy-OPLS-2005>
230.715591430664

> <r_mmod_Improper_Torsional_Energy-OPLS-2005>
4.44493532180786

> <r_mmod_Van_der_Waal_Energy-OPLS-2005>
155.551345825195

> <r_mmod_Electrostatic_Energy-OPLS-2005>
-218.223190307617

> <r_mmod_Solvation_Energy-OPLS-2005>
-483.575317382812

> <b_mmod_Minimization_Converged-OPLS-2005>
0

> <r_mmod_RMS_Derivative-OPLS-2005>
0.338633835315704

$$$$
22
                    3D
 Structure written by MMmdl.
150159  0  0  1  0            999 V2000
  -30.5729  -14.7439   20.4846 C   0  0  0  0  0  0
  -30.4506  -12.4572   19.4680 C   0  0  0  0  0  0
  -29.5163  -12.5185   18.2365 C   0  0  0  0  0  0
  -28.0410  -12.3387   18.6486 C   0  0  0  0  0  0
  -27.6511  -13.2227   19.8625 C   0  0  2  0  0  0
  -28.6967  -13.1104   20.9949 C   0  0  0  0  0  0
  -25.2544  -13.8170   20.5678 C   0  0  0  0  0  0
  -24.1818  -13.0431   20.9182 C   0  0  0  0  0  0
  -24.6402  -11.6908   20.8743 C   0  0  0  0  0  0
  -23.9073  -10.4290   21.0407 C   0  0  0  0  0  0
  -24.3622   -9.4205   21.9183 C   0  0  0  0  0  0
  -23.6295   -8.2241   22.0754 C   0  0  0  0  0  0
  -22.4276   -8.0281   21.3546 C   0  0  0  0  0  0
  -21.9913   -9.0257   20.4649 C   0  0  0  0  0  0
  -22.7245  -10.2134   20.3059 C   0  0  0  0  0  0
  -21.6853   -6.0733   22.5279 C   0  0  0  0  0  0
  -21.4013   -6.5637   23.8211 C   0  0  0  0  0  0
  -21.3659   -5.6792   24.9175 C   0  0  0  0  0  0
  -21.6045   -4.3054   24.7227 C   0  0  0  0  0  0
  -21.8821   -3.8146   23.4349 C   0  0  0  0  0  0
  -21.9193   -4.6961   22.3404 C   0  0  0  0  0  0
  -22.7841  -13.5223   21.1847 C   0  0  0  0  0  0
  -22.1658   -4.2144   21.0983 F   0  0  0  0  0  0
  -21.5636   -3.4538   25.7742 F   0  0  0  0  0  0
  -30.0028  -13.4897   20.4304 N   0  0  0  0  0  0
  -26.2985  -12.9366   20.3328 N   0  0  0  0  0  0
  -25.9337  -11.6516   20.5772 N   0  0  0  0  0  0
  -22.0491  -12.8218   22.0413 N   0  0  0  0  0  0
  -25.4238  -15.1887   20.4079 N   0  0  0  0  0  0
  -31.7307  -14.9218   20.0917 O   0  0  0  0  0  0
  -21.6643   -6.8876   21.4241 O   0  0  0  0  0  0
  -22.3518  -14.5524   20.6694 O   0  0  0  0  0  0
  -24.6312  -31.8552   23.1981 C   0  0  0  0  0  0
  -25.9133  -32.4756   23.8332 C   0  0  1  0  0  0
  -27.2254  -27.2666   20.1305 C   0  0  0  0  0  0
  -25.5925  -33.8558   24.2251 N   0  0  0  0  0  0
  -23.4299  -30.4766   21.5411 C   0  0  2  0  0  0
  -24.8814  -28.9256   20.1086 C   0  0  0  0  0  0
  -22.7508  -29.4596   22.4906 C   0  0  0  0  0  0
  -18.0296  -28.1381   22.8488 C   0  0  0  0  0  0
  -24.1489  -36.7288   23.2640 C   0  0  0  0  0  0
  -25.9760  -30.7680   21.3805 C   0  0  0  0  0  0
  -26.0526  -29.3912   20.7222 C   0  0  0  0  0  0
  -27.2300  -28.5729   20.7259 C   0  0  0  0  0  0
  -26.0365  -26.8730   19.4798 C   0  0  0  0  0  0
  -24.8778  -27.6733   19.4756 C   0  0  0  0  0  0
  -23.6499  -29.8102   20.1576 C   0  0  0  0  0  0
  -25.4116  -36.3072   24.0324 C   0  0  1  0  0  0
  -20.5899  -28.3698   23.1263 C   0  0  2  0  0  0
  -20.6780  -26.9414   22.5406 C   0  0  0  0  0  0
  -19.5753  -26.6379   21.5212 C   0  0  0  0  0  0
  -18.1937  -26.7921   22.1632 C   0  0  0  0  0  0
  -19.1550  -28.8857   23.2869 C   0  0  0  0  0  0
  -18.9470  -30.1459   23.8886 C   0  0  0  0  0  0
  -17.6468  -30.6585   24.0562 C   0  0  0  0  0  0
  -25.9055  -34.9441   23.5092 C   0  0  0  0  0  0
  -16.5359  -29.9082   23.6329 C   0  0  0  0  0  0
  -16.7282  -28.6498   23.0354 C   0  0  0  0  0  0
  -26.4499  -31.6580   25.0723 C   0  0  0  0  0  0
  -25.3722  -31.3746   26.1445 C   0  0  0  0  0  0
  -27.0342  -30.2990   24.6221 C   0  0  0  0  0  0
  -27.6045  -32.4328   25.7501 C   0  0  0  0  0  0
  -27.5579  -37.1799   24.8466 C   0  0  0  0  0  0
  -21.4213  -29.3045   22.3650 N   0  0  0  0  0  0
  -26.4293  -37.3768   23.9407 N   0  0  0  0  0  0
  -24.6978  -31.0512   22.0961 N   0  0  0  0  0  0
  -23.4203  -28.8140   23.3013 O   0  0  0  0  0  0
  -28.2755  -26.3192   20.1831 O   0  0  0  0  0  0
  -26.5635  -34.8917   22.4666 O   0  0  0  0  0  0
  -23.5459  -32.1376   23.7270 O   0  0  0  0  0  0
  -30.3145  -19.5787   20.0086 C   0  0  0  0  0  0
  -30.5504  -18.1502   20.0558 C   0  0  0  0  0  0
  -28.3987  -19.3223   21.3474 C   0  0  0  0  0  0
  -29.2225  -20.2587   20.6507 C   0  0  0  0  0  0
  -29.6892  -17.2567   20.7605 C   0  0  0  0  0  0
  -28.6057  -17.9086   21.4006 C   0  0  0  0  0  0
  -28.4365  -23.7433   20.6153 C   0  0  0  0  0  0
  -27.9263  -22.5486   21.2796 C   0  0  0  0  0  0
  -27.9439  -25.0446   20.7333 C   0  0  0  0  0  0
  -29.5123  -22.8520   19.9215 C   0  0  0  0  0  0
  -28.8910  -21.7178   20.6722 N   0  0  0  0  0  0
  -29.7381  -15.7750   20.8724 N   0  0  0  0  0  0
  -26.9982  -22.4039   22.0491 O   0  0  0  0  0  0
  -27.7206  -17.1472   22.0893 F   0  0  0  0  0  0
  -31.4870  -12.6091   19.1613 H   0  0  0  0  0  0
  -30.4182  -11.4692   19.9296 H   0  0  0  0  0  0
  -29.7977  -11.7532   17.5117 H   0  0  0  0  0  0
  -29.6392  -13.4774   17.7308 H   0  0  0  0  0  0
  -27.8952  -11.2872   18.8979 H   0  0  0  0  0  0
  -27.3831  -12.5438   17.8033 H   0  0  0  0  0  0
  -27.6575  -14.2525   19.5042 H   0  0  0  0  0  0
  -28.7333  -12.0916   21.3832 H   0  0  0  0  0  0
  -28.4234  -13.7411   21.8422 H   0  0  0  0  0  0
  -25.2768   -9.5677   22.4757 H   0  0  0  0  0  0
  -24.0004   -7.4632   22.7473 H   0  0  0  0  0  0
  -21.0844   -8.8778   19.8955 H   0  0  0  0  0  0
  -22.3704  -10.9674   19.6171 H   0  0  0  0  0  0
  -21.2001   -7.6143   23.9713 H   0  0  0  0  0  0
  -21.1480   -6.0522   25.9078 H   0  0  0  0  0  0
  -22.0599   -2.7606   23.2853 H   0  0  0  0  0  0
  -22.4114  -11.9884   22.4802 H   0  0  0  0  0  0
  -21.1115  -13.1246   22.2635 H   0  0  0  0  0  0
  -24.6615  -15.8447   20.5357 H   0  0  0  0  0  0
  -26.2880  -15.6369   20.1328 H   0  0  0  0  0  0
  -26.7203  -32.5410   23.1078 H   0  0  0  0  0  0
  -25.0051  -33.9694   25.0382 H   0  0  0  0  0  0
  -22.7265  -31.2988   21.3937 H   0  0  0  0  0  0
  -23.3748  -35.9625   23.3305 H   0  0  0  0  0  0
  -24.3576  -36.8910   22.2054 H   0  0  0  0  0  0
  -23.7250  -37.6493   23.6663 H   0  0  0  0  0  0
  -26.1156  -31.5286   20.6111 H   0  0  0  0  0  0
  -26.8523  -30.8172   22.0149 H   0  0  0  0  0  0
  -28.1233  -28.9176   21.2275 H   0  0  0  0  0  0
  -25.9923  -25.9065   18.9975 H   0  0  0  0  0  0
  -23.9827  -27.3111   18.9883 H   0  0  0  0  0  0
  -23.7723  -30.5864   19.4013 H   0  0  0  0  0  0
  -22.7695  -29.2415   19.8526 H   0  0  0  0  0  0
  -25.1300  -36.1918   25.0817 H   0  0  0  0  0  0
  -20.9995  -28.3277   24.1382 H   0  0  0  0  0  0
  -20.5676  -26.2312   23.3615 H   0  0  0  0  0  0
  -21.6647  -26.7430   22.1201 H   0  0  0  0  0  0
  -19.6914  -25.6288   21.1247 H   0  0  0  0  0  0
  -19.6683  -27.3186   20.6740 H   0  0  0  0  0  0
  -17.4201  -26.6662   21.4041 H   0  0  0  0  0  0
  -18.0349  -26.0063   22.9032 H   0  0  0  0  0  0
  -19.7947  -30.7278   24.2245 H   0  0  0  0  0  0
  -17.5024  -31.6263   24.5169 H   0  0  0  0  0  0
  -15.5359  -30.2983   23.7654 H   0  0  0  0  0  0
  -15.8683  -28.0814   22.7072 H   0  0  0  0  0  0
  -24.5856  -30.7150   25.7767 H   0  0  0  0  0  0
  -24.8970  -32.2933   26.4897 H   0  0  0  0  0  0
  -25.8023  -30.8883   27.0209 H   0  0  0  0  0  0
  -26.2930  -29.6739   24.1226 H   0  0  0  0  0  0
  -27.3995  -29.7251   25.4750 H   0  0  0  0  0  0
  -27.8825  -30.4253   23.9487 H   0  0  0  0  0  0
  -27.2630  -33.3619   26.2078 H   0  0  0  0  0  0
  -28.3852  -32.6907   25.0332 H   0  0  0  0  0  0
  -28.0715  -31.8461   26.5420 H   0  0  0  0  0  0
  -28.2598  -38.0093   24.7499 H   0  0  0  0  0  0
  -28.1070  -36.2622   24.6306 H   0  0  0  0  0  0
  -27.2294  -37.1467   25.8869 H   0  0  0  0  0  0
  -20.9401  -29.8775   21.6860 H   0  0  0  0  0  0
  -26.0171  -38.2845   24.1396 H   0  0  0  0  0  0
  -31.0171  -20.1776   19.4465 H   0  0  0  0  0  0
  -31.4023  -17.7474   19.5268 H   0  0  0  0  0  0
  -27.5371  -19.6972   21.8789 H   0  0  0  0  0  0
  -27.1021  -25.1664   21.4035 H   0  0  0  0  0  0
  -30.5540  -23.0043   20.2088 H   0  0  0  0  0  0
  -29.4314  -22.7135   18.8421 H   0  0  0  0  0  0
  -28.8870  -15.4125   21.2766 H   0  0  0  0  0  0
  1 25  1  0  0  0
  1 30  2  0  0  0
  1 82  1  0  0  0
  2  3  1  0  0  0
  2 25  1  0  0  0
  2 85  1  0  0  0
  2 86  1  0  0  0
  3  4  1  0  0  0
  3 87  1  0  0  0
  3 88  1  0  0  0
  4  5  1  0  0  0
  4 89  1  0  0  0
  4 90  1  0  0  0
  5  6  1  0  0  0
  5 26  1  0  0  0
  5 91  1  0  0  0
  6 25  1  0  0  0
  6 92  1  0  0  0
  6 93  1  0  0  0
  7  8  2  0  0  0
  7 26  1  0  0  0
  7 29  1  0  0  0
  8  9  1  0  0  0
  8 22  1  0  0  0
  9 10  1  0  0  0
  9 27  2  0  0  0
 10 11  2  0  0  0
 10 15  1  0  0  0
 11 12  1  0  0  0
 11 94  1  0  0  0
 12 13  2  0  0  0
 12 95  1  0  0  0
 13 14  1  0  0  0
 13 31  1  0  0  0
 14 15  2  0  0  0
 14 96  1  0  0  0
 15 97  1  0  0  0
 16 17  2  0  0  0
 16 21  1  0  0  0
 16 31  1  0  0  0
 17 18  1  0  0  0
 17 98  1  0  0  0
 18 19  2  0  0  0
 18 99  1  0  0  0
 19 20  1  0  0  0
 19 24  1  0  0  0
 20 21  2  0  0  0
 20100  1  0  0  0
 21 23  1  0  0  0
 22 28  1  0  0  0
 22 32  2  0  0  0
 26 27  1  0  0  0
 28101  1  0  0  0
 28102  1  0  0  0
 29103  1  0  0  0
 29104  1  0  0  0
 33 34  1  0  0  0
 33 66  1  0  0  0
 33 70  2  0  0  0
 34 36  1  0  0  0
 34 59  1  0  0  0
 34105  1  0  0  0
 35 44  2  0  0  0
 35 45  1  0  0  0
 35 68  1  0  0  0
 36 56  1  0  0  0
 36106  1  0  0  0
 37 39  1  0  0  0
 37 47  1  0  0  0
 37 66  1  0  0  0
 37107  1  0  0  0
 38 43  2  0  0  0
 38 46  1  0  0  0
 38 47  1  0  0  0
 39 64  1  0  0  0
 39 67  2  0  0  0
 40 52  1  0  0  0
 40 53  2  0  0  0
 40 58  1  0  0  0
 41108  1  0  0  0
 41109  1  0  0  0
 41110  1  0  0  0
 41 48  1  0  0  0
 42 43  1  0  0  0
 42 66  1  0  0  0
 42111  1  0  0  0
 42112  1  0  0  0
 43 44  1  0  0  0
 44113  1  0  0  0
 45 46  2  0  0  0
 45114  1  0  0  0
 46115  1  0  0  0
 47116  1  0  0  0
 47117  1  0  0  0
 48 56  1  0  0  0
 48 65  1  0  0  0
 48118  1  0  0  0
 49 50  1  0  0  0
 49 53  1  0  0  0
 49 64  1  0  0  0
 49119  1  0  0  0
 50 51  1  0  0  0
 50120  1  0  0  0
 50121  1  0  0  0
 51 52  1  0  0  0
 51122  1  0  0  0
 51123  1  0  0  0
 52124  1  0  0  0
 52125  1  0  0  0
 53 54  1  0  0  0
 54 55  2  0  0  0
 54126  1  0  0  0
 55 57  1  0  0  0
 55127  1  0  0  0
 56 69  2  0  0  0
 57 58  2  0  0  0
 57128  1  0  0  0
 58129  1  0  0  0
 59 60  1  0  0  0
 59 61  1  0  0  0
 59 62  1  0  0  0
 60130  1  0  0  0
 60131  1  0  0  0
 60132  1  0  0  0
 61133  1  0  0  0
 61134  1  0  0  0
 61135  1  0  0  0
 62136  1  0  0  0
 62137  1  0  0  0
 62138  1  0  0  0
 63 65  1  0  0  0
 63139  1  0  0  0
 63140  1  0  0  0
 63141  1  0  0  0
 64142  1  0  0  0
 65143  1  0  0  0
 68 79  1  0  0  0
 71 72  2  0  0  0
 71 74  1  0  0  0
 71144  1  0  0  0
 72 75  1  0  0  0
 72145  1  0  0  0
 73 74  2  0  0  0
 73 76  1  0  0  0
 73146  1  0  0  0
 74 81  1  0  0  0
 75 76  2  0  0  0
 75 82  1  0  0  0
 76 84  1  0  0  0
 77 78  1  0  0  0
 77 79  2  0  0  0
 77 80  1  0  0  0
 78 81  1  0  0  0
 78 83  2  0  0  0
 79147  1  0  0  0
 80 81  1  0  0  0
 80148  1  0  0  0
 80149  1  0  0  0
 82150  1  0  0  0
M  ISO  4   1 100  68 101  79 101  82 100
M  END
> <chiral flag>
0

> <version>
0

> <s_m_source_file>
/data/baiqing/PycharmProjects/Reinvent-master-3.2/result/LINK_invent/BTK/process_docking_weight1_custom_product_contain_oxygen_bond_distance_aromatic_linkinvent_7_9_3/rearranged_h_0084.sdf

> <i_m_source_file_index>
23

> <r_mmod_Potential_Energy-OPLS-2005>
198.142578125

> <r_mmod_Stretch_Energy-OPLS-2005>
106.317687988281

> <r_mmod_Bend_Energy-OPLS-2005>
271.832885742188

> <r_mmod_Torsional_Energy-OPLS-2005>
219.378356933594

> <r_mmod_Improper_Torsional_Energy-OPLS-2005>
3.23730540275574

> <r_mmod_Van_der_Waal_Energy-OPLS-2005>
133.984222412109

> <r_mmod_Electrostatic_Energy-OPLS-2005>
-415.522491455078

> <r_mmod_Solvation_Energy-OPLS-2005>
-209.682037353516

> <b_mmod_Minimization_Converged-OPLS-2005>
0

> <r_mmod_RMS_Derivative-OPLS-2005>
0.625052928924561

$$$$
23
                    3D
 Structure written by MMmdl.
143151  0  0  1  0            999 V2000
  -30.4670  -15.1304   20.3839 C   0  0  0  0  0  0
  -30.4470  -12.7104   19.5093 C   0  0  0  0  0  0
  -29.5306  -12.5487   18.2717 C   0  0  0  0  0  0
  -28.0723  -12.2997   18.6994 C   0  0  0  0  0  0
  -27.6220  -13.2590   19.8304 C   0  0  2  0  0  0
  -28.6629  -13.3644   20.9646 C   0  0  0  0  0  0
  -25.2437  -13.8227   20.5719 C   0  0  0  0  0  0
  -24.1774  -13.0435   20.9251 C   0  0  0  0  0  0
  -24.6410  -11.6927   20.8775 C   0  0  0  0  0  0
  -23.9096  -10.4294   21.0422 C   0  0  0  0  0  0
  -24.3640   -9.4206   21.9196 C   0  0  0  0  0  0
  -23.6305   -8.2246   22.0762 C   0  0  0  0  0  0
  -22.4286   -8.0290   21.3550 C   0  0  0  0  0  0
  -21.9932   -9.0269   20.4653 C   0  0  0  0  0  0
  -22.7272  -10.2142   20.3065 C   0  0  0  0  0  0
  -21.6857   -6.0745   22.5280 C   0  0  0  0  0  0
  -21.4018   -6.5645   23.8215 C   0  0  0  0  0  0
  -21.3656   -5.6794   24.9175 C   0  0  0  0  0  0
  -21.6040   -4.3057   24.7222 C   0  0  0  0  0  0
  -21.8822   -3.8153   23.4343 C   0  0  0  0  0  0
  -21.9195   -4.6972   22.3402 C   0  0  0  0  0  0
  -22.7791  -13.5202   21.1889 C   0  0  0  0  0  0
  -22.1664   -4.2158   21.0979 F   0  0  0  0  0  0
  -21.5624   -3.4539   25.7734 F   0  0  0  0  0  0
  -29.9115  -13.8341   20.3463 N   0  0  0  0  0  0
  -26.2865  -12.9476   20.3236 N   0  0  0  0  0  0
  -25.9343  -11.6597   20.5749 N   0  0  0  0  0  0
  -22.0440  -12.8192   22.0440 N   0  0  0  0  0  0
  -25.4064  -15.1960   20.4107 N   0  0  0  0  0  0
  -31.6859  -15.1764   20.1662 O   0  0  0  0  0  0
  -21.6645   -6.8890   21.4243 O   0  0  0  0  0  0
  -22.3480  -14.5505   20.6724 O   0  0  0  0  0  0
  -24.6554  -31.8323   23.1782 C   0  0  0  0  0  0
  -25.9270  -32.4640   23.8221 C   0  0  1  0  0  0
  -27.2201  -27.0148   20.1750 C   0  0  0  0  0  0
  -25.5969  -33.8450   24.2129 N   0  0  0  0  0  0
  -23.4662  -30.4468   21.5256 C   0  0  2  0  0  0
  -24.9189  -28.8478   20.1162 C   0  0  0  0  0  0
  -22.7625  -29.4491   22.4816 C   0  0  0  0  0  0
  -18.0312  -28.1414   22.8465 C   0  0  0  0  0  0
  -24.1493  -36.7229   23.2643 C   0  0  0  0  0  0
  -26.0302  -30.6669   21.3953 C   0  0  0  0  0  0
  -26.1011  -29.2634   20.7438 C   0  0  0  0  0  0
  -27.2508  -28.3659   20.7521 C   0  0  0  0  0  0
  -26.0113  -26.7301   19.5041 C   0  0  0  0  0  0
  -24.8933  -27.5973   19.4788 C   0  0  0  0  0  0
  -23.7011  -29.7653   20.1507 C   0  0  0  0  0  0
  -25.4133  -36.3003   24.0305 C   0  0  1  0  0  0
  -20.5930  -28.3752   23.1204 C   0  0  2  0  0  0
  -20.6797  -26.9445   22.5401 C   0  0  0  0  0  0
  -19.5772  -26.6392   21.5212 C   0  0  0  0  0  0
  -18.1953  -26.7947   22.1620 C   0  0  0  0  0  0
  -19.1571  -28.8904   23.2822 C   0  0  0  0  0  0
  -18.9480  -30.1492   23.8862 C   0  0  0  0  0  0
  -17.6475  -30.6604   24.0561 C   0  0  0  0  0  0
  -25.9088  -34.9378   23.5032 C   0  0  0  0  0  0
  -16.5367  -29.9091   23.6345 C   0  0  0  0  0  0
  -16.7293  -28.6513   23.0358 C   0  0  0  0  0  0
  -26.4549  -31.6551   25.0709 C   0  0  0  0  0  0
  -25.3696  -31.3759   26.1374 C   0  0  0  0  0  0
  -27.0427  -30.2933   24.6373 C   0  0  0  0  0  0
  -27.6067  -32.4333   25.7501 C   0  0  0  0  0  0
  -27.5572  -37.1775   24.8469 C   0  0  0  0  0  0
  -21.4301  -29.3048   22.3559 N   0  0  0  0  0  0
  -26.4290  -37.3725   23.9397 N   0  0  0  0  0  0
  -24.7381  -31.0065   22.0876 N   0  0  0  0  0  0
  -23.4205  -28.8047   23.3021 O   0  0  0  0  0  0
  -28.2409  -25.9555   20.1802 O   0  0  0  0  0  0
  -26.5688  -34.8894   22.4620 O   0  0  0  0  0  0
  -23.5644  -32.1252   23.6926 O   0  0  0  0  0  0
  -28.4640  -23.1979   20.2422 C   0  0  0  0  0  0
  -28.8584  -18.9238   20.2660 C   0  0  0  0  0  0
  -30.6904  -20.3117   20.4365 C   0  0  0  0  0  0
  -29.3286  -20.3912   20.2588 C   0  0  0  0  0  0
  -29.7871  -17.8025   20.4031 C   0  0  0  0  0  0
  -28.5441  -21.8208   19.9426 C   0  0  0  0  0  0
  -27.9708  -24.5026   20.4659 C   0  0  0  0  0  0
  -29.6388  -16.3303   20.4420 N   0  0  0  0  0  0
  -31.3323  -18.6382   20.5648 S   0  0  0  0  0  0
  -31.4703  -12.9039   19.1840 H   0  0  0  0  0  0
  -30.4893  -11.7841   20.0847 H   0  0  0  0  0  0
  -29.8817  -11.7296   17.6426 H   0  0  0  0  0  0
  -29.5823  -13.4497   17.6588 H   0  0  0  0  0  0
  -28.0065  -11.2687   19.0489 H   0  0  0  0  0  0
  -27.4021  -12.3744   17.8424 H   0  0  0  0  0  0
  -27.5592  -14.2416   19.3618 H   0  0  0  0  0  0
  -28.7998  -12.4082   21.4719 H   0  0  0  0  0  0
  -28.3316  -14.0741   21.7243 H   0  0  0  0  0  0
  -25.2784   -9.5675   22.4776 H   0  0  0  0  0  0
  -24.0006   -7.4639   22.7486 H   0  0  0  0  0  0
  -21.0862   -8.8800   19.8961 H   0  0  0  0  0  0
  -22.3739  -10.9685   19.6176 H   0  0  0  0  0  0
  -21.2016   -7.6154   23.9720 H   0  0  0  0  0  0
  -21.1471   -6.0524   25.9077 H   0  0  0  0  0  0
  -22.0603   -2.7615   23.2841 H   0  0  0  0  0  0
  -22.4065  -11.9857   22.4826 H   0  0  0  0  0  0
  -21.1059  -13.1216   22.2645 H   0  0  0  0  0  0
  -24.6265  -15.8368   20.5114 H   0  0  0  0  0  0
  -26.2272  -15.6349   20.0156 H   0  0  0  0  0  0
  -26.7333  -32.5210   23.0939 H   0  0  0  0  0  0
  -25.0075  -33.9551   25.0251 H   0  0  0  0  0  0
  -22.7752  -31.2761   21.3592 H   0  0  0  0  0  0
  -23.3763  -35.9554   23.3303 H   0  0  0  0  0  0
  -24.3566  -36.8878   22.2059 H   0  0  0  0  0  0
  -23.7247  -37.6420   23.6691 H   0  0  0  0  0  0
  -26.1970  -31.4111   20.6156 H   0  0  0  0  0  0
  -26.8966  -30.7262   22.0422 H   0  0  0  0  0  0
  -28.1536  -28.6829   21.2549 H   0  0  0  0  0  0
  -25.9114  -25.7724   19.0125 H   0  0  0  0  0  0
  -23.9947  -27.2741   18.9711 H   0  0  0  0  0  0
  -23.8479  -30.5347   19.3914 H   0  0  0  0  0  0
  -22.8132  -29.2124   19.8379 H   0  0  0  0  0  0
  -25.1329  -36.1819   25.0799 H   0  0  0  0  0  0
  -21.0017  -28.3362   24.1327 H   0  0  0  0  0  0
  -20.5693  -26.2368   23.3632 H   0  0  0  0  0  0
  -21.6659  -26.7442   22.1198 H   0  0  0  0  0  0
  -19.6937  -25.6291   21.1270 H   0  0  0  0  0  0
  -19.6717  -27.3177   20.6724 H   0  0  0  0  0  0
  -17.4220  -26.6680   21.4032 H   0  0  0  0  0  0
  -18.0356  -26.0105   22.9036 H   0  0  0  0  0  0
  -19.7952  -30.7318   24.2220 H   0  0  0  0  0  0
  -17.5024  -31.6280   24.5168 H   0  0  0  0  0  0
  -15.5364  -30.2980   23.7696 H   0  0  0  0  0  0
  -15.8691  -28.0826   22.7090 H   0  0  0  0  0  0
  -24.5909  -30.7080   25.7667 H   0  0  0  0  0  0
  -24.8844  -32.2940   26.4698 H   0  0  0  0  0  0
  -25.7950  -30.8994   27.0215 H   0  0  0  0  0  0
  -26.3070  -29.6631   24.1368 H   0  0  0  0  0  0
  -27.3976  -29.7272   25.4993 H   0  0  0  0  0  0
  -27.9007  -30.4133   23.9756 H   0  0  0  0  0  0
  -27.2667  -33.3671   26.1987 H   0  0  0  0  0  0
  -28.3929  -32.6833   25.0362 H   0  0  0  0  0  0
  -28.0680  -31.8516   26.5493 H   0  0  0  0  0  0
  -28.2591  -38.0068   24.7496 H   0  0  0  0  0  0
  -28.1069  -36.2595   24.6332 H   0  0  0  0  0  0
  -27.2280  -37.1461   25.8871 H   0  0  0  0  0  0
  -20.9544  -29.8731   21.6692 H   0  0  0  0  0  0
  -26.0154  -38.2794   24.1391 H   0  0  0  0  0  0
  -27.8015  -18.7424   20.1290 H   0  0  0  0  0  0
  -31.3903  -21.1383   20.4599 H   0  0  0  0  0  0
  -27.8403  -21.5888   19.1556 H   0  0  0  0  0  0
  -27.0990  -24.5166   21.1054 H   0  0  0  0  0  0
  -28.6712  -16.0543   20.5149 H   0  0  0  0  0  0
  1 25  1  0  0  0
  1 30  2  0  0  0
  1 78  1  0  0  0
  2  3  1  0  0  0
  2 25  1  0  0  0
  2 80  1  0  0  0
  2 81  1  0  0  0
  3  4  1  0  0  0
  3 82  1  0  0  0
  3 83  1  0  0  0
  4  5  1  0  0  0
  4 84  1  0  0  0
  4 85  1  0  0  0
  5  6  1  0  0  0
  5 26  1  0  0  0
  5 86  1  0  0  0
  6 25  1  0  0  0
  6 87  1  0  0  0
  6 88  1  0  0  0
  7  8  2  0  0  0
  7 26  1  0  0  0
  7 29  1  0  0  0
  8  9  1  0  0  0
  8 22  1  0  0  0
  9 10  1  0  0  0
  9 27  2  0  0  0
 10 11  2  0  0  0
 10 15  1  0  0  0
 11 12  1  0  0  0
 11 89  1  0  0  0
 12 13  2  0  0  0
 12 90  1  0  0  0
 13 14  1  0  0  0
 13 31  1  0  0  0
 14 15  2  0  0  0
 14 91  1  0  0  0
 15 92  1  0  0  0
 16 17  2  0  0  0
 16 21  1  0  0  0
 16 31  1  0  0  0
 17 18  1  0  0  0
 17 93  1  0  0  0
 18 19  2  0  0  0
 18 94  1  0  0  0
 19 20  1  0  0  0
 19 24  1  0  0  0
 20 21  2  0  0  0
 20 95  1  0  0  0
 21 23  1  0  0  0
 22 28  1  0  0  0
 22 32  2  0  0  0
 26 27  1  0  0  0
 28 96  1  0  0  0
 28 97  1  0  0  0
 29 98  1  0  0  0
 29 99  1  0  0  0
 33 34  1  0  0  0
 33 66  1  0  0  0
 33 70  2  0  0  0
 34 36  1  0  0  0
 34 59  1  0  0  0
 34100  1  0  0  0
 35 44  2  0  0  0
 35 45  1  0  0  0
 35 68  1  0  0  0
 36 56  1  0  0  0
 36101  1  0  0  0
 37 39  1  0  0  0
 37 47  1  0  0  0
 37 66  1  0  0  0
 37102  1  0  0  0
 38 43  2  0  0  0
 38 46  1  0  0  0
 38 47  1  0  0  0
 39 64  1  0  0  0
 39 67  2  0  0  0
 40 52  1  0  0  0
 40 53  2  0  0  0
 40 58  1  0  0  0
 41103  1  0  0  0
 41104  1  0  0  0
 41105  1  0  0  0
 41 48  1  0  0  0
 42 43  1  0  0  0
 42 66  1  0  0  0
 42106  1  0  0  0
 42107  1  0  0  0
 43 44  1  0  0  0
 44108  1  0  0  0
 45 46  2  0  0  0
 45109  1  0  0  0
 46110  1  0  0  0
 47111  1  0  0  0
 47112  1  0  0  0
 48 56  1  0  0  0
 48 65  1  0  0  0
 48113  1  0  0  0
 49 50  1  0  0  0
 49 53  1  0  0  0
 49 64  1  0  0  0
 49114  1  0  0  0
 50 51  1  0  0  0
 50115  1  0  0  0
 50116  1  0  0  0
 51 52  1  0  0  0
 51117  1  0  0  0
 51118  1  0  0  0
 52119  1  0  0  0
 52120  1  0  0  0
 53 54  1  0  0  0
 54 55  2  0  0  0
 54121  1  0  0  0
 55 57  1  0  0  0
 55122  1  0  0  0
 56 69  2  0  0  0
 57 58  2  0  0  0
 57123  1  0  0  0
 58124  1  0  0  0
 59 60  1  0  0  0
 59 61  1  0  0  0
 59 62  1  0  0  0
 60125  1  0  0  0
 60126  1  0  0  0
 60127  1  0  0  0
 61128  1  0  0  0
 61129  1  0  0  0
 61130  1  0  0  0
 62131  1  0  0  0
 62132  1  0  0  0
 62133  1  0  0  0
 63 65  1  0  0  0
 63134  1  0  0  0
 63135  1  0  0  0
 63136  1  0  0  0
 64137  1  0  0  0
 65138  1  0  0  0
 68 77  1  0  0  0
 71 76  2  0  0  0
 71 77  2  0  0  0
 72 74  1  0  0  0
 72 75  2  0  0  0
 72139  1  0  0  0
 73 74  2  0  0  0
 73 79  1  0  0  0
 73140  1  0  0  0
 74 76  1  0  0  0
 75 78  1  0  0  0
 75 79  1  0  0  0
 76141  1  0  0  0
 77142  1  0  0  0
 78143  1  0  0  0
M  ISO  4   1 100  68 101  77 101  78 100
M  END
> <chiral flag>
0

> <version>
0

> <s_m_source_file>
/data/baiqing/PycharmProjects/Reinvent-master-3.2/result/LINK_invent/BTK/process_docking_weight1_custom_product_contain_oxygen_bond_distance_aromatic_linkinvent_7_9_3/rearranged_h_0084.sdf

> <i_m_source_file_index>
24

> <r_mmod_Potential_Energy-OPLS-2005>
664.8515625

> <r_mmod_Stretch_Energy-OPLS-2005>
348.158111572266

> <r_mmod_Bend_Energy-OPLS-2005>
321.140777587891

> <r_mmod_Torsional_Energy-OPLS-2005>
126.219772338867

> <r_mmod_Improper_Torsional_Energy-OPLS-2005>
5.94030618667603

> <r_mmod_Van_der_Waal_Energy-OPLS-2005>
107.121696472168

> <r_mmod_Electrostatic_Energy-OPLS-2005>
-360.035125732422

> <r_mmod_Solvation_Energy-OPLS-2005>
-214.583679199219

> <b_mmod_Minimization_Converged-OPLS-2005>
0

> <r_mmod_RMS_Derivative-OPLS-2005>
0.929116249084473

$$$$
24
                    3D
 Structure written by MMmdl.
154163  0  0  1  0            999 V2000
  -30.6992  -14.5338   20.4487 C   0  0  0  0  0  0
  -30.4080  -12.3108   19.4612 C   0  0  0  0  0  0
  -29.5027  -12.4845   18.2239 C   0  0  0  0  0  0
  -28.0194  -12.3631   18.6198 C   0  0  0  0  0  0
  -27.6530  -13.2226   19.8608 C   0  0  2  0  0  0
  -28.6927  -13.0830   20.9966 C   0  0  0  0  0  0
  -25.2556  -13.8201   20.5695 C   0  0  0  0  0  0
  -24.1827  -13.0460   20.9185 C   0  0  0  0  0  0
  -24.6389  -11.6937   20.8727 C   0  0  0  0  0  0
  -23.9056  -10.4308   21.0369 C   0  0  0  0  0  0
  -24.3610   -9.4233   21.9159 C   0  0  0  0  0  0
  -23.6301   -8.2260   22.0747 C   0  0  0  0  0  0
  -22.4292   -8.0276   21.3522 C   0  0  0  0  0  0
  -21.9903   -9.0249   20.4629 C   0  0  0  0  0  0
  -22.7225  -10.2130   20.3026 C   0  0  0  0  0  0
  -21.6850   -6.0730   22.5270 C   0  0  0  0  0  0
  -21.4001   -6.5637   23.8200 C   0  0  0  0  0  0
  -21.3662   -5.6794   24.9170 C   0  0  0  0  0  0
  -21.6055   -4.3056   24.7221 C   0  0  0  0  0  0
  -21.8826   -3.8141   23.4343 C   0  0  0  0  0  0
  -21.9201   -4.6957   22.3398 C   0  0  0  0  0  0
  -22.7854  -13.5233   21.1878 C   0  0  0  0  0  0
  -22.1675   -4.2136   21.0984 F   0  0  0  0  0  0
  -21.5639   -3.4539   25.7738 F   0  0  0  0  0  0
  -30.0215  -13.3507   20.4348 N   0  0  0  0  0  0
  -26.2975  -12.9387   20.3301 N   0  0  0  0  0  0
  -25.9313  -11.6540   20.5714 N   0  0  0  0  0  0
  -22.0501  -12.8188   22.0416 N   0  0  0  0  0  0
  -25.4311  -15.1925   20.4162 N   0  0  0  0  0  0
  -31.8907  -14.5814   20.1273 O   0  0  0  0  0  0
  -21.6654   -6.8874   21.4240 O   0  0  0  0  0  0
  -22.3531  -14.5549   20.6755 O   0  0  0  0  0  0
  -24.6186  -31.8619   23.2115 C   0  0  0  0  0  0
  -25.9075  -32.4785   23.8413 C   0  0  1  0  0  0
  -27.2346  -27.4132   20.1102 C   0  0  0  0  0  0
  -25.5943  -33.8585   24.2378 N   0  0  0  0  0  0
  -23.4083  -30.4864   21.5472 C   0  0  2  0  0  0
  -24.8613  -28.9575   20.1039 C   0  0  0  0  0  0
  -22.7426  -29.4624   22.4958 C   0  0  0  0  0  0
  -18.0250  -28.1375   22.8475 C   0  0  0  0  0  0
  -24.1457  -36.7272   23.2638 C   0  0  0  0  0  0
  -25.9390  -30.8282   21.3661 C   0  0  0  0  0  0
  -26.0208  -29.4635   20.7067 C   0  0  0  0  0  0
  -27.2138  -28.6985   20.7079 C   0  0  0  0  0  0
  -26.0656  -26.9329   19.4880 C   0  0  0  0  0  0
  -24.8808  -27.6932   19.4875 C   0  0  0  0  0  0
  -23.6208  -29.8217   20.1591 C   0  0  0  0  0  0
  -25.4070  -36.3093   24.0380 C   0  0  1  0  0  0
  -20.5847  -28.3662   23.1305 C   0  0  2  0  0  0
  -20.6737  -26.9398   22.5405 C   0  0  0  0  0  0
  -19.5723  -26.6369   21.5202 C   0  0  0  0  0  0
  -18.1896  -26.7923   22.1603 C   0  0  0  0  0  0
  -19.1499  -28.8843   23.2867 C   0  0  0  0  0  0
  -18.9435  -30.1444   23.8886 C   0  0  0  0  0  0
  -17.6439  -30.6587   24.0548 C   0  0  0  0  0  0
  -25.9018  -34.9465   23.5170 C   0  0  0  0  0  0
  -16.5325  -29.9072   23.6350 C   0  0  0  0  0  0
  -16.7240  -28.6483   23.0381 C   0  0  0  0  0  0
  -26.4526  -31.6563   25.0732 C   0  0  0  0  0  0
  -25.3821  -31.3640   26.1495 C   0  0  0  0  0  0
  -27.0396  -30.3007   24.6139 C   0  0  0  0  0  0
  -27.6117  -32.4277   25.7484 C   0  0  0  0  0  0
  -27.5590  -37.1722   24.8439 C   0  0  0  0  0  0
  -21.4149  -29.3007   22.3705 N   0  0  0  0  0  0
  -26.4226  -37.3813   23.9521 N   0  0  0  0  0  0
  -24.6725  -31.0709   22.1014 N   0  0  0  0  0  0
  -23.4173  -28.8160   23.3008 O   0  0  0  0  0  0
  -28.3111  -26.5542   20.2156 O   0  0  0  0  0  0
  -26.5537  -34.8939   22.4699 O   0  0  0  0  0  0
  -23.5374  -32.1373   23.7502 O   0  0  0  0  0  0
  -30.4970  -19.3093   19.8018 C   0  0  0  0  0  0
  -28.7324  -18.4550   21.2155 C   0  0  0  0  0  0
  -30.1681  -20.6393   20.1486 C   0  0  0  0  0  0
  -28.4126  -19.7915   21.5824 C   0  0  0  0  0  0
  -29.7982  -18.1885   20.3219 C   0  0  0  0  0  0
  -29.1170  -20.9090   21.0538 C   0  0  0  0  0  0
  -28.5078  -24.5258   21.6554 C   0  0  0  0  0  0
  -28.3048  -23.9814   22.9822 C   0  0  0  0  0  0
  -28.8460  -23.4224   20.7572 C   0  0  0  0  0  0
  -28.3075  -25.8514   21.4104 C   0  0  0  0  0  0
  -30.1964  -16.7966   19.8380 C   0  0  0  0  0  0
  -28.4036  -22.4804   22.8843 C   0  0  0  0  0  0
  -28.8136  -22.2590   21.4898 N   0  0  0  0  0  0
  -29.9716  -15.6766   20.5834 N   0  0  0  0  0  0
  -28.0464  -24.5858   24.0301 O   0  0  0  0  0  0
  -29.1148  -23.5051   19.5525 O   0  0  0  0  0  0
  -30.7622  -16.7429   18.7369 O   0  0  0  0  0  0
  -31.4587  -12.3671   19.1680 H   0  0  0  0  0  0
  -30.2779  -11.3171   19.8937 H   0  0  0  0  0  0
  -29.7477  -11.7353   17.4694 H   0  0  0  0  0  0
  -29.6858  -13.4561   17.7599 H   0  0  0  0  0  0
  -27.8177  -11.3119   18.8242 H   0  0  0  0  0  0
  -27.3810  -12.6353   17.7786 H   0  0  0  0  0  0
  -27.6733  -14.2602   19.5270 H   0  0  0  0  0  0
  -28.6643  -12.0800   21.4253 H   0  0  0  0  0  0
  -28.4611  -13.7673   21.8145 H   0  0  0  0  0  0
  -25.2762   -9.5732   22.4728 H   0  0  0  0  0  0
  -24.0026   -7.4652   22.7460 H   0  0  0  0  0  0
  -21.0837   -8.8751   19.8935 H   0  0  0  0  0  0
  -22.3677  -10.9654   19.6125 H   0  0  0  0  0  0
  -21.1967   -7.6136   23.9697 H   0  0  0  0  0  0
  -21.1482   -6.0522   25.9075 H   0  0  0  0  0  0
  -22.0601   -2.7604   23.2843 H   0  0  0  0  0  0
  -22.4111  -11.9817   22.4743 H   0  0  0  0  0  0
  -21.1120  -13.1202   22.2660 H   0  0  0  0  0  0
  -24.6716  -15.8549   20.5294 H   0  0  0  0  0  0
  -26.2880  -15.6249   20.0977 H   0  0  0  0  0  0
  -26.7130  -32.5524   23.1176 H   0  0  0  0  0  0
  -25.0256  -33.9744   25.0636 H   0  0  0  0  0  0
  -22.6958  -31.3032   21.4095 H   0  0  0  0  0  0
  -23.3788  -35.9510   23.3147 H   0  0  0  0  0  0
  -24.3609  -36.9009   22.2080 H   0  0  0  0  0  0
  -23.7075  -37.6396   23.6711 H   0  0  0  0  0  0
  -26.0560  -31.6011   20.6053 H   0  0  0  0  0  0
  -26.8230  -30.8764   21.9898 H   0  0  0  0  0  0
  -28.1006  -29.0708   21.2012 H   0  0  0  0  0  0
  -26.0660  -25.9482   19.0407 H   0  0  0  0  0  0
  -23.9908  -27.2935   19.0192 H   0  0  0  0  0  0
  -23.7313  -30.6005   19.4027 H   0  0  0  0  0  0
  -22.7468  -29.2407   19.8609 H   0  0  0  0  0  0
  -25.1206  -36.1926   25.0861 H   0  0  0  0  0  0
  -20.9930  -28.3191   24.1439 H   0  0  0  0  0  0
  -20.5640  -26.2264   23.3572 H   0  0  0  0  0  0
  -21.6597  -26.7436   22.1194 H   0  0  0  0  0  0
  -19.6872  -25.6275   21.1237 H   0  0  0  0  0  0
  -19.6689  -27.3161   20.6715 H   0  0  0  0  0  0
  -17.4188  -26.6697   21.3983 H   0  0  0  0  0  0
  -18.0277  -26.0058   22.8993 H   0  0  0  0  0  0
  -19.7916  -30.7236   24.2270 H   0  0  0  0  0  0
  -17.5012  -31.6294   24.5103 H   0  0  0  0  0  0
  -15.5324  -30.2975   23.7715 H   0  0  0  0  0  0
  -15.8625  -28.0798   22.7153 H   0  0  0  0  0  0
  -24.5989  -30.6995   25.7822 H   0  0  0  0  0  0
  -24.9032  -32.2781   26.5000 H   0  0  0  0  0  0
  -25.8208  -30.8767   27.0213 H   0  0  0  0  0  0
  -26.2951  -29.6677   24.1289 H   0  0  0  0  0  0
  -27.4260  -29.7329   25.4615 H   0  0  0  0  0  0
  -27.8739  -30.4313   23.9245 H   0  0  0  0  0  0
  -27.2772  -33.3590   26.2061 H   0  0  0  0  0  0
  -28.3926  -32.6783   25.0296 H   0  0  0  0  0  0
  -28.0787  -31.8390   26.5396 H   0  0  0  0  0  0
  -28.2415  -38.0199   24.7795 H   0  0  0  0  0  0
  -28.1269  -36.2776   24.5851 H   0  0  0  0  0  0
  -27.2396  -37.0849   25.8833 H   0  0  0  0  0  0
  -20.9320  -29.8756   21.6946 H   0  0  0  0  0  0
  -26.0100  -38.2835   24.1724 H   0  0  0  0  0  0
  -31.3166  -19.1584   19.1116 H   0  0  0  0  0  0
  -28.1449  -17.6453   21.6255 H   0  0  0  0  0  0
  -30.7564  -21.4440   19.7299 H   0  0  0  0  0  0
  -27.5963  -19.9455   22.2746 H   0  0  0  0  0  0
  -28.0305  -26.5026   22.2308 H   0  0  0  0  0  0
  -27.4285  -22.0437   23.0974 H   0  0  0  0  0  0
  -29.1356  -22.0943   23.5926 H   0  0  0  0  0  0
  -29.1972  -15.6810   21.2247 H   0  0  0  0  0  0
  1 25  1  0  0  0
  1 30  2  0  0  0
  1 84  1  0  0  0
  2  3  1  0  0  0
  2 25  1  0  0  0
  2 88  1  0  0  0
  2 89  1  0  0  0
  3  4  1  0  0  0
  3 90  1  0  0  0
  3 91  1  0  0  0
  4  5  1  0  0  0
  4 92  1  0  0  0
  4 93  1  0  0  0
  5  6  1  0  0  0
  5 26  1  0  0  0
  5 94  1  0  0  0
  6 25  1  0  0  0
  6 95  1  0  0  0
  6 96  1  0  0  0
  7  8  2  0  0  0
  7 26  1  0  0  0
  7 29  1  0  0  0
  8  9  1  0  0  0
  8 22  1  0  0  0
  9 10  1  0  0  0
  9 27  2  0  0  0
 10 11  2  0  0  0
 10 15  1  0  0  0
 11 12  1  0  0  0
 11 97  1  0  0  0
 12 13  2  0  0  0
 12 98  1  0  0  0
 13 14  1  0  0  0
 13 31  1  0  0  0
 14 15  2  0  0  0
 14 99  1  0  0  0
 15100  1  0  0  0
 16 17  2  0  0  0
 16 21  1  0  0  0
 16 31  1  0  0  0
 17 18  1  0  0  0
 17101  1  0  0  0
 18 19  2  0  0  0
 18102  1  0  0  0
 19 20  1  0  0  0
 19 24  1  0  0  0
 20 21  2  0  0  0
 20103  1  0  0  0
 21 23  1  0  0  0
 22 28  1  0  0  0
 22 32  2  0  0  0
 26 27  1  0  0  0
 28104  1  0  0  0
 28105  1  0  0  0
 29106  1  0  0  0
 29107  1  0  0  0
 33 34  1  0  0  0
 33 66  1  0  0  0
 33 70  2  0  0  0
 34 36  1  0  0  0
 34 59  1  0  0  0
 34108  1  0  0  0
 35 44  2  0  0  0
 35 45  1  0  0  0
 35 68  1  0  0  0
 36 56  1  0  0  0
 36109  1  0  0  0
 37 39  1  0  0  0
 37 47  1  0  0  0
 37 66  1  0  0  0
 37110  1  0  0  0
 38 43  2  0  0  0
 38 46  1  0  0  0
 38 47  1  0  0  0
 39 64  1  0  0  0
 39 67  2  0  0  0
 40 52  1  0  0  0
 40 53  2  0  0  0
 40 58  1  0  0  0
 41111  1  0  0  0
 41112  1  0  0  0
 41113  1  0  0  0
 41 48  1  0  0  0
 42 43  1  0  0  0
 42 66  1  0  0  0
 42114  1  0  0  0
 42115  1  0  0  0
 43 44  1  0  0  0
 44116  1  0  0  0
 45 46  2  0  0  0
 45117  1  0  0  0
 46118  1  0  0  0
 47119  1  0  0  0
 47120  1  0  0  0
 48 56  1  0  0  0
 48 65  1  0  0  0
 48121  1  0  0  0
 49 50  1  0  0  0
 49 53  1  0  0  0
 49 64  1  0  0  0
 49122  1  0  0  0
 50 51  1  0  0  0
 50123  1  0  0  0
 50124  1  0  0  0
 51 52  1  0  0  0
 51125  1  0  0  0
 51126  1  0  0  0
 52127  1  0  0  0
 52128  1  0  0  0
 53 54  1  0  0  0
 54 55  2  0  0  0
 54129  1  0  0  0
 55 57  1  0  0  0
 55130  1  0  0  0
 56 69  2  0  0  0
 57 58  2  0  0  0
 57131  1  0  0  0
 58132  1  0  0  0
 59 60  1  0  0  0
 59 61  1  0  0  0
 59 62  1  0  0  0
 60133  1  0  0  0
 60134  1  0  0  0
 60135  1  0  0  0
 61136  1  0  0  0
 61137  1  0  0  0
 61138  1  0  0  0
 62139  1  0  0  0
 62140  1  0  0  0
 62141  1  0  0  0
 63 65  1  0  0  0
 63142  1  0  0  0
 63143  1  0  0  0
 63144  1  0  0  0
 64145  1  0  0  0
 65146  1  0  0  0
 68 80  1  0  0  0
 71 73  2  0  0  0
 71 75  1  0  0  0
 71147  1  0  0  0
 72 74  1  0  0  0
 72 75  2  0  0  0
 72148  1  0  0  0
 73 76  1  0  0  0
 73149  1  0  0  0
 74 76  2  0  0  0
 74150  1  0  0  0
 75 81  1  0  0  0
 76 83  1  0  0  0
 77 78  1  0  0  0
 77 79  1  0  0  0
 77 80  2  0  0  0
 78 82  1  0  0  0
 78 85  2  0  0  0
 79 83  1  0  0  0
 79 86  2  0  0  0
 80151  1  0  0  0
 81 84  1  0  0  0
 81 87  2  0  0  0
 82 83  1  0  0  0
 82152  1  0  0  0
 82153  1  0  0  0
 84154  1  0  0  0
M  ISO  4   1 100  68 101  80 101  84 100
M  END
> <chiral flag>
0

> <version>
0

> <s_m_source_file>
/data/baiqing/PycharmProjects/Reinvent-master-3.2/result/LINK_invent/BTK/process_docking_weight1_custom_product_contain_oxygen_bond_distance_aromatic_linkinvent_7_9_3/rearranged_h_0084.sdf

> <i_m_source_file_index>
25

> <r_mmod_Potential_Energy-OPLS-2005>
66.4643783569336

> <r_mmod_Stretch_Energy-OPLS-2005>
51.894416809082

> <r_mmod_Bend_Energy-OPLS-2005>
169.267166137695

> <r_mmod_Torsional_Energy-OPLS-2005>
320.230743408203

> <r_mmod_Improper_Torsional_Energy-OPLS-2005>
6.73853015899658

> <r_mmod_Van_der_Waal_Energy-OPLS-2005>
152.674499511719

> <r_mmod_Electrostatic_Energy-OPLS-2005>
-412.963928222656

> <r_mmod_Solvation_Energy-OPLS-2005>
-253.640655517578

> <b_mmod_Minimization_Converged-OPLS-2005>
0

> <r_mmod_RMS_Derivative-OPLS-2005>
3.41787171363831

$$$$
25
                    3D
 Structure written by MMmdl.
149157  0  0  1  0            999 V2000
  -30.5723  -14.8218   20.4599 C   0  0  0  0  0  0
  -30.4387  -12.5107   19.4878 C   0  0  0  0  0  0
  -29.5178  -12.5213   18.2480 C   0  0  0  0  0  0
  -28.0499  -12.3120   18.6666 C   0  0  0  0  0  0
  -27.6366  -13.2290   19.8484 C   0  0  2  0  0  0
  -28.6784  -13.1975   20.9861 C   0  0  0  0  0  0
  -25.2487  -13.8145   20.5692 C   0  0  0  0  0  0
  -24.1782  -13.0410   20.9235 C   0  0  0  0  0  0
  -24.6376  -11.6897   20.8751 C   0  0  0  0  0  0
  -23.9053  -10.4277   21.0408 C   0  0  0  0  0  0
  -24.3605   -9.4193   21.9182 C   0  0  0  0  0  0
  -23.6282   -8.2229   22.0756 C   0  0  0  0  0  0
  -22.4269   -8.0265   21.3547 C   0  0  0  0  0  0
  -21.9906   -9.0241   20.4654 C   0  0  0  0  0  0
  -22.7229  -10.2116   20.3063 C   0  0  0  0  0  0
  -21.6848   -6.0721   22.5271 C   0  0  0  0  0  0
  -21.4004   -6.5630   23.8204 C   0  0  0  0  0  0
  -21.3651   -5.6789   24.9167 C   0  0  0  0  0  0
  -21.6049   -4.3054   24.7229 C   0  0  0  0  0  0
  -21.8824   -3.8148   23.4356 C   0  0  0  0  0  0
  -21.9190   -4.6955   22.3402 C   0  0  0  0  0  0
  -22.7813  -13.5206   21.1893 C   0  0  0  0  0  0
  -22.1676   -4.2141   21.0983 F   0  0  0  0  0  0
  -21.5624   -3.4547   25.7741 F   0  0  0  0  0  0
  -29.9647  -13.5814   20.3983 N   0  0  0  0  0  0
  -26.2899  -12.9355   20.3263 N   0  0  0  0  0  0
  -25.9302  -11.6505   20.5726 N   0  0  0  0  0  0
  -22.0478  -12.8184   22.0441 N   0  0  0  0  0  0
  -25.4178  -15.1841   20.4007 N   0  0  0  0  0  0
  -31.7755  -14.8835   20.1844 O   0  0  0  0  0  0
  -21.6643   -6.8853   21.4234 O   0  0  0  0  0  0
  -22.3508  -14.5515   20.6739 O   0  0  0  0  0  0
  -24.6325  -31.8544   23.1966 C   0  0  0  0  0  0
  -25.9154  -32.4735   23.8321 C   0  0  1  0  0  0
  -27.2092  -27.2362   20.1618 C   0  0  0  0  0  0
  -25.5947  -33.8539   24.2236 N   0  0  0  0  0  0
  -23.4291  -30.4777   21.5378 C   0  0  2  0  0  0
  -24.8784  -28.9153   20.1166 C   0  0  0  0  0  0
  -22.7508  -29.4620   22.4887 C   0  0  0  0  0  0
  -18.0321  -28.1386   22.8498 C   0  0  0  0  0  0
  -24.1495  -36.7273   23.2641 C   0  0  0  0  0  0
  -25.9768  -30.7673   21.3754 C   0  0  0  0  0  0
  -26.0526  -29.3854   20.7208 C   0  0  0  0  0  0
  -27.2291  -28.5632   20.7191 C   0  0  0  0  0  0
  -26.0100  -26.8273   19.5474 C   0  0  0  0  0  0
  -24.8640  -27.6458   19.5169 C   0  0  0  0  0  0
  -23.6490  -29.8046   20.1580 C   0  0  0  0  0  0
  -25.4127  -36.3043   24.0308 C   0  0  1  0  0  0
  -20.5919  -28.3730   23.1256 C   0  0  2  0  0  0
  -20.6813  -26.9444   22.5404 C   0  0  0  0  0  0
  -19.5756  -26.6355   21.5260 C   0  0  0  0  0  0
  -18.1957  -26.7916   22.1675 C   0  0  0  0  0  0
  -19.1564  -28.8886   23.2863 C   0  0  0  0  0  0
  -18.9474  -30.1494   23.8860 C   0  0  0  0  0  0
  -17.6457  -30.6600   24.0534 C   0  0  0  0  0  0
  -25.9076  -34.9415   23.5077 C   0  0  0  0  0  0
  -16.5358  -29.9074   23.6317 C   0  0  0  0  0  0
  -16.7297  -28.6483   23.0364 C   0  0  0  0  0  0
  -26.4514  -31.6577   25.0730 C   0  0  0  0  0  0
  -25.3724  -31.3756   26.1440 C   0  0  0  0  0  0
  -27.0377  -30.2975   24.6286 C   0  0  0  0  0  0
  -27.6048  -32.4345   25.7525 C   0  0  0  0  0  0
  -27.5564  -37.1796   24.8466 C   0  0  0  0  0  0
  -21.4223  -29.3072   22.3638 N   0  0  0  0  0  0
  -26.4290  -37.3749   23.9391 N   0  0  0  0  0  0
  -24.6982  -31.0518   22.0920 N   0  0  0  0  0  0
  -23.4223  -28.8164   23.2981 O   0  0  0  0  0  0
  -28.2852  -26.3176   20.1525 O   0  0  0  0  0  0
  -26.5657  -34.8890   22.4643 O   0  0  0  0  0  0
  -23.5486  -32.1335   23.7304 O   0  0  0  0  0  0
  -26.8260  -19.3037   19.9464 C   0  0  0  0  0  0
  -27.7490  -18.2509   20.1356 C   0  0  0  0  0  0
  -27.1872  -20.6617   20.1000 C   0  0  0  0  0  0
  -29.4230  -19.9283   20.6614 C   0  0  0  0  0  0
  -29.0917  -18.5081   20.4889 C   0  0  0  0  0  0
  -28.4973  -21.0469   20.4725 C   0  0  0  0  0  0
  -28.1771  -23.5411   20.3077 C   0  0  0  0  0  0
  -30.1288  -17.3255   20.5998 C   0  0  0  0  0  0
  -28.1797  -25.0337   20.9467 C   0  0  0  0  0  0
  -28.7982  -22.4567   20.7688 N   0  0  0  0  0  0
  -29.7707  -15.9683   20.5983 N   0  0  0  0  0  0
  -31.3100  -17.6706   20.6912 O   0  0  0  0  0  0
  -31.4764  -12.6563   19.1829 H   0  0  0  0  0  0
  -30.4090  -11.5416   19.9895 H   0  0  0  0  0  0
  -29.8227  -11.7474   17.5427 H   0  0  0  0  0  0
  -29.6150  -13.4720   17.7188 H   0  0  0  0  0  0
  -27.9406  -11.2657   18.9569 H   0  0  0  0  0  0
  -27.3838  -12.4616   17.8176 H   0  0  0  0  0  0
  -27.6202  -14.2411   19.4455 H   0  0  0  0  0  0
  -28.7450  -12.2022   21.4295 H   0  0  0  0  0  0
  -28.3964  -13.8745   21.7945 H   0  0  0  0  0  0
  -25.2756   -9.5656   22.4749 H   0  0  0  0  0  0
  -23.9994   -7.4617   22.7473 H   0  0  0  0  0  0
  -21.0846   -8.8745   19.8972 H   0  0  0  0  0  0
  -22.3686  -10.9644   19.6173 H   0  0  0  0  0  0
  -21.2000   -7.6146   23.9692 H   0  0  0  0  0  0
  -21.1466   -6.0535   25.9058 H   0  0  0  0  0  0
  -22.0616   -2.7616   23.2863 H   0  0  0  0  0  0
  -22.4143  -11.9818   22.4742 H   0  0  0  0  0  0
  -21.1098  -13.1182   22.2713 H   0  0  0  0  0  0
  -24.6299  -15.8201   20.4510 H   0  0  0  0  0  0
  -26.2119  -15.5816   19.9205 H   0  0  0  0  0  0
  -26.7224  -32.5377   23.1065 H   0  0  0  0  0  0
  -25.0005  -33.9669   25.0321 H   0  0  0  0  0  0
  -22.7239  -31.2986   21.3881 H   0  0  0  0  0  0
  -23.3743  -35.9622   23.3327 H   0  0  0  0  0  0
  -24.3570  -36.8887   22.2049 H   0  0  0  0  0  0
  -23.7275  -37.6485   23.6672 H   0  0  0  0  0  0
  -26.1231  -31.5326   20.6107 H   0  0  0  0  0  0
  -26.8496  -30.8120   22.0160 H   0  0  0  0  0  0
  -28.1335  -28.9312   21.1855 H   0  0  0  0  0  0
  -25.9501  -25.8424   19.1070 H   0  0  0  0  0  0
  -23.9596  -27.2776   19.0534 H   0  0  0  0  0  0
  -23.7672  -30.5735   19.3941 H   0  0  0  0  0  0
  -22.7672  -29.2361   19.8568 H   0  0  0  0  0  0
  -25.1322  -36.1869   25.0803 H   0  0  0  0  0  0
  -21.0034  -28.3327   24.1370 H   0  0  0  0  0  0
  -21.6640  -26.7497   22.1103 H   0  0  0  0  0  0
  -20.5820  -26.2340   23.3626 H   0  0  0  0  0  0
  -19.6908  -25.6250   21.1349 H   0  0  0  0  0  0
  -19.6670  -27.3116   20.6749 H   0  0  0  0  0  0
  -17.4223  -26.6651   21.4089 H   0  0  0  0  0  0
  -18.0337  -26.0074   22.9088 H   0  0  0  0  0  0
  -19.7946  -30.7336   24.2183 H   0  0  0  0  0  0
  -17.5003  -31.6294   24.5104 H   0  0  0  0  0  0
  -15.5353  -30.2965   23.7675 H   0  0  0  0  0  0
  -15.8704  -28.0786   22.7086 H   0  0  0  0  0  0
  -24.5903  -30.7098   25.7767 H   0  0  0  0  0  0
  -24.8918  -32.2944   26.4816 H   0  0  0  0  0  0
  -25.8017  -30.8965   27.0250 H   0  0  0  0  0  0
  -26.2984  -29.6707   24.1283 H   0  0  0  0  0  0
  -27.3967  -29.7261   25.4862 H   0  0  0  0  0  0
  -27.8906  -30.4205   23.9608 H   0  0  0  0  0  0
  -27.2625  -33.3650   26.2076 H   0  0  0  0  0  0
  -28.3886  -32.6905   25.0383 H   0  0  0  0  0  0
  -28.0697  -31.8500   26.5476 H   0  0  0  0  0  0
  -28.2608  -38.0065   24.7454 H   0  0  0  0  0  0
  -28.1029  -36.2583   24.6374 H   0  0  0  0  0  0
  -27.2270  -37.1547   25.8869 H   0  0  0  0  0  0
  -20.9418  -29.8766   21.6822 H   0  0  0  0  0  0
  -26.0157  -38.2824   24.1367 H   0  0  0  0  0  0
  -25.8050  -19.0648   19.6831 H   0  0  0  0  0  0
  -27.4055  -17.2367   19.9996 H   0  0  0  0  0  0
  -26.4135  -21.4040   19.9706 H   0  0  0  0  0  0
  -30.4324  -20.1701   20.9599 H   0  0  0  0  0  0
  -27.4952  -23.4661   19.4570 H   0  0  0  0  0  0
  -28.9973  -25.0606   21.6670 H   0  0  0  0  0  0
  -27.2830  -25.1040   21.5650 H   0  0  0  0  0  0
  -28.7835  -15.7954   20.6513 H   0  0  0  0  0  0
  1 25  1  0  0  0
  1 30  2  0  0  0
  1 81  1  0  0  0
  2  3  1  0  0  0
  2 25  1  0  0  0
  2 83  1  0  0  0
  2 84  1  0  0  0
  3  4  1  0  0  0
  3 85  1  0  0  0
  3 86  1  0  0  0
  4  5  1  0  0  0
  4 87  1  0  0  0
  4 88  1  0  0  0
  5  6  1  0  0  0
  5 26  1  0  0  0
  5 89  1  0  0  0
  6 25  1  0  0  0
  6 90  1  0  0  0
  6 91  1  0  0  0
  7  8  2  0  0  0
  7 26  1  0  0  0
  7 29  1  0  0  0
  8  9  1  0  0  0
  8 22  1  0  0  0
  9 10  1  0  0  0
  9 27  2  0  0  0
 10 11  2  0  0  0
 10 15  1  0  0  0
 11 12  1  0  0  0
 11 92  1  0  0  0
 12 13  2  0  0  0
 12 93  1  0  0  0
 13 14  1  0  0  0
 13 31  1  0  0  0
 14 15  2  0  0  0
 14 94  1  0  0  0
 15 95  1  0  0  0
 16 17  2  0  0  0
 16 21  1  0  0  0
 16 31  1  0  0  0
 17 18  1  0  0  0
 17 96  1  0  0  0
 18 19  2  0  0  0
 18 97  1  0  0  0
 19 20  1  0  0  0
 19 24  1  0  0  0
 20 21  2  0  0  0
 20 98  1  0  0  0
 21 23  1  0  0  0
 22 28  1  0  0  0
 22 32  2  0  0  0
 26 27  1  0  0  0
 28 99  1  0  0  0
 28100  1  0  0  0
 29101  1  0  0  0
 29102  1  0  0  0
 33 34  1  0  0  0
 33 66  1  0  0  0
 33 70  2  0  0  0
 34 36  1  0  0  0
 34 59  1  0  0  0
 34103  1  0  0  0
 35 44  2  0  0  0
 35 45  1  0  0  0
 35 68  1  0  0  0
 36 56  1  0  0  0
 36104  1  0  0  0
 37 39  1  0  0  0
 37 47  1  0  0  0
 37 66  1  0  0  0
 37105  1  0  0  0
 38 43  2  0  0  0
 38 46  1  0  0  0
 38 47  1  0  0  0
 39 64  1  0  0  0
 39 67  2  0  0  0
 40 52  1  0  0  0
 40 53  2  0  0  0
 40 58  1  0  0  0
 41106  1  0  0  0
 41107  1  0  0  0
 41108  1  0  0  0
 41 48  1  0  0  0
 42 43  1  0  0  0
 42 66  1  0  0  0
 42109  1  0  0  0
 42110  1  0  0  0
 43 44  1  0  0  0
 44111  1  0  0  0
 45 46  2  0  0  0
 45112  1  0  0  0
 46113  1  0  0  0
 47114  1  0  0  0
 47115  1  0  0  0
 48 56  1  0  0  0
 48 65  1  0  0  0
 48116  1  0  0  0
 49 50  1  0  0  0
 49 53  1  0  0  0
 49 64  1  0  0  0
 49117  1  0  0  0
 50 51  1  0  0  0
 50118  1  0  0  0
 50119  1  0  0  0
 51 52  1  0  0  0
 51120  1  0  0  0
 51121  1  0  0  0
 52122  1  0  0  0
 52123  1  0  0  0
 53 54  1  0  0  0
 54 55  2  0  0  0
 54124  1  0  0  0
 55 57  1  0  0  0
 55125  1  0  0  0
 56 69  2  0  0  0
 57 58  2  0  0  0
 57126  1  0  0  0
 58127  1  0  0  0
 59 60  1  0  0  0
 59 61  1  0  0  0
 59 62  1  0  0  0
 60128  1  0  0  0
 60129  1  0  0  0
 60130  1  0  0  0
 61131  1  0  0  0
 61132  1  0  0  0
 61133  1  0  0  0
 62134  1  0  0  0
 62135  1  0  0  0
 62136  1  0  0  0
 63 65  1  0  0  0
 63137  1  0  0  0
 63138  1  0  0  0
 63139  1  0  0  0
 64140  1  0  0  0
 65141  1  0  0  0
 68 79  1  0  0  0
 71 72  2  0  0  0
 71 73  1  0  0  0
 71142  1  0  0  0
 72 75  1  0  0  0
 72143  1  0  0  0
 73 76  2  0  0  0
 73144  1  0  0  0
 74 75  2  0  0  0
 74 76  1  0  0  0
 74145  1  0  0  0
 75 78  1  0  0  0
 76 80  1  0  0  0
 77 79  1  0  0  0
 77 80  2  0  0  0
 77146  1  0  0  0
 78 81  1  0  0  0
 78 82  2  0  0  0
 79147  1  0  0  0
 79148  1  0  0  0
 81149  1  0  0  0
M  ISO  4   1 100  68 101  79 101  81 100
M  END
> <chiral flag>
0

> <version>
0

> <s_m_source_file>
/data/baiqing/PycharmProjects/Reinvent-master-3.2/result/LINK_invent/BTK/process_docking_weight1_custom_product_contain_oxygen_bond_distance_aromatic_linkinvent_7_9_3/rearranged_h_0084.sdf

> <i_m_source_file_index>
26

> <r_mmod_Potential_Energy-OPLS-2005>
164.410263061523

> <r_mmod_Stretch_Energy-OPLS-2005>
148.643081665039

> <r_mmod_Bend_Energy-OPLS-2005>
176.856018066406

> <r_mmod_Torsional_Energy-OPLS-2005>
247.946533203125

> <r_mmod_Improper_Torsional_Energy-OPLS-2005>
7.64286661148071

> <r_mmod_Van_der_Waal_Energy-OPLS-2005>
137.384735107422

> <r_mmod_Electrostatic_Energy-OPLS-2005>
-431.759002685547

> <r_mmod_Solvation_Energy-OPLS-2005>
-235.080032348633

> <b_mmod_Minimization_Converged-OPLS-2005>
0

> <r_mmod_RMS_Derivative-OPLS-2005>
3.4147686958313

$$$$
26
                    3D
 Structure written by MMmdl.
152161  0  0  1  0            999 V2000
  -30.5709  -14.7596   20.4619 C   0  0  0  0  0  0
  -30.4511  -12.4601   19.4690 C   0  0  0  0  0  0
  -29.5215  -12.5082   18.2343 C   0  0  0  0  0  0
  -28.0443  -12.3307   18.6434 C   0  0  0  0  0  0
  -27.6465  -13.2228   19.8492 C   0  0  2  0  0  0
  -28.6930  -13.1378   20.9837 C   0  0  0  0  0  0
  -25.2535  -13.8172   20.5654 C   0  0  0  0  0  0
  -24.1823  -13.0434   20.9200 C   0  0  0  0  0  0
  -24.6406  -11.6911   20.8752 C   0  0  0  0  0  0
  -23.9078  -10.4298   21.0421 C   0  0  0  0  0  0
  -24.3630   -9.4212   21.9199 C   0  0  0  0  0  0
  -23.6301   -8.2248   22.0764 C   0  0  0  0  0  0
  -22.4282   -8.0287   21.3550 C   0  0  0  0  0  0
  -21.9923   -9.0270   20.4659 C   0  0  0  0  0  0
  -22.7252  -10.2148   20.3068 C   0  0  0  0  0  0
  -21.6853   -6.0744   22.5285 C   0  0  0  0  0  0
  -21.4014   -6.5646   23.8220 C   0  0  0  0  0  0
  -21.3655   -5.6795   24.9179 C   0  0  0  0  0  0
  -21.6038   -4.3058   24.7224 C   0  0  0  0  0  0
  -21.8816   -3.8153   23.4346 C   0  0  0  0  0  0
  -21.9192   -4.6973   22.3404 C   0  0  0  0  0  0
  -22.7846  -13.5233   21.1849 C   0  0  0  0  0  0
  -22.1659   -4.2160   21.0984 F   0  0  0  0  0  0
  -21.5631   -3.4537   25.7734 F   0  0  0  0  0  0
  -29.9956  -13.5084   20.4090 N   0  0  0  0  0  0
  -26.2960  -12.9362   20.3241 N   0  0  0  0  0  0
  -25.9329  -11.6519   20.5726 N   0  0  0  0  0  0
  -22.0469  -12.8247   22.0406 N   0  0  0  0  0  0
  -25.4203  -15.1897   20.4027 N   0  0  0  0  0  0
  -31.7617  -14.9122   20.1700 O   0  0  0  0  0  0
  -21.6638   -6.8891   21.4245 O   0  0  0  0  0  0
  -22.3543  -14.5539   20.6692 O   0  0  0  0  0  0
  -24.6314  -31.8550   23.1985 C   0  0  0  0  0  0
  -25.9140  -32.4751   23.8336 C   0  0  1  0  0  0
  -27.2282  -27.2632   20.1383 C   0  0  0  0  0  0
  -25.5942  -33.8555   24.2255 N   0  0  0  0  0  0
  -23.4296  -30.4753   21.5423 C   0  0  2  0  0  0
  -24.8820  -28.9172   20.1184 C   0  0  0  0  0  0
  -22.7504  -29.4597   22.4923 C   0  0  0  0  0  0
  -18.0288  -28.1383   22.8485 C   0  0  0  0  0  0
  -24.1497  -36.7275   23.2640 C   0  0  0  0  0  0
  -25.9767  -30.7655   21.3828 C   0  0  0  0  0  0
  -26.0533  -29.3852   20.7315 C   0  0  0  0  0  0
  -27.2322  -28.5692   20.7352 C   0  0  0  0  0  0
  -26.0380  -26.8582   19.5028 C   0  0  0  0  0  0
  -24.8783  -27.6592   19.4948 C   0  0  0  0  0  0
  -23.6510  -29.8043   20.1612 C   0  0  0  0  0  0
  -25.4124  -36.3061   24.0325 C   0  0  1  0  0  0
  -20.5893  -28.3695   23.1274 C   0  0  2  0  0  0
  -20.6773  -26.9411   22.5418 C   0  0  0  0  0  0
  -19.5757  -26.6374   21.5219 C   0  0  0  0  0  0
  -18.1930  -26.7927   22.1620 C   0  0  0  0  0  0
  -19.1543  -28.8856   23.2869 C   0  0  0  0  0  0
  -18.9464  -30.1460   23.8882 C   0  0  0  0  0  0
  -17.6462  -30.6586   24.0556 C   0  0  0  0  0  0
  -25.9061  -34.9433   23.5087 C   0  0  0  0  0  0
  -16.5352  -29.9077   23.6335 C   0  0  0  0  0  0
  -16.7275  -28.6493   23.0358 C   0  0  0  0  0  0
  -26.4497  -31.6578   25.0727 C   0  0  0  0  0  0
  -25.3709  -31.3744   26.1441 C   0  0  0  0  0  0
  -27.0343  -30.2987   24.6233 C   0  0  0  0  0  0
  -27.6048  -32.4321   25.7499 C   0  0  0  0  0  0
  -27.5583  -37.1793   24.8459 C   0  0  0  0  0  0
  -21.4211  -29.3036   22.3655 N   0  0  0  0  0  0
  -26.4294  -37.3766   23.9403 N   0  0  0  0  0  0
  -24.6977  -31.0503   22.0970 N   0  0  0  0  0  0
  -23.4202  -28.8148   23.3031 O   0  0  0  0  0  0
  -28.2959  -26.3418   20.0900 O   0  0  0  0  0  0
  -26.5631  -34.8907   22.4653 O   0  0  0  0  0  0
  -23.5460  -32.1378   23.7267 O   0  0  0  0  0  0
  -28.5000  -19.4728   20.1595 C   0  0  0  0  0  0
  -30.6741  -19.5660   21.1390 C   0  0  0  0  0  0
  -28.6114  -18.0411   20.1011 C   0  0  0  0  0  0
  -30.7987  -18.1332   21.0509 C   0  0  0  0  0  0
  -29.5165  -20.2977   20.7148 C   0  0  0  0  0  0
  -29.7497  -17.3064   20.5584 C   0  0  0  0  0  0
  -28.7712  -24.0488   21.2523 C   0  0  0  0  0  0
  -29.0173  -23.5134   22.5844 C   0  0  0  0  0  0
  -28.9599  -22.8778   20.3309 C   0  0  0  0  0  0
  -28.4608  -25.4127   21.1421 C   0  0  0  0  0  0
  -29.4765  -22.0752   22.4806 C   0  0  0  0  0  0
  -29.3158  -21.7376   21.0660 N   0  0  0  0  0  0
  -29.6894  -15.8197   20.6181 N   0  0  0  0  0  0
  -28.9153  -24.1045   23.6660 O   0  0  0  0  0  0
  -28.8244  -22.8885   19.1018 O   0  0  0  0  0  0
  -31.4890  -12.6083   19.1665 H   0  0  0  0  0  0
  -30.4135  -11.4790   19.9451 H   0  0  0  0  0  0
  -29.8066  -11.7352   17.5193 H   0  0  0  0  0  0
  -29.6466  -13.4612   17.7177 H   0  0  0  0  0  0
  -27.8962  -11.2802   18.8976 H   0  0  0  0  0  0
  -27.3917  -12.5314   17.7928 H   0  0  0  0  0  0
  -27.6434  -14.2450   19.4717 H   0  0  0  0  0  0
  -28.7330  -12.1295   21.3988 H   0  0  0  0  0  0
  -28.4228  -13.7951   21.8118 H   0  0  0  0  0  0
  -25.2780   -9.5683   22.4769 H   0  0  0  0  0  0
  -24.0008   -7.4637   22.7485 H   0  0  0  0  0  0
  -21.0851   -8.8802   19.8972 H   0  0  0  0  0  0
  -22.3721  -10.9693   19.6179 H   0  0  0  0  0  0
  -21.2007   -7.6156   23.9731 H   0  0  0  0  0  0
  -21.1474   -6.0524   25.9086 H   0  0  0  0  0  0
  -22.0597   -2.7617   23.2842 H   0  0  0  0  0  0
  -22.4056  -11.9915   22.4828 H   0  0  0  0  0  0
  -21.1098  -13.1319   22.2594 H   0  0  0  0  0  0
  -24.6434  -15.8341   20.5007 H   0  0  0  0  0  0
  -26.2473  -15.6262   20.0203 H   0  0  0  0  0  0
  -26.7205  -32.5402   23.1076 H   0  0  0  0  0  0
  -25.0088  -33.9698   25.0399 H   0  0  0  0  0  0
  -22.7264  -31.2975   21.3938 H   0  0  0  0  0  0
  -23.3763  -35.9603   23.3291 H   0  0  0  0  0  0
  -24.3588  -36.8906   22.2056 H   0  0  0  0  0  0
  -23.7246  -37.6470   23.6673 H   0  0  0  0  0  0
  -26.1183  -31.5252   20.6127 H   0  0  0  0  0  0
  -26.8518  -30.8145   22.0194 H   0  0  0  0  0  0
  -28.1322  -28.9260   21.2162 H   0  0  0  0  0  0
  -26.0033  -25.8894   19.0240 H   0  0  0  0  0  0
  -23.9827  -27.2946   19.0104 H   0  0  0  0  0  0
  -23.7720  -30.5779   19.4020 H   0  0  0  0  0  0
  -22.7698  -29.2351   19.8594 H   0  0  0  0  0  0
  -25.1309  -36.1900   25.0820 H   0  0  0  0  0  0
  -20.9985  -28.3271   24.1396 H   0  0  0  0  0  0
  -20.5669  -26.2308   23.3624 H   0  0  0  0  0  0
  -21.6644  -26.7426   22.1216 H   0  0  0  0  0  0
  -19.6913  -25.6278   21.1264 H   0  0  0  0  0  0
  -19.6702  -27.3172   20.6743 H   0  0  0  0  0  0
  -17.4210  -26.6684   21.4012 H   0  0  0  0  0  0
  -18.0316  -26.0069   22.9013 H   0  0  0  0  0  0
  -19.7940  -30.7280   24.2243 H   0  0  0  0  0  0
  -17.5014  -31.6271   24.5147 H   0  0  0  0  0  0
  -15.5348  -30.2967   23.7674 H   0  0  0  0  0  0
  -15.8676  -28.0806   22.7081 H   0  0  0  0  0  0
  -24.5878  -30.7104   25.7764 H   0  0  0  0  0  0
  -24.8908  -32.2923   26.4845 H   0  0  0  0  0  0
  -25.8009  -30.8927   27.0231 H   0  0  0  0  0  0
  -26.2937  -29.6737   24.1229 H   0  0  0  0  0  0
  -27.3976  -29.7250   25.4769 H   0  0  0  0  0  0
  -27.8838  -30.4245   23.9517 H   0  0  0  0  0  0
  -27.2656  -33.3630   26.2056 H   0  0  0  0  0  0
  -28.3866  -32.6867   25.0332 H   0  0  0  0  0  0
  -28.0708  -31.8460   26.5430 H   0  0  0  0  0  0
  -28.2594  -38.0097   24.7505 H   0  0  0  0  0  0
  -28.1084  -36.2623   24.6283 H   0  0  0  0  0  0
  -27.2300  -37.1435   25.8863 H   0  0  0  0  0  0
  -20.9401  -29.8748   21.6850 H   0  0  0  0  0  0
  -26.0165  -38.2839   24.1402 H   0  0  0  0  0  0
  -27.5716  -19.9288   19.8453 H   0  0  0  0  0  0
  -31.4914  -20.1086   21.5926 H   0  0  0  0  0  0
  -27.7599  -17.4941   19.7225 H   0  0  0  0  0  0
  -31.6971  -17.6701   21.4344 H   0  0  0  0  0  0
  -28.3897  -25.9754   22.0640 H   0  0  0  0  0  0
  -28.8622  -21.4325   23.1113 H   0  0  0  0  0  0
  -30.5175  -21.9901   22.7912 H   0  0  0  0  0  0
  -28.7484  -15.4707   20.7085 H   0  0  0  0  0  0
  1 25  1  0  0  0
  1 30  2  0  0  0
  1 83  1  0  0  0
  2  3  1  0  0  0
  2 25  1  0  0  0
  2 86  1  0  0  0
  2 87  1  0  0  0
  3  4  1  0  0  0
  3 88  1  0  0  0
  3 89  1  0  0  0
  4  5  1  0  0  0
  4 90  1  0  0  0
  4 91  1  0  0  0
  5  6  1  0  0  0
  5 26  1  0  0  0
  5 92  1  0  0  0
  6 25  1  0  0  0
  6 93  1  0  0  0
  6 94  1  0  0  0
  7  8  2  0  0  0
  7 26  1  0  0  0
  7 29  1  0  0  0
  8  9  1  0  0  0
  8 22  1  0  0  0
  9 10  1  0  0  0
  9 27  2  0  0  0
 10 11  2  0  0  0
 10 15  1  0  0  0
 11 12  1  0  0  0
 11 95  1  0  0  0
 12 13  2  0  0  0
 12 96  1  0  0  0
 13 14  1  0  0  0
 13 31  1  0  0  0
 14 15  2  0  0  0
 14 97  1  0  0  0
 15 98  1  0  0  0
 16 17  2  0  0  0
 16 21  1  0  0  0
 16 31  1  0  0  0
 17 18  1  0  0  0
 17 99  1  0  0  0
 18 19  2  0  0  0
 18100  1  0  0  0
 19 20  1  0  0  0
 19 24  1  0  0  0
 20 21  2  0  0  0
 20101  1  0  0  0
 21 23  1  0  0  0
 22 28  1  0  0  0
 22 32  2  0  0  0
 26 27  1  0  0  0
 28102  1  0  0  0
 28103  1  0  0  0
 29104  1  0  0  0
 29105  1  0  0  0
 33 34  1  0  0  0
 33 66  1  0  0  0
 33 70  2  0  0  0
 34 36  1  0  0  0
 34 59  1  0  0  0
 34106  1  0  0  0
 35 44  2  0  0  0
 35 45  1  0  0  0
 35 68  1  0  0  0
 36 56  1  0  0  0
 36107  1  0  0  0
 37 39  1  0  0  0
 37 47  1  0  0  0
 37 66  1  0  0  0
 37108  1  0  0  0
 38 43  2  0  0  0
 38 46  1  0  0  0
 38 47  1  0  0  0
 39 64  1  0  0  0
 39 67  2  0  0  0
 40 52  1  0  0  0
 40 53  2  0  0  0
 40 58  1  0  0  0
 41109  1  0  0  0
 41110  1  0  0  0
 41111  1  0  0  0
 41 48  1  0  0  0
 42 43  1  0  0  0
 42 66  1  0  0  0
 42112  1  0  0  0
 42113  1  0  0  0
 43 44  1  0  0  0
 44114  1  0  0  0
 45 46  2  0  0  0
 45115  1  0  0  0
 46116  1  0  0  0
 47117  1  0  0  0
 47118  1  0  0  0
 48 56  1  0  0  0
 48 65  1  0  0  0
 48119  1  0  0  0
 49 50  1  0  0  0
 49 53  1  0  0  0
 49 64  1  0  0  0
 49120  1  0  0  0
 50 51  1  0  0  0
 50121  1  0  0  0
 50122  1  0  0  0
 51 52  1  0  0  0
 51123  1  0  0  0
 51124  1  0  0  0
 52125  1  0  0  0
 52126  1  0  0  0
 53 54  1  0  0  0
 54 55  2  0  0  0
 54127  1  0  0  0
 55 57  1  0  0  0
 55128  1  0  0  0
 56 69  2  0  0  0
 57 58  2  0  0  0
 57129  1  0  0  0
 58130  1  0  0  0
 59 60  1  0  0  0
 59 61  1  0  0  0
 59 62  1  0  0  0
 60131  1  0  0  0
 60132  1  0  0  0
 60133  1  0  0  0
 61134  1  0  0  0
 61135  1  0  0  0
 61136  1  0  0  0
 62137  1  0  0  0
 62138  1  0  0  0
 62139  1  0  0  0
 63 65  1  0  0  0
 63140  1  0  0  0
 63141  1  0  0  0
 63142  1  0  0  0
 64143  1  0  0  0
 65144  1  0  0  0
 68 80  1  0  0  0
 71 73  2  0  0  0
 71 75  1  0  0  0
 71145  1  0  0  0
 72 74  1  0  0  0
 72 75  2  0  0  0
 72146  1  0  0  0
 73 76  1  0  0  0
 73147  1  0  0  0
 74 76  2  0  0  0
 74148  1  0  0  0
 75 82  1  0  0  0
 76 83  1  0  0  0
 77 78  1  0  0  0
 77 79  1  0  0  0
 77 80  2  0  0  0
 78 81  1  0  0  0
 78 84  2  0  0  0
 79 82  1  0  0  0
 79 85  2  0  0  0
 80149  1  0  0  0
 81 82  1  0  0  0
 81150  1  0  0  0
 81151  1  0  0  0
 83152  1  0  0  0
M  ISO  4   1 100  68 101  80 101  83 100
M  END
> <chiral flag>
0

> <version>
0

> <s_m_source_file>
/data/baiqing/PycharmProjects/Reinvent-master-3.2/result/LINK_invent/BTK/process_docking_weight1_custom_product_contain_oxygen_bond_distance_aromatic_linkinvent_7_9_3/rearranged_h_0084.sdf

> <i_m_source_file_index>
27

> <r_mmod_Potential_Energy-OPLS-2005>
288.390350341797

> <r_mmod_Stretch_Energy-OPLS-2005>
113.899597167969

> <r_mmod_Bend_Energy-OPLS-2005>
252.969711303711

> <r_mmod_Torsional_Energy-OPLS-2005>
300.813354492188

> <r_mmod_Improper_Torsional_Energy-OPLS-2005>
7.98848342895508

> <r_mmod_Van_der_Waal_Energy-OPLS-2005>
125.28759765625

> <r_mmod_Electrostatic_Energy-OPLS-2005>
-362.604187011719

> <r_mmod_Solvation_Energy-OPLS-2005>
-240.025238037109

> <b_mmod_Minimization_Converged-OPLS-2005>
0

> <r_mmod_RMS_Derivative-OPLS-2005>
1.27533888816833

$$$$
27
                    3D
 Structure written by MMmdl.
150159  0  0  1  0            999 V2000
  -30.7550  -14.7828   20.4428 C   0  0  0  0  0  0
  -30.3850  -12.5066   19.4724 C   0  0  0  0  0  0
  -29.4801  -12.5005   18.2299 C   0  0  0  0  0  0
  -28.0181  -12.3149   18.6624 C   0  0  0  0  0  0
  -27.6195  -13.2534   19.8329 C   0  0  2  0  0  0
  -28.6770  -13.3107   20.9594 C   0  0  0  0  0  0
  -25.2419  -13.8238   20.5768 C   0  0  0  0  0  0
  -24.1732  -13.0437   20.9214 C   0  0  0  0  0  0
  -24.6376  -11.6932   20.8769 C   0  0  0  0  0  0
  -23.9080  -10.4291   21.0414 C   0  0  0  0  0  0
  -24.3625   -9.4204   21.9193 C   0  0  0  0  0  0
  -23.6296   -8.2243   22.0758 C   0  0  0  0  0  0
  -22.4282   -8.0280   21.3542 C   0  0  0  0  0  0
  -21.9920   -9.0255   20.4644 C   0  0  0  0  0  0
  -22.7256  -10.2130   20.3054 C   0  0  0  0  0  0
  -21.6851   -6.0738   22.5280 C   0  0  0  0  0  0
  -21.4017   -6.5638   23.8217 C   0  0  0  0  0  0
  -21.3655   -5.6788   24.9174 C   0  0  0  0  0  0
  -21.6038   -4.3055   24.7224 C   0  0  0  0  0  0
  -21.8818   -3.8149   23.4347 C   0  0  0  0  0  0
  -21.9191   -4.6966   22.3403 C   0  0  0  0  0  0
  -22.7753  -13.5200   21.1861 C   0  0  0  0  0  0
  -22.1659   -4.2149   21.0979 F   0  0  0  0  0  0
  -21.5623   -3.4540   25.7739 F   0  0  0  0  0  0
  -29.9536  -13.6553   20.3234 N   0  0  0  0  0  0
  -26.2858  -12.9494   20.3349 N   0  0  0  0  0  0
  -25.9320  -11.6612   20.5824 N   0  0  0  0  0  0
  -22.0419  -12.8182   22.0423 N   0  0  0  0  0  0
  -25.4107  -15.1960   20.4273 N   0  0  0  0  0  0
  -31.9549  -14.5866   20.2381 O   0  0  0  0  0  0
  -21.6633   -6.8883   21.4244 O   0  0  0  0  0  0
  -22.3432  -14.5507   20.6721 O   0  0  0  0  0  0
  -24.6371  -31.8519   23.1970 C   0  0  0  0  0  0
  -25.9176  -32.4738   23.8326 C   0  0  1  0  0  0
  -27.2048  -27.2168   20.1355 C   0  0  0  0  0  0
  -25.5966  -33.8540   24.2249 N   0  0  0  0  0  0
  -23.4348  -30.4773   21.5398 C   0  0  2  0  0  0
  -24.8812  -28.9246   20.1065 C   0  0  0  0  0  0
  -22.7523  -29.4606   22.4879 C   0  0  0  0  0  0
  -18.0291  -28.1406   22.8482 C   0  0  0  0  0  0
  -24.1483  -36.7257   23.2627 C   0  0  0  0  0  0
  -25.9845  -30.7523   21.3825 C   0  0  0  0  0  0
  -26.0552  -29.3698   20.7285 C   0  0  0  0  0  0
  -27.2206  -28.5268   20.7392 C   0  0  0  0  0  0
  -26.0146  -26.8703   19.4553 C   0  0  0  0  0  0
  -24.8683  -27.6834   19.4572 C   0  0  0  0  0  0
  -23.6549  -29.8164   20.1547 C   0  0  0  0  0  0
  -25.4100  -36.3048   24.0332 C   0  0  1  0  0  0
  -20.5898  -28.3723   23.1256 C   0  0  2  0  0  0
  -20.6792  -26.9442   22.5395 C   0  0  0  0  0  0
  -19.5767  -26.6399   21.5207 C   0  0  0  0  0  0
  -18.1940  -26.7947   22.1614 C   0  0  0  0  0  0
  -19.1546  -28.8881   23.2863 C   0  0  0  0  0  0
  -18.9468  -30.1475   23.8892 C   0  0  0  0  0  0
  -17.6468  -30.6606   24.0569 C   0  0  0  0  0  0
  -25.9068  -34.9429   23.5086 C   0  0  0  0  0  0
  -16.5360  -29.9104   23.6341 C   0  0  0  0  0  0
  -16.7277  -28.6522   23.0364 C   0  0  0  0  0  0
  -26.4539  -31.6556   25.0712 C   0  0  0  0  0  0
  -25.3758  -31.3679   26.1425 C   0  0  0  0  0  0
  -27.0389  -30.2971   24.6195 C   0  0  0  0  0  0
  -27.6089  -32.4313   25.7476 C   0  0  0  0  0  0
  -27.5596  -37.1741   24.8442 C   0  0  0  0  0  0
  -21.4222  -29.3065   22.3629 N   0  0  0  0  0  0
  -26.4246  -37.3780   23.9482 N   0  0  0  0  0  0
  -24.7050  -31.0454   22.0964 N   0  0  0  0  0  0
  -23.4202  -28.8145   23.2998 O   0  0  0  0  0  0
  -28.2385  -26.2371   20.1927 O   0  0  0  0  0  0
  -26.5640  -34.8923   22.4654 O   0  0  0  0  0  0
  -23.5512  -32.1363   23.7239 O   0  0  0  0  0  0
  -31.5918  -19.7660   20.4801 C   0  0  0  0  0  0
  -30.8360  -20.9663   20.4499 C   0  0  0  0  0  0
  -28.7788  -19.6531   20.4961 C   0  0  0  0  0  0
  -29.5630  -18.4211   20.5192 C   0  0  0  0  0  0
  -30.9295  -18.5240   20.5181 C   0  0  0  0  0  0
  -29.4099  -20.9801   20.4581 C   0  0  0  0  0  0
  -29.2177  -16.9066   20.5327 C   0  0  0  0  0  0
  -29.0651  -23.6279   20.2817 C   0  0  0  0  0  0
  -27.9214  -24.7958   20.5029 C   0  0  0  0  0  0
  -31.5180  -17.1325   20.5476 C   0  0  0  0  0  0
  -30.3846  -16.1481   20.5433 N   0  0  0  0  0  0
  -28.6712  -22.2914   20.4678 N   0  0  0  0  0  0
  -28.0580  -16.4889   20.5145 O   0  0  0  0  0  0
  -30.2123  -23.9523   19.9550 O   0  0  0  0  0  0
  -26.8152  -24.4417   20.9261 O   0  0  0  0  0  0
  -31.4259  -12.5542   19.1511 H   0  0  0  0  0  0
  -30.2984  -11.5664   20.0204 H   0  0  0  0  0  0
  -29.7742  -11.7011   17.5481 H   0  0  0  0  0  0
  -29.5927  -13.4367   17.6804 H   0  0  0  0  0  0
  -27.8984  -11.2747   18.9662 H   0  0  0  0  0  0
  -27.3489  -12.4628   17.8132 H   0  0  0  0  0  0
  -27.5721  -14.2458   19.3866 H   0  0  0  0  0  0
  -28.7454  -12.3562   21.4825 H   0  0  0  0  0  0
  -28.4082  -14.0572   21.7079 H   0  0  0  0  0  0
  -25.2766   -9.5671   22.4771 H   0  0  0  0  0  0
  -23.9993   -7.4633   22.7480 H   0  0  0  0  0  0
  -21.0850   -8.8776   19.8950 H   0  0  0  0  0  0
  -22.3722  -10.9664   19.6155 H   0  0  0  0  0  0
  -21.2015   -7.6149   23.9718 H   0  0  0  0  0  0
  -21.1475   -6.0520   25.9071 H   0  0  0  0  0  0
  -22.0601   -2.7611   23.2848 H   0  0  0  0  0  0
  -22.4053  -11.9847   22.4803 H   0  0  0  0  0  0
  -21.1033  -13.1187   22.2642 H   0  0  0  0  0  0
  -24.6614  -15.8607   20.5789 H   0  0  0  0  0  0
  -26.3202  -15.6416   20.3038 H   0  0  0  0  0  0
  -26.7236  -32.5372   23.1056 H   0  0  0  0  0  0
  -25.0160  -33.9671   25.0433 H   0  0  0  0  0  0
  -22.7339  -31.3016   21.3937 H   0  0  0  0  0  0
  -23.3796  -35.9532   23.3178 H   0  0  0  0  0  0
  -24.3616  -36.8985   22.2072 H   0  0  0  0  0  0
  -23.7158  -37.6389   23.6722 H   0  0  0  0  0  0
  -26.1231  -31.5063   20.6066 H   0  0  0  0  0  0
  -26.8641  -30.8067   22.0121 H   0  0  0  0  0  0
  -28.1138  -28.8546   21.2515 H   0  0  0  0  0  0
  -25.9412  -25.9199   18.9464 H   0  0  0  0  0  0
  -23.9736  -27.3407   18.9567 H   0  0  0  0  0  0
  -23.7824  -30.5954   19.4012 H   0  0  0  0  0  0
  -22.7716  -29.2533   19.8486 H   0  0  0  0  0  0
  -25.1252  -36.1857   25.0815 H   0  0  0  0  0  0
  -20.9991  -28.3310   24.1380 H   0  0  0  0  0  0
  -20.5713  -26.2338   23.3596 H   0  0  0  0  0  0
  -21.6658  -26.7482   22.1172 H   0  0  0  0  0  0
  -19.6942  -25.6308   21.1246 H   0  0  0  0  0  0
  -19.6710  -27.3208   20.6731 H   0  0  0  0  0  0
  -17.4205  -26.6695   21.4013 H   0  0  0  0  0  0
  -18.0355  -26.0085   22.9011 H   0  0  0  0  0  0
  -19.7943  -30.7294   24.2266 H   0  0  0  0  0  0
  -17.5024  -31.6291   24.5172 H   0  0  0  0  0  0
  -15.5368  -30.3013   23.7678 H   0  0  0  0  0  0
  -15.8667  -28.0843   22.7106 H   0  0  0  0  0  0
  -24.6002  -30.6941   25.7760 H   0  0  0  0  0  0
  -24.8879  -32.2820   26.4813 H   0  0  0  0  0  0
  -25.8105  -30.8913   27.0216 H   0  0  0  0  0  0
  -26.2967  -29.6704   24.1234 H   0  0  0  0  0  0
  -27.4088  -29.7249   25.4709 H   0  0  0  0  0  0
  -27.8836  -30.4253   23.9424 H   0  0  0  0  0  0
  -27.2724  -33.3674   26.1948 H   0  0  0  0  0  0
  -28.3944  -32.6760   25.0311 H   0  0  0  0  0  0
  -28.0691  -31.8485   26.5462 H   0  0  0  0  0  0
  -28.2443  -38.0204   24.7738 H   0  0  0  0  0  0
  -28.1259  -36.2756   24.5930 H   0  0  0  0  0  0
  -27.2374  -37.0967   25.8840 H   0  0  0  0  0  0
  -20.9424  -29.8767   21.6799 H   0  0  0  0  0  0
  -26.0097  -38.2805   24.1646 H   0  0  0  0  0  0
  -32.6732  -19.8044   20.4748 H   0  0  0  0  0  0
  -31.3945  -21.8900   20.4319 H   0  0  0  0  0  0
  -27.7007  -19.5737   20.5064 H   0  0  0  0  0  0
  -32.1377  -17.0108   21.4379 H   0  0  0  0  0  0
  -32.1545  -17.0091   19.6686 H   0  0  0  0  0  0
  -27.6828  -22.2271   20.6752 H   0  0  0  0  0  0
  1 25  1  0  0  0
  1 30  2  0  0  0
  1 81  1  0  0  0
  2  3  1  0  0  0
  2 25  1  0  0  0
  2 86  1  0  0  0
  2 87  1  0  0  0
  3  4  1  0  0  0
  3 88  1  0  0  0
  3 89  1  0  0  0
  4  5  1  0  0  0
  4 90  1  0  0  0
  4 91  1  0  0  0
  5  6  1  0  0  0
  5 26  1  0  0  0
  5 92  1  0  0  0
  6 25  1  0  0  0
  6 93  1  0  0  0
  6 94  1  0  0  0
  7  8  2  0  0  0
  7 26  1  0  0  0
  7 29  1  0  0  0
  8  9  1  0  0  0
  8 22  1  0  0  0
  9 10  1  0  0  0
  9 27  2  0  0  0
 10 11  2  0  0  0
 10 15  1  0  0  0
 11 12  1  0  0  0
 11 95  1  0  0  0
 12 13  2  0  0  0
 12 96  1  0  0  0
 13 14  1  0  0  0
 13 31  1  0  0  0
 14 15  2  0  0  0
 14 97  1  0  0  0
 15 98  1  0  0  0
 16 17  2  0  0  0
 16 21  1  0  0  0
 16 31  1  0  0  0
 17 18  1  0  0  0
 17 99  1  0  0  0
 18 19  2  0  0  0
 18100  1  0  0  0
 19 20  1  0  0  0
 19 24  1  0  0  0
 20 21  2  0  0  0
 20101  1  0  0  0
 21 23  1  0  0  0
 22 28  1  0  0  0
 22 32  2  0  0  0
 26 27  1  0  0  0
 28102  1  0  0  0
 28103  1  0  0  0
 29104  1  0  0  0
 29105  1  0  0  0
 33 34  1  0  0  0
 33 66  1  0  0  0
 33 70  2  0  0  0
 34 36  1  0  0  0
 34 59  1  0  0  0
 34106  1  0  0  0
 35 44  2  0  0  0
 35 45  1  0  0  0
 35 68  1  0  0  0
 36 56  1  0  0  0
 36107  1  0  0  0
 37 39  1  0  0  0
 37 47  1  0  0  0
 37 66  1  0  0  0
 37108  1  0  0  0
 38 43  2  0  0  0
 38 46  1  0  0  0
 38 47  1  0  0  0
 39 64  1  0  0  0
 39 67  2  0  0  0
 40 52  1  0  0  0
 40 53  2  0  0  0
 40 58  1  0  0  0
 41109  1  0  0  0
 41110  1  0  0  0
 41111  1  0  0  0
 41 48  1  0  0  0
 42 43  1  0  0  0
 42 66  1  0  0  0
 42112  1  0  0  0
 42113  1  0  0  0
 43 44  1  0  0  0
 44114  1  0  0  0
 45 46  2  0  0  0
 45115  1  0  0  0
 46116  1  0  0  0
 47117  1  0  0  0
 47118  1  0  0  0
 48 56  1  0  0  0
 48 65  1  0  0  0
 48119  1  0  0  0
 49 50  1  0  0  0
 49 53  1  0  0  0
 49 64  1  0  0  0
 49120  1  0  0  0
 50 51  1  0  0  0
 50121  1  0  0  0
 50122  1  0  0  0
 51 52  1  0  0  0
 51123  1  0  0  0
 51124  1  0  0  0
 52125  1  0  0  0
 52126  1  0  0  0
 53 54  1  0  0  0
 54 55  2  0  0  0
 54127  1  0  0  0
 55 57  1  0  0  0
 55128  1  0  0  0
 56 69  2  0  0  0
 57 58  2  0  0  0
 57129  1  0  0  0
 58130  1  0  0  0
 59 60  1  0  0  0
 59 61  1  0  0  0
 59 62  1  0  0  0
 60131  1  0  0  0
 60132  1  0  0  0
 60133  1  0  0  0
 61134  1  0  0  0
 61135  1  0  0  0
 61136  1  0  0  0
 62137  1  0  0  0
 62138  1  0  0  0
 62139  1  0  0  0
 63 65  1  0  0  0
 63140  1  0  0  0
 63141  1  0  0  0
 63142  1  0  0  0
 64143  1  0  0  0
 65144  1  0  0  0
 68 79  1  0  0  0
 71 72  2  0  0  0
 71 75  1  0  0  0
 71145  1  0  0  0
 72 76  1  0  0  0
 72146  1  0  0  0
 73 74  1  0  0  0
 73 76  2  0  0  0
 73147  1  0  0  0
 74 75  2  0  0  0
 74 77  1  0  0  0
 75 80  1  0  0  0
 76 82  1  0  0  0
 77 81  1  0  0  0
 77 83  2  0  0  0
 78 79  1  0  0  0
 78 82  1  0  0  0
 78 84  2  0  0  0
 79 85  2  0  0  0
 80 81  1  0  0  0
 80148  1  0  0  0
 80149  1  0  0  0
 82150  1  0  0  0
M  ISO  4   1 100  68 101  79 101  81 100
M  END
> <chiral flag>
0

> <version>
0

> <s_m_source_file>
/data/baiqing/PycharmProjects/Reinvent-master-3.2/result/LINK_invent/BTK/process_docking_weight1_custom_product_contain_oxygen_bond_distance_aromatic_linkinvent_7_9_3/rearranged_h_0084.sdf

> <i_m_source_file_index>
28

> <r_mmod_Potential_Energy-OPLS-2005>
427.315979003906

> <r_mmod_Stretch_Energy-OPLS-2005>
174.23908996582

> <r_mmod_Bend_Energy-OPLS-2005>
297.320892333984

> <r_mmod_Torsional_Energy-OPLS-2005>
230.074066162109

> <r_mmod_Improper_Torsional_Energy-OPLS-2005>
5.28106117248535

> <r_mmod_Van_der_Waal_Energy-OPLS-2005>
149.735794067383

> <r_mmod_Electrostatic_Energy-OPLS-2005>
-357.404754638672

> <r_mmod_Solvation_Energy-OPLS-2005>
-206.575469970703

> <b_mmod_Minimization_Converged-OPLS-2005>
0

> <r_mmod_RMS_Derivative-OPLS-2005>
1.77155470848083

$$$$
28
                    3D
 Structure written by MMmdl.
137144  0  0  1  0            999 V2000
  -30.1810  -16.0297   20.2875 C   0  0  0  0  0  0
  -30.3828  -13.3767   19.5492 C   0  0  0  0  0  0
  -29.5591  -12.7639   18.3682 C   0  0  0  0  0  0
  -28.1682  -12.3203   18.8312 C   0  0  0  0  0  0
  -27.5818  -13.3538   19.8124 C   0  0  2  0  0  0
  -28.5668  -13.8606   20.9061 C   0  0  0  0  0  0
  -25.2250  -13.8362   20.5872 C   0  0  0  0  0  0
  -24.1681  -13.0447   20.9311 C   0  0  0  0  0  0
  -24.6444  -11.6977   20.8759 C   0  0  0  0  0  0
  -23.9158  -10.4302   21.0378 C   0  0  0  0  0  0
  -24.3679   -9.4214   21.9169 C   0  0  0  0  0  0
  -23.6330   -8.2259   22.0750 C   0  0  0  0  0  0
  -22.4308   -8.0298   21.3543 C   0  0  0  0  0  0
  -21.9963   -9.0274   20.4639 C   0  0  0  0  0  0
  -22.7316  -10.2141   20.3038 C   0  0  0  0  0  0
  -21.6865   -6.0749   22.5278 C   0  0  0  0  0  0
  -21.4024   -6.5647   23.8213 C   0  0  0  0  0  0
  -21.3662   -5.6797   24.9173 C   0  0  0  0  0  0
  -21.6043   -4.3059   24.7221 C   0  0  0  0  0  0
  -21.8818   -3.8154   23.4341 C   0  0  0  0  0  0
  -21.9196   -4.6974   22.3399 C   0  0  0  0  0  0
  -22.7681  -13.5139   21.1932 C   0  0  0  0  0  0
  -22.1663   -4.2158   21.0977 F   0  0  0  0  0  0
  -21.5626   -3.4541   25.7733 F   0  0  0  0  0  0
  -29.6780  -14.6009   20.2258 N   0  0  0  0  0  0
  -26.2751  -12.9780   20.3325 N   0  0  0  0  0  0
  -25.9411  -11.6797   20.5693 N   0  0  0  0  0  0
  -22.0362  -12.8102   22.0483 N   0  0  0  0  0  0
  -25.3795  -15.2116   20.4344 N   0  0  0  0  0  0
  -31.4184  -15.8511   20.1586 O   0  0  0  0  0  0
  -21.6658   -6.8901   21.4244 O   0  0  0  0  0  0
  -22.3343  -14.5432   20.6768 O   0  0  0  0  0  0
  -24.7088  -31.7679   23.1290 C   0  0  0  0  0  0
  -25.9542  -32.4306   23.7935 C   0  0  1  0  0  0
  -27.2379  -26.4273   20.2392 C   0  0  0  0  0  0
  -25.6010  -33.8148   24.1792 N   0  0  0  0  0  0
  -23.5480  -30.3568   21.4885 C   0  0  2  0  0  0
  -25.0095  -28.6404   20.1228 C   0  0  0  0  0  0
  -22.7881  -29.4140   22.4631 C   0  0  0  0  0  0
  -18.0355  -28.1435   22.8441 C   0  0  0  0  0  0
  -24.1497  -36.7084   23.2661 C   0  0  0  0  0  0
  -26.1381  -30.4073   21.4381 C   0  0  0  0  0  0
  -26.1990  -28.9413   20.7946 C   0  0  0  0  0  0
  -27.2798  -27.8691   20.8189 C   0  0  0  0  0  0
  -26.0191  -26.4113   19.4925 C   0  0  0  0  0  0
  -24.9750  -27.4046   19.4473 C   0  0  0  0  0  0
  -23.8178  -29.6285   20.1350 C   0  0  0  0  0  0
  -25.4158  -36.2802   24.0261 C   0  0  1  0  0  0
  -20.6002  -28.3806   23.1091 C   0  0  2  0  0  0
  -20.6806  -26.9440   22.5409 C   0  0  0  0  0  0
  -19.5787  -26.6361   21.5220 C   0  0  0  0  0  0
  -18.1970  -26.7957   22.1615 C   0  0  0  0  0  0
  -19.1628  -28.8951   23.2739 C   0  0  0  0  0  0
  -18.9529  -30.1528   23.8796 C   0  0  0  0  0  0
  -17.6516  -30.6611   24.0544 C   0  0  0  0  0  0
  -25.9154  -34.9199   23.4885 C   0  0  0  0  0  0
  -16.5403  -29.9087   23.6358 C   0  0  0  0  0  0
  -16.7333  -28.6512   23.0372 C   0  0  0  0  0  0
  -26.4636  -31.6462   25.0673 C   0  0  0  0  0  0
  -25.3630  -31.3858   26.1238 C   0  0  0  0  0  0
  -27.0615  -30.2769   24.6780 C   0  0  0  0  0  0
  -27.6030  -32.4392   25.7505 C   0  0  0  0  0  0
  -27.5554  -37.1700   24.8468 C   0  0  0  0  0  0
  -21.4503  -29.2998   22.3379 N   0  0  0  0  0  0
  -26.4262  -37.3592   23.9404 N   0  0  0  0  0  0
  -24.8248  -30.8846   22.0700 N   0  0  0  0  0  0
  -23.4197  -28.7786   23.3103 O   0  0  0  0  0  0
  -28.1683  -25.0867   20.3314 O   0  0  0  0  0  0
  -26.5834  -34.8830   22.4530 O   0  0  0  0  0  0
  -23.6049  -32.0886   23.6068 O   0  0  0  0  0  0
  -28.5997  -21.9333   20.2802 C   0  0  0  0  0  0
  -28.0807  -23.3892   20.0917 C   0  0  0  0  0  0
  -29.6109  -19.1563   20.1815 C   0  0  0  0  0  0
  -28.7120  -20.5479   20.4162 N   0  0  0  0  0  0
  -29.5206  -17.5484   20.3313 N   0  0  0  0  0  0
  -31.1178  -19.5943   19.6301 S   0  0  0  0  0  0
  -31.3480  -13.6769   19.1406 H   0  0  0  0  0  0
  -30.6318  -12.6076   20.2828 H   0  0  0  0  0  0
  -30.0939  -11.9254   17.9200 H   0  0  0  0  0  0
  -29.4543  -13.5154   17.5844 H   0  0  0  0  0  0
  -28.2681  -11.3583   19.3356 H   0  0  0  0  0  0
  -27.5048  -12.1607   17.9801 H   0  0  0  0  0  0
  -27.3902  -14.2186   19.1750 H   0  0  0  0  0  0
  -28.9128  -13.0515   21.5515 H   0  0  0  0  0  0
  -28.0551  -14.5651   21.5633 H   0  0  0  0  0  0
  -25.2816   -9.5686   22.4758 H   0  0  0  0  0  0
  -24.0026   -7.4654   22.7481 H   0  0  0  0  0  0
  -21.0890   -8.8807   19.8948 H   0  0  0  0  0  0
  -22.3774  -10.9681   19.6149 H   0  0  0  0  0  0
  -21.2021   -7.6156   23.9720 H   0  0  0  0  0  0
  -21.1483   -6.0525   25.9076 H   0  0  0  0  0  0
  -22.0593   -2.7616   23.2839 H   0  0  0  0  0  0
  -22.4023  -11.9787   22.4879 H   0  0  0  0  0  0
  -21.0961  -13.1073   22.2679 H   0  0  0  0  0  0
  -24.6091  -15.8598   20.5571 H   0  0  0  0  0  0
  -26.2330  -15.6629   20.1304 H   0  0  0  0  0  0
  -26.7649  -32.4711   23.0660 H   0  0  0  0  0  0
  -25.0021  -33.9141   24.9856 H   0  0  0  0  0  0
  -22.8890  -31.2010   21.2749 H   0  0  0  0  0  0
  -23.3781  -35.9391   23.3257 H   0  0  0  0  0  0
  -24.3552  -36.8830   22.2088 H   0  0  0  0  0  0
  -23.7241  -37.6228   23.6805 H   0  0  0  0  0  0
  -26.3703  -31.1120   20.6386 H   0  0  0  0  0  0
  -26.9788  -30.4855   22.1142 H   0  0  0  0  0  0
  -28.1652  -28.1130   21.3887 H   0  0  0  0  0  0
  -25.8126  -25.4960   18.9564 H   0  0  0  0  0  0
  -24.0874  -27.1622   18.8790 H   0  0  0  0  0  0
  -24.0147  -30.3774   19.3671 H   0  0  0  0  0  0
  -22.9174  -29.1081   19.8043 H   0  0  0  0  0  0
  -25.1383  -36.1525   25.0750 H   0  0  0  0  0  0
  -21.0076  -28.3454   24.1222 H   0  0  0  0  0  0
  -20.5644  -26.2438   23.3696 H   0  0  0  0  0  0
  -21.6665  -26.7339   22.1244 H   0  0  0  0  0  0
  -19.6938  -25.6245   21.1315 H   0  0  0  0  0  0
  -19.6739  -27.3116   20.6707 H   0  0  0  0  0  0
  -17.4241  -26.6702   21.4016 H   0  0  0  0  0  0
  -18.0347  -26.0124   22.9032 H   0  0  0  0  0  0
  -19.8005  -30.7368   24.2122 H   0  0  0  0  0  0
  -17.5066  -31.6280   24.5167 H   0  0  0  0  0  0
  -15.5400  -30.2958   23.7740 H   0  0  0  0  0  0
  -15.8734  -28.0797   22.7144 H   0  0  0  0  0  0
  -24.5855  -30.7170   25.7527 H   0  0  0  0  0  0
  -24.8781  -32.3104   26.4378 H   0  0  0  0  0  0
  -25.7743  -30.9203   27.0204 H   0  0  0  0  0  0
  -26.3384  -29.6293   24.1815 H   0  0  0  0  0  0
  -27.3970  -29.7334   25.5623 H   0  0  0  0  0  0
  -27.9391  -30.3831   24.0402 H   0  0  0  0  0  0
  -27.2534  -33.3797   26.1774 H   0  0  0  0  0  0
  -28.3993  -32.6788   25.0445 H   0  0  0  0  0  0
  -28.0532  -31.8735   26.5673 H   0  0  0  0  0  0
  -28.2530  -38.0031   24.7504 H   0  0  0  0  0  0
  -28.1089  -36.2548   24.6314 H   0  0  0  0  0  0
  -27.2263  -37.1350   25.8869 H   0  0  0  0  0  0
  -20.9872  -29.8612   21.6368 H   0  0  0  0  0  0
  -26.0064  -38.2629   24.1414 H   0  0  0  0  0  0
  -27.2408  -23.3438   19.4143 H   0  0  0  0  0  0
  -30.5215  -17.6246   20.2124 H   0  0  0  0  0  0
  1 25  1  0  0  0
  1 30  2  0  0  0
  1 75  1  0  0  0
  2  3  1  0  0  0
  2 25  1  0  0  0
  2 77  1  0  0  0
  2 78  1  0  0  0
  3  4  1  0  0  0
  3 79  1  0  0  0
  3 80  1  0  0  0
  4  5  1  0  0  0
  4 81  1  0  0  0
  4 82  1  0  0  0
  5  6  1  0  0  0
  5 26  1  0  0  0
  5 83  1  0  0  0
  6 25  1  0  0  0
  6 84  1  0  0  0
  6 85  1  0  0  0
  7  8  2  0  0  0
  7 26  1  0  0  0
  7 29  1  0  0  0
  8  9  1  0  0  0
  8 22  1  0  0  0
  9 10  1  0  0  0
  9 27  2  0  0  0
 10 11  2  0  0  0
 10 15  1  0  0  0
 11 12  1  0  0  0
 11 86  1  0  0  0
 12 13  2  0  0  0
 12 87  1  0  0  0
 13 14  1  0  0  0
 13 31  1  0  0  0
 14 15  2  0  0  0
 14 88  1  0  0  0
 15 89  1  0  0  0
 16 17  2  0  0  0
 16 21  1  0  0  0
 16 31  1  0  0  0
 17 18  1  0  0  0
 17 90  1  0  0  0
 18 19  2  0  0  0
 18 91  1  0  0  0
 19 20  1  0  0  0
 19 24  1  0  0  0
 20 21  2  0  0  0
 20 92  1  0  0  0
 21 23  1  0  0  0
 22 28  1  0  0  0
 22 32  2  0  0  0
 26 27  1  0  0  0
 28 93  1  0  0  0
 28 94  1  0  0  0
 29 95  1  0  0  0
 29 96  1  0  0  0
 33 34  1  0  0  0
 33 66  1  0  0  0
 33 70  2  0  0  0
 34 36  1  0  0  0
 34 59  1  0  0  0
 34 97  1  0  0  0
 35 44  2  0  0  0
 35 45  1  0  0  0
 35 68  1  0  0  0
 36 56  1  0  0  0
 36 98  1  0  0  0
 37 39  1  0  0  0
 37 47  1  0  0  0
 37 66  1  0  0  0
 37 99  1  0  0  0
 38 43  2  0  0  0
 38 46  1  0  0  0
 38 47  1  0  0  0
 39 64  1  0  0  0
 39 67  2  0  0  0
 40 52  1  0  0  0
 40 53  2  0  0  0
 40 58  1  0  0  0
 41100  1  0  0  0
 41101  1  0  0  0
 41102  1  0  0  0
 41 48  1  0  0  0
 42 43  1  0  0  0
 42 66  1  0  0  0
 42103  1  0  0  0
 42104  1  0  0  0
 43 44  1  0  0  0
 44105  1  0  0  0
 45 46  2  0  0  0
 45106  1  0  0  0
 46107  1  0  0  0
 47108  1  0  0  0
 47109  1  0  0  0
 48 56  1  0  0  0
 48 65  1  0  0  0
 48110  1  0  0  0
 49 50  1  0  0  0
 49 53  1  0  0  0
 49 64  1  0  0  0
 49111  1  0  0  0
 50 51  1  0  0  0
 50112  1  0  0  0
 50113  1  0  0  0
 51 52  1  0  0  0
 51114  1  0  0  0
 51115  1  0  0  0
 52116  1  0  0  0
 52117  1  0  0  0
 53 54  1  0  0  0
 54 55  2  0  0  0
 54118  1  0  0  0
 55 57  1  0  0  0
 55119  1  0  0  0
 56 69  2  0  0  0
 57 58  2  0  0  0
 57120  1  0  0  0
 58121  1  0  0  0
 59 60  1  0  0  0
 59 61  1  0  0  0
 59 62  1  0  0  0
 60122  1  0  0  0
 60123  1  0  0  0
 60124  1  0  0  0
 61125  1  0  0  0
 61126  1  0  0  0
 61127  1  0  0  0
 62128  1  0  0  0
 62129  1  0  0  0
 62130  1  0  0  0
 63 65  1  0  0  0
 63131  1  0  0  0
 63132  1  0  0  0
 63133  1  0  0  0
 64134  1  0  0  0
 65135  1  0  0  0
 68 72  1  0  0  0
 71 72  2  0  0  0
 71 74  2  0  0  0
 72136  1  0  0  0
 73 74  1  0  0  0
 73 75  1  0  0  0
 73 76  2  0  0  0
 75137  1  0  0  0
M  ISO  4   1 100  68 101  72 101  75 100
M  END
> <chiral flag>
0

> <version>
0

> <s_m_source_file>
/data/baiqing/PycharmProjects/Reinvent-master-3.2/result/LINK_invent/BTK/process_docking_weight1_custom_product_contain_oxygen_bond_distance_aromatic_linkinvent_7_9_3/rearranged_h_0084.sdf

> <i_m_source_file_index>
29

> <r_mmod_Potential_Energy-OPLS-2005>
3711.66430664062

> <r_mmod_Stretch_Energy-OPLS-2005>
1483.45239257812

> <r_mmod_Bend_Energy-OPLS-2005>
1009.37878417969

> <r_mmod_Torsional_Energy-OPLS-2005>
170.636657714844

> <r_mmod_Improper_Torsional_Energy-OPLS-2005>
3.78409814834595

> <r_mmod_Van_der_Waal_Energy-OPLS-2005>
116.006530761719

> <r_mmod_Electrostatic_Energy-OPLS-2005>
-430.214324951172

> <r_mmod_Solvation_Energy-OPLS-2005>
-214.369430541992

> <b_mmod_Minimization_Converged-OPLS-2005>
1

> <r_mmod_RMS_Derivative-OPLS-2005>
0.0434647612273693

$$$$
29
                    3D
 Structure written by MMmdl.
159167  0  0  1  0            999 V2000
  -30.5791  -14.7188   20.4738 C   0  0  0  0  0  0
  -30.4405  -12.4378   19.4683 C   0  0  0  0  0  0
  -29.5135  -12.5157   18.2330 C   0  0  0  0  0  0
  -28.0343  -12.3499   18.6388 C   0  0  0  0  0  0
  -27.6474  -13.2262   19.8601 C   0  0  2  0  0  0
  -28.6903  -13.1063   20.9935 C   0  0  0  0  0  0
  -25.2517  -13.8183   20.5684 C   0  0  0  0  0  0
  -24.1810  -13.0431   20.9209 C   0  0  0  0  0  0
  -24.6397  -11.6910   20.8745 C   0  0  0  0  0  0
  -23.9076  -10.4286   21.0413 C   0  0  0  0  0  0
  -24.3628   -9.4203   21.9190 C   0  0  0  0  0  0
  -23.6300   -8.2238   22.0757 C   0  0  0  0  0  0
  -22.4282   -8.0281   21.3548 C   0  0  0  0  0  0
  -21.9922   -9.0253   20.4648 C   0  0  0  0  0  0
  -22.7254  -10.2130   20.3055 C   0  0  0  0  0  0
  -21.6853   -6.0744   22.5286 C   0  0  0  0  0  0
  -21.4008   -6.5647   23.8222 C   0  0  0  0  0  0
  -21.3660   -5.6793   24.9177 C   0  0  0  0  0  0
  -21.6041   -4.3054   24.7227 C   0  0  0  0  0  0
  -21.8818   -3.8149   23.4348 C   0  0  0  0  0  0
  -21.9188   -4.6968   22.3406 C   0  0  0  0  0  0
  -22.7829  -13.5209   21.1877 C   0  0  0  0  0  0
  -22.1660   -4.2158   21.0984 F   0  0  0  0  0  0
  -21.5631   -3.4532   25.7739 F   0  0  0  0  0  0
  -29.9983  -13.4726   20.4297 N   0  0  0  0  0  0
  -26.2959  -12.9387   20.3305 N   0  0  0  0  0  0
  -25.9329  -11.6533   20.5751 N   0  0  0  0  0  0
  -22.0490  -12.8194   22.0440 N   0  0  0  0  0  0
  -25.4160  -15.1915   20.4095 N   0  0  0  0  0  0
  -31.7456  -14.8752   20.0975 O   0  0  0  0  0  0
  -21.6638   -6.8888   21.4250 O   0  0  0  0  0  0
  -22.3509  -14.5513   20.6731 O   0  0  0  0  0  0
  -24.6246  -31.8554   23.1991 C   0  0  0  0  0  0
  -25.9081  -32.4743   23.8331 C   0  0  1  0  0  0
  -27.2303  -27.3045   20.1339 C   0  0  0  0  0  0
  -25.5883  -33.8549   24.2243 N   0  0  0  0  0  0
  -23.4214  -30.4781   21.5379 C   0  0  2  0  0  0
  -24.8718  -28.9252   20.1103 C   0  0  0  0  0  0
  -22.7467  -29.4599   22.4890 C   0  0  0  0  0  0
  -18.0270  -28.1405   22.8500 C   0  0  0  0  0  0
  -24.1471  -36.7286   23.2641 C   0  0  0  0  0  0
  -25.9607  -30.7869   21.3684 C   0  0  0  0  0  0
  -26.0395  -29.4110   20.7134 C   0  0  0  0  0  0
  -27.2237  -28.6156   20.7072 C   0  0  0  0  0  0
  -26.0423  -26.8673   19.5122 C   0  0  0  0  0  0
  -24.8765  -27.6611   19.4953 C   0  0  0  0  0  0
  -23.6392  -29.8068   20.1549 C   0  0  0  0  0  0
  -25.4101  -36.3056   24.0318 C   0  0  1  0  0  0
  -20.5875  -28.3695   23.1277 C   0  0  2  0  0  0
  -20.6752  -26.9414   22.5411 C   0  0  0  0  0  0
  -19.5719  -26.6375   21.5225 C   0  0  0  0  0  0
  -18.1902  -26.7950   22.1641 C   0  0  0  0  0  0
  -19.1532  -28.8872   23.2884 C   0  0  0  0  0  0
  -18.9471  -30.1487   23.8888 C   0  0  0  0  0  0
  -17.6474  -30.6620   24.0578 C   0  0  0  0  0  0
  -25.9035  -34.9427   23.5089 C   0  0  0  0  0  0
  -16.5355  -29.9126   23.6351 C   0  0  0  0  0  0
  -16.7259  -28.6542   23.0361 C   0  0  0  0  0  0
  -26.4463  -31.6564   25.0708 C   0  0  0  0  0  0
  -25.3692  -31.3736   26.1438 C   0  0  0  0  0  0
  -27.0305  -30.2983   24.6163 C   0  0  0  0  0  0
  -27.5997  -32.4317   25.7503 C   0  0  0  0  0  0
  -27.5562  -37.1799   24.8458 C   0  0  0  0  0  0
  -21.4172  -29.3055   22.3670 N   0  0  0  0  0  0
  -26.4260  -37.3765   23.9415 N   0  0  0  0  0  0
  -24.6874  -31.0570   22.0925 N   0  0  0  0  0  0
  -23.4191  -28.8122   23.2951 O   0  0  0  0  0  0
  -28.3511  -26.4524   20.1517 O   0  0  0  0  0  0
  -26.5631  -34.8904   22.4666 O   0  0  0  0  0  0
  -23.5405  -32.1336   23.7329 O   0  0  0  0  0  0
  -30.7039  -19.3413   19.5952 C   0  0  0  0  0  0
  -28.6175  -19.4806   20.7557 C   0  0  0  0  0  0
  -30.7947  -17.9374   19.8649 C   0  0  0  0  0  0
  -28.7057  -18.0694   21.0247 C   0  0  0  0  0  0
  -29.6111  -20.1678   20.0054 C   0  0  0  0  0  0
  -29.7811  -17.2393   20.5730 C   0  0  0  0  0  0
  -26.2870  -25.9759   23.3275 C   0  0  0  0  0  0
  -29.4815  -21.6196   19.4444 C   0  0  0  0  0  0
  -27.5290  -25.8918   22.8204 C   0  0  0  0  0  0
  -27.8418  -24.8379   21.8674 C   0  0  0  0  0  0
  -28.2802  -25.0971   20.5964 C   0  0  0  0  0  0
  -28.7374  -24.0042   19.6539 C   0  0  0  0  0  0
  -28.6067  -26.8529   23.2872 C   0  0  0  0  0  0
  -29.7512  -15.7753   20.8130 N   0  0  0  0  0  0
  -28.9299  -22.6993   20.1135 N   0  0  0  0  0  0
  -29.9693  -21.7593   18.3159 O   0  0  0  0  0  0
  -28.9410  -24.3028   18.4702 O   0  0  0  0  0  0
  -27.6931  -23.5924   22.3483 O   0  0  0  0  0  0
  -31.4808  -12.5747   19.1686 H   0  0  0  0  0  0
  -30.3888  -11.4497   19.9271 H   0  0  0  0  0  0
  -29.7898  -11.7501   17.5069 H   0  0  0  0  0  0
  -29.6488  -13.4747   17.7300 H   0  0  0  0  0  0
  -27.8716  -11.2975   18.8725 H   0  0  0  0  0  0
  -27.3829  -12.5746   17.7938 H   0  0  0  0  0  0
  -27.6542  -14.2583   19.5092 H   0  0  0  0  0  0
  -28.7201  -12.0875   21.3818 H   0  0  0  0  0  0
  -28.4231  -13.7419   21.8398 H   0  0  0  0  0  0
  -25.2783   -9.5668   22.4761 H   0  0  0  0  0  0
  -24.0011   -7.4623   22.7469 H   0  0  0  0  0  0
  -21.0862   -8.8771   19.8950 H   0  0  0  0  0  0
  -22.3729  -10.9664   19.6151 H   0  0  0  0  0  0
  -21.1999   -7.6159   23.9729 H   0  0  0  0  0  0
  -21.1485   -6.0521   25.9084 H   0  0  0  0  0  0
  -22.0594   -2.7611   23.2839 H   0  0  0  0  0  0
  -22.4124  -11.9851   22.4807 H   0  0  0  0  0  0
  -21.1106  -13.1202   22.2671 H   0  0  0  0  0  0
  -24.6336  -15.8302   20.5051 H   0  0  0  0  0  0
  -26.2469  -15.6378   20.0430 H   0  0  0  0  0  0
  -26.7150  -32.5421   23.1085 H   0  0  0  0  0  0
  -24.9993  -33.9682   25.0365 H   0  0  0  0  0  0
  -22.7160  -31.2989   21.3912 H   0  0  0  0  0  0
  -23.3722  -35.9626   23.3282 H   0  0  0  0  0  0
  -24.3555  -36.8943   22.2059 H   0  0  0  0  0  0
  -23.7251  -37.6486   23.6694 H   0  0  0  0  0  0
  -26.0875  -31.5521   20.6021 H   0  0  0  0  0  0
  -26.8421  -30.8409   21.9959 H   0  0  0  0  0  0
  -28.1235  -28.9870   21.1764 H   0  0  0  0  0  0
  -26.0128  -25.8923   19.0480 H   0  0  0  0  0  0
  -23.9836  -27.2878   19.0135 H   0  0  0  0  0  0
  -23.7573  -30.5777   19.3919 H   0  0  0  0  0  0
  -22.7618  -29.2318   19.8544 H   0  0  0  0  0  0
  -25.1296  -36.1873   25.0809 H   0  0  0  0  0  0
  -21.0009  -28.3269   24.1378 H   0  0  0  0  0  0
  -20.5638  -26.2316   23.3615 H   0  0  0  0  0  0
  -21.6620  -26.7414   22.1219 H   0  0  0  0  0  0
  -19.6861  -25.6274   21.1278 H   0  0  0  0  0  0
  -19.6660  -27.3173   20.6741 H   0  0  0  0  0  0
  -17.4172  -26.6707   21.4034 H   0  0  0  0  0  0
  -18.0288  -26.0101   22.9038 H   0  0  0  0  0  0
  -19.7950  -30.7318   24.2218 H   0  0  0  0  0  0
  -17.5037  -31.6300   24.5186 H   0  0  0  0  0  0
  -15.5368  -30.3045   23.7690 H   0  0  0  0  0  0
  -15.8641  -28.0892   22.7054 H   0  0  0  0  0  0
  -24.5820  -30.7130   25.7776 H   0  0  0  0  0  0
  -24.8933  -32.2927   26.4864 H   0  0  0  0  0  0
  -25.7996  -30.8898   27.0213 H   0  0  0  0  0  0
  -26.2885  -29.6739   24.1162 H   0  0  0  0  0  0
  -27.3984  -29.7215   25.4661 H   0  0  0  0  0  0
  -27.8751  -30.4262   23.9392 H   0  0  0  0  0  0
  -27.2548  -33.3593   26.2087 H   0  0  0  0  0  0
  -28.3818  -32.6925   25.0357 H   0  0  0  0  0  0
  -28.0647  -31.8448   26.5435 H   0  0  0  0  0  0
  -28.2564  -38.0109   24.7518 H   0  0  0  0  0  0
  -28.1076  -36.2646   24.6263 H   0  0  0  0  0  0
  -27.2283  -37.1420   25.8858 H   0  0  0  0  0  0
  -20.9322  -29.8838   21.6960 H   0  0  0  0  0  0
  -26.0120  -38.2817   24.1456 H   0  0  0  0  0  0
  -31.4905  -19.7888   19.0026 H   0  0  0  0  0  0
  -27.7424  -20.0217   21.0863 H   0  0  0  0  0  0
  -31.6465  -17.3958   19.4786 H   0  0  0  0  0  0
  -27.8905  -17.6138   21.5706 H   0  0  0  0  0  0
  -25.5070  -25.2876   23.0307 H   0  0  0  0  0  0
  -26.0205  -26.7376   24.0463 H   0  0  0  0  0  0
  -28.1736  -27.7595   23.7084 H   0  0  0  0  0  0
  -29.2694  -27.1448   22.4718 H   0  0  0  0  0  0
  -29.2149  -26.3776   24.0573 H   0  0  0  0  0  0
  -28.8778  -15.4477   21.1964 H   0  0  0  0  0  0
  -28.6392  -22.5566   21.0733 H   0  0  0  0  0  0
  -27.3909  -23.6814   23.2450 H   0  0  0  0  0  0
  1 25  1  0  0  0
  1 30  2  0  0  0
  1 84  1  0  0  0
  2  3  1  0  0  0
  2 25  1  0  0  0
  2 89  1  0  0  0
  2 90  1  0  0  0
  3  4  1  0  0  0
  3 91  1  0  0  0
  3 92  1  0  0  0
  4  5  1  0  0  0
  4 93  1  0  0  0
  4 94  1  0  0  0
  5  6  1  0  0  0
  5 26  1  0  0  0
  5 95  1  0  0  0
  6 25  1  0  0  0
  6 96  1  0  0  0
  6 97  1  0  0  0
  7  8  2  0  0  0
  7 26  1  0  0  0
  7 29  1  0  0  0
  8  9  1  0  0  0
  8 22  1  0  0  0
  9 10  1  0  0  0
  9 27  2  0  0  0
 10 11  2  0  0  0
 10 15  1  0  0  0
 11 12  1  0  0  0
 11 98  1  0  0  0
 12 13  2  0  0  0
 12 99  1  0  0  0
 13 14  1  0  0  0
 13 31  1  0  0  0
 14 15  2  0  0  0
 14100  1  0  0  0
 15101  1  0  0  0
 16 17  2  0  0  0
 16 21  1  0  0  0
 16 31  1  0  0  0
 17 18  1  0  0  0
 17102  1  0  0  0
 18 19  2  0  0  0
 18103  1  0  0  0
 19 20  1  0  0  0
 19 24  1  0  0  0
 20 21  2  0  0  0
 20104  1  0  0  0
 21 23  1  0  0  0
 22 28  1  0  0  0
 22 32  2  0  0  0
 26 27  1  0  0  0
 28105  1  0  0  0
 28106  1  0  0  0
 29107  1  0  0  0
 29108  1  0  0  0
 33 34  1  0  0  0
 33 66  1  0  0  0
 33 70  2  0  0  0
 34 36  1  0  0  0
 34 59  1  0  0  0
 34109  1  0  0  0
 35 44  2  0  0  0
 35 45  1  0  0  0
 35 68  1  0  0  0
 36 56  1  0  0  0
 36110  1  0  0  0
 37 39  1  0  0  0
 37 47  1  0  0  0
 37 66  1  0  0  0
 37111  1  0  0  0
 38 43  2  0  0  0
 38 46  1  0  0  0
 38 47  1  0  0  0
 39 64  1  0  0  0
 39 67  2  0  0  0
 40 52  1  0  0  0
 40 53  2  0  0  0
 40 58  1  0  0  0
 41112  1  0  0  0
 41113  1  0  0  0
 41114  1  0  0  0
 41 48  1  0  0  0
 42 43  1  0  0  0
 42 66  1  0  0  0
 42115  1  0  0  0
 42116  1  0  0  0
 43 44  1  0  0  0
 44117  1  0  0  0
 45 46  2  0  0  0
 45118  1  0  0  0
 46119  1  0  0  0
 47120  1  0  0  0
 47121  1  0  0  0
 48 56  1  0  0  0
 48 65  1  0  0  0
 48122  1  0  0  0
 49 50  1  0  0  0
 49 53  1  0  0  0
 49 64  1  0  0  0
 49123  1  0  0  0
 50 51  1  0  0  0
 50124  1  0  0  0
 50125  1  0  0  0
 51 52  1  0  0  0
 51126  1  0  0  0
 51127  1  0  0  0
 52128  1  0  0  0
 52129  1  0  0  0
 53 54  1  0  0  0
 54 55  2  0  0  0
 54130  1  0  0  0
 55 57  1  0  0  0
 55131  1  0  0  0
 56 69  2  0  0  0
 57 58  2  0  0  0
 57132  1  0  0  0
 58133  1  0  0  0
 59 60  1  0  0  0
 59 61  1  0  0  0
 59 62  1  0  0  0
 60134  1  0  0  0
 60135  1  0  0  0
 60136  1  0  0  0
 61137  1  0  0  0
 61138  1  0  0  0
 61139  1  0  0  0
 62140  1  0  0  0
 62141  1  0  0  0
 62142  1  0  0  0
 63 65  1  0  0  0
 63143  1  0  0  0
 63144  1  0  0  0
 63145  1  0  0  0
 64146  1  0  0  0
 65147  1  0  0  0
 68 81  1  0  0  0
 71 73  2  0  0  0
 71 75  1  0  0  0
 71148  1  0  0  0
 72 74  1  0  0  0
 72 75  2  0  0  0
 72149  1  0  0  0
 73 76  1  0  0  0
 73150  1  0  0  0
 74 76  2  0  0  0
 74151  1  0  0  0
 75 78  1  0  0  0
 76 84  1  0  0  0
 77 79  2  0  0  0
 77152  1  0  0  0
 77153  1  0  0  0
 78 85  1  0  0  0
 78 86  2  0  0  0
 79 80  1  0  0  0
 79 83  1  0  0  0
 80 81  2  0  0  0
 80 88  1  0  0  0
 81 82  1  0  0  0
 82 85  1  0  0  0
 82 87  2  0  0  0
 83154  1  0  0  0
 83155  1  0  0  0
 83156  1  0  0  0
 84157  1  0  0  0
 85158  1  0  0  0
 88159  1  0  0  0
M  ISO  4   1 100  68 101  81 101  84 100
M  END
> <chiral flag>
0

> <version>
0

> <s_m_source_file>
/data/baiqing/PycharmProjects/Reinvent-master-3.2/result/LINK_invent/BTK/process_docking_weight1_custom_product_contain_oxygen_bond_distance_aromatic_linkinvent_7_9_3/rearranged_h_0084.sdf

> <i_m_source_file_index>
30

> <r_mmod_Potential_Energy-OPLS-2005>
62.3065986633301

> <r_mmod_Stretch_Energy-OPLS-2005>
106.142105102539

> <r_mmod_Bend_Energy-OPLS-2005>
173.705352783203

> <r_mmod_Torsional_Energy-OPLS-2005>
273.793640136719

> <r_mmod_Improper_Torsional_Energy-OPLS-2005>
5.708251953125

> <r_mmod_Van_der_Waal_Energy-OPLS-2005>
152.284484863281

> <r_mmod_Electrostatic_Energy-OPLS-2005>
-452.521820068359

> <r_mmod_Solvation_Energy-OPLS-2005>
-262.902252197266

> <b_mmod_Minimization_Converged-OPLS-2005>
0

> <r_mmod_RMS_Derivative-OPLS-2005>
1.8428008556366

$$$$
30
                    3D
 Structure written by MMmdl.
149158  0  0  1  0            999 V2000
  -30.7046  -14.7170   20.3891 C   0  0  0  0  0  0
  -30.4074  -12.4408   19.4567 C   0  0  0  0  0  0
  -29.4866  -12.4828   18.2213 C   0  0  0  0  0  0
  -28.0216  -12.3043   18.6513 C   0  0  0  0  0  0
  -27.6339  -13.2195   19.8419 C   0  0  2  0  0  0
  -28.6930  -13.1873   20.9671 C   0  0  0  0  0  0
  -25.2459  -13.8159   20.5684 C   0  0  0  0  0  0
  -24.1740  -13.0414   20.9147 C   0  0  0  0  0  0
  -24.6343  -11.6895   20.8722 C   0  0  0  0  0  0
  -23.9021  -10.4292   21.0391 C   0  0  0  0  0  0
  -24.3591   -9.4215   21.9182 C   0  0  0  0  0  0
  -23.6283   -8.2249   22.0763 C   0  0  0  0  0  0
  -22.4270   -8.0270   21.3538 C   0  0  0  0  0  0
  -21.9877   -9.0225   20.4648 C   0  0  0  0  0  0
  -22.7188  -10.2120   20.3047 C   0  0  0  0  0  0
  -21.6854   -6.0725   22.5280 C   0  0  0  0  0  0
  -21.4012   -6.5623   23.8199 C   0  0  0  0  0  0
  -21.3654   -5.6771   24.9167 C   0  0  0  0  0  0
  -21.6048   -4.3047   24.7228 C   0  0  0  0  0  0
  -21.8822   -3.8133   23.4337 C   0  0  0  0  0  0
  -21.9201   -4.6946   22.3398 C   0  0  0  0  0  0
  -22.7775  -13.5210   21.1811 C   0  0  0  0  0  0
  -22.1673   -4.2132   21.0980 F   0  0  0  0  0  0
  -21.5650   -3.4530   25.7739 F   0  0  0  0  0  0
  -29.9730  -13.5453   20.3454 N   0  0  0  0  0  0
  -26.2896  -12.9344   20.3319 N   0  0  0  0  0  0
  -25.9274  -11.6501   20.5779 N   0  0  0  0  0  0
  -22.0415  -12.8228   22.0385 N   0  0  0  0  0  0
  -25.4172  -15.1867   20.4188 N   0  0  0  0  0  0
  -31.9164  -14.6561   20.1947 O   0  0  0  0  0  0
  -21.6648   -6.8853   21.4232 O   0  0  0  0  0  0
  -22.3453  -14.5508   20.6654 O   0  0  0  0  0  0
  -24.6307  -31.8552   23.1975 C   0  0  0  0  0  0
  -25.9139  -32.4744   23.8319 C   0  0  1  0  0  0
  -27.2361  -27.3011   20.1102 C   0  0  0  0  0  0
  -25.5943  -33.8546   24.2248 N   0  0  0  0  0  0
  -23.4292  -30.4733   21.5407 C   0  0  2  0  0  0
  -24.8794  -28.9183   20.1138 C   0  0  0  0  0  0
  -22.7484  -29.4586   22.4929 C   0  0  0  0  0  0
  -18.0291  -28.1391   22.8484 C   0  0  0  0  0  0
  -24.1497  -36.7292   23.2634 C   0  0  0  0  0  0
  -25.9722  -30.7775   21.3716 C   0  0  0  0  0  0
  -26.0490  -29.3998   20.7155 C   0  0  0  0  0  0
  -27.2370  -28.6081   20.6942 C   0  0  0  0  0  0
  -26.0443  -26.8654   19.5010 C   0  0  0  0  0  0
  -24.8766  -27.6541   19.5035 C   0  0  0  0  0  0
  -23.6513  -29.8039   20.1577 C   0  0  0  0  0  0
  -25.4118  -36.3055   24.0313 C   0  0  1  0  0  0
  -20.5875  -28.3710   23.1276 C   0  0  2  0  0  0
  -20.6787  -26.9429   22.5402 C   0  0  0  0  0  0
  -19.5764  -26.6384   21.5217 C   0  0  0  0  0  0
  -18.1945  -26.7943   22.1624 C   0  0  0  0  0  0
  -19.1536  -28.8873   23.2865 C   0  0  0  0  0  0
  -18.9479  -30.1461   23.8893 C   0  0  0  0  0  0
  -17.6474  -30.6600   24.0559 C   0  0  0  0  0  0
  -25.9062  -34.9427   23.5078 C   0  0  0  0  0  0
  -16.5372  -29.9108   23.6328 C   0  0  0  0  0  0
  -16.7290  -28.6513   23.0343 C   0  0  0  0  0  0
  -26.4514  -31.6559   25.0711 C   0  0  0  0  0  0
  -25.3758  -31.3722   26.1452 C   0  0  0  0  0  0
  -27.0356  -30.2961   24.6217 C   0  0  0  0  0  0
  -27.6054  -32.4315   25.7509 C   0  0  0  0  0  0
  -27.5575  -37.1806   24.8461 C   0  0  0  0  0  0
  -21.4182  -29.3087   22.3684 N   0  0  0  0  0  0
  -26.4291  -37.3756   23.9394 N   0  0  0  0  0  0
  -24.6965  -31.0528   22.0947 N   0  0  0  0  0  0
  -23.4189  -28.8081   23.2998 O   0  0  0  0  0  0
  -28.3395  -26.4331   20.0615 O   0  0  0  0  0  0
  -26.5621  -34.8904   22.4640 O   0  0  0  0  0  0
  -23.5452  -32.1379   23.7267 O   0  0  0  0  0  0
  -29.3600  -19.3936   20.2703 C   0  0  0  0  0  0
  -27.8903  -18.2715   18.8725 C   0  0  0  0  0  0
  -28.8304  -18.0870   19.8603 C   0  0  0  0  0  0
  -28.7962  -20.5152   19.6359 C   0  0  0  0  0  0
  -28.5165  -23.8940   20.3730 C   0  0  0  0  0  0
  -28.7972  -23.1768   19.1429 C   0  0  0  0  0  0
  -28.2791  -25.2037   20.7622 C   0  0  0  0  0  0
  -29.0139  -16.6504   20.4286 C   0  0  0  0  0  0
  -28.4494  -22.5436   21.0993 C   0  0  0  0  0  0
  -28.9891  -21.9608   19.8578 N   0  0  0  0  0  0
  -30.2025  -16.0040   20.2852 N   0  0  0  0  0  0
  -28.7106  -23.5272   17.9799 O   0  0  0  0  0  0
  -28.0408  -16.1266   20.9647 O   0  0  0  0  0  0
  -27.6694  -19.9492   18.4156 S   0  0  0  0  0  0
  -31.4479  -12.5228   19.1440 H   0  0  0  0  0  0
  -30.3287  -11.4766   19.9566 H   0  0  0  0  0  0
  -29.7651  -11.6952   17.5209 H   0  0  0  0  0  0
  -29.6109  -13.4330   17.6998 H   0  0  0  0  0  0
  -27.8939  -11.2582   18.9330 H   0  0  0  0  0  0
  -27.3491  -12.4734   17.8082 H   0  0  0  0  0  0
  -27.6127  -14.2220   19.4207 H   0  0  0  0  0  0
  -28.7535  -12.1939   21.4139 H   0  0  0  0  0  0
  -28.4423  -13.8608   21.7863 H   0  0  0  0  0  0
  -25.2713   -9.5728   22.4778 H   0  0  0  0  0  0
  -23.9982   -7.4653   22.7497 H   0  0  0  0  0  0
  -21.0807   -8.8740   19.8966 H   0  0  0  0  0  0
  -22.3614  -10.9669   19.6190 H   0  0  0  0  0  0
  -21.2000   -7.6135   23.9696 H   0  0  0  0  0  0
  -21.1464   -6.0514   25.9067 H   0  0  0  0  0  0
  -22.0604   -2.7595   23.2853 H   0  0  0  0  0  0
  -22.3988  -11.9909   22.4835 H   0  0  0  0  0  0
  -21.1030  -13.1290   22.2517 H   0  0  0  0  0  0
  -24.6946  -15.8442   20.6896 H   0  0  0  0  0  0
  -26.3560  -15.5858   20.4751 H   0  0  0  0  0  0
  -26.7196  -32.5405   23.1049 H   0  0  0  0  0  0
  -25.0090  -33.9680   25.0394 H   0  0  0  0  0  0
  -22.7265  -31.2944   21.3892 H   0  0  0  0  0  0
  -23.3743  -35.9642   23.3282 H   0  0  0  0  0  0
  -24.3592  -36.8942   22.2055 H   0  0  0  0  0  0
  -23.7286  -37.6499   23.6683 H   0  0  0  0  0  0
  -26.1161  -31.5518   20.6130 H   0  0  0  0  0  0
  -26.8465  -30.8203   22.0088 H   0  0  0  0  0  0
  -28.1483  -28.9901   21.1343 H   0  0  0  0  0  0
  -26.0221  -25.9033   19.0098 H   0  0  0  0  0  0
  -23.9833  -27.2813   19.0278 H   0  0  0  0  0  0
  -23.7853  -30.5851   19.4083 H   0  0  0  0  0  0
  -22.7731  -29.2369   19.8461 H   0  0  0  0  0  0
  -25.1305  -36.1887   25.0807 H   0  0  0  0  0  0
  -20.9935  -28.3277   24.1407 H   0  0  0  0  0  0
  -20.5684  -26.2305   23.3585 H   0  0  0  0  0  0
  -21.6656  -26.7485   22.1191 H   0  0  0  0  0  0
  -19.6949  -25.6288   21.1286 H   0  0  0  0  0  0
  -19.6713  -27.3175   20.6735 H   0  0  0  0  0  0
  -17.4215  -26.6718   21.4026 H   0  0  0  0  0  0
  -18.0318  -26.0100   22.9023 H   0  0  0  0  0  0
  -19.7966  -30.7278   24.2257 H   0  0  0  0  0  0
  -17.5063  -31.6287   24.5160 H   0  0  0  0  0  0
  -15.5376  -30.3025   23.7650 H   0  0  0  0  0  0
  -15.8694  -28.0842   22.7052 H   0  0  0  0  0  0
  -24.5928  -30.7063   25.7805 H   0  0  0  0  0  0
  -24.8958  -32.2901   26.4861 H   0  0  0  0  0  0
  -25.8097  -30.8930   27.0239 H   0  0  0  0  0  0
  -26.2942  -29.6705   24.1236 H   0  0  0  0  0  0
  -27.4011  -29.7230   25.4748 H   0  0  0  0  0  0
  -27.8830  -30.4202   23.9470 H   0  0  0  0  0  0
  -27.2627  -33.3613   26.2062 H   0  0  0  0  0  0
  -28.3886  -32.6886   25.0366 H   0  0  0  0  0  0
  -28.0698  -31.8476   26.5467 H   0  0  0  0  0  0
  -28.2583  -38.0107   24.7474 H   0  0  0  0  0  0
  -28.1080  -36.2633   24.6318 H   0  0  0  0  0  0
  -27.2288  -37.1485   25.8865 H   0  0  0  0  0  0
  -20.9372  -29.8893   21.6949 H   0  0  0  0  0  0
  -26.0154  -38.2827   24.1385 H   0  0  0  0  0  0
  -30.0912  -19.4604   21.0560 H   0  0  0  0  0  0
  -27.2802  -17.5071   18.4019 H   0  0  0  0  0  0
  -28.0463  -25.3798   21.8039 H   0  0  0  0  0  0
  -27.4506  -22.1580   21.3141 H   0  0  0  0  0  0
  -29.1182  -22.3556   21.9348 H   0  0  0  0  0  0
  -30.9225  -16.6425   19.9881 H   0  0  0  0  0  0
  1 25  1  0  0  0
  1 30  2  0  0  0
  1 81  1  0  0  0
  2  3  1  0  0  0
  2 25  1  0  0  0
  2 85  1  0  0  0
  2 86  1  0  0  0
  3  4  1  0  0  0
  3 87  1  0  0  0
  3 88  1  0  0  0
  4  5  1  0  0  0
  4 89  1  0  0  0
  4 90  1  0  0  0
  5  6  1  0  0  0
  5 26  1  0  0  0
  5 91  1  0  0  0
  6 25  1  0  0  0
  6 92  1  0  0  0
  6 93  1  0  0  0
  7  8  2  0  0  0
  7 26  1  0  0  0
  7 29  1  0  0  0
  8  9  1  0  0  0
  8 22  1  0  0  0
  9 10  1  0  0  0
  9 27  2  0  0  0
 10 11  2  0  0  0
 10 15  1  0  0  0
 11 12  1  0  0  0
 11 94  1  0  0  0
 12 13  2  0  0  0
 12 95  1  0  0  0
 13 14  1  0  0  0
 13 31  1  0  0  0
 14 15  2  0  0  0
 14 96  1  0  0  0
 15 97  1  0  0  0
 16 17  2  0  0  0
 16 21  1  0  0  0
 16 31  1  0  0  0
 17 18  1  0  0  0
 17 98  1  0  0  0
 18 19  2  0  0  0
 18 99  1  0  0  0
 19 20  1  0  0  0
 19 24  1  0  0  0
 20 21  2  0  0  0
 20100  1  0  0  0
 21 23  1  0  0  0
 22 28  1  0  0  0
 22 32  2  0  0  0
 26 27  1  0  0  0
 28101  1  0  0  0
 28102  1  0  0  0
 29103  1  0  0  0
 29104  1  0  0  0
 33 34  1  0  0  0
 33 66  1  0  0  0
 33 70  2  0  0  0
 34 36  1  0  0  0
 34 59  1  0  0  0
 34105  1  0  0  0
 35 44  2  0  0  0
 35 45  1  0  0  0
 35 68  1  0  0  0
 36 56  1  0  0  0
 36106  1  0  0  0
 37 39  1  0  0  0
 37 47  1  0  0  0
 37 66  1  0  0  0
 37107  1  0  0  0
 38 43  2  0  0  0
 38 46  1  0  0  0
 38 47  1  0  0  0
 39 64  1  0  0  0
 39 67  2  0  0  0
 40 52  1  0  0  0
 40 53  2  0  0  0
 40 58  1  0  0  0
 41108  1  0  0  0
 41109  1  0  0  0
 41110  1  0  0  0
 41 48  1  0  0  0
 42 43  1  0  0  0
 42 66  1  0  0  0
 42111  1  0  0  0
 42112  1  0  0  0
 43 44  1  0  0  0
 44113  1  0  0  0
 45 46  2  0  0  0
 45114  1  0  0  0
 46115  1  0  0  0
 47116  1  0  0  0
 47117  1  0  0  0
 48 56  1  0  0  0
 48 65  1  0  0  0
 48118  1  0  0  0
 49 50  1  0  0  0
 49 53  1  0  0  0
 49 64  1  0  0  0
 49119  1  0  0  0
 50 51  1  0  0  0
 50120  1  0  0  0
 50121  1  0  0  0
 51 52  1  0  0  0
 51122  1  0  0  0
 51123  1  0  0  0
 52124  1  0  0  0
 52125  1  0  0  0
 53 54  1  0  0  0
 54 55  2  0  0  0
 54126  1  0  0  0
 55 57  1  0  0  0
 55127  1  0  0  0
 56 69  2  0  0  0
 57 58  2  0  0  0
 57128  1  0  0  0
 58129  1  0  0  0
 59 60  1  0  0  0
 59 61  1  0  0  0
 59 62  1  0  0  0
 60130  1  0  0  0
 60131  1  0  0  0
 60132  1  0  0  0
 61133  1  0  0  0
 61134  1  0  0  0
 61135  1  0  0  0
 62136  1  0  0  0
 62137  1  0  0  0
 62138  1  0  0  0
 63 65  1  0  0  0
 63139  1  0  0  0
 63140  1  0  0  0
 63141  1  0  0  0
 64142  1  0  0  0
 65143  1  0  0  0
 68 77  1  0  0  0
 71 73  1  0  0  0
 71 74  2  0  0  0
 71144  1  0  0  0
 72 73  2  0  0  0
 72 84  1  0  0  0
 72145  1  0  0  0
 73 78  1  0  0  0
 74 80  1  0  0  0
 74 84  1  0  0  0
 75 76  1  0  0  0
 75 77  2  0  0  0
 75 79  1  0  0  0
 76 80  1  0  0  0
 76 82  2  0  0  0
 77146  1  0  0  0
 78 81  1  0  0  0
 78 83  2  0  0  0
 79 80  1  0  0  0
 79147  1  0  0  0
 79148  1  0  0  0
 81149  1  0  0  0
M  ISO  4   1 100  68 101  77 101  81 100
M  END
> <chiral flag>
0

> <version>
0

> <s_m_source_file>
/data/baiqing/PycharmProjects/Reinvent-master-3.2/result/LINK_invent/BTK/process_docking_weight1_custom_product_contain_oxygen_bond_distance_aromatic_linkinvent_7_9_3/rearranged_h_0084.sdf

> <i_m_source_file_index>
31

> <r_mmod_Potential_Energy-OPLS-2005>
111.704177856445

> <r_mmod_Stretch_Energy-OPLS-2005>
83.783805847168

> <r_mmod_Bend_Energy-OPLS-2005>
265.321838378906

> <r_mmod_Torsional_Energy-OPLS-2005>
284.741943359375

> <r_mmod_Improper_Torsional_Energy-OPLS-2005>
17.8112697601318

> <r_mmod_Van_der_Waal_Energy-OPLS-2005>
111.603118896484

> <r_mmod_Electrostatic_Energy-OPLS-2005>
-510.062561035156

> <r_mmod_Solvation_Energy-OPLS-2005>
-218.960113525391

> <b_mmod_Minimization_Converged-OPLS-2005>
0

> <r_mmod_RMS_Derivative-OPLS-2005>
6.37118244171143

$$$$
31
                    3D
 Structure written by MMmdl.
151160  0  0  1  0            999 V2000
  -30.6279  -14.6732   20.4908 C   0  0  0  0  0  0
  -30.4427  -12.3865   19.4637 C   0  0  0  0  0  0
  -29.5145  -12.5104   18.2333 C   0  0  0  0  0  0
  -28.0352  -12.3474   18.6391 C   0  0  0  0  0  0
  -27.6522  -13.2225   19.8635 C   0  0  2  0  0  0
  -28.6881  -13.0876   20.9991 C   0  0  0  0  0  0
  -25.2546  -13.8188   20.5686 C   0  0  0  0  0  0
  -24.1813  -13.0445   20.9173 C   0  0  0  0  0  0
  -24.6393  -11.6917   20.8718 C   0  0  0  0  0  0
  -23.9067  -10.4293   21.0391 C   0  0  0  0  0  0
  -24.3621   -9.4210   21.9169 C   0  0  0  0  0  0
  -23.6297   -8.2247   22.0747 C   0  0  0  0  0  0
  -22.4278   -8.0283   21.3545 C   0  0  0  0  0  0
  -21.9911   -9.0256   20.4646 C   0  0  0  0  0  0
  -22.7234  -10.2135   20.3050 C   0  0  0  0  0  0
  -21.6856   -6.0734   22.5280 C   0  0  0  0  0  0
  -21.4014   -6.5637   23.8211 C   0  0  0  0  0  0
  -21.3662   -5.6790   24.9177 C   0  0  0  0  0  0
  -21.6048   -4.3054   24.7228 C   0  0  0  0  0  0
  -21.8819   -3.8147   23.4346 C   0  0  0  0  0  0
  -21.9191   -4.6961   22.3403 C   0  0  0  0  0  0
  -22.7837  -13.5234   21.1852 C   0  0  0  0  0  0
  -22.1655   -4.2148   21.0978 F   0  0  0  0  0  0
  -21.5638   -3.4540   25.7741 F   0  0  0  0  0  0
  -30.0116  -13.3967   20.4459 N   0  0  0  0  0  0
  -26.2978  -12.9380   20.3307 N   0  0  0  0  0  0
  -25.9321  -11.6524   20.5735 N   0  0  0  0  0  0
  -22.0496  -12.8221   22.0422 N   0  0  0  0  0  0
  -25.4276  -15.1907   20.4128 N   0  0  0  0  0  0
  -31.7736  -14.8844   20.0862 O   0  0  0  0  0  0
  -21.6648   -6.8878   21.4242 O   0  0  0  0  0  0
  -22.3509  -14.5538   20.6703 O   0  0  0  0  0  0
  -24.6297  -31.8589   23.2027 C   0  0  0  0  0  0
  -25.9133  -32.4779   23.8360 C   0  0  1  0  0  0
  -27.2200  -27.2896   20.1138 C   0  0  0  0  0  0
  -25.5932  -33.8579   24.2281 N   0  0  0  0  0  0
  -23.4250  -30.4850   21.5468 C   0  0  2  0  0  0
  -24.8716  -28.9445   20.1100 C   0  0  0  0  0  0
  -22.7494  -29.4626   22.4927 C   0  0  0  0  0  0
  -18.0289  -28.1388   22.8488 C   0  0  0  0  0  0
  -24.1486  -36.7291   23.2638 C   0  0  0  0  0  0
  -25.9717  -30.7798   21.3814 C   0  0  0  0  0  0
  -26.0447  -29.4071   20.7196 C   0  0  0  0  0  0
  -27.2216  -28.5923   20.7136 C   0  0  0  0  0  0
  -26.0201  -26.9027   19.4653 C   0  0  0  0  0  0
  -24.8633  -27.6985   19.4735 C   0  0  0  0  0  0
  -23.6414  -29.8267   20.1613 C   0  0  0  0  0  0
  -25.4112  -36.3087   24.0331 C   0  0  1  0  0  0
  -20.5896  -28.3694   23.1274 C   0  0  2  0  0  0
  -20.6778  -26.9412   22.5412 C   0  0  0  0  0  0
  -19.5752  -26.6383   21.5217 C   0  0  0  0  0  0
  -18.1931  -26.7932   22.1624 C   0  0  0  0  0  0
  -19.1545  -28.8858   23.2879 C   0  0  0  0  0  0
  -18.9466  -30.1458   23.8901 C   0  0  0  0  0  0
  -17.6465  -30.6589   24.0564 C   0  0  0  0  0  0
  -25.9055  -34.9456   23.5107 C   0  0  0  0  0  0
  -16.5356  -29.9087   23.6333 C   0  0  0  0  0  0
  -16.7275  -28.6505   23.0356 C   0  0  0  0  0  0
  -26.4497  -31.6593   25.0739 C   0  0  0  0  0  0
  -25.3724  -31.3757   26.1467 C   0  0  0  0  0  0
  -27.0322  -30.3003   24.6214 C   0  0  0  0  0  0
  -27.6063  -32.4327   25.7494 C   0  0  0  0  0  0
  -27.5591  -37.1789   24.8454 C   0  0  0  0  0  0
  -21.4204  -29.3048   22.3665 N   0  0  0  0  0  0
  -26.4286  -37.3789   23.9425 N   0  0  0  0  0  0
  -24.6947  -31.0577   22.0998 N   0  0  0  0  0  0
  -23.4202  -28.8153   23.3011 O   0  0  0  0  0  0
  -28.3087  -26.3871   20.1803 O   0  0  0  0  0  0
  -26.5627  -34.8924   22.4677 O   0  0  0  0  0  0
  -23.5451  -32.1400   23.7335 O   0  0  0  0  0  0
  -29.0905  -19.2230   19.6343 C   0  0  0  0  0  0
  -29.1456  -17.7940   19.6982 C   0  0  0  0  0  0
  -30.5109  -19.3451   21.5555 C   0  0  0  0  0  0
  -29.7577  -20.0656   20.5726 C   0  0  0  0  0  0
  -29.8800  -17.0903   20.6929 C   0  0  0  0  0  0
  -30.5670  -17.9153   21.6218 C   0  0  0  0  0  0
  -30.2151  -23.7701   20.7356 C   0  0  0  0  0  0
  -28.9594  -23.7593   20.2886 C   0  0  0  0  0  0
  -30.6861  -22.4015   20.8888 C   0  0  0  0  0  0
  -28.6052  -22.3300   20.1592 C   0  0  0  0  0  0
  -27.9886  -24.9469   19.9330 C   0  0  0  0  0  0
  -29.6776  -21.5609   20.5364 N   0  0  0  0  0  0
  -31.8177  -22.0635   21.2546 O   0  0  0  0  0  0
  -27.5137  -21.8856   19.7855 O   0  0  0  0  0  0
  -29.7207  -15.6959   20.8740 O   0  0  0  0  0  0
  -31.2566  -17.3317   22.6319 F   0  0  0  0  0  0
  -31.4855  -12.5221   19.1709 H   0  0  0  0  0  0
  -30.3768  -11.3877   19.8981 H   0  0  0  0  0  0
  -29.7810  -11.7651   17.4827 H   0  0  0  0  0  0
  -29.6585  -13.4833   17.7603 H   0  0  0  0  0  0
  -27.8706  -11.2946   18.8719 H   0  0  0  0  0  0
  -27.3843  -12.5755   17.7942 H   0  0  0  0  0  0
  -27.6716  -14.2575   19.5225 H   0  0  0  0  0  0
  -28.6842  -12.0743   21.4043 H   0  0  0  0  0  0
  -28.4395  -13.7466   21.8328 H   0  0  0  0  0  0
  -25.2767   -9.5693   22.4735 H   0  0  0  0  0  0
  -24.0014   -7.4642   22.7459 H   0  0  0  0  0  0
  -21.0843   -8.8771   19.8948 H   0  0  0  0  0  0
  -22.3687  -10.9675   19.6160 H   0  0  0  0  0  0
  -21.2000   -7.6145   23.9717 H   0  0  0  0  0  0
  -21.1487   -6.0521   25.9081 H   0  0  0  0  0  0
  -22.0595   -2.7610   23.2850 H   0  0  0  0  0  0
  -22.4127  -11.9882   22.4797 H   0  0  0  0  0  0
  -21.1116  -13.1228   22.2653 H   0  0  0  0  0  0
  -24.6697  -15.8529   20.5382 H   0  0  0  0  0  0
  -26.2961  -15.6291   20.1349 H   0  0  0  0  0  0
  -26.7200  -32.5437   23.1104 H   0  0  0  0  0  0
  -25.0059  -33.9716   25.0413 H   0  0  0  0  0  0
  -22.7208  -31.3074   21.4049 H   0  0  0  0  0  0
  -23.3771  -35.9598   23.3259 H   0  0  0  0  0  0
  -24.3590  -36.8956   22.2062 H   0  0  0  0  0  0
  -23.7201  -37.6462   23.6687 H   0  0  0  0  0  0
  -26.1103  -31.5439   20.6153 H   0  0  0  0  0  0
  -26.8496  -30.8254   22.0140 H   0  0  0  0  0  0
  -28.1165  -28.9409   21.2101 H   0  0  0  0  0  0
  -25.9251  -25.9593   18.9509 H   0  0  0  0  0  0
  -23.9667  -27.3408   18.9861 H   0  0  0  0  0  0
  -23.7633  -30.6063   19.4085 H   0  0  0  0  0  0
  -22.7606  -29.2589   19.8558 H   0  0  0  0  0  0
  -25.1291  -36.1933   25.0822 H   0  0  0  0  0  0
  -20.9988  -28.3274   24.1394 H   0  0  0  0  0  0
  -20.5680  -26.2303   23.3617 H   0  0  0  0  0  0
  -21.6643  -26.7435   22.1201 H   0  0  0  0  0  0
  -19.6911  -25.6292   21.1248 H   0  0  0  0  0  0
  -19.6697  -27.3196   20.6749 H   0  0  0  0  0  0
  -17.4201  -26.6688   21.4024 H   0  0  0  0  0  0
  -18.0326  -26.0071   22.9017 H   0  0  0  0  0  0
  -19.7941  -30.7278   24.2272 H   0  0  0  0  0  0
  -17.5017  -31.6271   24.5160 H   0  0  0  0  0  0
  -15.5357  -30.2990   23.7656 H   0  0  0  0  0  0
  -15.8673  -28.0823   22.7073 H   0  0  0  0  0  0
  -24.5825  -30.7204   25.7775 H   0  0  0  0  0  0
  -24.9011  -32.2943   26.4970 H   0  0  0  0  0  0
  -25.8019  -30.8831   27.0197 H   0  0  0  0  0  0
  -26.2892  -29.6763   24.1228 H   0  0  0  0  0  0
  -27.3982  -29.7260   25.4734 H   0  0  0  0  0  0
  -27.8790  -30.4267   23.9466 H   0  0  0  0  0  0
  -27.2672  -33.3612   26.2100 H   0  0  0  0  0  0
  -28.3844  -32.6914   25.0300 H   0  0  0  0  0  0
  -28.0762  -31.8437   26.5378 H   0  0  0  0  0  0
  -28.2573  -38.0122   24.7563 H   0  0  0  0  0  0
  -28.1123  -36.2659   24.6194 H   0  0  0  0  0  0
  -27.2324  -37.1334   25.8857 H   0  0  0  0  0  0
  -20.9382  -29.8771   21.6872 H   0  0  0  0  0  0
  -26.0167  -38.2854   24.1472 H   0  0  0  0  0  0
  -28.4986  -19.6666   18.8455 H   0  0  0  0  0  0
  -28.5715  -17.2263   18.9804 H   0  0  0  0  0  0
  -31.0487  -19.8874   22.3186 H   0  0  0  0  0  0
  -30.8008  -24.6518   20.9432 H   0  0  0  0  0  0
  -27.0683  -24.7086   20.4695 H   0  0  0  0  0  0
  -27.7777  -24.8307   18.8695 H   0  0  0  0  0  0
  1 25  1  0  0  0
  1 30  2  0  0  0
  1 85  1  0  0  0
  2  3  1  0  0  0
  2 25  1  0  0  0
  2 87  1  0  0  0
  2 88  1  0  0  0
  3  4  1  0  0  0
  3 89  1  0  0  0
  3 90  1  0  0  0
  4  5  1  0  0  0
  4 91  1  0  0  0
  4 92  1  0  0  0
  5  6  1  0  0  0
  5 26  1  0  0  0
  5 93  1  0  0  0
  6 25  1  0  0  0
  6 94  1  0  0  0
  6 95  1  0  0  0
  7  8  2  0  0  0
  7 26  1  0  0  0
  7 29  1  0  0  0
  8  9  1  0  0  0
  8 22  1  0  0  0
  9 10  1  0  0  0
  9 27  2  0  0  0
 10 11  2  0  0  0
 10 15  1  0  0  0
 11 12  1  0  0  0
 11 96  1  0  0  0
 12 13  2  0  0  0
 12 97  1  0  0  0
 13 14  1  0  0  0
 13 31  1  0  0  0
 14 15  2  0  0  0
 14 98  1  0  0  0
 15 99  1  0  0  0
 16 17  2  0  0  0
 16 21  1  0  0  0
 16 31  1  0  0  0
 17 18  1  0  0  0
 17100  1  0  0  0
 18 19  2  0  0  0
 18101  1  0  0  0
 19 20  1  0  0  0
 19 24  1  0  0  0
 20 21  2  0  0  0
 20102  1  0  0  0
 21 23  1  0  0  0
 22 28  1  0  0  0
 22 32  2  0  0  0
 26 27  1  0  0  0
 28103  1  0  0  0
 28104  1  0  0  0
 29105  1  0  0  0
 29106  1  0  0  0
 33 34  1  0  0  0
 33 66  1  0  0  0
 33 70  2  0  0  0
 34 36  1  0  0  0
 34 59  1  0  0  0
 34107  1  0  0  0
 35 44  2  0  0  0
 35 45  1  0  0  0
 35 68  1  0  0  0
 36 56  1  0  0  0
 36108  1  0  0  0
 37 39  1  0  0  0
 37 47  1  0  0  0
 37 66  1  0  0  0
 37109  1  0  0  0
 38 43  2  0  0  0
 38 46  1  0  0  0
 38 47  1  0  0  0
 39 64  1  0  0  0
 39 67  2  0  0  0
 40 52  1  0  0  0
 40 53  2  0  0  0
 40 58  1  0  0  0
 41110  1  0  0  0
 41111  1  0  0  0
 41112  1  0  0  0
 41 48  1  0  0  0
 42 43  1  0  0  0
 42 66  1  0  0  0
 42113  1  0  0  0
 42114  1  0  0  0
 43 44  1  0  0  0
 44115  1  0  0  0
 45 46  2  0  0  0
 45116  1  0  0  0
 46117  1  0  0  0
 47118  1  0  0  0
 47119  1  0  0  0
 48 56  1  0  0  0
 48 65  1  0  0  0
 48120  1  0  0  0
 49 50  1  0  0  0
 49 53  1  0  0  0
 49 64  1  0  0  0
 49121  1  0  0  0
 50 51  1  0  0  0
 50122  1  0  0  0
 50123  1  0  0  0
 51 52  1  0  0  0
 51124  1  0  0  0
 51125  1  0  0  0
 52126  1  0  0  0
 52127  1  0  0  0
 53 54  1  0  0  0
 54 55  2  0  0  0
 54128  1  0  0  0
 55 57  1  0  0  0
 55129  1  0  0  0
 56 69  2  0  0  0
 57 58  2  0  0  0
 57130  1  0  0  0
 58131  1  0  0  0
 59 60  1  0  0  0
 59 61  1  0  0  0
 59 62  1  0  0  0
 60132  1  0  0  0
 60133  1  0  0  0
 60134  1  0  0  0
 61135  1  0  0  0
 61136  1  0  0  0
 61137  1  0  0  0
 62138  1  0  0  0
 62139  1  0  0  0
 62140  1  0  0  0
 63 65  1  0  0  0
 63141  1  0  0  0
 63142  1  0  0  0
 63143  1  0  0  0
 64144  1  0  0  0
 65145  1  0  0  0
 68 81  1  0  0  0
 71 72  2  0  0  0
 71 74  1  0  0  0
 71146  1  0  0  0
 72 75  1  0  0  0
 72147  1  0  0  0
 73 74  2  0  0  0
 73 76  1  0  0  0
 73148  1  0  0  0
 74 82  1  0  0  0
 75 76  2  0  0  0
 75 85  1  0  0  0
 76 86  1  0  0  0
 77 78  2  0  0  0
 77 79  1  0  0  0
 77149  1  0  0  0
 78 80  1  0  0  0
 78 81  1  0  0  0
 79 82  1  0  0  0
 79 83  2  0  0  0
 80 82  1  0  0  0
 80 84  2  0  0  0
 81150  1  0  0  0
 81151  1  0  0  0
M  ISO  4   1 100  68 101  81 101  85 100
M  END
> <chiral flag>
0

> <version>
0

> <s_m_source_file>
/data/baiqing/PycharmProjects/Reinvent-master-3.2/result/LINK_invent/BTK/process_docking_weight1_custom_product_contain_oxygen_bond_distance_aromatic_linkinvent_7_9_3/rearranged_h_0084.sdf

> <i_m_source_file_index>
32

> <r_mmod_Potential_Energy-OPLS-2005>
129.950714111328

> <r_mmod_Stretch_Energy-OPLS-2005>
97.8379364013672

> <r_mmod_Bend_Energy-OPLS-2005>
186.087646484375

> <r_mmod_Torsional_Energy-OPLS-2005>
201.805221557617

> <r_mmod_Improper_Torsional_Energy-OPLS-2005>
5.59492540359497

> <r_mmod_Van_der_Waal_Energy-OPLS-2005>
143.664276123047

> <r_mmod_Electrostatic_Energy-OPLS-2005>
-346.943267822266

> <r_mmod_Solvation_Energy-OPLS-2005>
-220.598999023438

> <b_mmod_Minimization_Converged-OPLS-2005>
0

> <r_mmod_RMS_Derivative-OPLS-2005>
0.866982936859131

$$$$
32
                    3D
 Structure written by MMmdl.
156165  0  0  1  0            999 V2000
  -30.6205  -14.6602   20.4813 C   0  0  0  0  0  0
  -30.4378  -12.4023   19.4523 C   0  0  0  0  0  0
  -29.5066  -12.5091   18.2236 C   0  0  0  0  0  0
  -28.0311  -12.3422   18.6382 C   0  0  0  0  0  0
  -27.6522  -13.2181   19.8617 C   0  0  2  0  0  0
  -28.6999  -13.0880   20.9914 C   0  0  0  0  0  0
  -25.2561  -13.8171   20.5694 C   0  0  0  0  0  0
  -24.1833  -13.0436   20.9200 C   0  0  0  0  0  0
  -24.6403  -11.6906   20.8751 C   0  0  0  0  0  0
  -23.9073  -10.4289   21.0410 C   0  0  0  0  0  0
  -24.3619   -9.4201   21.9187 C   0  0  0  0  0  0
  -23.6290   -8.2240   22.0758 C   0  0  0  0  0  0
  -22.4274   -8.0281   21.3545 C   0  0  0  0  0  0
  -21.9915   -9.0256   20.4646 C   0  0  0  0  0  0
  -22.7246  -10.2134   20.3056 C   0  0  0  0  0  0
  -21.6854   -6.0736   22.5279 C   0  0  0  0  0  0
  -21.4013   -6.5642   23.8210 C   0  0  0  0  0  0
  -21.3656   -5.6796   24.9174 C   0  0  0  0  0  0
  -21.6045   -4.3058   24.7227 C   0  0  0  0  0  0
  -21.8821   -3.8148   23.4350 C   0  0  0  0  0  0
  -21.9189   -4.6964   22.3404 C   0  0  0  0  0  0
  -22.7851  -13.5225   21.1851 C   0  0  0  0  0  0
  -22.1661   -4.2148   21.0982 F   0  0  0  0  0  0
  -21.5626   -3.4539   25.7738 F   0  0  0  0  0  0
  -30.0124  -13.4316   20.4225 N   0  0  0  0  0  0
  -26.2989  -12.9353   20.3320 N   0  0  0  0  0  0
  -25.9334  -11.6504   20.5765 N   0  0  0  0  0  0
  -22.0498  -12.8210   22.0403 N   0  0  0  0  0  0
  -25.4271  -15.1895   20.4094 N   0  0  0  0  0  0
  -31.7926  -14.8043   20.1226 O   0  0  0  0  0  0
  -21.6638   -6.8881   21.4241 O   0  0  0  0  0  0
  -22.3537  -14.5532   20.6697 O   0  0  0  0  0  0
  -24.6286  -31.8598   23.2033 C   0  0  0  0  0  0
  -25.9129  -32.4776   23.8363 C   0  0  1  0  0  0
  -27.2186  -27.3060   20.1069 C   0  0  0  0  0  0
  -25.5946  -33.8580   24.2283 N   0  0  0  0  0  0
  -23.4219  -30.4863   21.5473 C   0  0  2  0  0  0
  -24.8652  -28.9437   20.1117 C   0  0  0  0  0  0
  -22.7485  -29.4633   22.4939 C   0  0  0  0  0  0
  -18.0291  -28.1390   22.8489 C   0  0  0  0  0  0
  -24.1486  -36.7286   23.2631 C   0  0  0  0  0  0
  -25.9660  -30.7861   21.3766 C   0  0  0  0  0  0
  -26.0385  -29.4141   20.7148 C   0  0  0  0  0  0
  -27.2187  -28.6083   20.7019 C   0  0  0  0  0  0
  -26.0159  -26.8965   19.4813 C   0  0  0  0  0  0
  -24.8566  -27.6899   19.4875 C   0  0  0  0  0  0
  -23.6354  -29.8263   20.1620 C   0  0  0  0  0  0
  -25.4107  -36.3081   24.0331 C   0  0  1  0  0  0
  -20.5890  -28.3697   23.1279 C   0  0  2  0  0  0
  -20.6779  -26.9419   22.5406 C   0  0  0  0  0  0
  -19.5752  -26.6389   21.5210 C   0  0  0  0  0  0
  -18.1932  -26.7933   22.1626 C   0  0  0  0  0  0
  -19.1542  -28.8861   23.2878 C   0  0  0  0  0  0
  -18.9463  -30.1462   23.8893 C   0  0  0  0  0  0
  -17.6463  -30.6591   24.0565 C   0  0  0  0  0  0
  -25.9059  -34.9456   23.5104 C   0  0  0  0  0  0
  -16.5354  -29.9086   23.6334 C   0  0  0  0  0  0
  -16.7278  -28.6505   23.0354 C   0  0  0  0  0  0
  -26.4504  -31.6586   25.0735 C   0  0  0  0  0  0
  -25.3738  -31.3717   26.1461 C   0  0  0  0  0  0
  -27.0343  -30.3009   24.6191 C   0  0  0  0  0  0
  -27.6065  -32.4315   25.7509 C   0  0  0  0  0  0
  -27.5596  -37.1772   24.8444 C   0  0  0  0  0  0
  -21.4198  -29.3051   22.3676 N   0  0  0  0  0  0
  -26.4270  -37.3794   23.9445 N   0  0  0  0  0  0
  -24.6913  -31.0600   22.0992 N   0  0  0  0  0  0
  -23.4199  -28.8167   23.3023 O   0  0  0  0  0  0
  -28.3265  -26.4355   20.1514 O   0  0  0  0  0  0
  -26.5626  -34.8927   22.4669 O   0  0  0  0  0  0
  -23.5445  -32.1405   23.7350 O   0  0  0  0  0  0
  -28.8280  -19.4381   20.6041 C   0  0  0  0  0  0
  -31.1706  -19.2873   20.1714 C   0  0  0  0  0  0
  -28.7831  -18.0140   20.7516 C   0  0  0  0  0  0
  -31.1282  -17.8672   20.3061 C   0  0  0  0  0  0
  -30.0269  -20.1436   20.3076 C   0  0  0  0  0  0
  -29.9271  -17.1782   20.6035 C   0  0  0  0  0  0
  -29.0381  -22.5600   20.1555 C   0  0  0  0  0  0
  -29.2061  -23.9318   20.1489 C   0  0  0  0  0  0
  -31.6191  -23.5873   19.6476 C   0  0  0  0  0  0
  -30.5986  -24.5209   20.2935 C   0  0  0  0  0  0
  -31.4726  -22.0830   19.9371 C   0  0  0  0  0  0
  -28.0588  -24.9840   19.9566 C   0  0  0  0  0  0
  -30.0943  -21.5932   20.1670 N   0  0  0  0  0  0
  -29.8001  -15.7233   20.7759 N   0  0  0  0  0  0
  -32.5320  -24.0265   18.9427 O   0  0  0  0  0  0
  -31.4783  -12.5276   19.1474 H   0  0  0  0  0  0
  -30.3737  -11.4097   19.9001 H   0  0  0  0  0  0
  -29.7722  -11.7563   17.4802 H   0  0  0  0  0  0
  -29.6437  -13.4777   17.7399 H   0  0  0  0  0  0
  -27.8729  -11.2895   18.8751 H   0  0  0  0  0  0
  -27.3740  -12.5653   17.7964 H   0  0  0  0  0  0
  -27.6641  -14.2502   19.5120 H   0  0  0  0  0  0
  -28.7166  -12.0711   21.3859 H   0  0  0  0  0  0
  -28.4468  -13.7304   21.8360 H   0  0  0  0  0  0
  -25.2769   -9.5666   22.4756 H   0  0  0  0  0  0
  -23.9993   -7.4631   22.7481 H   0  0  0  0  0  0
  -21.0848   -8.8775   19.8951 H   0  0  0  0  0  0
  -22.3710  -10.9670   19.6162 H   0  0  0  0  0  0
  -21.2015   -7.6154   23.9710 H   0  0  0  0  0  0
  -21.1476   -6.0532   25.9076 H   0  0  0  0  0  0
  -22.0603   -2.7611   23.2849 H   0  0  0  0  0  0
  -22.4124  -11.9869   22.4778 H   0  0  0  0  0  0
  -21.1113  -13.1223   22.2612 H   0  0  0  0  0  0
  -24.6562  -15.8408   20.5128 H   0  0  0  0  0  0
  -26.2642  -15.6234   20.0434 H   0  0  0  0  0  0
  -26.7200  -32.5437   23.1114 H   0  0  0  0  0  0
  -25.0100  -33.9724   25.0433 H   0  0  0  0  0  0
  -22.7161  -31.3073   21.4078 H   0  0  0  0  0  0
  -23.3789  -35.9570   23.3204 H   0  0  0  0  0  0
  -24.3596  -36.8998   22.2065 H   0  0  0  0  0  0
  -23.7178  -37.6435   23.6710 H   0  0  0  0  0  0
  -26.1016  -31.5505   20.6102 H   0  0  0  0  0  0
  -26.8452  -30.8316   22.0074 H   0  0  0  0  0  0
  -28.1181  -28.9662   21.1831 H   0  0  0  0  0  0
  -25.9262  -25.9438   18.9834 H   0  0  0  0  0  0
  -23.9575  -27.3228   19.0112 H   0  0  0  0  0  0
  -23.7578  -30.6058   19.4090 H   0  0  0  0  0  0
  -22.7534  -29.2596   19.8579 H   0  0  0  0  0  0
  -25.1272  -36.1919   25.0819 H   0  0  0  0  0  0
  -20.9983  -28.3274   24.1398 H   0  0  0  0  0  0
  -20.5689  -26.2303   23.3605 H   0  0  0  0  0  0
  -21.6647  -26.7451   22.1199 H   0  0  0  0  0  0
  -19.6912  -25.6301   21.1237 H   0  0  0  0  0  0
  -19.6685  -27.3197   20.6737 H   0  0  0  0  0  0
  -17.4203  -26.6688   21.4028 H   0  0  0  0  0  0
  -18.0327  -26.0073   22.9021 H   0  0  0  0  0  0
  -19.7937  -30.7279   24.2257 H   0  0  0  0  0  0
  -17.5018  -31.6269   24.5172 H   0  0  0  0  0  0
  -15.5353  -30.2987   23.7658 H   0  0  0  0  0  0
  -15.8682  -28.0820   22.7069 H   0  0  0  0  0  0
  -24.5907  -30.7076   25.7786 H   0  0  0  0  0  0
  -24.8936  -32.2878   26.4912 H   0  0  0  0  0  0
  -25.8064  -30.8877   27.0224 H   0  0  0  0  0  0
  -26.2912  -29.6763   24.1220 H   0  0  0  0  0  0
  -27.4043  -29.7266   25.4692 H   0  0  0  0  0  0
  -27.8784  -30.4293   23.9411 H   0  0  0  0  0  0
  -27.2690  -33.3631   26.2066 H   0  0  0  0  0  0
  -28.3893  -32.6846   25.0346 H   0  0  0  0  0  0
  -28.0715  -31.8449   26.5442 H   0  0  0  0  0  0
  -28.2517  -38.0170   24.7656 H   0  0  0  0  0  0
  -28.1195  -36.2714   24.6060 H   0  0  0  0  0  0
  -27.2345  -37.1164   25.8845 H   0  0  0  0  0  0
  -20.9372  -29.8773   21.6888 H   0  0  0  0  0  0
  -26.0144  -38.2842   24.1551 H   0  0  0  0  0  0
  -27.9078  -19.9873   20.7354 H   0  0  0  0  0  0
  -32.1474  -19.6883   19.9538 H   0  0  0  0  0  0
  -27.8294  -17.5623   20.9848 H   0  0  0  0  0  0
  -32.0505  -17.3188   20.1821 H   0  0  0  0  0  0
  -28.0518  -22.1309   20.0351 H   0  0  0  0  0  0
  -30.8342  -24.6725   21.3463 H   0  0  0  0  0  0
  -30.6481  -25.4884   19.7949 H   0  0  0  0  0  0
  -32.0978  -21.8444   20.7979 H   0  0  0  0  0  0
  -31.8941  -21.5747   19.0698 H   0  0  0  0  0  0
  -27.2238  -24.6758   20.5885 H   0  0  0  0  0  0
  -27.7450  -24.8428   18.9219 H   0  0  0  0  0  0
  -28.8806  -15.4197   21.0558 H   0  0  0  0  0  0
  1 25  1  0  0  0
  1 30  2  0  0  0
  1 84  1  0  0  0
  2  3  1  0  0  0
  2 25  1  0  0  0
  2 86  1  0  0  0
  2 87  1  0  0  0
  3  4  1  0  0  0
  3 88  1  0  0  0
  3 89  1  0  0  0
  4  5  1  0  0  0
  4 90  1  0  0  0
  4 91  1  0  0  0
  5  6  1  0  0  0
  5 26  1  0  0  0
  5 92  1  0  0  0
  6 25  1  0  0  0
  6 93  1  0  0  0
  6 94  1  0  0  0
  7  8  2  0  0  0
  7 26  1  0  0  0
  7 29  1  0  0  0
  8  9  1  0  0  0
  8 22  1  0  0  0
  9 10  1  0  0  0
  9 27  2  0  0  0
 10 11  2  0  0  0
 10 15  1  0  0  0
 11 12  1  0  0  0
 11 95  1  0  0  0
 12 13  2  0  0  0
 12 96  1  0  0  0
 13 14  1  0  0  0
 13 31  1  0  0  0
 14 15  2  0  0  0
 14 97  1  0  0  0
 15 98  1  0  0  0
 16 17  2  0  0  0
 16 21  1  0  0  0
 16 31  1  0  0  0
 17 18  1  0  0  0
 17 99  1  0  0  0
 18 19  2  0  0  0
 18100  1  0  0  0
 19 20  1  0  0  0
 19 24  1  0  0  0
 20 21  2  0  0  0
 20101  1  0  0  0
 21 23  1  0  0  0
 22 28  1  0  0  0
 22 32  2  0  0  0
 26 27  1  0  0  0
 28102  1  0  0  0
 28103  1  0  0  0
 29104  1  0  0  0
 29105  1  0  0  0
 33 34  1  0  0  0
 33 66  1  0  0  0
 33 70  2  0  0  0
 34 36  1  0  0  0
 34 59  1  0  0  0
 34106  1  0  0  0
 35 44  2  0  0  0
 35 45  1  0  0  0
 35 68  1  0  0  0
 36 56  1  0  0  0
 36107  1  0  0  0
 37 39  1  0  0  0
 37 47  1  0  0  0
 37 66  1  0  0  0
 37108  1  0  0  0
 38 43  2  0  0  0
 38 46  1  0  0  0
 38 47  1  0  0  0
 39 64  1  0  0  0
 39 67  2  0  0  0
 40 52  1  0  0  0
 40 53  2  0  0  0
 40 58  1  0  0  0
 41109  1  0  0  0
 41110  1  0  0  0
 41111  1  0  0  0
 41 48  1  0  0  0
 42 43  1  0  0  0
 42 66  1  0  0  0
 42112  1  0  0  0
 42113  1  0  0  0
 43 44  1  0  0  0
 44114  1  0  0  0
 45 46  2  0  0  0
 45115  1  0  0  0
 46116  1  0  0  0
 47117  1  0  0  0
 47118  1  0  0  0
 48 56  1  0  0  0
 48 65  1  0  0  0
 48119  1  0  0  0
 49 50  1  0  0  0
 49 53  1  0  0  0
 49 64  1  0  0  0
 49120  1  0  0  0
 50 51  1  0  0  0
 50121  1  0  0  0
 50122  1  0  0  0
 51 52  1  0  0  0
 51123  1  0  0  0
 51124  1  0  0  0
 52125  1  0  0  0
 52126  1  0  0  0
 53 54  1  0  0  0
 54 55  2  0  0  0
 54127  1  0  0  0
 55 57  1  0  0  0
 55128  1  0  0  0
 56 69  2  0  0  0
 57 58  2  0  0  0
 57129  1  0  0  0
 58130  1  0  0  0
 59 60  1  0  0  0
 59 61  1  0  0  0
 59 62  1  0  0  0
 60131  1  0  0  0
 60132  1  0  0  0
 60133  1  0  0  0
 61134  1  0  0  0
 61135  1  0  0  0
 61136  1  0  0  0
 62137  1  0  0  0
 62138  1  0  0  0
 62139  1  0  0  0
 63 65  1  0  0  0
 63140  1  0  0  0
 63141  1  0  0  0
 63142  1  0  0  0
 64143  1  0  0  0
 65144  1  0  0  0
 68 82  1  0  0  0
 71 73  2  0  0  0
 71 75  1  0  0  0
 71145  1  0  0  0
 72 74  1  0  0  0
 72 75  2  0  0  0
 72146  1  0  0  0
 73 76  1  0  0  0
 73147  1  0  0  0
 74 76  2  0  0  0
 74148  1  0  0  0
 75 83  1  0  0  0
 76 84  1  0  0  0
 77 78  2  0  0  0
 77 83  1  0  0  0
 77149  1  0  0  0
 78 80  1  0  0  0
 78 82  1  0  0  0
 79 80  1  0  0  0
 79 81  1  0  0  0
 79 85  2  0  0  0
 80150  1  0  0  0
 80151  1  0  0  0
 81 83  1  0  0  0
 81152  1  0  0  0
 81153  1  0  0  0
 82154  1  0  0  0
 82155  1  0  0  0
 84156  1  0  0  0
M  ISO  4   1 100  68 101  82 101  84 100
M  END
> <chiral flag>
0

> <version>
0

> <s_m_source_file>
/data/baiqing/PycharmProjects/Reinvent-master-3.2/result/LINK_invent/BTK/process_docking_weight1_custom_product_contain_oxygen_bond_distance_aromatic_linkinvent_7_9_3/rearranged_h_0084.sdf

> <i_m_source_file_index>
33

> <r_mmod_Potential_Energy-OPLS-2005>
79.8608322143555

> <r_mmod_Stretch_Energy-OPLS-2005>
90.6005477905273

> <r_mmod_Bend_Energy-OPLS-2005>
140.877563476562

> <r_mmod_Torsional_Energy-OPLS-2005>
213.160186767578

> <r_mmod_Improper_Torsional_Energy-OPLS-2005>
4.70626258850098

> <r_mmod_Van_der_Waal_Energy-OPLS-2005>
170.611297607422

> <r_mmod_Electrostatic_Energy-OPLS-2005>
-370.020751953125

> <r_mmod_Solvation_Energy-OPLS-2005>
-225.685928344727

> <b_mmod_Minimization_Converged-OPLS-2005>
0

> <r_mmod_RMS_Derivative-OPLS-2005>
0.829567909240723

$$$$
33
                    3D
 Structure written by MMmdl.
153162  0  0  1  0            999 V2000
  -30.6190  -14.6620   20.4990 C   0  0  0  0  0  0
  -30.4469  -12.4109   19.4469 C   0  0  0  0  0  0
  -29.5096  -12.5140   18.2222 C   0  0  0  0  0  0
  -28.0333  -12.3508   18.6357 C   0  0  0  0  0  0
  -27.6559  -13.2189   19.8655 C   0  0  2  0  0  0
  -28.7050  -13.0754   20.9922 C   0  0  0  0  0  0
  -25.2565  -13.8168   20.5690 C   0  0  0  0  0  0
  -24.1827  -13.0431   20.9161 C   0  0  0  0  0  0
  -24.6398  -11.6905   20.8729 C   0  0  0  0  0  0
  -23.9065  -10.4292   21.0395 C   0  0  0  0  0  0
  -24.3616   -9.4205   21.9176 C   0  0  0  0  0  0
  -23.6293   -8.2239   22.0746 C   0  0  0  0  0  0
  -22.4275   -8.0278   21.3542 C   0  0  0  0  0  0
  -21.9897   -9.0258   20.4656 C   0  0  0  0  0  0
  -22.7226  -10.2141   20.3059 C   0  0  0  0  0  0
  -21.6849   -6.0728   22.5277 C   0  0  0  0  0  0
  -21.4009   -6.5636   23.8207 C   0  0  0  0  0  0
  -21.3662   -5.6789   24.9174 C   0  0  0  0  0  0
  -21.6044   -4.3052   24.7227 C   0  0  0  0  0  0
  -21.8826   -3.8139   23.4346 C   0  0  0  0  0  0
  -21.9195   -4.6954   22.3401 C   0  0  0  0  0  0
  -22.7852  -13.5235   21.1835 C   0  0  0  0  0  0
  -22.1667   -4.2144   21.0978 F   0  0  0  0  0  0
  -21.5631   -3.4533   25.7731 F   0  0  0  0  0  0
  -30.0178  -13.4293   20.4269 N   0  0  0  0  0  0
  -26.3011  -12.9359   20.3344 N   0  0  0  0  0  0
  -25.9334  -11.6511   20.5760 N   0  0  0  0  0  0
  -22.0490  -12.8253   22.0411 N   0  0  0  0  0  0
  -25.4257  -15.1889   20.4165 N   0  0  0  0  0  0
  -31.7806  -14.8277   20.1170 O   0  0  0  0  0  0
  -21.6639   -6.8876   21.4242 O   0  0  0  0  0  0
  -22.3532  -14.5538   20.6677 O   0  0  0  0  0  0
  -24.6286  -31.8599   23.2050 C   0  0  0  0  0  0
  -25.9128  -32.4776   23.8378 C   0  0  1  0  0  0
  -27.2111  -27.2971   20.1022 C   0  0  0  0  0  0
  -25.5928  -33.8581   24.2276 N   0  0  0  0  0  0
  -23.4225  -30.4885   21.5487 C   0  0  2  0  0  0
  -24.8660  -28.9524   20.1062 C   0  0  0  0  0  0
  -22.7487  -29.4627   22.4918 C   0  0  0  0  0  0
  -18.0292  -28.1384   22.8487 C   0  0  0  0  0  0
  -24.1496  -36.7303   23.2644 C   0  0  0  0  0  0
  -25.9713  -30.7786   21.3880 C   0  0  0  0  0  0
  -26.0397  -29.4104   20.7182 C   0  0  0  0  0  0
  -27.2149  -28.5947   20.7104 C   0  0  0  0  0  0
  -26.0108  -26.9144   19.4524 C   0  0  0  0  0  0
  -24.8547  -27.7090   19.4658 C   0  0  0  0  0  0
  -23.6377  -29.8364   20.1606 C   0  0  0  0  0  0
  -25.4120  -36.3085   24.0326 C   0  0  1  0  0  0
  -20.5895  -28.3690   23.1277 C   0  0  2  0  0  0
  -20.6762  -26.9401   22.5433 C   0  0  0  0  0  0
  -19.5751  -26.6369   21.5222 C   0  0  0  0  0  0
  -18.1926  -26.7929   22.1618 C   0  0  0  0  0  0
  -19.1546  -28.8851   23.2879 C   0  0  0  0  0  0
  -18.9467  -30.1451   23.8893 C   0  0  0  0  0  0
  -17.6466  -30.6587   24.0556 C   0  0  0  0  0  0
  -25.9061  -34.9452   23.5104 C   0  0  0  0  0  0
  -16.5357  -29.9081   23.6328 C   0  0  0  0  0  0
  -16.7279  -28.6500   23.0348 C   0  0  0  0  0  0
  -26.4483  -31.6606   25.0772 C   0  0  0  0  0  0
  -25.3702  -31.3823   26.1506 C   0  0  0  0  0  0
  -27.0285  -30.2982   24.6314 C   0  0  0  0  0  0
  -27.6070  -32.4337   25.7497 C   0  0  0  0  0  0
  -27.5592  -37.1801   24.8457 C   0  0  0  0  0  0
  -21.4199  -29.3035   22.3656 N   0  0  0  0  0  0
  -26.4301  -37.3775   23.9403 N   0  0  0  0  0  0
  -24.6929  -31.0595   22.1019 N   0  0  0  0  0  0
  -23.4208  -28.8155   23.2988 O   0  0  0  0  0  0
  -28.2961  -26.3932   20.1673 O   0  0  0  0  0  0
  -26.5633  -34.8917   22.4672 O   0  0  0  0  0  0
  -23.5439  -32.1413   23.7350 O   0  0  0  0  0  0
  -30.9247  -19.3579   20.2000 C   0  0  0  0  0  0
  -30.9863  -17.9296   20.2876 C   0  0  0  0  0  0
  -30.2997  -23.7888   20.6056 C   0  0  0  0  0  0
  -28.6549  -19.3316   20.9735 C   0  0  0  0  0  0
  -28.6157  -22.4100   20.1653 C   0  0  0  0  0  0
  -28.9302  -23.7705   20.2152 C   0  0  0  0  0  0
  -29.7633  -20.1098   20.5494 C   0  0  0  0  0  0
  -29.8733  -17.1626   20.7265 C   0  0  0  0  0  0
  -28.7113  -17.9087   21.0612 C   0  0  0  0  0  0
  -30.7301  -22.4934   20.7661 C   0  0  0  0  0  0
  -27.9778  -24.9674   19.8690 C   0  0  0  0  0  0
  -29.7097  -21.5817   20.4935 N   0  0  0  0  0  0
  -29.8024  -15.7021   20.8602 N   0  0  0  0  0  0
  -31.9654  -22.0742   21.1506 O   0  0  0  0  0  0
  -27.6137  -17.2334   21.4790 F   0  0  0  0  0  0
  -31.4834  -12.5540   19.1335 H   0  0  0  0  0  0
  -30.4025  -11.4139   19.8880 H   0  0  0  0  0  0
  -29.7753  -11.7603   17.4798 H   0  0  0  0  0  0
  -29.6464  -13.4822   17.7366 H   0  0  0  0  0  0
  -27.8686  -11.2974   18.8631 H   0  0  0  0  0  0
  -27.3792  -12.5848   17.7954 H   0  0  0  0  0  0
  -27.6712  -14.2543   19.5251 H   0  0  0  0  0  0
  -28.7240  -12.0529   21.3716 H   0  0  0  0  0  0
  -28.4484  -13.7038   21.8459 H   0  0  0  0  0  0
  -25.2765   -9.5684   22.4742 H   0  0  0  0  0  0
  -24.0012   -7.4625   22.7456 H   0  0  0  0  0  0
  -21.0814   -8.8786   19.8974 H   0  0  0  0  0  0
  -22.3675  -10.9683   19.6174 H   0  0  0  0  0  0
  -21.1998   -7.6142   23.9712 H   0  0  0  0  0  0
  -21.1479   -6.0514   25.9078 H   0  0  0  0  0  0
  -22.0602   -2.7602   23.2839 H   0  0  0  0  0  0
  -22.4090  -11.9934   22.4844 H   0  0  0  0  0  0
  -21.1122  -13.1325   22.2630 H   0  0  0  0  0  0
  -24.6665  -15.8434   20.5691 H   0  0  0  0  0  0
  -26.3028  -15.6500   20.2081 H   0  0  0  0  0  0
  -26.7200  -32.5419   23.1126 H   0  0  0  0  0  0
  -25.0023  -33.9723   25.0383 H   0  0  0  0  0  0
  -22.7175  -31.3112   21.4118 H   0  0  0  0  0  0
  -23.3720  -35.9685   23.3388 H   0  0  0  0  0  0
  -24.3573  -36.8828   22.2044 H   0  0  0  0  0  0
  -23.7309  -37.6559   23.6602 H   0  0  0  0  0  0
  -26.1259  -31.5503   20.6326 H   0  0  0  0  0  0
  -26.8424  -30.8073   22.0316 H   0  0  0  0  0  0
  -28.1100  -28.9385   21.2095 H   0  0  0  0  0  0
  -25.9135  -25.9758   18.9295 H   0  0  0  0  0  0
  -23.9581  -27.3539   18.9764 H   0  0  0  0  0  0
  -23.7616  -30.6208   19.4130 H   0  0  0  0  0  0
  -22.7548  -29.2739   19.8517 H   0  0  0  0  0  0
  -25.1306  -36.1945   25.0820 H   0  0  0  0  0  0
  -20.9998  -28.3277   24.1397 H   0  0  0  0  0  0
  -20.5627  -26.2313   23.3652 H   0  0  0  0  0  0
  -21.6641  -26.7400   22.1258 H   0  0  0  0  0  0
  -19.6905  -25.6273   21.1269 H   0  0  0  0  0  0
  -19.6696  -27.3170   20.6746 H   0  0  0  0  0  0
  -17.4206  -26.6697   21.4004 H   0  0  0  0  0  0
  -18.0299  -26.0072   22.9015 H   0  0  0  0  0  0
  -19.7942  -30.7263   24.2266 H   0  0  0  0  0  0
  -17.5023  -31.6271   24.5156 H   0  0  0  0  0  0
  -15.5353  -30.2974   23.7661 H   0  0  0  0  0  0
  -15.8686  -28.0820   22.7049 H   0  0  0  0  0  0
  -24.5864  -30.7164   25.7878 H   0  0  0  0  0  0
  -24.8903  -32.3019   26.4867 H   0  0  0  0  0  0
  -25.8009  -30.9066   27.0326 H   0  0  0  0  0  0
  -26.2865  -29.6758   24.1295 H   0  0  0  0  0  0
  -27.3837  -29.7241   25.4885 H   0  0  0  0  0  0
  -27.8822  -30.4181   23.9640 H   0  0  0  0  0  0
  -27.2694  -33.3610   26.2136 H   0  0  0  0  0  0
  -28.3817  -32.6948   25.0275 H   0  0  0  0  0  0
  -28.0820  -31.8441   26.5347 H   0  0  0  0  0  0
  -28.2653  -38.0056   24.7452 H   0  0  0  0  0  0
  -28.1039  -36.2590   24.6323 H   0  0  0  0  0  0
  -27.2327  -37.1518   25.8868 H   0  0  0  0  0  0
  -20.9369  -29.8771   21.6884 H   0  0  0  0  0  0
  -26.0190  -38.2863   24.1367 H   0  0  0  0  0  0
  -31.8010  -19.8853   19.8549 H   0  0  0  0  0  0
  -31.9059  -17.4350   20.0110 H   0  0  0  0  0  0
  -30.9035  -24.6747   20.7496 H   0  0  0  0  0  0
  -27.7377  -19.8271   21.2531 H   0  0  0  0  0  0
  -27.6762  -21.9424   19.9012 H   0  0  0  0  0  0
  -27.0414  -24.7067   20.3648 H   0  0  0  0  0  0
  -27.8017  -24.8897   18.7948 H   0  0  0  0  0  0
  -28.8974  -15.3886   21.1783 H   0  0  0  0  0  0
  -32.5136  -22.8469   21.2492 H   0  0  0  0  0  0
  1 25  1  0  0  0
  1 30  2  0  0  0
  1 83  1  0  0  0
  2  3  1  0  0  0
  2 25  1  0  0  0
  2 86  1  0  0  0
  2 87  1  0  0  0
  3  4  1  0  0  0
  3 88  1  0  0  0
  3 89  1  0  0  0
  4  5  1  0  0  0
  4 90  1  0  0  0
  4 91  1  0  0  0
  5  6  1  0  0  0
  5 26  1  0  0  0
  5 92  1  0  0  0
  6 25  1  0  0  0
  6 93  1  0  0  0
  6 94  1  0  0  0
  7  8  2  0  0  0
  7 26  1  0  0  0
  7 29  1  0  0  0
  8  9  1  0  0  0
  8 22  1  0  0  0
  9 10  1  0  0  0
  9 27  2  0  0  0
 10 11  2  0  0  0
 10 15  1  0  0  0
 11 12  1  0  0  0
 11 95  1  0  0  0
 12 13  2  0  0  0
 12 96  1  0  0  0
 13 14  1  0  0  0
 13 31  1  0  0  0
 14 15  2  0  0  0
 14 97  1  0  0  0
 15 98  1  0  0  0
 16 17  2  0  0  0
 16 21  1  0  0  0
 16 31  1  0  0  0
 17 18  1  0  0  0
 17 99  1  0  0  0
 18 19  2  0  0  0
 18100  1  0  0  0
 19 20  1  0  0  0
 19 24  1  0  0  0
 20 21  2  0  0  0
 20101  1  0  0  0
 21 23  1  0  0  0
 22 28  1  0  0  0
 22 32  2  0  0  0
 26 27  1  0  0  0
 28102  1  0  0  0
 28103  1  0  0  0
 29104  1  0  0  0
 29105  1  0  0  0
 33 34  1  0  0  0
 33 66  1  0  0  0
 33 70  2  0  0  0
 34 36  1  0  0  0
 34 59  1  0  0  0
 34106  1  0  0  0
 35 44  2  0  0  0
 35 45  1  0  0  0
 35 68  1  0  0  0
 36 56  1  0  0  0
 36107  1  0  0  0
 37 39  1  0  0  0
 37 47  1  0  0  0
 37 66  1  0  0  0
 37108  1  0  0  0
 38 43  2  0  0  0
 38 46  1  0  0  0
 38 47  1  0  0  0
 39 64  1  0  0  0
 39 67  2  0  0  0
 40 52  1  0  0  0
 40 53  2  0  0  0
 40 58  1  0  0  0
 41109  1  0  0  0
 41110  1  0  0  0
 41111  1  0  0  0
 41 48  1  0  0  0
 42 43  1  0  0  0
 42 66  1  0  0  0
 42112  1  0  0  0
 42113  1  0  0  0
 43 44  1  0  0  0
 44114  1  0  0  0
 45 46  2  0  0  0
 45115  1  0  0  0
 46116  1  0  0  0
 47117  1  0  0  0
 47118  1  0  0  0
 48 56  1  0  0  0
 48 65  1  0  0  0
 48119  1  0  0  0
 49 50  1  0  0  0
 49 53  1  0  0  0
 49 64  1  0  0  0
 49120  1  0  0  0
 50 51  1  0  0  0
 50121  1  0  0  0
 50122  1  0  0  0
 51 52  1  0  0  0
 51123  1  0  0  0
 51124  1  0  0  0
 52125  1  0  0  0
 52126  1  0  0  0
 53 54  1  0  0  0
 54 55  2  0  0  0
 54127  1  0  0  0
 55 57  1  0  0  0
 55128  1  0  0  0
 56 69  2  0  0  0
 57 58  2  0  0  0
 57129  1  0  0  0
 58130  1  0  0  0
 59 60  1  0  0  0
 59 61  1  0  0  0
 59 62  1  0  0  0
 60131  1  0  0  0
 60132  1  0  0  0
 60133  1  0  0  0
 61134  1  0  0  0
 61135  1  0  0  0
 61136  1  0  0  0
 62137  1  0  0  0
 62138  1  0  0  0
 62139  1  0  0  0
 63 65  1  0  0  0
 63140  1  0  0  0
 63141  1  0  0  0
 63142  1  0  0  0
 64143  1  0  0  0
 65144  1  0  0  0
 68 81  1  0  0  0
 71 72  2  0  0  0
 71 77  1  0  0  0
 71145  1  0  0  0
 72 78  1  0  0  0
 72146  1  0  0  0
 73 76  1  0  0  0
 73 80  2  0  0  0
 73147  1  0  0  0
 74 77  2  0  0  0
 74 79  1  0  0  0
 74148  1  0  0  0
 75 76  2  0  0  0
 75 82  1  0  0  0
 75149  1  0  0  0
 76 81  1  0  0  0
 77 82  1  0  0  0
 78 79  2  0  0  0
 78 83  1  0  0  0
 79 85  1  0  0  0
 80 82  1  0  0  0
 80 84  1  0  0  0
 81150  1  0  0  0
 81151  1  0  0  0
 83152  1  0  0  0
 84153  1  0  0  0
M  ISO  4   1 100  68 101  81 101  83 100
M  END
> <chiral flag>
0

> <version>
0

> <s_m_source_file>
/data/baiqing/PycharmProjects/Reinvent-master-3.2/result/LINK_invent/BTK/process_docking_weight1_custom_product_contain_oxygen_bond_distance_aromatic_linkinvent_7_9_3/rearranged_h_0084.sdf

> <i_m_source_file_index>
34

> <r_mmod_Potential_Energy-OPLS-2005>
13.3398418426514

> <r_mmod_Stretch_Energy-OPLS-2005>
83.3894958496094

> <r_mmod_Bend_Energy-OPLS-2005>
147.012298583984

> <r_mmod_Torsional_Energy-OPLS-2005>
218.234161376953

> <r_mmod_Improper_Torsional_Energy-OPLS-2005>
3.86583662033081

> <r_mmod_Van_der_Waal_Energy-OPLS-2005>
147.470352172852

> <r_mmod_Electrostatic_Energy-OPLS-2005>
-433.428344726562

> <r_mmod_Solvation_Energy-OPLS-2005>
-214.20964050293

> <b_mmod_Minimization_Converged-OPLS-2005>
0

> <r_mmod_RMS_Derivative-OPLS-2005>
1.62125205993652

$$$$
34
                    3D
 Structure written by MMmdl.
154163  0  0  1  0            999 V2000
  -30.6537  -14.6426   20.5869 C   0  0  0  0  0  0
  -30.4346  -12.4199   19.4642 C   0  0  0  0  0  0
  -29.5091  -12.5396   18.2314 C   0  0  0  0  0  0
  -28.0325  -12.3592   18.6328 C   0  0  0  0  0  0
  -27.6541  -13.2149   19.8679 C   0  0  2  0  0  0
  -28.6880  -13.0383   20.9974 C   0  0  0  0  0  0
  -25.2562  -13.8164   20.5674 C   0  0  0  0  0  0
  -24.1818  -13.0439   20.9173 C   0  0  0  0  0  0
  -24.6377  -11.6908   20.8717 C   0  0  0  0  0  0
  -23.9044  -10.4298   21.0393 C   0  0  0  0  0  0
  -24.3605   -9.4221   21.9177 C   0  0  0  0  0  0
  -23.6288   -8.2252   22.0752 C   0  0  0  0  0  0
  -22.4277   -8.0286   21.3536 C   0  0  0  0  0  0
  -21.9909   -9.0249   20.4633 C   0  0  0  0  0  0
  -22.7223  -10.2127   20.3039 C   0  0  0  0  0  0
  -21.6845   -6.0735   22.5281 C   0  0  0  0  0  0
  -21.4010   -6.5634   23.8220 C   0  0  0  0  0  0
  -21.3659   -5.6784   24.9180 C   0  0  0  0  0  0
  -21.6050   -4.3051   24.7231 C   0  0  0  0  0  0
  -21.8817   -3.8144   23.4350 C   0  0  0  0  0  0
  -21.9194   -4.6966   22.3402 C   0  0  0  0  0  0
  -22.7845  -13.5229   21.1872 C   0  0  0  0  0  0
  -22.1657   -4.2148   21.0979 F   0  0  0  0  0  0
  -21.5640   -3.4544   25.7747 F   0  0  0  0  0  0
  -30.0112  -13.4240   20.4692 N   0  0  0  0  0  0
  -26.2974  -12.9332   20.3298 N   0  0  0  0  0  0
  -25.9299  -11.6491   20.5719 N   0  0  0  0  0  0
  -22.0499  -12.8191   22.0414 N   0  0  0  0  0  0
  -25.4309  -15.1887   20.4114 N   0  0  0  0  0  0
  -31.7350  -14.8383   20.0192 O   0  0  0  0  0  0
  -21.6636   -6.8880   21.4240 O   0  0  0  0  0  0
  -22.3531  -14.5549   20.6755 O   0  0  0  0  0  0
  -24.6271  -31.8580   23.2021 C   0  0  0  0  0  0
  -25.9117  -32.4767   23.8361 C   0  0  1  0  0  0
  -27.2274  -27.3262   20.1254 C   0  0  0  0  0  0
  -25.5928  -33.8563   24.2276 N   0  0  0  0  0  0
  -23.4204  -30.4819   21.5458 C   0  0  2  0  0  0
  -24.8667  -28.9303   20.1170 C   0  0  0  0  0  0
  -22.7460  -29.4656   22.4970 C   0  0  0  0  0  0
  -18.0283  -28.1395   22.8503 C   0  0  0  0  0  0
  -24.1481  -36.7291   23.2653 C   0  0  0  0  0  0
  -25.9576  -30.7975   21.3620 C   0  0  0  0  0  0
  -26.0359  -29.4201   20.7133 C   0  0  0  0  0  0
  -27.2244  -28.6312   20.7040 C   0  0  0  0  0  0
  -26.0376  -26.8796   19.5131 C   0  0  0  0  0  0
  -24.8672  -27.6637   19.5091 C   0  0  0  0  0  0
  -23.6319  -29.8083   20.1637 C   0  0  0  0  0  0
  -25.4102  -36.3067   24.0325 C   0  0  1  0  0  0
  -20.5887  -28.3709   23.1291 C   0  0  2  0  0  0
  -20.6780  -26.9441   22.5417 C   0  0  0  0  0  0
  -19.5743  -26.6409   21.5231 C   0  0  0  0  0  0
  -18.1917  -26.7944   22.1632 C   0  0  0  0  0  0
  -19.1541  -28.8873   23.2878 C   0  0  0  0  0  0
  -18.9467  -30.1475   23.8887 C   0  0  0  0  0  0
  -17.6466  -30.6600   24.0588 C   0  0  0  0  0  0
  -25.9050  -34.9439   23.5106 C   0  0  0  0  0  0
  -16.5354  -29.9100   23.6354 C   0  0  0  0  0  0
  -16.7274  -28.6521   23.0370 C   0  0  0  0  0  0
  -26.4497  -31.6561   25.0727 C   0  0  0  0  0  0
  -25.3752  -31.3635   26.1459 C   0  0  0  0  0  0
  -27.0361  -30.3014   24.6147 C   0  0  0  0  0  0
  -27.6049  -32.4317   25.7490 C   0  0  0  0  0  0
  -27.5552  -37.1793   24.8469 C   0  0  0  0  0  0
  -21.4187  -29.3056   22.3683 N   0  0  0  0  0  0
  -26.4269  -37.3770   23.9420 N   0  0  0  0  0  0
  -24.6885  -31.0616   22.0960 N   0  0  0  0  0  0
  -23.4176  -28.8218   23.3080 O   0  0  0  0  0  0
  -28.3347  -26.4712   20.1271 O   0  0  0  0  0  0
  -26.5631  -34.8912   22.4680 O   0  0  0  0  0  0
  -23.5440  -32.1380   23.7358 O   0  0  0  0  0  0
  -30.1691  -17.7810   19.7399 C   0  0  0  0  0  0
  -29.4196  -18.2536   21.9517 C   0  0  0  0  0  0
  -29.9803  -19.1628   19.4023 C   0  0  0  0  0  0
  -29.2225  -19.6269   21.6152 C   0  0  0  0  0  0
  -28.9907  -23.5560   18.8673 C   0  0  0  0  0  0
  -28.8648  -22.6187   20.8701 C   0  0  0  0  0  0
  -29.8933  -17.2616   21.0354 C   0  0  0  0  0  0
  -28.6772  -23.8424   20.2259 C   0  0  0  0  0  0
  -29.4882  -20.1457   20.3203 C   0  0  0  0  0  0
  -29.3110  -22.2252   18.7536 C   0  0  0  0  0  0
  -30.0348  -15.7793   21.4954 C   0  0  0  0  0  0
  -28.1656  -25.1912   20.8465 C   0  0  0  0  0  0
  -29.6944  -15.4891   22.6835 N   0  0  0  0  0  0
  -29.2489  -21.5733   19.9923 N   0  0  0  0  0  0
  -29.6301  -21.5703   17.6060 O   0  0  0  0  0  0
  -31.4773  -12.5435   19.1674 H   0  0  0  0  0  0
  -30.3744  -11.4171   19.8898 H   0  0  0  0  0  0
  -29.7861  -11.8014   17.4777 H   0  0  0  0  0  0
  -29.6429  -13.5179   17.7674 H   0  0  0  0  0  0
  -27.8733  -11.3030   18.8526 H   0  0  0  0  0  0
  -27.3795  -12.5955   17.7924 H   0  0  0  0  0  0
  -27.6827  -14.2574   19.5498 H   0  0  0  0  0  0
  -28.7115  -12.0000   21.3322 H   0  0  0  0  0  0
  -28.3705  -13.5976   21.8717 H   0  0  0  0  0  0
  -25.2743   -9.5714   22.4758 H   0  0  0  0  0  0
  -24.0011   -7.4648   22.7474 H   0  0  0  0  0  0
  -21.0853   -8.8757   19.8926 H   0  0  0  0  0  0
  -22.3689  -10.9665   19.6156 H   0  0  0  0  0  0
  -21.1986   -7.6143   23.9721 H   0  0  0  0  0  0
  -21.1484   -6.0514   25.9082 H   0  0  0  0  0  0
  -22.0596   -2.7603   23.2853 H   0  0  0  0  0  0
  -22.4116  -11.9824   22.4743 H   0  0  0  0  0  0
  -21.1105  -13.1171   22.2620 H   0  0  0  0  0  0
  -24.6724  -15.8532   20.5234 H   0  0  0  0  0  0
  -26.2971  -15.6248   20.1192 H   0  0  0  0  0  0
  -26.7193  -32.5432   23.1126 H   0  0  0  0  0  0
  -25.0086  -33.9706   25.0427 H   0  0  0  0  0  0
  -22.7156  -31.3020   21.3977 H   0  0  0  0  0  0
  -23.3745  -35.9617   23.3284 H   0  0  0  0  0  0
  -24.3577  -36.8989   22.2077 H   0  0  0  0  0  0
  -23.7229  -37.6474   23.6718 H   0  0  0  0  0  0
  -26.0692  -31.5535   20.5828 H   0  0  0  0  0  0
  -26.8470  -30.8639   21.9778 H   0  0  0  0  0  0
  -28.1257  -29.0057   21.1685 H   0  0  0  0  0  0
  -26.0096  -25.9032   19.0479 H   0  0  0  0  0  0
  -23.9691  -27.2768   19.0477 H   0  0  0  0  0  0
  -23.7394  -30.5797   19.3997 H   0  0  0  0  0  0
  -22.7519  -29.2303   19.8751 H   0  0  0  0  0  0
  -25.1277  -36.1923   25.0814 H   0  0  0  0  0  0
  -20.9965  -28.3296   24.1419 H   0  0  0  0  0  0
  -20.5734  -26.2317   23.3615 H   0  0  0  0  0  0
  -21.6633  -26.7489   22.1181 H   0  0  0  0  0  0
  -19.6923  -25.6327   21.1239 H   0  0  0  0  0  0
  -19.6680  -27.3233   20.6765 H   0  0  0  0  0  0
  -17.4206  -26.6752   21.4011 H   0  0  0  0  0  0
  -18.0260  -26.0052   22.8979 H   0  0  0  0  0  0
  -19.7940  -30.7308   24.2237 H   0  0  0  0  0  0
  -17.5018  -31.6271   24.5205 H   0  0  0  0  0  0
  -15.5356  -30.3008   23.7681 H   0  0  0  0  0  0
  -15.8666  -28.0851   22.7091 H   0  0  0  0  0  0
  -24.5993  -30.6899   25.7806 H   0  0  0  0  0  0
  -24.8842  -32.2736   26.4884 H   0  0  0  0  0  0
  -25.8106  -30.8848   27.0237 H   0  0  0  0  0  0
  -26.2919  -29.6715   24.1253 H   0  0  0  0  0  0
  -27.4199  -29.7307   25.4615 H   0  0  0  0  0  0
  -27.8704  -30.4354   23.9266 H   0  0  0  0  0  0
  -27.2723  -33.3730   26.1873 H   0  0  0  0  0  0
  -28.3936  -32.6683   25.0340 H   0  0  0  0  0  0
  -28.0586  -31.8541   26.5560 H   0  0  0  0  0  0
  -28.2547  -38.0113   24.7534 H   0  0  0  0  0  0
  -28.1070  -36.2632   24.6263 H   0  0  0  0  0  0
  -27.2257  -37.1430   25.8876 H   0  0  0  0  0  0
  -20.9389  -29.8730   21.6834 H   0  0  0  0  0  0
  -26.0137  -38.2838   24.1442 H   0  0  0  0  0  0
  -30.5349  -17.1125   18.9734 H   0  0  0  0  0  0
  -29.1810  -17.9774   22.9681 H   0  0  0  0  0  0
  -30.2289  -19.4400   18.3912 H   0  0  0  0  0  0
  -28.8487  -20.2814   22.3887 H   0  0  0  0  0  0
  -28.9566  -24.2584   18.0461 H   0  0  0  0  0  0
  -28.7264  -22.4014   21.9194 H   0  0  0  0  0  0
  -28.6760  -25.3098   21.8026 H   0  0  0  0  0  0
  -27.1196  -25.0322   21.1107 H   0  0  0  0  0  0
  -29.3397  -16.2998   23.1724 H   0  0  0  0  0  0
  -29.5408  -22.1868   16.8854 H   0  0  0  0  0  0
  1 25  1  0  0  0
  1 30  2  0  0  0
  1 81  1  0  0  0
  2  3  1  0  0  0
  2 25  1  0  0  0
  2 86  1  0  0  0
  2 87  1  0  0  0
  3  4  1  0  0  0
  3 88  1  0  0  0
  3 89  1  0  0  0
  4  5  1  0  0  0
  4 90  1  0  0  0
  4 91  1  0  0  0
  5  6  1  0  0  0
  5 26  1  0  0  0
  5 92  1  0  0  0
  6 25  1  0  0  0
  6 93  1  0  0  0
  6 94  1  0  0  0
  7  8  2  0  0  0
  7 26  1  0  0  0
  7 29  1  0  0  0
  8  9  1  0  0  0
  8 22  1  0  0  0
  9 10  1  0  0  0
  9 27  2  0  0  0
 10 11  2  0  0  0
 10 15  1  0  0  0
 11 12  1  0  0  0
 11 95  1  0  0  0
 12 13  2  0  0  0
 12 96  1  0  0  0
 13 14  1  0  0  0
 13 31  1  0  0  0
 14 15  2  0  0  0
 14 97  1  0  0  0
 15 98  1  0  0  0
 16 17  2  0  0  0
 16 21  1  0  0  0
 16 31  1  0  0  0
 17 18  1  0  0  0
 17 99  1  0  0  0
 18 19  2  0  0  0
 18100  1  0  0  0
 19 20  1  0  0  0
 19 24  1  0  0  0
 20 21  2  0  0  0
 20101  1  0  0  0
 21 23  1  0  0  0
 22 28  1  0  0  0
 22 32  2  0  0  0
 26 27  1  0  0  0
 28102  1  0  0  0
 28103  1  0  0  0
 29104  1  0  0  0
 29105  1  0  0  0
 33 34  1  0  0  0
 33 66  1  0  0  0
 33 70  2  0  0  0
 34 36  1  0  0  0
 34 59  1  0  0  0
 34106  1  0  0  0
 35 44  2  0  0  0
 35 45  1  0  0  0
 35 68  1  0  0  0
 36 56  1  0  0  0
 36107  1  0  0  0
 37 39  1  0  0  0
 37 47  1  0  0  0
 37 66  1  0  0  0
 37108  1  0  0  0
 38 43  2  0  0  0
 38 46  1  0  0  0
 38 47  1  0  0  0
 39 64  1  0  0  0
 39 67  2  0  0  0
 40 52  1  0  0  0
 40 53  2  0  0  0
 40 58  1  0  0  0
 41109  1  0  0  0
 41110  1  0  0  0
 41111  1  0  0  0
 41 48  1  0  0  0
 42 43  1  0  0  0
 42 66  1  0  0  0
 42112  1  0  0  0
 42113  1  0  0  0
 43 44  1  0  0  0
 44114  1  0  0  0
 45 46  2  0  0  0
 45115  1  0  0  0
 46116  1  0  0  0
 47117  1  0  0  0
 47118  1  0  0  0
 48 56  1  0  0  0
 48 65  1  0  0  0
 48119  1  0  0  0
 49 50  1  0  0  0
 49 53  1  0  0  0
 49 64  1  0  0  0
 49120  1  0  0  0
 50 51  1  0  0  0
 50121  1  0  0  0
 50122  1  0  0  0
 51 52  1  0  0  0
 51123  1  0  0  0
 51124  1  0  0  0
 52125  1  0  0  0
 52126  1  0  0  0
 53 54  1  0  0  0
 54 55  2  0  0  0
 54127  1  0  0  0
 55 57  1  0  0  0
 55128  1  0  0  0
 56 69  2  0  0  0
 57 58  2  0  0  0
 57129  1  0  0  0
 58130  1  0  0  0
 59 60  1  0  0  0
 59 61  1  0  0  0
 59 62  1  0  0  0
 60131  1  0  0  0
 60132  1  0  0  0
 60133  1  0  0  0
 61134  1  0  0  0
 61135  1  0  0  0
 61136  1  0  0  0
 62137  1  0  0  0
 62138  1  0  0  0
 62139  1  0  0  0
 63 65  1  0  0  0
 63140  1  0  0  0
 63141  1  0  0  0
 63142  1  0  0  0
 64143  1  0  0  0
 65144  1  0  0  0
 68 82  1  0  0  0
 71 73  2  0  0  0
 71 77  1  0  0  0
 71145  1  0  0  0
 72 74  1  0  0  0
 72 77  2  0  0  0
 72146  1  0  0  0
 73 79  1  0  0  0
 73147  1  0  0  0
 74 79  2  0  0  0
 74148  1  0  0  0
 75 78  1  0  0  0
 75 80  2  0  0  0
 75149  1  0  0  0
 76 78  2  0  0  0
 76 84  1  0  0  0
 76150  1  0  0  0
 77 81  1  0  0  0
 78 82  1  0  0  0
 79 84  1  0  0  0
 80 84  1  0  0  0
 80 85  1  0  0  0
 81 83  2  0  0  0
 82151  1  0  0  0
 82152  1  0  0  0
 83153  1  0  0  0
 85154  1  0  0  0
M  ISO  4   1 100  68 101  81 100  82 101
M  END
> <chiral flag>
0

> <version>
0

> <s_m_source_file>
/data/baiqing/PycharmProjects/Reinvent-master-3.2/result/LINK_invent/BTK/process_docking_weight1_custom_product_contain_oxygen_bond_distance_aromatic_linkinvent_7_9_3/rearranged_h_0084.sdf

> <i_m_source_file_index>
35

> <r_mmod_Potential_Energy-OPLS-2005>
234.876449584961

> <r_mmod_Stretch_Energy-OPLS-2005>
97.7272720336914

> <r_mmod_Bend_Energy-OPLS-2005>
153.508270263672

> <r_mmod_Torsional_Energy-OPLS-2005>
220.003295898438

> <r_mmod_Improper_Torsional_Energy-OPLS-2005>
2.48031187057495

> <r_mmod_Van_der_Waal_Energy-OPLS-2005>
152.667755126953

> <r_mmod_Electrostatic_Energy-OPLS-2005>
-226.969467163086

> <r_mmod_Solvation_Energy-OPLS-2005>
-210.339706420898

> <b_mmod_Minimization_Converged-OPLS-2005>
0

> <r_mmod_RMS_Derivative-OPLS-2005>
2.40071415901184

$$$$
35
                    3D
 Structure written by MMmdl.
157166  0  0  1  0            999 V2000
  -30.7077  -14.5309   20.5413 C   0  0  0  0  0  0
  -30.4168  -12.3353   19.4414 C   0  0  0  0  0  0
  -29.4956  -12.4988   18.2155 C   0  0  0  0  0  0
  -28.0187  -12.3536   18.6289 C   0  0  0  0  0  0
  -27.6548  -13.2168   19.8670 C   0  0  2  0  0  0
  -28.6988  -13.0562   20.9961 C   0  0  0  0  0  0
  -25.2560  -13.8180   20.5689 C   0  0  0  0  0  0
  -24.1827  -13.0444   20.9194 C   0  0  0  0  0  0
  -24.6394  -11.6915   20.8745 C   0  0  0  0  0  0
  -23.9065  -10.4296   21.0407 C   0  0  0  0  0  0
  -24.3617   -9.4210   21.9183 C   0  0  0  0  0  0
  -23.6293   -8.2244   22.0753 C   0  0  0  0  0  0
  -22.4275   -8.0282   21.3544 C   0  0  0  0  0  0
  -21.9910   -9.0256   20.4647 C   0  0  0  0  0  0
  -22.7237  -10.2136   20.3056 C   0  0  0  0  0  0
  -21.6853   -6.0736   22.5279 C   0  0  0  0  0  0
  -21.4014   -6.5640   23.8212 C   0  0  0  0  0  0
  -21.3659   -5.6792   24.9175 C   0  0  0  0  0  0
  -21.6043   -4.3055   24.7225 C   0  0  0  0  0  0
  -21.8819   -3.8147   23.4346 C   0  0  0  0  0  0
  -21.9193   -4.6964   22.3403 C   0  0  0  0  0  0
  -22.7848  -13.5235   21.1852 C   0  0  0  0  0  0
  -22.1662   -4.2150   21.0980 F   0  0  0  0  0  0
  -21.5629   -3.4539   25.7738 F   0  0  0  0  0  0
  -30.0229  -13.3554   20.4309 N   0  0  0  0  0  0
  -26.2995  -12.9367   20.3345 N   0  0  0  0  0  0
  -25.9324  -11.6519   20.5772 N   0  0  0  0  0  0
  -22.0488  -12.8228   22.0407 N   0  0  0  0  0  0
  -25.4271  -15.1900   20.4085 N   0  0  0  0  0  0
  -31.8517  -14.6453   20.0956 O   0  0  0  0  0  0
  -21.6639   -6.8879   21.4241 O   0  0  0  0  0  0
  -22.3537  -14.5543   20.6700 O   0  0  0  0  0  0
  -24.6189  -31.8655   23.2081 C   0  0  0  0  0  0
  -25.9065  -32.4810   23.8388 C   0  0  1  0  0  0
  -27.2261  -27.3991   20.1036 C   0  0  0  0  0  0
  -25.5907  -33.8609   24.2318 N   0  0  0  0  0  0
  -23.4097  -30.4898   21.5487 C   0  0  2  0  0  0
  -24.8582  -28.9584   20.1071 C   0  0  0  0  0  0
  -22.7440  -29.4645   22.4960 C   0  0  0  0  0  0
  -18.0280  -28.1379   22.8490 C   0  0  0  0  0  0
  -24.1487  -36.7309   23.2638 C   0  0  0  0  0  0
  -25.9435  -30.8212   21.3681 C   0  0  0  0  0  0
  -26.0223  -29.4556   20.7095 C   0  0  0  0  0  0
  -27.2138  -28.6839   20.7046 C   0  0  0  0  0  0
  -26.0492  -26.9355   19.4776 C   0  0  0  0  0  0
  -24.8688  -27.6998   19.4841 C   0  0  0  0  0  0
  -23.6206  -29.8270   20.1617 C   0  0  0  0  0  0
  -25.4109  -36.3105   24.0336 C   0  0  1  0  0  0
  -20.5876  -28.3673   23.1302 C   0  0  2  0  0  0
  -20.6769  -26.9403   22.5415 C   0  0  0  0  0  0
  -19.5747  -26.6385   21.5212 C   0  0  0  0  0  0
  -18.1926  -26.7924   22.1624 C   0  0  0  0  0  0
  -19.1531  -28.8842   23.2894 C   0  0  0  0  0  0
  -18.9457  -30.1447   23.8905 C   0  0  0  0  0  0
  -17.6457  -30.6583   24.0565 C   0  0  0  0  0  0
  -25.9037  -34.9469   23.5125 C   0  0  0  0  0  0
  -16.5348  -29.9084   23.6327 C   0  0  0  0  0  0
  -16.7268  -28.6501   23.0347 C   0  0  0  0  0  0
  -26.4479  -31.6595   25.0727 C   0  0  0  0  0  0
  -25.3737  -31.3711   26.1470 C   0  0  0  0  0  0
  -27.0309  -30.3030   24.6124 C   0  0  0  0  0  0
  -27.6052  -32.4315   25.7489 C   0  0  0  0  0  0
  -27.5580  -37.1811   24.8467 C   0  0  0  0  0  0
  -21.4162  -29.3035   22.3703 N   0  0  0  0  0  0
  -26.4296  -37.3789   23.9406 N   0  0  0  0  0  0
  -24.6756  -31.0730   22.0997 N   0  0  0  0  0  0
  -23.4196  -28.8182   23.3011 O   0  0  0  0  0  0
  -28.3175  -26.5474   20.1656 O   0  0  0  0  0  0
  -26.5600  -34.8924   22.4687 O   0  0  0  0  0  0
  -23.5370  -32.1418   23.7452 O   0  0  0  0  0  0
  -32.2500  -18.6294   21.5102 C   0  0  0  0  0  0
  -31.3158  -19.6807   21.5311 C   0  0  0  0  0  0
  -31.8309  -17.3000   21.3221 C   0  0  0  0  0  0
  -29.5294  -18.0679   21.1296 C   0  0  0  0  0  0
  -29.9419  -19.4253   21.3341 C   0  0  0  0  0  0
  -30.4627  -16.9842   21.1253 C   0  0  0  0  0  0
  -28.6487  -24.1326   20.6109 C   0  0  0  0  0  0
  -28.2173  -22.9542   21.3481 C   0  0  0  0  0  0
  -28.0551  -25.3412   20.8082 C   0  0  0  0  0  0
  -28.9588  -20.5337   21.5258 C   0  0  0  0  0  0
  -29.7712  -23.7635   19.6829 C   0  0  0  0  0  0
  -30.0542  -22.2724   20.0001 C   0  0  0  0  0  0
  -29.0617  -21.8144   21.0104 N   0  0  0  0  0  0
  -30.0122  -15.6115   20.9899 N   0  0  0  0  0  0
  -27.9291  -20.2157   22.3164 N   0  3  0  0  0  0
  -27.2838  -22.8805   22.1568 O   0  0  0  0  0  0
  -31.4625  -12.4184   19.1401 H   0  0  0  0  0  0
  -30.3122  -11.3372   19.8698 H   0  0  0  0  0  0
  -29.7446  -11.7578   17.4547 H   0  0  0  0  0  0
  -29.6574  -13.4756   17.7569 H   0  0  0  0  0  0
  -27.8416  -11.3000   18.8482 H   0  0  0  0  0  0
  -27.3660  -12.6022   17.7912 H   0  0  0  0  0  0
  -27.6814  -14.2556   19.5373 H   0  0  0  0  0  0
  -28.6859  -12.0377   21.3871 H   0  0  0  0  0  0
  -28.4594  -13.7018   21.8423 H   0  0  0  0  0  0
  -25.2762   -9.5686   22.4758 H   0  0  0  0  0  0
  -24.0003   -7.4635   22.7471 H   0  0  0  0  0  0
  -21.0841   -8.8774   19.8953 H   0  0  0  0  0  0
  -22.3695  -10.9675   19.6166 H   0  0  0  0  0  0
  -21.2006   -7.6147   23.9716 H   0  0  0  0  0  0
  -21.1480   -6.0523   25.9077 H   0  0  0  0  0  0
  -22.0598   -2.7610   23.2847 H   0  0  0  0  0  0
  -22.4099  -11.9888   22.4797 H   0  0  0  0  0  0
  -21.1105  -13.1253   22.2607 H   0  0  0  0  0  0
  -24.6558  -15.8415   20.5061 H   0  0  0  0  0  0
  -26.2689  -15.6254   20.0541 H   0  0  0  0  0  0
  -26.7138  -32.5514   23.1151 H   0  0  0  0  0  0
  -25.0061  -33.9766   25.0466 H   0  0  0  0  0  0
  -22.6999  -31.3079   21.4099 H   0  0  0  0  0  0
  -23.3743  -35.9650   23.3318 H   0  0  0  0  0  0
  -24.3580  -36.8906   22.2049 H   0  0  0  0  0  0
  -23.7248  -37.6523   23.6641 H   0  0  0  0  0  0
  -26.0634  -31.5891   20.6025 H   0  0  0  0  0  0
  -26.8281  -30.8710   21.9913 H   0  0  0  0  0  0
  -28.1070  -29.0518   21.1899 H   0  0  0  0  0  0
  -26.0388  -25.9622   19.0074 H   0  0  0  0  0  0
  -23.9757  -27.3120   19.0134 H   0  0  0  0  0  0
  -23.7301  -30.6049   19.4052 H   0  0  0  0  0  0
  -22.7437  -29.2496   19.8632 H   0  0  0  0  0  0
  -25.1286  -36.1971   25.0830 H   0  0  0  0  0  0
  -20.9970  -28.3244   24.1422 H   0  0  0  0  0  0
  -20.5670  -26.2280   23.3606 H   0  0  0  0  0  0
  -21.6640  -26.7440   22.1208 H   0  0  0  0  0  0
  -19.6907  -25.6300   21.1233 H   0  0  0  0  0  0
  -19.6684  -27.3203   20.6748 H   0  0  0  0  0  0
  -17.4195  -26.6672   21.4027 H   0  0  0  0  0  0
  -18.0327  -26.0065   22.9019 H   0  0  0  0  0  0
  -19.7933  -30.7262   24.2277 H   0  0  0  0  0  0
  -17.5012  -31.6263   24.5166 H   0  0  0  0  0  0
  -15.5349  -30.2988   23.7646 H   0  0  0  0  0  0
  -15.8669  -28.0824   22.7055 H   0  0  0  0  0  0
  -24.5910  -30.7058   25.7808 H   0  0  0  0  0  0
  -24.8929  -32.2870   26.4917 H   0  0  0  0  0  0
  -25.8085  -30.8881   27.0230 H   0  0  0  0  0  0
  -26.2862  -29.6795   24.1164 H   0  0  0  0  0  0
  -27.4051  -29.7265   25.4595 H   0  0  0  0  0  0
  -27.8712  -30.4336   23.9301 H   0  0  0  0  0  0
  -27.2670  -33.3605   26.2092 H   0  0  0  0  0  0
  -28.3849  -32.6891   25.0309 H   0  0  0  0  0  0
  -28.0735  -31.8425   26.5384 H   0  0  0  0  0  0
  -28.2612  -38.0095   24.7499 H   0  0  0  0  0  0
  -28.1061  -36.2627   24.6311 H   0  0  0  0  0  0
  -27.2297  -37.1487   25.8870 H   0  0  0  0  0  0
  -20.9324  -29.8764   21.6930 H   0  0  0  0  0  0
  -26.0185  -38.2870   24.1394 H   0  0  0  0  0  0
  -33.2971  -18.8370   21.6807 H   0  0  0  0  0  0
  -31.6697  -20.6738   21.7654 H   0  0  0  0  0  0
  -32.5897  -16.5339   21.3668 H   0  0  0  0  0  0
  -28.4763  -17.8545   21.0075 H   0  0  0  0  0  0
  -27.2536  -25.4464   21.5307 H   0  0  0  0  0  0
  -30.6437  -24.3896   19.8720 H   0  0  0  0  0  0
  -29.4653  -23.9008   18.6454 H   0  0  0  0  0  0
  -31.0731  -22.1824   20.3714 H   0  0  0  0  0  0
  -29.9834  -21.6648   19.0963 H   0  0  0  0  0  0
  -29.0429  -15.4335   21.2019 H   0  0  0  0  0  0
  -27.8914  -19.3178   22.7716 H   0  0  0  0  0  0
  -27.2618  -20.9368   22.5624 H   0  0  0  0  0  0
  1 25  1  0  0  0
  1 30  2  0  0  0
  1 84  1  0  0  0
  2  3  1  0  0  0
  2 25  1  0  0  0
  2 87  1  0  0  0
  2 88  1  0  0  0
  3  4  1  0  0  0
  3 89  1  0  0  0
  3 90  1  0  0  0
  4  5  1  0  0  0
  4 91  1  0  0  0
  4 92  1  0  0  0
  5  6  1  0  0  0
  5 26  1  0  0  0
  5 93  1  0  0  0
  6 25  1  0  0  0
  6 94  1  0  0  0
  6 95  1  0  0  0
  7  8  2  0  0  0
  7 26  1  0  0  0
  7 29  1  0  0  0
  8  9  1  0  0  0
  8 22  1  0  0  0
  9 10  1  0  0  0
  9 27  2  0  0  0
 10 11  2  0  0  0
 10 15  1  0  0  0
 11 12  1  0  0  0
 11 96  1  0  0  0
 12 13  2  0  0  0
 12 97  1  0  0  0
 13 14  1  0  0  0
 13 31  1  0  0  0
 14 15  2  0  0  0
 14 98  1  0  0  0
 15 99  1  0  0  0
 16 17  2  0  0  0
 16 21  1  0  0  0
 16 31  1  0  0  0
 17 18  1  0  0  0
 17100  1  0  0  0
 18 19  2  0  0  0
 18101  1  0  0  0
 19 20  1  0  0  0
 19 24  1  0  0  0
 20 21  2  0  0  0
 20102  1  0  0  0
 21 23  1  0  0  0
 22 28  1  0  0  0
 22 32  2  0  0  0
 26 27  1  0  0  0
 28103  1  0  0  0
 28104  1  0  0  0
 29105  1  0  0  0
 29106  1  0  0  0
 33 34  1  0  0  0
 33 66  1  0  0  0
 33 70  2  0  0  0
 34 36  1  0  0  0
 34 59  1  0  0  0
 34107  1  0  0  0
 35 44  2  0  0  0
 35 45  1  0  0  0
 35 68  1  0  0  0
 36 56  1  0  0  0
 36108  1  0  0  0
 37 39  1  0  0  0
 37 47  1  0  0  0
 37 66  1  0  0  0
 37109  1  0  0  0
 38 43  2  0  0  0
 38 46  1  0  0  0
 38 47  1  0  0  0
 39 64  1  0  0  0
 39 67  2  0  0  0
 40 52  1  0  0  0
 40 53  2  0  0  0
 40 58  1  0  0  0
 41110  1  0  0  0
 41111  1  0  0  0
 41112  1  0  0  0
 41 48  1  0  0  0
 42 43  1  0  0  0
 42 66  1  0  0  0
 42113  1  0  0  0
 42114  1  0  0  0
 43 44  1  0  0  0
 44115  1  0  0  0
 45 46  2  0  0  0
 45116  1  0  0  0
 46117  1  0  0  0
 47118  1  0  0  0
 47119  1  0  0  0
 48 56  1  0  0  0
 48 65  1  0  0  0
 48120  1  0  0  0
 49 50  1  0  0  0
 49 53  1  0  0  0
 49 64  1  0  0  0
 49121  1  0  0  0
 50 51  1  0  0  0
 50122  1  0  0  0
 50123  1  0  0  0
 51 52  1  0  0  0
 51124  1  0  0  0
 51125  1  0  0  0
 52126  1  0  0  0
 52127  1  0  0  0
 53 54  1  0  0  0
 54 55  2  0  0  0
 54128  1  0  0  0
 55 57  1  0  0  0
 55129  1  0  0  0
 56 69  2  0  0  0
 57 58  2  0  0  0
 57130  1  0  0  0
 58131  1  0  0  0
 59 60  1  0  0  0
 59 61  1  0  0  0
 59 62  1  0  0  0
 60132  1  0  0  0
 60133  1  0  0  0
 60134  1  0  0  0
 61135  1  0  0  0
 61136  1  0  0  0
 61137  1  0  0  0
 62138  1  0  0  0
 62139  1  0  0  0
 62140  1  0  0  0
 63 65  1  0  0  0
 63141  1  0  0  0
 63142  1  0  0  0
 63143  1  0  0  0
 64144  1  0  0  0
 65145  1  0  0  0
 68 79  1  0  0  0
 71 72  2  0  0  0
 71 73  1  0  0  0
 71146  1  0  0  0
 72 75  1  0  0  0
 72147  1  0  0  0
 73 76  2  0  0  0
 73148  1  0  0  0
 74 75  2  0  0  0
 74 76  1  0  0  0
 74149  1  0  0  0
 75 80  1  0  0  0
 76 84  1  0  0  0
 77 78  1  0  0  0
 77 79  2  0  0  0
 77 81  1  0  0  0
 78 83  1  0  0  0
 78 86  2  0  0  0
 79150  1  0  0  0
 80 83  1  0  0  0
 80 85  2  0  0  0
 81 82  1  0  0  0
 81151  1  0  0  0
 81152  1  0  0  0
 82 83  1  0  0  0
 82153  1  0  0  0
 82154  1  0  0  0
 84155  1  0  0  0
 85156  1  0  0  0
 85157  1  0  0  0
M  CHG  1  85   1
M  ISO  4   1 100  68 101  79 101  84 100
M  END
> <chiral flag>
0

> <version>
0

> <s_m_source_file>
/data/baiqing/PycharmProjects/Reinvent-master-3.2/result/LINK_invent/BTK/process_docking_weight1_custom_product_contain_oxygen_bond_distance_aromatic_linkinvent_7_9_3/rearranged_h_0084.sdf

> <i_m_source_file_index>
36

> <r_mmod_Potential_Energy-OPLS-2005>
-175.164596557617

> <r_mmod_Stretch_Energy-OPLS-2005>
54.3735313415527

> <r_mmod_Bend_Energy-OPLS-2005>
140.297973632812

> <r_mmod_Torsional_Energy-OPLS-2005>
238.559768676758

> <r_mmod_Improper_Torsional_Energy-OPLS-2005>
5.47022724151611

> <r_mmod_Van_der_Waal_Energy-OPLS-2005>
169.492004394531

> <r_mmod_Electrostatic_Energy-OPLS-2005>
-405.683807373047

> <r_mmod_Solvation_Energy-OPLS-2005>
-403.506256103516

> <b_mmod_Minimization_Converged-OPLS-2005>
0

> <r_mmod_RMS_Derivative-OPLS-2005>
0.147905126214027

$$$$
36
                    3D
 Structure written by MMmdl.
152160  0  0  1  0            999 V2000
  -30.5777  -14.7238   20.4781 C   0  0  0  0  0  0
  -30.4473  -12.4423   19.4619 C   0  0  0  0  0  0
  -29.5143  -12.5146   18.2309 C   0  0  0  0  0  0
  -28.0383  -12.3378   18.6424 C   0  0  0  0  0  0
  -27.6496  -13.2194   19.8583 C   0  0  2  0  0  0
  -28.6954  -13.1034   20.9899 C   0  0  0  0  0  0
  -25.2548  -13.8168   20.5683 C   0  0  0  0  0  0
  -24.1821  -13.0430   20.9192 C   0  0  0  0  0  0
  -24.6396  -11.6903   20.8738 C   0  0  0  0  0  0
  -23.9064  -10.4290   21.0401 C   0  0  0  0  0  0
  -24.3618   -9.4208   21.9180 C   0  0  0  0  0  0
  -23.6293   -8.2245   22.0754 C   0  0  0  0  0  0
  -22.4273   -8.0282   21.3545 C   0  0  0  0  0  0
  -21.9906   -9.0253   20.4646 C   0  0  0  0  0  0
  -22.7236  -10.2132   20.3053 C   0  0  0  0  0  0
  -21.6856   -6.0733   22.5278 C   0  0  0  0  0  0
  -21.4018   -6.5638   23.8211 C   0  0  0  0  0  0
  -21.3666   -5.6792   24.9174 C   0  0  0  0  0  0
  -21.6047   -4.3054   24.7224 C   0  0  0  0  0  0
  -21.8819   -3.8146   23.4345 C   0  0  0  0  0  0
  -21.9194   -4.6962   22.3401 C   0  0  0  0  0  0
  -22.7843  -13.5225   21.1856 C   0  0  0  0  0  0
  -22.1660   -4.2149   21.0977 F   0  0  0  0  0  0
  -21.5630   -3.4537   25.7737 F   0  0  0  0  0  0
  -30.0020  -13.4742   20.4234 N   0  0  0  0  0  0
  -26.2972  -12.9352   20.3293 N   0  0  0  0  0  0
  -25.9326  -11.6507   20.5745 N   0  0  0  0  0  0
  -22.0483  -12.8225   22.0416 N   0  0  0  0  0  0
  -25.4243  -15.1891   20.4102 N   0  0  0  0  0  0
  -31.7481  -14.8943   20.1209 O   0  0  0  0  0  0
  -21.6640   -6.8877   21.4240 O   0  0  0  0  0  0
  -22.3531  -14.5530   20.6702 O   0  0  0  0  0  0
  -24.6307  -31.8555   23.1976 C   0  0  0  0  0  0
  -25.9134  -32.4755   23.8326 C   0  0  1  0  0  0
  -27.2276  -27.2737   20.1265 C   0  0  0  0  0  0
  -25.5931  -33.8557   24.2253 N   0  0  0  0  0  0
  -23.4268  -30.4771   21.5412 C   0  0  2  0  0  0
  -24.8747  -28.9222   20.1120 C   0  0  0  0  0  0
  -22.7497  -29.4602   22.4916 C   0  0  0  0  0  0
  -18.0293  -28.1386   22.8484 C   0  0  0  0  0  0
  -24.1490  -36.7285   23.2640 C   0  0  0  0  0  0
  -25.9712  -30.7729   21.3743 C   0  0  0  0  0  0
  -26.0457  -29.3957   20.7168 C   0  0  0  0  0  0
  -27.2248  -28.5851   20.7088 C   0  0  0  0  0  0
  -26.0302  -26.8600   19.5012 C   0  0  0  0  0  0
  -24.8717  -27.6623   19.4933 C   0  0  0  0  0  0
  -23.6446  -29.8082   20.1583 C   0  0  0  0  0  0
  -25.4116  -36.3069   24.0325 C   0  0  1  0  0  0
  -20.5896  -28.3696   23.1272 C   0  0  2  0  0  0
  -20.6780  -26.9414   22.5409 C   0  0  0  0  0  0
  -19.5756  -26.6382   21.5212 C   0  0  0  0  0  0
  -18.1936  -26.7928   22.1624 C   0  0  0  0  0  0
  -19.1545  -28.8857   23.2876 C   0  0  0  0  0  0
  -18.9466  -30.1459   23.8895 C   0  0  0  0  0  0
  -17.6465  -30.6587   24.0563 C   0  0  0  0  0  0
  -25.9055  -34.9440   23.5091 C   0  0  0  0  0  0
  -16.5357  -29.9084   23.6330 C   0  0  0  0  0  0
  -16.7280  -28.6501   23.0350 C   0  0  0  0  0  0
  -26.4504  -31.6578   25.0713 C   0  0  0  0  0  0
  -25.3727  -31.3727   26.1434 C   0  0  0  0  0  0
  -27.0353  -30.2997   24.6194 C   0  0  0  0  0  0
  -27.6056  -32.4318   25.7491 C   0  0  0  0  0  0
  -27.5579  -37.1798   24.8465 C   0  0  0  0  0  0
  -21.4205  -29.3044   22.3660 N   0  0  0  0  0  0
  -26.4291  -37.3768   23.9408 N   0  0  0  0  0  0
  -24.6953  -31.0527   22.0945 N   0  0  0  0  0  0
  -23.4199  -28.8145   23.3016 O   0  0  0  0  0  0
  -28.3423  -26.4074   20.1735 O   0  0  0  0  0  0
  -26.5631  -34.8916   22.4662 O   0  0  0  0  0  0
  -23.5459  -32.1370   23.7280 O   0  0  0  0  0  0
  -30.1400  -19.6150   21.1899 C   0  0  0  0  0  0
  -28.4967  -19.1661   19.5133 C   0  0  0  0  0  0
  -30.4112  -18.2018   21.2972 C   0  0  0  0  0  0
  -28.7550  -17.7629   19.6280 C   0  0  0  0  0  0
  -29.1526  -20.1514   20.3069 C   0  0  0  0  0  0
  -29.7114  -17.2212   20.5302 C   0  0  0  0  0  0
  -28.6960  -21.6495   20.2697 C   0  0  0  0  0  0
  -29.4312  -23.9940   20.3554 C   0  0  0  0  0  0
  -30.6534  -24.8636   20.5764 C   0  0  0  0  0  0
  -28.1538  -24.9151   20.0897 C   0  0  0  0  0  0
  -29.6456  -22.6877   20.4146 N   0  0  0  0  0  0
  -29.7276  -15.7653   20.7980 N   0  0  0  0  0  0
  -27.5006  -21.8551   20.0566 O   0  0  0  0  0  0
  -31.4846  -12.5886   19.1564 H   0  0  0  0  0  0
  -30.4074  -11.4528   19.9202 H   0  0  0  0  0  0
  -29.7917  -11.7519   17.5022 H   0  0  0  0  0  0
  -29.6422  -13.4759   17.7305 H   0  0  0  0  0  0
  -27.8886  -11.2857   18.8882 H   0  0  0  0  0  0
  -27.3824  -12.5482   17.7968 H   0  0  0  0  0  0
  -27.6563  -14.2489   19.5004 H   0  0  0  0  0  0
  -28.7275  -12.0851   21.3801 H   0  0  0  0  0  0
  -28.4285  -13.7380   21.8363 H   0  0  0  0  0  0
  -25.2761   -9.5686   22.4756 H   0  0  0  0  0  0
  -24.0003   -7.4637   22.7473 H   0  0  0  0  0  0
  -21.0839   -8.8769   19.8950 H   0  0  0  0  0  0
  -22.3690  -10.9671   19.6162 H   0  0  0  0  0  0
  -21.2009   -7.6146   23.9715 H   0  0  0  0  0  0
  -21.1488   -6.0519   25.9077 H   0  0  0  0  0  0
  -22.0593   -2.7608   23.2842 H   0  0  0  0  0  0
  -22.4100  -11.9890   22.4813 H   0  0  0  0  0  0
  -21.1099  -13.1252   22.2614 H   0  0  0  0  0  0
  -24.6538  -15.8395   20.5213 H   0  0  0  0  0  0
  -26.2674  -15.6326   20.0710 H   0  0  0  0  0  0
  -26.7199  -32.5411   23.1069 H   0  0  0  0  0  0
  -25.0070  -33.9692   25.0393 H   0  0  0  0  0  0
  -22.7234  -31.2994   21.3942 H   0  0  0  0  0  0
  -23.3749  -35.9620   23.3301 H   0  0  0  0  0  0
  -24.3579  -36.8911   22.2054 H   0  0  0  0  0  0
  -23.7247  -37.6487   23.6668 H   0  0  0  0  0  0
  -26.1068  -31.5341   20.6049 H   0  0  0  0  0  0
  -26.8495  -30.8230   22.0062 H   0  0  0  0  0  0
  -28.1235  -28.9453   21.1893 H   0  0  0  0  0  0
  -25.9632  -25.8965   19.0195 H   0  0  0  0  0  0
  -23.9744  -27.2936   19.0155 H   0  0  0  0  0  0
  -23.7682  -30.5831   19.4009 H   0  0  0  0  0  0
  -22.7635  -29.2404   19.8543 H   0  0  0  0  0  0
  -25.1300  -36.1913   25.0818 H   0  0  0  0  0  0
  -20.9991  -28.3273   24.1391 H   0  0  0  0  0  0
  -20.5676  -26.2307   23.3614 H   0  0  0  0  0  0
  -21.6649  -26.7437   22.1206 H   0  0  0  0  0  0
  -19.6917  -25.6291   21.1247 H   0  0  0  0  0  0
  -19.6692  -27.3188   20.6738 H   0  0  0  0  0  0
  -17.4206  -26.6675   21.4028 H   0  0  0  0  0  0
  -18.0338  -26.0072   22.9022 H   0  0  0  0  0  0
  -19.7943  -30.7277   24.2262 H   0  0  0  0  0  0
  -17.5019  -31.6267   24.5163 H   0  0  0  0  0  0
  -15.5356  -30.2983   23.7655 H   0  0  0  0  0  0
  -15.8681  -28.0820   22.7064 H   0  0  0  0  0  0
  -24.5898  -30.7084   25.7757 H   0  0  0  0  0  0
  -24.8925  -32.2897   26.4857 H   0  0  0  0  0  0
  -25.8040  -30.8899   27.0212 H   0  0  0  0  0  0
  -26.2935  -29.6738   24.1219 H   0  0  0  0  0  0
  -27.4041  -29.7266   25.4711 H   0  0  0  0  0  0
  -27.8810  -30.4274   23.9432 H   0  0  0  0  0  0
  -27.2663  -33.3617   26.2066 H   0  0  0  0  0  0
  -28.3872  -32.6878   25.0325 H   0  0  0  0  0  0
  -28.0721  -31.8446   26.5411 H   0  0  0  0  0  0
  -28.2595  -38.0097   24.7511 H   0  0  0  0  0  0
  -28.1077  -36.2628   24.6290 H   0  0  0  0  0  0
  -27.2300  -37.1448   25.8869 H   0  0  0  0  0  0
  -20.9386  -29.8764   21.6866 H   0  0  0  0  0  0
  -26.0168  -38.2842   24.1403 H   0  0  0  0  0  0
  -30.6741  -20.2947   21.8398 H   0  0  0  0  0  0
  -27.7250  -19.4828   18.8252 H   0  0  0  0  0  0
  -31.1272  -17.8712   22.0370 H   0  0  0  0  0  0
  -28.1581  -17.0886   19.0298 H   0  0  0  0  0  0
  -30.5064  -25.5065   21.4442 H   0  0  0  0  0  0
  -30.8308  -25.4933   19.7045 H   0  0  0  0  0  0
  -31.5468  -24.2621   20.7477 H   0  0  0  0  0  0
  -27.3777  -24.6236   20.7980 H   0  0  0  0  0  0
  -27.7849  -24.6633   19.0954 H   0  0  0  0  0  0
  -28.8198  -15.4020   21.0440 H   0  0  0  0  0  0
  1 25  1  0  0  0
  1 30  2  0  0  0
  1 82  1  0  0  0
  2  3  1  0  0  0
  2 25  1  0  0  0
  2 84  1  0  0  0
  2 85  1  0  0  0
  3  4  1  0  0  0
  3 86  1  0  0  0
  3 87  1  0  0  0
  4  5  1  0  0  0
  4 88  1  0  0  0
  4 89  1  0  0  0
  5  6  1  0  0  0
  5 26  1  0  0  0
  5 90  1  0  0  0
  6 25  1  0  0  0
  6 91  1  0  0  0
  6 92  1  0  0  0
  7  8  2  0  0  0
  7 26  1  0  0  0
  7 29  1  0  0  0
  8  9  1  0  0  0
  8 22  1  0  0  0
  9 10  1  0  0  0
  9 27  2  0  0  0
 10 11  2  0  0  0
 10 15  1  0  0  0
 11 12  1  0  0  0
 11 93  1  0  0  0
 12 13  2  0  0  0
 12 94  1  0  0  0
 13 14  1  0  0  0
 13 31  1  0  0  0
 14 15  2  0  0  0
 14 95  1  0  0  0
 15 96  1  0  0  0
 16 17  2  0  0  0
 16 21  1  0  0  0
 16 31  1  0  0  0
 17 18  1  0  0  0
 17 97  1  0  0  0
 18 19  2  0  0  0
 18 98  1  0  0  0
 19 20  1  0  0  0
 19 24  1  0  0  0
 20 21  2  0  0  0
 20 99  1  0  0  0
 21 23  1  0  0  0
 22 28  1  0  0  0
 22 32  2  0  0  0
 26 27  1  0  0  0
 28100  1  0  0  0
 28101  1  0  0  0
 29102  1  0  0  0
 29103  1  0  0  0
 33 34  1  0  0  0
 33 66  1  0  0  0
 33 70  2  0  0  0
 34 36  1  0  0  0
 34 59  1  0  0  0
 34104  1  0  0  0
 35 44  2  0  0  0
 35 45  1  0  0  0
 35 68  1  0  0  0
 36 56  1  0  0  0
 36105  1  0  0  0
 37 39  1  0  0  0
 37 47  1  0  0  0
 37 66  1  0  0  0
 37106  1  0  0  0
 38 43  2  0  0  0
 38 46  1  0  0  0
 38 47  1  0  0  0
 39 64  1  0  0  0
 39 67  2  0  0  0
 40 52  1  0  0  0
 40 53  2  0  0  0
 40 58  1  0  0  0
 41107  1  0  0  0
 41108  1  0  0  0
 41109  1  0  0  0
 41 48  1  0  0  0
 42 43  1  0  0  0
 42 66  1  0  0  0
 42110  1  0  0  0
 42111  1  0  0  0
 43 44  1  0  0  0
 44112  1  0  0  0
 45 46  2  0  0  0
 45113  1  0  0  0
 46114  1  0  0  0
 47115  1  0  0  0
 47116  1  0  0  0
 48 56  1  0  0  0
 48 65  1  0  0  0
 48117  1  0  0  0
 49 50  1  0  0  0
 49 53  1  0  0  0
 49 64  1  0  0  0
 49118  1  0  0  0
 50 51  1  0  0  0
 50119  1  0  0  0
 50120  1  0  0  0
 51 52  1  0  0  0
 51121  1  0  0  0
 51122  1  0  0  0
 52123  1  0  0  0
 52124  1  0  0  0
 53 54  1  0  0  0
 54 55  2  0  0  0
 54125  1  0  0  0
 55 57  1  0  0  0
 55126  1  0  0  0
 56 69  2  0  0  0
 57 58  2  0  0  0
 57127  1  0  0  0
 58128  1  0  0  0
 59 60  1  0  0  0
 59 61  1  0  0  0
 59 62  1  0  0  0
 60129  1  0  0  0
 60130  1  0  0  0
 60131  1  0  0  0
 61132  1  0  0  0
 61133  1  0  0  0
 61134  1  0  0  0
 62135  1  0  0  0
 62136  1  0  0  0
 62137  1  0  0  0
 63 65  1  0  0  0
 63138  1  0  0  0
 63139  1  0  0  0
 63140  1  0  0  0
 64141  1  0  0  0
 65142  1  0  0  0
 68 80  1  0  0  0
 71 73  2  0  0  0
 71 75  1  0  0  0
 71143  1  0  0  0
 72 74  1  0  0  0
 72 75  2  0  0  0
 72144  1  0  0  0
 73 76  1  0  0  0
 73145  1  0  0  0
 74 76  2  0  0  0
 74146  1  0  0  0
 75 77  1  0  0  0
 76 82  1  0  0  0
 77 81  1  0  0  0
 77 83  2  0  0  0
 78 79  1  0  0  0
 78 80  1  0  0  0
 78 81  2  0  0  0
 79147  1  0  0  0
 79148  1  0  0  0
 79149  1  0  0  0
 80150  1  0  0  0
 80151  1  0  0  0
 82152  1  0  0  0
M  ISO  4   1 100  68 101  80 101  82 100
M  END
> <chiral flag>
0

> <version>
0

> <s_m_source_file>
/data/baiqing/PycharmProjects/Reinvent-master-3.2/result/LINK_invent/BTK/process_docking_weight1_custom_product_contain_oxygen_bond_distance_aromatic_linkinvent_7_9_3/rearranged_h_0084.sdf

> <i_m_source_file_index>
37

> <r_mmod_Potential_Energy-OPLS-2005>
153.68034362793

> <r_mmod_Stretch_Energy-OPLS-2005>
109.896179199219

> <r_mmod_Bend_Energy-OPLS-2005>
184.168228149414

> <r_mmod_Torsional_Energy-OPLS-2005>
240.144180297852

> <r_mmod_Improper_Torsional_Energy-OPLS-2005>
6.91477203369141

> <r_mmod_Van_der_Waal_Energy-OPLS-2005>
138.784820556641

> <r_mmod_Electrostatic_Energy-OPLS-2005>
-393.297821044922

> <r_mmod_Solvation_Energy-OPLS-2005>
-207.904403686523

> <b_mmod_Minimization_Converged-OPLS-2005>
0

> <r_mmod_RMS_Derivative-OPLS-2005>
0.499069899320602

$$$$
37
                    3D
 Structure written by MMmdl.
156164  0  0  1  0            999 V2000
  -30.6961  -14.5211   20.4885 C   0  0  0  0  0  0
  -30.4154  -12.3165   19.4388 C   0  0  0  0  0  0
  -29.4944  -12.4780   18.2121 C   0  0  0  0  0  0
  -28.0155  -12.3420   18.6262 C   0  0  0  0  0  0
  -27.6510  -13.2130   19.8601 C   0  0  2  0  0  0
  -28.6976  -13.0609   20.9879 C   0  0  0  0  0  0
  -25.2555  -13.8173   20.5694 C   0  0  0  0  0  0
  -24.1818  -13.0437   20.9197 C   0  0  0  0  0  0
  -24.6381  -11.6908   20.8743 C   0  0  0  0  0  0
  -23.9047  -10.4295   21.0400 C   0  0  0  0  0  0
  -24.3598   -9.4213   21.9176 C   0  0  0  0  0  0
  -23.6285   -8.2246   22.0746 C   0  0  0  0  0  0
  -22.4268   -8.0277   21.3539 C   0  0  0  0  0  0
  -21.9898   -9.0250   20.4640 C   0  0  0  0  0  0
  -22.7219  -10.2135   20.3051 C   0  0  0  0  0  0
  -21.6854   -6.0730   22.5280 C   0  0  0  0  0  0
  -21.4017   -6.5633   23.8213 C   0  0  0  0  0  0
  -21.3659   -5.6786   24.9172 C   0  0  0  0  0  0
  -21.6042   -4.3050   24.7224 C   0  0  0  0  0  0
  -21.8819   -3.8143   23.4346 C   0  0  0  0  0  0
  -21.9194   -4.6959   22.3402 C   0  0  0  0  0  0
  -22.7843  -13.5239   21.1853 C   0  0  0  0  0  0
  -22.1665   -4.2145   21.0982 F   0  0  0  0  0  0
  -21.5622   -3.4531   25.7734 F   0  0  0  0  0  0
  -30.0160  -13.3458   20.4099 N   0  0  0  0  0  0
  -26.2975  -12.9347   20.3325 N   0  0  0  0  0  0
  -25.9305  -11.6504   20.5762 N   0  0  0  0  0  0
  -22.0479  -12.8245   22.0415 N   0  0  0  0  0  0
  -25.4266  -15.1889   20.4105 N   0  0  0  0  0  0
  -31.8841  -14.6187   20.1841 O   0  0  0  0  0  0
  -21.6634   -6.8873   21.4242 O   0  0  0  0  0  0
  -22.3533  -14.5541   20.6692 O   0  0  0  0  0  0
  -24.6169  -31.8668   23.2084 C   0  0  0  0  0  0
  -25.9064  -32.4807   23.8376 C   0  0  1  0  0  0
  -27.2302  -27.4101   20.0939 C   0  0  0  0  0  0
  -25.5915  -33.8608   24.2305 N   0  0  0  0  0  0
  -23.4032  -30.4915   21.5511 C   0  0  2  0  0  0
  -24.8457  -28.9522   20.1177 C   0  0  0  0  0  0
  -22.7409  -29.4662   22.4998 C   0  0  0  0  0  0
  -18.0272  -28.1378   22.8484 C   0  0  0  0  0  0
  -24.1494  -36.7313   23.2638 C   0  0  0  0  0  0
  -25.9351  -30.8244   21.3637 C   0  0  0  0  0  0
  -26.0088  -29.4578   20.7096 C   0  0  0  0  0  0
  -27.2014  -28.6956   20.6904 C   0  0  0  0  0  0
  -26.0404  -26.9216   19.5048 C   0  0  0  0  0  0
  -24.8580  -27.6840   19.5138 C   0  0  0  0  0  0
  -23.6111  -29.8245   20.1656 C   0  0  0  0  0  0
  -25.4111  -36.3100   24.0333 C   0  0  1  0  0  0
  -20.5865  -28.3666   23.1326 C   0  0  2  0  0  0
  -20.6777  -26.9410   22.5415 C   0  0  0  0  0  0
  -19.5753  -26.6389   21.5216 C   0  0  0  0  0  0
  -18.1925  -26.7922   22.1622 C   0  0  0  0  0  0
  -19.1524  -28.8839   23.2896 C   0  0  0  0  0  0
  -18.9447  -30.1445   23.8905 C   0  0  0  0  0  0
  -17.6452  -30.6585   24.0569 C   0  0  0  0  0  0
  -25.9041  -34.9469   23.5112 C   0  0  0  0  0  0
  -16.5343  -29.9087   23.6330 C   0  0  0  0  0  0
  -16.7261  -28.6506   23.0341 C   0  0  0  0  0  0
  -26.4483  -31.6590   25.0711 C   0  0  0  0  0  0
  -25.3748  -31.3708   26.1461 C   0  0  0  0  0  0
  -27.0313  -30.3029   24.6097 C   0  0  0  0  0  0
  -27.6051  -32.4318   25.7474 C   0  0  0  0  0  0
  -27.5577  -37.1810   24.8463 C   0  0  0  0  0  0
  -21.4138  -29.3034   22.3731 N   0  0  0  0  0  0
  -26.4291  -37.3788   23.9405 N   0  0  0  0  0  0
  -24.6704  -31.0750   22.0996 N   0  0  0  0  0  0
  -23.4175  -28.8205   23.3049 O   0  0  0  0  0  0
  -28.4189  -26.6962   20.1002 O   0  0  0  0  0  0
  -26.5605  -34.8926   22.4674 O   0  0  0  0  0  0
  -23.5359  -32.1443   23.7462 O   0  0  0  0  0  0
  -28.7222  -18.8021   22.0648 C   0  0  0  0  0  0
  -28.6608  -20.2016   21.8650 C   0  0  0  0  0  0
  -29.6370  -18.5203   19.8391 C   0  0  0  0  0  0
  -29.2082  -17.9364   21.0586 C   0  0  0  0  0  0
  -29.5858  -19.9229   19.6433 C   0  0  0  0  0  0
  -29.0813  -20.7857   20.6461 C   0  0  0  0  0  0
  -29.2453  -16.4144   21.3257 C   0  0  0  0  0  0
  -28.0445  -24.3883   20.9728 C   0  0  0  0  0  0
  -28.4437  -25.2872   19.7747 C   0  0  0  0  0  0
  -27.8521  -22.8697   20.6874 C   0  0  0  0  0  0
  -30.0307  -20.4716   18.4422 N   0  0  0  0  0  0
  -29.9553  -15.6306   20.3115 N   0  0  0  0  0  0
  -29.0719  -22.1579   20.4219 O   0  0  0  0  0  0
  -31.4619  -12.4022   19.1405 H   0  0  0  0  0  0
  -30.3084  -11.3229   19.8769 H   0  0  0  0  0  0
  -29.7400  -11.7302   17.4572 H   0  0  0  0  0  0
  -29.6609  -13.4500   17.7459 H   0  0  0  0  0  0
  -27.8372  -11.2904   18.8533 H   0  0  0  0  0  0
  -27.3639  -12.5838   17.7857 H   0  0  0  0  0  0
  -27.6724  -14.2482   19.5208 H   0  0  0  0  0  0
  -28.6814  -12.0504   21.3975 H   0  0  0  0  0  0
  -28.4770  -13.7301   21.8203 H   0  0  0  0  0  0
  -25.2735   -9.5696   22.4755 H   0  0  0  0  0  0
  -23.9993   -7.4636   22.7462 H   0  0  0  0  0  0
  -21.0828   -8.8762   19.8949 H   0  0  0  0  0  0
  -22.3664  -10.9669   19.6164 H   0  0  0  0  0  0
  -21.2019   -7.6140   23.9720 H   0  0  0  0  0  0
  -21.1477   -6.0511   25.9075 H   0  0  0  0  0  0
  -22.0601   -2.7607   23.2844 H   0  0  0  0  0  0
  -22.4085  -11.9917   22.4827 H   0  0  0  0  0  0
  -21.1090  -13.1273   22.2585 H   0  0  0  0  0  0
  -24.6594  -15.8436   20.5155 H   0  0  0  0  0  0
  -26.2756  -15.6256   20.0741 H   0  0  0  0  0  0
  -26.7128  -32.5501   23.1128 H   0  0  0  0  0  0
  -25.0084  -33.9766   25.0458 H   0  0  0  0  0  0
  -22.6928  -31.3097   21.4130 H   0  0  0  0  0  0
  -23.3746  -35.9659   23.3310 H   0  0  0  0  0  0
  -24.3581  -36.8912   22.2049 H   0  0  0  0  0  0
  -23.7260  -37.6525   23.6648 H   0  0  0  0  0  0
  -26.0523  -31.5896   20.5946 H   0  0  0  0  0  0
  -26.8216  -30.8734   21.9845 H   0  0  0  0  0  0
  -28.1006  -29.0877   21.1440 H   0  0  0  0  0  0
  -25.9906  -25.9552   19.0293 H   0  0  0  0  0  0
  -23.9632  -27.2861   19.0560 H   0  0  0  0  0  0
  -23.7250  -30.6018   19.4092 H   0  0  0  0  0  0
  -22.7319  -29.2515   19.8659 H   0  0  0  0  0  0
  -25.1291  -36.1957   25.0827 H   0  0  0  0  0  0
  -20.9944  -28.3234   24.1454 H   0  0  0  0  0  0
  -20.5696  -26.2288   23.3604 H   0  0  0  0  0  0
  -21.6650  -26.7471   22.1201 H   0  0  0  0  0  0
  -19.6926  -25.6303   21.1237 H   0  0  0  0  0  0
  -19.6686  -27.3208   20.6753 H   0  0  0  0  0  0
  -17.4203  -26.6669   21.4019 H   0  0  0  0  0  0
  -18.0324  -26.0057   22.9015 H   0  0  0  0  0  0
  -19.7925  -30.7256   24.2279 H   0  0  0  0  0  0
  -17.5006  -31.6265   24.5172 H   0  0  0  0  0  0
  -15.5344  -30.2991   23.7648 H   0  0  0  0  0  0
  -15.8656  -28.0834   22.7049 H   0  0  0  0  0  0
  -24.5910  -30.7064   25.7799 H   0  0  0  0  0  0
  -24.8964  -32.2874   26.4928 H   0  0  0  0  0  0
  -25.8107  -30.8861   27.0208 H   0  0  0  0  0  0
  -26.2859  -29.6782   24.1159 H   0  0  0  0  0  0
  -27.4088  -29.7268   25.4556 H   0  0  0  0  0  0
  -27.8697  -30.4339   23.9247 H   0  0  0  0  0  0
  -27.2657  -33.3597   26.2094 H   0  0  0  0  0  0
  -28.3843  -32.6910   25.0290 H   0  0  0  0  0  0
  -28.0749  -31.8422   26.5357 H   0  0  0  0  0  0
  -28.2607  -38.0097   24.7493 H   0  0  0  0  0  0
  -28.1060  -36.2624   24.6308 H   0  0  0  0  0  0
  -27.2292  -37.1482   25.8867 H   0  0  0  0  0  0
  -20.9300  -29.8754   21.6945 H   0  0  0  0  0  0
  -26.0176  -38.2869   24.1393 H   0  0  0  0  0  0
  -28.3971  -18.3917   23.0117 H   0  0  0  0  0  0
  -28.3096  -20.8254   22.6741 H   0  0  0  0  0  0
  -30.0138  -17.8974   19.0412 H   0  0  0  0  0  0
  -28.2162  -16.0587   21.3876 H   0  0  0  0  0  0
  -29.6972  -16.2393   22.3042 H   0  0  0  0  0  0
  -27.1003  -24.7657   21.3659 H   0  0  0  0  0  0
  -28.7665  -24.5168   21.7792 H   0  0  0  0  0  0
  -27.8612  -25.0547   18.8848 H   0  0  0  0  0  0
  -29.4701  -25.0460   19.4966 H   0  0  0  0  0  0
  -27.1814  -22.7329   19.8377 H   0  0  0  0  0  0
  -27.3298  -22.4453   21.5438 H   0  0  0  0  0  0
  -29.7822  -21.4427   18.2771 H   0  0  0  0  0  0
  -29.9773  -19.9014   17.6047 H   0  0  0  0  0  0
  -30.4588  -16.2587   19.7061 H   0  0  0  0  0  0
  1 25  1  0  0  0
  1 30  2  0  0  0
  1 82  1  0  0  0
  2  3  1  0  0  0
  2 25  1  0  0  0
  2 84  1  0  0  0
  2 85  1  0  0  0
  3  4  1  0  0  0
  3 86  1  0  0  0
  3 87  1  0  0  0
  4  5  1  0  0  0
  4 88  1  0  0  0
  4 89  1  0  0  0
  5  6  1  0  0  0
  5 26  1  0  0  0
  5 90  1  0  0  0
  6 25  1  0  0  0
  6 91  1  0  0  0
  6 92  1  0  0  0
  7  8  2  0  0  0
  7 26  1  0  0  0
  7 29  1  0  0  0
  8  9  1  0  0  0
  8 22  1  0  0  0
  9 10  1  0  0  0
  9 27  2  0  0  0
 10 11  2  0  0  0
 10 15  1  0  0  0
 11 12  1  0  0  0
 11 93  1  0  0  0
 12 13  2  0  0  0
 12 94  1  0  0  0
 13 14  1  0  0  0
 13 31  1  0  0  0
 14 15  2  0  0  0
 14 95  1  0  0  0
 15 96  1  0  0  0
 16 17  2  0  0  0
 16 21  1  0  0  0
 16 31  1  0  0  0
 17 18  1  0  0  0
 17 97  1  0  0  0
 18 19  2  0  0  0
 18 98  1  0  0  0
 19 20  1  0  0  0
 19 24  1  0  0  0
 20 21  2  0  0  0
 20 99  1  0  0  0
 21 23  1  0  0  0
 22 28  1  0  0  0
 22 32  2  0  0  0
 26 27  1  0  0  0
 28100  1  0  0  0
 28101  1  0  0  0
 29102  1  0  0  0
 29103  1  0  0  0
 33 34  1  0  0  0
 33 66  1  0  0  0
 33 70  2  0  0  0
 34 36  1  0  0  0
 34 59  1  0  0  0
 34104  1  0  0  0
 35 44  2  0  0  0
 35 45  1  0  0  0
 35 68  1  0  0  0
 36 56  1  0  0  0
 36105  1  0  0  0
 37 39  1  0  0  0
 37 47  1  0  0  0
 37 66  1  0  0  0
 37106  1  0  0  0
 38 43  2  0  0  0
 38 46  1  0  0  0
 38 47  1  0  0  0
 39 64  1  0  0  0
 39 67  2  0  0  0
 40 52  1  0  0  0
 40 53  2  0  0  0
 40 58  1  0  0  0
 41107  1  0  0  0
 41108  1  0  0  0
 41109  1  0  0  0
 41 48  1  0  0  0
 42 43  1  0  0  0
 42 66  1  0  0  0
 42110  1  0  0  0
 42111  1  0  0  0
 43 44  1  0  0  0
 44112  1  0  0  0
 45 46  2  0  0  0
 45113  1  0  0  0
 46114  1  0  0  0
 47115  1  0  0  0
 47116  1  0  0  0
 48 56  1  0  0  0
 48 65  1  0  0  0
 48117  1  0  0  0
 49 50  1  0  0  0
 49 53  1  0  0  0
 49 64  1  0  0  0
 49118  1  0  0  0
 50 51  1  0  0  0
 50119  1  0  0  0
 50120  1  0  0  0
 51 52  1  0  0  0
 51121  1  0  0  0
 51122  1  0  0  0
 52123  1  0  0  0
 52124  1  0  0  0
 53 54  1  0  0  0
 54 55  2  0  0  0
 54125  1  0  0  0
 55 57  1  0  0  0
 55126  1  0  0  0
 56 69  2  0  0  0
 57 58  2  0  0  0
 57127  1  0  0  0
 58128  1  0  0  0
 59 60  1  0  0  0
 59 61  1  0  0  0
 59 62  1  0  0  0
 60129  1  0  0  0
 60130  1  0  0  0
 60131  1  0  0  0
 61132  1  0  0  0
 61133  1  0  0  0
 61134  1  0  0  0
 62135  1  0  0  0
 62136  1  0  0  0
 62137  1  0  0  0
 63 65  1  0  0  0
 63138  1  0  0  0
 63139  1  0  0  0
 63140  1  0  0  0
 64141  1  0  0  0
 65142  1  0  0  0
 68 79  1  0  0  0
 71 72  2  0  0  0
 71 74  1  0  0  0
 71143  1  0  0  0
 72 76  1  0  0  0
 72144  1  0  0  0
 73 74  2  0  0  0
 73 75  1  0  0  0
 73145  1  0  0  0
 74 77  1  0  0  0
 75 76  2  0  0  0
 75 81  1  0  0  0
 76 83  1  0  0  0
 77 82  1  0  0  0
 77146  1  0  0  0
 77147  1  0  0  0
 78 79  1  0  0  0
 78 80  1  0  0  0
 78148  1  0  0  0
 78149  1  0  0  0
 79150  1  0  0  0
 79151  1  0  0  0
 80 83  1  0  0  0
 80152  1  0  0  0
 80153  1  0  0  0
 81154  1  0  0  0
 81155  1  0  0  0
 82156  1  0  0  0
M  ISO  4   1 100  68 101  79 101  82 100
M  END
> <chiral flag>
0

> <version>
0

> <s_m_source_file>
/data/baiqing/PycharmProjects/Reinvent-master-3.2/result/LINK_invent/BTK/process_docking_weight1_custom_product_contain_oxygen_bond_distance_aromatic_linkinvent_7_9_3/rearranged_h_0084.sdf

> <i_m_source_file_index>
38

> <r_mmod_Potential_Energy-OPLS-2005>
-54.022590637207

> <r_mmod_Stretch_Energy-OPLS-2005>
41.0202293395996

> <r_mmod_Bend_Energy-OPLS-2005>
123.373321533203

> <r_mmod_Torsional_Energy-OPLS-2005>
271.457000732422

> <r_mmod_Improper_Torsional_Energy-OPLS-2005>
28.2268466949463

> <r_mmod_Van_der_Waal_Energy-OPLS-2005>
145.651565551758

> <r_mmod_Electrostatic_Energy-OPLS-2005>
-468.705749511719

> <r_mmod_Solvation_Energy-OPLS-2005>
-218.376907348633

> <b_mmod_Minimization_Converged-OPLS-2005>
0

> <r_mmod_RMS_Derivative-OPLS-2005>
1.37477421760559

$$$$
38
                    3D
 Structure written by MMmdl.
150159  0  0  1  0            999 V2000
  -30.5876  -14.8703   20.4084 C   0  0  0  0  0  0
  -30.4291  -12.5301   19.4956 C   0  0  0  0  0  0
  -29.5166  -12.5139   18.2495 C   0  0  0  0  0  0
  -28.0447  -12.3253   18.6613 C   0  0  0  0  0  0
  -27.6320  -13.2475   19.8400 C   0  0  2  0  0  0
  -28.6751  -13.2535   20.9776 C   0  0  0  0  0  0
  -25.2473  -13.8228   20.5725 C   0  0  0  0  0  0
  -24.1790  -13.0445   20.9236 C   0  0  0  0  0  0
  -24.6409  -11.6931   20.8758 C   0  0  0  0  0  0
  -23.9095  -10.4296   21.0413 C   0  0  0  0  0  0
  -24.3643   -9.4205   21.9189 C   0  0  0  0  0  0
  -23.6311   -8.2243   22.0756 C   0  0  0  0  0  0
  -22.4292   -8.0284   21.3548 C   0  0  0  0  0  0
  -21.9935   -9.0263   20.4653 C   0  0  0  0  0  0
  -22.7267  -10.2139   20.3062 C   0  0  0  0  0  0
  -21.6857   -6.0742   22.5283 C   0  0  0  0  0  0
  -21.4016   -6.5645   23.8217 C   0  0  0  0  0  0
  -21.3661   -5.6793   24.9177 C   0  0  0  0  0  0
  -21.6042   -4.3056   24.7226 C   0  0  0  0  0  0
  -21.8818   -3.8152   23.4348 C   0  0  0  0  0  0
  -21.9198   -4.6970   22.3407 C   0  0  0  0  0  0
  -22.7807  -13.5205   21.1891 C   0  0  0  0  0  0
  -22.1661   -4.2155   21.0985 F   0  0  0  0  0  0
  -21.5631   -3.4541   25.7741 F   0  0  0  0  0  0
  -29.9609  -13.6317   20.3808 N   0  0  0  0  0  0
  -26.2901  -12.9462   20.3254 N   0  0  0  0  0  0
  -25.9339  -11.6589   20.5748 N   0  0  0  0  0  0
  -22.0468  -12.8183   22.0446 N   0  0  0  0  0  0
  -25.4122  -15.1962   20.4164 N   0  0  0  0  0  0
  -31.7964  -14.8855   20.1589 O   0  0  0  0  0  0
  -21.6646   -6.8886   21.4246 O   0  0  0  0  0  0
  -22.3484  -14.5505   20.6737 O   0  0  0  0  0  0
  -24.6389  -31.8485   23.1933 C   0  0  0  0  0  0
  -25.9179  -32.4719   23.8310 C   0  0  1  0  0  0
  -27.2145  -27.1834   20.1477 C   0  0  0  0  0  0
  -25.5944  -33.8528   24.2217 N   0  0  0  0  0  0
  -23.4412  -30.4686   21.5379 C   0  0  2  0  0  0
  -24.8915  -28.9046   20.1111 C   0  0  0  0  0  0
  -22.7551  -29.4555   22.4879 C   0  0  0  0  0  0
  -18.0299  -28.1393   22.8478 C   0  0  0  0  0  0
  -24.1490  -36.7270   23.2638 C   0  0  0  0  0  0
  -25.9942  -30.7349   21.3886 C   0  0  0  0  0  0
  -26.0664  -29.3502   20.7315 C   0  0  0  0  0  0
  -27.2324  -28.5027   20.7397 C   0  0  0  0  0  0
  -26.0211  -26.8322   19.4818 C   0  0  0  0  0  0
  -24.8777  -27.6556   19.4732 C   0  0  0  0  0  0
  -23.6677  -29.8034   20.1549 C   0  0  0  0  0  0
  -25.4120  -36.3046   24.0316 C   0  0  1  0  0  0
  -20.5911  -28.3710   23.1250 C   0  0  2  0  0  0
  -20.6783  -26.9416   22.5412 C   0  0  0  0  0  0
  -19.5759  -26.6373   21.5221 C   0  0  0  0  0  0
  -18.1939  -26.7929   22.1631 C   0  0  0  0  0  0
  -19.1555  -28.8872   23.2854 C   0  0  0  0  0  0
  -18.9474  -30.1471   23.8876 C   0  0  0  0  0  0
  -17.6469  -30.6590   24.0561 C   0  0  0  0  0  0
  -25.9068  -34.9421   23.5073 C   0  0  0  0  0  0
  -16.5360  -29.9087   23.6331 C   0  0  0  0  0  0
  -16.7285  -28.6508   23.0350 C   0  0  0  0  0  0
  -26.4507  -31.6577   25.0738 C   0  0  0  0  0  0
  -25.3704  -31.3776   26.1446 C   0  0  0  0  0  0
  -27.0355  -30.2970   24.6298 C   0  0  0  0  0  0
  -27.6032  -32.4345   25.7527 C   0  0  0  0  0  0
  -27.5574  -37.1796   24.8461 C   0  0  0  0  0  0
  -21.4248  -29.3045   22.3631 N   0  0  0  0  0  0
  -26.4283  -37.3755   23.9405 N   0  0  0  0  0  0
  -24.7107  -31.0376   22.0952 N   0  0  0  0  0  0
  -23.4216  -28.8092   23.3001 O   0  0  0  0  0  0
  -28.2485  -26.1946   20.1855 O   0  0  0  0  0  0
  -26.5652  -34.8906   22.4649 O   0  0  0  0  0  0
  -23.5516  -32.1343   23.7174 O   0  0  0  0  0  0
  -29.4038  -18.7653   20.4677 C   0  0  0  0  0  0
  -30.9433  -20.1749   19.2930 C   0  0  0  0  0  0
  -31.3158  -17.7516   19.3698 C   0  0  0  0  0  0
  -29.7492  -20.1571   20.0572 C   0  0  0  0  0  0
  -30.1676  -17.5233   20.1588 C   0  0  0  0  0  0
  -31.6935  -19.0360   18.9545 C   0  0  0  0  0  0
  -28.4802  -23.5541   20.3973 C   0  0  0  0  0  0
  -28.0297  -22.2234   20.8743 C   0  0  0  0  0  0
  -27.9083  -24.8360   20.5707 C   0  0  0  0  0  0
  -29.6879  -22.8345   19.7413 C   0  0  0  0  0  0
  -29.1212  -21.5392   20.2618 N   0  0  0  0  0  0
  -29.8441  -16.0741   20.5305 N   0  0  0  0  0  0
  -27.0717  -21.9112   21.5501 O   0  0  0  0  0  0
  -32.8090  -19.1819   18.1988 F   0  0  0  0  0  0
  -31.4689  -12.6551   19.1890 H   0  0  0  0  0  0
  -30.3884  -11.5737   20.0197 H   0  0  0  0  0  0
  -29.8202  -11.7173   17.5688 H   0  0  0  0  0  0
  -29.6287  -13.4491   17.6983 H   0  0  0  0  0  0
  -27.9178  -11.2804   18.9475 H   0  0  0  0  0  0
  -27.3878  -12.4869   17.8056 H   0  0  0  0  0  0
  -27.6028  -14.2557   19.4262 H   0  0  0  0  0  0
  -28.7415  -12.2757   21.4572 H   0  0  0  0  0  0
  -28.3913  -13.9624   21.7566 H   0  0  0  0  0  0
  -25.2794   -9.5672   22.4759 H   0  0  0  0  0  0
  -24.0022   -7.4631   22.7469 H   0  0  0  0  0  0
  -21.0870   -8.8788   19.8954 H   0  0  0  0  0  0
  -22.3737  -10.9682   19.6169 H   0  0  0  0  0  0
  -21.2002   -7.6154   23.9723 H   0  0  0  0  0  0
  -21.1482   -6.0525   25.9080 H   0  0  0  0  0  0
  -22.0595   -2.7616   23.2849 H   0  0  0  0  0  0
  -22.4105  -11.9853   22.4837 H   0  0  0  0  0  0
  -21.1081  -13.1183   22.2652 H   0  0  0  0  0  0
  -24.6429  -15.8459   20.5397 H   0  0  0  0  0  0
  -26.2540  -15.6422   20.0759 H   0  0  0  0  0  0
  -26.7246  -32.5331   23.1044 H   0  0  0  0  0  0
  -25.0062  -33.9660   25.0343 H   0  0  0  0  0  0
  -22.7409  -31.2927   21.3872 H   0  0  0  0  0  0
  -23.3752  -35.9602   23.3295 H   0  0  0  0  0  0
  -24.3567  -36.8909   22.2052 H   0  0  0  0  0  0
  -23.7252  -37.6468   23.6680 H   0  0  0  0  0  0
  -26.1453  -31.4911   20.6174 H   0  0  0  0  0  0
  -26.8665  -30.7846   22.0282 H   0  0  0  0  0  0
  -28.1276  -28.8338   21.2472 H   0  0  0  0  0  0
  -25.9557  -25.8738   18.9863 H   0  0  0  0  0  0
  -23.9813  -27.3099   18.9765 H   0  0  0  0  0  0
  -23.8070  -30.5823   19.4043 H   0  0  0  0  0  0
  -22.7829  -29.2484   19.8387 H   0  0  0  0  0  0
  -25.1307  -36.1878   25.0808 H   0  0  0  0  0  0
  -20.9994  -28.3295   24.1376 H   0  0  0  0  0  0
  -20.5677  -26.2325   23.3629 H   0  0  0  0  0  0
  -21.6649  -26.7425   22.1212 H   0  0  0  0  0  0
  -19.6917  -25.6279   21.1267 H   0  0  0  0  0  0
  -19.6695  -27.3171   20.6742 H   0  0  0  0  0  0
  -17.4205  -26.6671   21.4037 H   0  0  0  0  0  0
  -18.0338  -26.0083   22.9040 H   0  0  0  0  0  0
  -19.7949  -30.7296   24.2231 H   0  0  0  0  0  0
  -17.5023  -31.6266   24.5173 H   0  0  0  0  0  0
  -15.5360  -30.2983   23.7667 H   0  0  0  0  0  0
  -15.8686  -28.0825   22.7066 H   0  0  0  0  0  0
  -24.5863  -30.7141   25.7783 H   0  0  0  0  0  0
  -24.8918  -32.2970   26.4833 H   0  0  0  0  0  0
  -25.7993  -30.8975   27.0252 H   0  0  0  0  0  0
  -26.2964  -29.6718   24.1274 H   0  0  0  0  0  0
  -27.3933  -29.7241   25.4864 H   0  0  0  0  0  0
  -27.8892  -30.4202   23.9629 H   0  0  0  0  0  0
  -27.2600  -33.3643   26.2079 H   0  0  0  0  0  0
  -28.3860  -32.6920   25.0379 H   0  0  0  0  0  0
  -28.0685  -31.8502   26.5475 H   0  0  0  0  0  0
  -28.2584  -38.0098   24.7493 H   0  0  0  0  0  0
  -28.1077  -36.2625   24.6301 H   0  0  0  0  0  0
  -27.2289  -37.1459   25.8863 H   0  0  0  0  0  0
  -20.9449  -29.8783   21.6840 H   0  0  0  0  0  0
  -26.0151  -38.2822   24.1412 H   0  0  0  0  0  0
  -28.5001  -18.6488   21.0492 H   0  0  0  0  0  0
  -31.3349  -21.1058   18.9152 H   0  0  0  0  0  0
  -31.9476  -16.9458   19.0359 H   0  0  0  0  0  0
  -26.9946  -24.8634   21.1486 H   0  0  0  0  0  0
  -30.6721  -23.0456   20.1625 H   0  0  0  0  0  0
  -29.7347  -22.8541   18.6511 H   0  0  0  0  0  0
  -28.8949  -15.9221   20.8367 H   0  0  0  0  0  0
  1 25  1  0  0  0
  1 30  2  0  0  0
  1 82  1  0  0  0
  2  3  1  0  0  0
  2 25  1  0  0  0
  2 85  1  0  0  0
  2 86  1  0  0  0
  3  4  1  0  0  0
  3 87  1  0  0  0
  3 88  1  0  0  0
  4  5  1  0  0  0
  4 89  1  0  0  0
  4 90  1  0  0  0
  5  6  1  0  0  0
  5 26  1  0  0  0
  5 91  1  0  0  0
  6 25  1  0  0  0
  6 92  1  0  0  0
  6 93  1  0  0  0
  7  8  2  0  0  0
  7 26  1  0  0  0
  7 29  1  0  0  0
  8  9  1  0  0  0
  8 22  1  0  0  0
  9 10  1  0  0  0
  9 27  2  0  0  0
 10 11  2  0  0  0
 10 15  1  0  0  0
 11 12  1  0  0  0
 11 94  1  0  0  0
 12 13  2  0  0  0
 12 95  1  0  0  0
 13 14  1  0  0  0
 13 31  1  0  0  0
 14 15  2  0  0  0
 14 96  1  0  0  0
 15 97  1  0  0  0
 16 17  2  0  0  0
 16 21  1  0  0  0
 16 31  1  0  0  0
 17 18  1  0  0  0
 17 98  1  0  0  0
 18 19  2  0  0  0
 18 99  1  0  0  0
 19 20  1  0  0  0
 19 24  1  0  0  0
 20 21  2  0  0  0
 20100  1  0  0  0
 21 23  1  0  0  0
 22 28  1  0  0  0
 22 32  2  0  0  0
 26 27  1  0  0  0
 28101  1  0  0  0
 28102  1  0  0  0
 29103  1  0  0  0
 29104  1  0  0  0
 33 34  1  0  0  0
 33 66  1  0  0  0
 33 70  2  0  0  0
 34 36  1  0  0  0
 34 59  1  0  0  0
 34105  1  0  0  0
 35 44  2  0  0  0
 35 45  1  0  0  0
 35 68  1  0  0  0
 36 56  1  0  0  0
 36106  1  0  0  0
 37 39  1  0  0  0
 37 47  1  0  0  0
 37 66  1  0  0  0
 37107  1  0  0  0
 38 43  2  0  0  0
 38 46  1  0  0  0
 38 47  1  0  0  0
 39 64  1  0  0  0
 39 67  2  0  0  0
 40 52  1  0  0  0
 40 53  2  0  0  0
 40 58  1  0  0  0
 41108  1  0  0  0
 41109  1  0  0  0
 41110  1  0  0  0
 41 48  1  0  0  0
 42 43  1  0  0  0
 42 66  1  0  0  0
 42111  1  0  0  0
 42112  1  0  0  0
 43 44  1  0  0  0
 44113  1  0  0  0
 45 46  2  0  0  0
 45114  1  0  0  0
 46115  1  0  0  0
 47116  1  0  0  0
 47117  1  0  0  0
 48 56  1  0  0  0
 48 65  1  0  0  0
 48118  1  0  0  0
 49 50  1  0  0  0
 49 53  1  0  0  0
 49 64  1  0  0  0
 49119  1  0  0  0
 50 51  1  0  0  0
 50120  1  0  0  0
 50121  1  0  0  0
 51 52  1  0  0  0
 51122  1  0  0  0
 51123  1  0  0  0
 52124  1  0  0  0
 52125  1  0  0  0
 53 54  1  0  0  0
 54 55  2  0  0  0
 54126  1  0  0  0
 55 57  1  0  0  0
 55127  1  0  0  0
 56 69  2  0  0  0
 57 58  2  0  0  0
 57128  1  0  0  0
 58129  1  0  0  0
 59 60  1  0  0  0
 59 61  1  0  0  0
 59 62  1  0  0  0
 60130  1  0  0  0
 60131  1  0  0  0
 60132  1  0  0  0
 61133  1  0  0  0
 61134  1  0  0  0
 61135  1  0  0  0
 62136  1  0  0  0
 62137  1  0  0  0
 62138  1  0  0  0
 63 65  1  0  0  0
 63139  1  0  0  0
 63140  1  0  0  0
 63141  1  0  0  0
 64142  1  0  0  0
 65143  1  0  0  0
 68 79  1  0  0  0
 71 74  2  0  0  0
 71 75  1  0  0  0
 71144  1  0  0  0
 72 74  1  0  0  0
 72 76  2  0  0  0
 72145  1  0  0  0
 73 75  2  0  0  0
 73 76  1  0  0  0
 73146  1  0  0  0
 74 81  1  0  0  0
 75 82  1  0  0  0
 76 84  1  0  0  0
 77 78  1  0  0  0
 77 79  2  0  0  0
 77 80  1  0  0  0
 78 81  1  0  0  0
 78 83  2  0  0  0
 79147  1  0  0  0
 80 81  1  0  0  0
 80148  1  0  0  0
 80149  1  0  0  0
 82150  1  0  0  0
M  ISO  4   1 100  68 101  79 101  82 100
M  END
> <chiral flag>
0

> <version>
0

> <s_m_source_file>
/data/baiqing/PycharmProjects/Reinvent-master-3.2/result/LINK_invent/BTK/process_docking_weight1_custom_product_contain_oxygen_bond_distance_aromatic_linkinvent_7_9_3/rearranged_h_0084.sdf

> <i_m_source_file_index>
39

> <r_mmod_Potential_Energy-OPLS-2005>
443.54248046875

> <r_mmod_Stretch_Energy-OPLS-2005>
190.499206542969

> <r_mmod_Bend_Energy-OPLS-2005>
287.619781494141

> <r_mmod_Torsional_Energy-OPLS-2005>
223.418807983398

> <r_mmod_Improper_Torsional_Energy-OPLS-2005>
3.9735255241394

> <r_mmod_Van_der_Waal_Energy-OPLS-2005>
140.909149169922

> <r_mmod_Electrostatic_Energy-OPLS-2005>
-335.642303466797

> <r_mmod_Solvation_Energy-OPLS-2005>
-217.531967163086

> <b_mmod_Minimization_Converged-OPLS-2005>
0

> <r_mmod_RMS_Derivative-OPLS-2005>
1.05436885356903

$$$$
39
                    3D
 Structure written by MMmdl.
154163  0  0  1  0            999 V2000
  -30.5969  -14.8066   20.4355 C   0  0  0  0  0  0
  -30.4359  -12.4899   19.4983 C   0  0  0  0  0  0
  -29.5165  -12.5142   18.2554 C   0  0  0  0  0  0
  -28.0447  -12.3322   18.6657 C   0  0  0  0  0  0
  -27.6440  -13.2407   19.8564 C   0  0  2  0  0  0
  -28.6861  -13.2006   20.9974 C   0  0  0  0  0  0
  -25.2508  -13.8236   20.5683 C   0  0  0  0  0  0
  -24.1798  -13.0468   20.9179 C   0  0  0  0  0  0
  -24.6394  -11.6945   20.8729 C   0  0  0  0  0  0
  -23.9064  -10.4312   21.0392 C   0  0  0  0  0  0
  -24.3610   -9.4225   21.9172 C   0  0  0  0  0  0
  -23.6292   -8.2252   22.0731 C   0  0  0  0  0  0
  -22.4279   -8.0278   21.3516 C   0  0  0  0  0  0
  -21.9915   -9.0255   20.4621 C   0  0  0  0  0  0
  -22.7237  -10.2140   20.3040 C   0  0  0  0  0  0
  -21.6850   -6.0732   22.5273 C   0  0  0  0  0  0
  -21.4012   -6.5631   23.8210 C   0  0  0  0  0  0
  -21.3657   -5.6782   24.9168 C   0  0  0  0  0  0
  -21.6052   -4.3044   24.7218 C   0  0  0  0  0  0
  -21.8817   -3.8135   23.4338 C   0  0  0  0  0  0
  -21.9186   -4.6959   22.3400 C   0  0  0  0  0  0
  -22.7815  -13.5239   21.1834 C   0  0  0  0  0  0
  -22.1651   -4.2137   21.0980 F   0  0  0  0  0  0
  -21.5636   -3.4531   25.7734 F   0  0  0  0  0  0
  -29.9880  -13.5636   20.4226 N   0  0  0  0  0  0
  -26.2952  -12.9451   20.3306 N   0  0  0  0  0  0
  -25.9336  -11.6582   20.5774 N   0  0  0  0  0  0
  -22.0456  -12.8222   22.0380 N   0  0  0  0  0  0
  -25.4244  -15.1959   20.4111 N   0  0  0  0  0  0
  -31.7730  -14.8969   20.0721 O   0  0  0  0  0  0
  -21.6633   -6.8879   21.4231 O   0  0  0  0  0  0
  -22.3499  -14.5549   20.6694 O   0  0  0  0  0  0
  -24.6366  -31.8497   23.1969 C   0  0  0  0  0  0
  -25.9181  -32.4721   23.8314 C   0  0  1  0  0  0
  -27.2101  -27.1938   20.1331 C   0  0  0  0  0  0
  -25.5970  -33.8527   24.2229 N   0  0  0  0  0  0
  -23.4354  -30.4748   21.5416 C   0  0  2  0  0  0
  -24.8836  -28.9201   20.1111 C   0  0  0  0  0  0
  -22.7535  -29.4579   22.4886 C   0  0  0  0  0  0
  -18.0305  -28.1394   22.8483 C   0  0  0  0  0  0
  -24.1505  -36.7253   23.2636 C   0  0  0  0  0  0
  -25.9888  -30.7394   21.3923 C   0  0  0  0  0  0
  -26.0578  -29.3569   20.7374 C   0  0  0  0  0  0
  -27.2178  -28.5025   20.7486 C   0  0  0  0  0  0
  -26.0190  -26.8733   19.4353 C   0  0  0  0  0  0
  -24.8735  -27.6882   19.4493 C   0  0  0  0  0  0
  -23.6576  -29.8121   20.1586 C   0  0  0  0  0  0
  -25.4130  -36.3032   24.0316 C   0  0  1  0  0  0
  -20.5910  -28.3692   23.1258 C   0  0  2  0  0  0
  -20.6779  -26.9406   22.5398 C   0  0  0  0  0  0
  -19.5756  -26.6379   21.5207 C   0  0  0  0  0  0
  -18.1941  -26.7937   22.1620 C   0  0  0  0  0  0
  -19.1560  -28.8863   23.2869 C   0  0  0  0  0  0
  -18.9472  -30.1462   23.8885 C   0  0  0  0  0  0
  -17.6468  -30.6591   24.0551 C   0  0  0  0  0  0
  -25.9082  -34.9411   23.5069 C   0  0  0  0  0  0
  -16.5358  -29.9075   23.6340 C   0  0  0  0  0  0
  -16.7288  -28.6497   23.0354 C   0  0  0  0  0  0
  -26.4532  -31.6562   25.0716 C   0  0  0  0  0  0
  -25.3740  -31.3710   26.1419 C   0  0  0  0  0  0
  -27.0375  -30.2968   24.6249 C   0  0  0  0  0  0
  -27.6099  -32.4288   25.7481 C   0  0  0  0  0  0
  -27.5585  -37.1775   24.8460 C   0  0  0  0  0  0
  -21.4233  -29.3029   22.3636 N   0  0  0  0  0  0
  -26.4284  -37.3746   23.9420 N   0  0  0  0  0  0
  -24.7063  -31.0412   22.0985 N   0  0  0  0  0  0
  -23.4214  -28.8109   23.2998 O   0  0  0  0  0  0
  -28.2744  -26.2343   20.2088 O   0  0  0  0  0  0
  -26.5645  -34.8893   22.4638 O   0  0  0  0  0  0
  -23.5502  -32.1340   23.7233 O   0  0  0  0  0  0
  -29.4488  -19.7011   18.4920 C   0  0  0  0  0  0
  -29.6150  -18.4413   17.8836 C   0  0  0  0  0  0
  -29.6348  -18.6200   20.6628 C   0  0  0  0  0  0
  -29.4447  -19.8625   19.8958 C   0  0  0  0  0  0
  -29.8064  -17.2871   20.0521 C   0  0  0  0  0  0
  -29.7807  -17.2633   18.6359 C   0  0  0  0  0  0
  -28.7867  -23.6514   20.3396 C   0  0  0  0  0  0
  -30.0613  -23.4702   20.9865 C   0  0  0  0  0  0
  -28.3737  -22.2459   19.9886 C   0  0  0  0  0  0
  -30.8428  -24.4633   21.4437 C   0  0  0  0  0  0
  -28.0451  -24.8079   20.0452 C   0  0  0  0  0  0
  -30.4091  -21.9821   21.0742 C   0  0  0  0  0  0
  -29.3093  -21.2859   20.3843 N   0  0  0  0  0  0
  -29.8580  -15.9547   20.7478 N   0  0  0  0  0  0
  -27.3171  -21.9479   19.4215 O   0  0  0  0  0  0
  -29.8620  -16.0886   17.9651 F   0  0  0  0  0  0
  -31.4743  -12.6183   19.1918 H   0  0  0  0  0  0
  -30.3946  -11.5184   19.9936 H   0  0  0  0  0  0
  -29.8061  -11.7314   17.5525 H   0  0  0  0  0  0
  -29.6344  -13.4614   17.7263 H   0  0  0  0  0  0
  -27.9094  -11.2854   18.9384 H   0  0  0  0  0  0
  -27.3867  -12.5126   17.8155 H   0  0  0  0  0  0
  -27.6339  -14.2586   19.4635 H   0  0  0  0  0  0
  -28.7308  -12.2113   21.4558 H   0  0  0  0  0  0
  -28.4077  -13.8919   21.7941 H   0  0  0  0  0  0
  -25.2747   -9.5696   22.4757 H   0  0  0  0  0  0
  -23.9969   -7.4655   22.7475 H   0  0  0  0  0  0
  -21.0830   -8.8786   19.8956 H   0  0  0  0  0  0
  -22.3681  -10.9670   19.6151 H   0  0  0  0  0  0
  -21.2006   -7.6143   23.9700 H   0  0  0  0  0  0
  -21.1481   -6.0519   25.9069 H   0  0  0  0  0  0
  -22.0600   -2.7597   23.2845 H   0  0  0  0  0  0
  -22.4051  -11.9859   22.4739 H   0  0  0  0  0  0
  -21.1087  -13.1259   22.2590 H   0  0  0  0  0  0
  -24.6675  -15.8602   20.5331 H   0  0  0  0  0  0
  -26.2850  -15.6285   20.0982 H   0  0  0  0  0  0
  -26.7248  -32.5342   23.1045 H   0  0  0  0  0  0
  -25.0118  -33.9667   25.0378 H   0  0  0  0  0  0
  -22.7342  -31.2989   21.3949 H   0  0  0  0  0  0
  -23.3777  -35.9577   23.3254 H   0  0  0  0  0  0
  -24.3609  -36.8915   22.2061 H   0  0  0  0  0  0
  -23.7246  -37.6432   23.6696 H   0  0  0  0  0  0
  -26.1379  -31.4942   20.6189 H   0  0  0  0  0  0
  -26.8632  -30.7880   22.0288 H   0  0  0  0  0  0
  -28.1073  -28.8248   21.2747 H   0  0  0  0  0  0
  -25.9105  -25.9683   18.8638 H   0  0  0  0  0  0
  -23.9834  -27.3576   18.9320 H   0  0  0  0  0  0
  -23.7863  -30.5865   19.4017 H   0  0  0  0  0  0
  -22.7749  -29.2478   19.8525 H   0  0  0  0  0  0
  -25.1321  -36.1843   25.0805 H   0  0  0  0  0  0
  -21.0015  -28.3258   24.1375 H   0  0  0  0  0  0
  -20.5651  -26.2307   23.3606 H   0  0  0  0  0  0
  -21.6642  -26.7412   22.1194 H   0  0  0  0  0  0
  -19.6893  -25.6283   21.1247 H   0  0  0  0  0  0
  -19.6688  -27.3183   20.6735 H   0  0  0  0  0  0
  -17.4203  -26.6691   21.4028 H   0  0  0  0  0  0
  -18.0337  -26.0084   22.9020 H   0  0  0  0  0  0
  -19.7945  -30.7289   24.2237 H   0  0  0  0  0  0
  -17.5019  -31.6277   24.5133 H   0  0  0  0  0  0
  -15.5350  -30.2960   23.7685 H   0  0  0  0  0  0
  -15.8695  -28.0809   22.7072 H   0  0  0  0  0  0
  -24.5968  -30.7007   25.7734 H   0  0  0  0  0  0
  -24.8866  -32.2859   26.4800 H   0  0  0  0  0  0
  -25.8037  -30.8919   27.0229 H   0  0  0  0  0  0
  -26.2966  -29.6704   24.1271 H   0  0  0  0  0  0
  -27.4028  -29.7249   25.4792 H   0  0  0  0  0  0
  -27.8870  -30.4211   23.9527 H   0  0  0  0  0  0
  -27.2772  -33.3640   26.2004 H   0  0  0  0  0  0
  -28.3954  -32.6751   25.0317 H   0  0  0  0  0  0
  -28.0739  -31.8428   26.5432 H   0  0  0  0  0  0
  -28.2559  -38.0113   24.7554 H   0  0  0  0  0  0
  -28.1119  -36.2644   24.6225 H   0  0  0  0  0  0
  -27.2308  -37.1335   25.8859 H   0  0  0  0  0  0
  -20.9433  -29.8751   21.6837 H   0  0  0  0  0  0
  -26.0136  -38.2801   24.1453 H   0  0  0  0  0  0
  -29.3378  -20.5640   17.8491 H   0  0  0  0  0  0
  -29.6004  -18.3733   16.8054 H   0  0  0  0  0  0
  -29.6387  -18.6862   21.7420 H   0  0  0  0  0  0
  -30.5527  -25.5003   21.3501 H   0  0  0  0  0  0
  -31.7910  -24.2550   21.9198 H   0  0  0  0  0  0
  -27.1059  -24.6056   19.5684 H   0  0  0  0  0  0
  -30.4768  -21.6565   22.1123 H   0  0  0  0  0  0
  -31.3603  -21.7794   20.5802 H   0  0  0  0  0  0
  -29.0353  -15.7557   21.2960 H   0  0  0  0  0  0
  1 25  1  0  0  0
  1 30  2  0  0  0
  1 84  1  0  0  0
  2  3  1  0  0  0
  2 25  1  0  0  0
  2 87  1  0  0  0
  2 88  1  0  0  0
  3  4  1  0  0  0
  3 89  1  0  0  0
  3 90  1  0  0  0
  4  5  1  0  0  0
  4 91  1  0  0  0
  4 92  1  0  0  0
  5  6  1  0  0  0
  5 26  1  0  0  0
  5 93  1  0  0  0
  6 25  1  0  0  0
  6 94  1  0  0  0
  6 95  1  0  0  0
  7  8  2  0  0  0
  7 26  1  0  0  0
  7 29  1  0  0  0
  8  9  1  0  0  0
  8 22  1  0  0  0
  9 10  1  0  0  0
  9 27  2  0  0  0
 10 11  2  0  0  0
 10 15  1  0  0  0
 11 12  1  0  0  0
 11 96  1  0  0  0
 12 13  2  0  0  0
 12 97  1  0  0  0
 13 14  1  0  0  0
 13 31  1  0  0  0
 14 15  2  0  0  0
 14 98  1  0  0  0
 15 99  1  0  0  0
 16 17  2  0  0  0
 16 21  1  0  0  0
 16 31  1  0  0  0
 17 18  1  0  0  0
 17100  1  0  0  0
 18 19  2  0  0  0
 18101  1  0  0  0
 19 20  1  0  0  0
 19 24  1  0  0  0
 20 21  2  0  0  0
 20102  1  0  0  0
 21 23  1  0  0  0
 22 28  1  0  0  0
 22 32  2  0  0  0
 26 27  1  0  0  0
 28103  1  0  0  0
 28104  1  0  0  0
 29105  1  0  0  0
 29106  1  0  0  0
 33 34  1  0  0  0
 33 66  1  0  0  0
 33 70  2  0  0  0
 34 36  1  0  0  0
 34 59  1  0  0  0
 34107  1  0  0  0
 35 44  2  0  0  0
 35 45  1  0  0  0
 35 68  1  0  0  0
 36 56  1  0  0  0
 36108  1  0  0  0
 37 39  1  0  0  0
 37 47  1  0  0  0
 37 66  1  0  0  0
 37109  1  0  0  0
 38 43  2  0  0  0
 38 46  1  0  0  0
 38 47  1  0  0  0
 39 64  1  0  0  0
 39 67  2  0  0  0
 40 52  1  0  0  0
 40 53  2  0  0  0
 40 58  1  0  0  0
 41110  1  0  0  0
 41111  1  0  0  0
 41112  1  0  0  0
 41 48  1  0  0  0
 42 43  1  0  0  0
 42 66  1  0  0  0
 42113  1  0  0  0
 42114  1  0  0  0
 43 44  1  0  0  0
 44115  1  0  0  0
 45 46  2  0  0  0
 45116  1  0  0  0
 46117  1  0  0  0
 47118  1  0  0  0
 47119  1  0  0  0
 48 56  1  0  0  0
 48 65  1  0  0  0
 48120  1  0  0  0
 49 50  1  0  0  0
 49 53  1  0  0  0
 49 64  1  0  0  0
 49121  1  0  0  0
 50 51  1  0  0  0
 50122  1  0  0  0
 50123  1  0  0  0
 51 52  1  0  0  0
 51124  1  0  0  0
 51125  1  0  0  0
 52126  1  0  0  0
 52127  1  0  0  0
 53 54  1  0  0  0
 54 55  2  0  0  0
 54128  1  0  0  0
 55 57  1  0  0  0
 55129  1  0  0  0
 56 69  2  0  0  0
 57 58  2  0  0  0
 57130  1  0  0  0
 58131  1  0  0  0
 59 60  1  0  0  0
 59 61  1  0  0  0
 59 62  1  0  0  0
 60132  1  0  0  0
 60133  1  0  0  0
 60134  1  0  0  0
 61135  1  0  0  0
 61136  1  0  0  0
 61137  1  0  0  0
 62138  1  0  0  0
 62139  1  0  0  0
 62140  1  0  0  0
 63 65  1  0  0  0
 63141  1  0  0  0
 63142  1  0  0  0
 63143  1  0  0  0
 64144  1  0  0  0
 65145  1  0  0  0
 68 81  1  0  0  0
 71 72  2  0  0  0
 71 74  1  0  0  0
 71146  1  0  0  0
 72 76  1  0  0  0
 72147  1  0  0  0
 73 74  2  0  0  0
 73 75  1  0  0  0
 73148  1  0  0  0
 74 83  1  0  0  0
 75 76  2  0  0  0
 75 84  1  0  0  0
 76 86  1  0  0  0
 77 78  1  0  0  0
 77 79  1  0  0  0
 77 81  2  0  0  0
 78 80  2  0  0  0
 78 82  1  0  0  0
 79 83  1  0  0  0
 79 85  2  0  0  0
 80149  1  0  0  0
 80150  1  0  0  0
 81151  1  0  0  0
 82 83  1  0  0  0
 82152  1  0  0  0
 82153  1  0  0  0
 84154  1  0  0  0
M  ISO  4   1 100  68 101  81 101  84 100
M  END
> <chiral flag>
0

> <version>
0

> <s_m_source_file>
/data/baiqing/PycharmProjects/Reinvent-master-3.2/result/LINK_invent/BTK/process_docking_weight1_custom_product_contain_oxygen_bond_distance_aromatic_linkinvent_7_9_3/rearranged_h_0084.sdf

> <i_m_source_file_index>
40

> <r_mmod_Potential_Energy-OPLS-2005>
404.398101806641

> <r_mmod_Stretch_Energy-OPLS-2005>
158.913345336914

> <r_mmod_Bend_Energy-OPLS-2005>
229.529342651367

> <r_mmod_Torsional_Energy-OPLS-2005>
309.944000244141

> <r_mmod_Improper_Torsional_Energy-OPLS-2005>
5.29987716674805

> <r_mmod_Van_der_Waal_Energy-OPLS-2005>
139.738693237305

> <r_mmod_Electrostatic_Energy-OPLS-2005>
-347.566619873047

> <r_mmod_Solvation_Energy-OPLS-2005>
-215.776580810547

> <b_mmod_Minimization_Converged-OPLS-2005>
0

> <r_mmod_RMS_Derivative-OPLS-2005>
2.20989060401917

$$$$
40
                    3D
 Structure written by MMmdl.
150159  0  0  1  0            999 V2000
  -30.5692  -14.7421   20.4850 C   0  0  0  0  0  0
  -30.4511  -12.4556   19.4667 C   0  0  0  0  0  0
  -29.5167  -12.5196   18.2354 C   0  0  0  0  0  0
  -28.0415  -12.3384   18.6472 C   0  0  0  0  0  0
  -27.6514  -13.2208   19.8618 C   0  0  2  0  0  0
  -28.6968  -13.1055   20.9942 C   0  0  0  0  0  0
  -25.2559  -13.8174   20.5689 C   0  0  0  0  0  0
  -24.1830  -13.0437   20.9196 C   0  0  0  0  0  0
  -24.6401  -11.6907   20.8741 C   0  0  0  0  0  0
  -23.9068  -10.4291   21.0407 C   0  0  0  0  0  0
  -24.3618   -9.4205   21.9186 C   0  0  0  0  0  0
  -23.6292   -8.2241   22.0755 C   0  0  0  0  0  0
  -22.4275   -8.0280   21.3543 C   0  0  0  0  0  0
  -21.9909   -9.0255   20.4647 C   0  0  0  0  0  0
  -22.7237  -10.2136   20.3058 C   0  0  0  0  0  0
  -21.6853   -6.0734   22.5277 C   0  0  0  0  0  0
  -21.4013   -6.5638   23.8211 C   0  0  0  0  0  0
  -21.3661   -5.6792   24.9174 C   0  0  0  0  0  0
  -21.6046   -4.3055   24.7226 C   0  0  0  0  0  0
  -21.8819   -3.8144   23.4347 C   0  0  0  0  0  0
  -21.9194   -4.6961   22.3402 C   0  0  0  0  0  0
  -22.7851  -13.5229   21.1858 C   0  0  0  0  0  0
  -22.1663   -4.2146   21.0980 F   0  0  0  0  0  0
  -21.5630   -3.4539   25.7739 F   0  0  0  0  0  0
  -30.0028  -13.4861   20.4307 N   0  0  0  0  0  0
  -26.2984  -12.9356   20.3309 N   0  0  0  0  0  0
  -25.9333  -11.6509   20.5755 N   0  0  0  0  0  0
  -22.0493  -12.8223   22.0415 N   0  0  0  0  0  0
  -25.4275  -15.1895   20.4100 N   0  0  0  0  0  0
  -31.7264  -14.9244   20.0924 O   0  0  0  0  0  0
  -21.6639   -6.8876   21.4239 O   0  0  0  0  0  0
  -22.3536  -14.5535   20.6704 O   0  0  0  0  0  0
  -24.6314  -31.8549   23.1984 C   0  0  0  0  0  0
  -25.9134  -32.4756   23.8333 C   0  0  1  0  0  0
  -27.2250  -27.2670   20.1294 C   0  0  0  0  0  0
  -25.5927  -33.8558   24.2257 N   0  0  0  0  0  0
  -23.4299  -30.4768   21.5412 C   0  0  2  0  0  0
  -24.8813  -28.9255   20.1089 C   0  0  0  0  0  0
  -22.7508  -29.4598   22.4904 C   0  0  0  0  0  0
  -18.0293  -28.1387   22.8484 C   0  0  0  0  0  0
  -24.1489  -36.7287   23.2640 C   0  0  0  0  0  0
  -25.9762  -30.7685   21.3801 C   0  0  0  0  0  0
  -26.0527  -29.3913   20.7223 C   0  0  0  0  0  0
  -27.2303  -28.5734   20.7248 C   0  0  0  0  0  0
  -26.0356  -26.8726   19.4803 C   0  0  0  0  0  0
  -24.8772  -27.6731   19.4764 C   0  0  0  0  0  0
  -23.6501  -29.8107   20.1576 C   0  0  0  0  0  0
  -25.4115  -36.3072   24.0326 C   0  0  1  0  0  0
  -20.5898  -28.3700   23.1263 C   0  0  2  0  0  0
  -20.6781  -26.9416   22.5405 C   0  0  0  0  0  0
  -19.5756  -26.6381   21.5211 C   0  0  0  0  0  0
  -18.1937  -26.7927   22.1628 C   0  0  0  0  0  0
  -19.1547  -28.8861   23.2868 C   0  0  0  0  0  0
  -18.9469  -30.1460   23.8888 C   0  0  0  0  0  0
  -17.6468  -30.6588   24.0562 C   0  0  0  0  0  0
  -25.9054  -34.9440   23.5096 C   0  0  0  0  0  0
  -16.5358  -29.9085   23.6332 C   0  0  0  0  0  0
  -16.7280  -28.6503   23.0354 C   0  0  0  0  0  0
  -26.4501  -31.6579   25.0723 C   0  0  0  0  0  0
  -25.3721  -31.3735   26.1441 C   0  0  0  0  0  0
  -27.0351  -30.2993   24.6217 C   0  0  0  0  0  0
  -27.6049  -32.4325   25.7499 C   0  0  0  0  0  0
  -27.5577  -37.1802   24.8467 C   0  0  0  0  0  0
  -21.4213  -29.3046   22.3649 N   0  0  0  0  0  0
  -26.4294  -37.3768   23.9402 N   0  0  0  0  0  0
  -24.6980  -31.0509   22.0963 N   0  0  0  0  0  0
  -23.4201  -28.8136   23.3008 O   0  0  0  0  0  0
  -28.2753  -26.3204   20.1787 O   0  0  0  0  0  0
  -26.5632  -34.8914   22.4668 O   0  0  0  0  0  0
  -23.5459  -32.1370   23.7272 O   0  0  0  0  0  0
  -28.4147  -19.3382   21.3791 C   0  0  0  0  0  0
  -28.6190  -17.9253   21.4410 C   0  0  0  0  0  0
  -30.5052  -18.1406   20.0189 C   0  0  0  0  0  0
  -29.2142  -20.2597   20.6377 C   0  0  0  0  0  0
  -29.6714  -17.2542   20.7664 C   0  0  0  0  0  0
  -30.2800  -19.5711   19.9586 C   0  0  0  0  0  0
  -28.4329  -23.7445   20.6059 C   0  0  0  0  0  0
  -27.9293  -22.5503   21.2765 C   0  0  0  0  0  0
  -27.9469  -25.0473   20.7329 C   0  0  0  0  0  0
  -29.4929  -22.8503   19.8929 C   0  0  0  0  0  0
  -28.8819  -21.7191   20.6560 N   0  0  0  0  0  0
  -29.7268  -15.7694   20.8755 N   0  0  0  0  0  0
  -27.0121  -22.4075   22.0586 O   0  0  0  0  0  0
  -31.1316  -20.3109   19.2077 F   0  0  0  0  0  0
  -31.4873  -12.6086   19.1603 H   0  0  0  0  0  0
  -30.4187  -11.4666   19.9261 H   0  0  0  0  0  0
  -29.7977  -11.7565   17.5082 H   0  0  0  0  0  0
  -29.6392  -13.4802   17.7325 H   0  0  0  0  0  0
  -27.8950  -11.2863   18.8949 H   0  0  0  0  0  0
  -27.3838  -12.5451   17.8020 H   0  0  0  0  0  0
  -27.6590  -14.2508   19.5047 H   0  0  0  0  0  0
  -28.7335  -12.0856   21.3802 H   0  0  0  0  0  0
  -28.4237  -13.7328   21.8440 H   0  0  0  0  0  0
  -25.2766   -9.5679   22.4757 H   0  0  0  0  0  0
  -24.0002   -7.4631   22.7474 H   0  0  0  0  0  0
  -21.0839   -8.8773   19.8953 H   0  0  0  0  0  0
  -22.3696  -10.9675   19.6166 H   0  0  0  0  0  0
  -21.2003   -7.6146   23.9713 H   0  0  0  0  0  0
  -21.1484   -6.0523   25.9077 H   0  0  0  0  0  0
  -22.0597   -2.7606   23.2849 H   0  0  0  0  0  0
  -22.4110  -11.9886   22.4805 H   0  0  0  0  0  0
  -21.1109  -13.1249   22.2618 H   0  0  0  0  0  0
  -24.6575  -15.8417   20.5111 H   0  0  0  0  0  0
  -26.2692  -15.6257   20.0557 H   0  0  0  0  0  0
  -26.7202  -32.5412   23.1077 H   0  0  0  0  0  0
  -25.0057  -33.9692   25.0390 H   0  0  0  0  0  0
  -22.7266  -31.2991   21.3942 H   0  0  0  0  0  0
  -23.3747  -35.9625   23.3312 H   0  0  0  0  0  0
  -24.3575  -36.8900   22.2053 H   0  0  0  0  0  0
  -23.7250  -37.6494   23.6659 H   0  0  0  0  0  0
  -26.1149  -31.5293   20.6105 H   0  0  0  0  0  0
  -26.8530  -30.8180   22.0142 H   0  0  0  0  0  0
  -28.1244  -28.9185   21.2249 H   0  0  0  0  0  0
  -25.9906  -25.9060   18.9985 H   0  0  0  0  0  0
  -23.9820  -27.3108   18.9898 H   0  0  0  0  0  0
  -23.7730  -30.5874   19.4019 H   0  0  0  0  0  0
  -22.7692  -29.2432   19.8524 H   0  0  0  0  0  0
  -25.1299  -36.1923   25.0821 H   0  0  0  0  0  0
  -20.9994  -28.3282   24.1382 H   0  0  0  0  0  0
  -20.5678  -26.2313   23.3613 H   0  0  0  0  0  0
  -21.6649  -26.7436   22.1201 H   0  0  0  0  0  0
  -19.6918  -25.6290   21.1246 H   0  0  0  0  0  0
  -19.6690  -27.3187   20.6737 H   0  0  0  0  0  0
  -17.4204  -26.6666   21.4035 H   0  0  0  0  0  0
  -18.0347  -26.0071   22.9028 H   0  0  0  0  0  0
  -19.7944  -30.7279   24.2254 H   0  0  0  0  0  0
  -17.5022  -31.6267   24.5165 H   0  0  0  0  0  0
  -15.5359  -30.2987   23.7655 H   0  0  0  0  0  0
  -15.8680  -28.0818   22.7075 H   0  0  0  0  0  0
  -24.5883  -30.7104   25.7763 H   0  0  0  0  0  0
  -24.8932  -32.2912   26.4868 H   0  0  0  0  0  0
  -25.8030  -30.8900   27.0218 H   0  0  0  0  0  0
  -26.2942  -29.6738   24.1227 H   0  0  0  0  0  0
  -27.4010  -29.7259   25.4744 H   0  0  0  0  0  0
  -27.8829  -30.4260   23.9480 H   0  0  0  0  0  0
  -27.2645  -33.3622   26.2070 H   0  0  0  0  0  0
  -28.3863  -32.6891   25.0335 H   0  0  0  0  0  0
  -28.0714  -31.8458   26.5423 H   0  0  0  0  0  0
  -28.2605  -38.0089   24.7496 H   0  0  0  0  0  0
  -28.1064  -36.2619   24.6320 H   0  0  0  0  0  0
  -27.2292  -37.1482   25.8870 H   0  0  0  0  0  0
  -20.9399  -29.8771   21.6856 H   0  0  0  0  0  0
  -26.0176  -38.2846   24.1388 H   0  0  0  0  0  0
  -27.5767  -19.7268   21.9396 H   0  0  0  0  0  0
  -27.9237  -17.3468   22.0337 H   0  0  0  0  0  0
  -31.3323  -17.7308   19.4585 H   0  0  0  0  0  0
  -27.1165  -25.1720   21.4163 H   0  0  0  0  0  0
  -30.5402  -22.9998   20.1597 H   0  0  0  0  0  0
  -29.3912  -22.7119   18.8152 H   0  0  0  0  0  0
  -28.8841  -15.3800   21.2699 H   0  0  0  0  0  0
  1 25  1  0  0  0
  1 30  2  0  0  0
  1 82  1  0  0  0
  2  3  1  0  0  0
  2 25  1  0  0  0
  2 85  1  0  0  0
  2 86  1  0  0  0
  3  4  1  0  0  0
  3 87  1  0  0  0
  3 88  1  0  0  0
  4  5  1  0  0  0
  4 89  1  0  0  0
  4 90  1  0  0  0
  5  6  1  0  0  0
  5 26  1  0  0  0
  5 91  1  0  0  0
  6 25  1  0  0  0
  6 92  1  0  0  0
  6 93  1  0  0  0
  7  8  2  0  0  0
  7 26  1  0  0  0
  7 29  1  0  0  0
  8  9  1  0  0  0
  8 22  1  0  0  0
  9 10  1  0  0  0
  9 27  2  0  0  0
 10 11  2  0  0  0
 10 15  1  0  0  0
 11 12  1  0  0  0
 11 94  1  0  0  0
 12 13  2  0  0  0
 12 95  1  0  0  0
 13 14  1  0  0  0
 13 31  1  0  0  0
 14 15  2  0  0  0
 14 96  1  0  0  0
 15 97  1  0  0  0
 16 17  2  0  0  0
 16 21  1  0  0  0
 16 31  1  0  0  0
 17 18  1  0  0  0
 17 98  1  0  0  0
 18 19  2  0  0  0
 18 99  1  0  0  0
 19 20  1  0  0  0
 19 24  1  0  0  0
 20 21  2  0  0  0
 20100  1  0  0  0
 21 23  1  0  0  0
 22 28  1  0  0  0
 22 32  2  0  0  0
 26 27  1  0  0  0
 28101  1  0  0  0
 28102  1  0  0  0
 29103  1  0  0  0
 29104  1  0  0  0
 33 34  1  0  0  0
 33 66  1  0  0  0
 33 70  2  0  0  0
 34 36  1  0  0  0
 34 59  1  0  0  0
 34105  1  0  0  0
 35 44  2  0  0  0
 35 45  1  0  0  0
 35 68  1  0  0  0
 36 56  1  0  0  0
 36106  1  0  0  0
 37 39  1  0  0  0
 37 47  1  0  0  0
 37 66  1  0  0  0
 37107  1  0  0  0
 38 43  2  0  0  0
 38 46  1  0  0  0
 38 47  1  0  0  0
 39 64  1  0  0  0
 39 67  2  0  0  0
 40 52  1  0  0  0
 40 53  2  0  0  0
 40 58  1  0  0  0
 41108  1  0  0  0
 41109  1  0  0  0
 41110  1  0  0  0
 41 48  1  0  0  0
 42 43  1  0  0  0
 42 66  1  0  0  0
 42111  1  0  0  0
 42112  1  0  0  0
 43 44  1  0  0  0
 44113  1  0  0  0
 45 46  2  0  0  0
 45114  1  0  0  0
 46115  1  0  0  0
 47116  1  0  0  0
 47117  1  0  0  0
 48 56  1  0  0  0
 48 65  1  0  0  0
 48118  1  0  0  0
 49 50  1  0  0  0
 49 53  1  0  0  0
 49 64  1  0  0  0
 49119  1  0  0  0
 50 51  1  0  0  0
 50120  1  0  0  0
 50121  1  0  0  0
 51 52  1  0  0  0
 51122  1  0  0  0
 51123  1  0  0  0
 52124  1  0  0  0
 52125  1  0  0  0
 53 54  1  0  0  0
 54 55  2  0  0  0
 54126  1  0  0  0
 55 57  1  0  0  0
 55127  1  0  0  0
 56 69  2  0  0  0
 57 58  2  0  0  0
 57128  1  0  0  0
 58129  1  0  0  0
 59 60  1  0  0  0
 59 61  1  0  0  0
 59 62  1  0  0  0
 60130  1  0  0  0
 60131  1  0  0  0
 60132  1  0  0  0
 61133  1  0  0  0
 61134  1  0  0  0
 61135  1  0  0  0
 62136  1  0  0  0
 62137  1  0  0  0
 62138  1  0  0  0
 63 65  1  0  0  0
 63139  1  0  0  0
 63140  1  0  0  0
 63141  1  0  0  0
 64142  1  0  0  0
 65143  1  0  0  0
 68 79  1  0  0  0
 71 72  2  0  0  0
 71 74  1  0  0  0
 71144  1  0  0  0
 72 75  1  0  0  0
 72145  1  0  0  0
 73 75  2  0  0  0
 73 76  1  0  0  0
 73146  1  0  0  0
 74 76  2  0  0  0
 74 81  1  0  0  0
 75 82  1  0  0  0
 76 84  1  0  0  0
 77 78  1  0  0  0
 77 79  2  0  0  0
 77 80  1  0  0  0
 78 81  1  0  0  0
 78 83  2  0  0  0
 79147  1  0  0  0
 80 81  1  0  0  0
 80148  1  0  0  0
 80149  1  0  0  0
 82150  1  0  0  0
M  ISO  4   1 100  68 101  79 101  82 100
M  END
> <chiral flag>
0

> <version>
0

> <s_m_source_file>
/data/baiqing/PycharmProjects/Reinvent-master-3.2/result/LINK_invent/BTK/process_docking_weight1_custom_product_contain_oxygen_bond_distance_aromatic_linkinvent_7_9_3/rearranged_h_0084.sdf

> <i_m_source_file_index>
41

> <r_mmod_Potential_Energy-OPLS-2005>
227.970703125

> <r_mmod_Stretch_Energy-OPLS-2005>
107.681640625

> <r_mmod_Bend_Energy-OPLS-2005>
270.576690673828

> <r_mmod_Torsional_Energy-OPLS-2005>
220.03254699707

> <r_mmod_Improper_Torsional_Energy-OPLS-2005>
3.48363852500916

> <r_mmod_Van_der_Waal_Energy-OPLS-2005>
134.12727355957

> <r_mmod_Electrostatic_Energy-OPLS-2005>
-381.995819091797

> <r_mmod_Solvation_Energy-OPLS-2005>
-213.960922241211

> <b_mmod_Minimization_Converged-OPLS-2005>
0

> <r_mmod_RMS_Derivative-OPLS-2005>
0.390327841043472

$$$$
41
                    3D
 Structure written by MMmdl.
158167  0  0  1  0            999 V2000
  -30.7367  -14.3981   20.6901 C   0  0  0  0  0  0
  -30.4253  -12.3116   19.3876 C   0  0  0  0  0  0
  -29.4835  -12.5331   18.1886 C   0  0  0  0  0  0
  -28.0089  -12.3814   18.6102 C   0  0  0  0  0  0
  -27.6681  -13.2001   19.8835 C   0  0  2  0  0  0
  -28.7113  -12.9343   20.9933 C   0  0  0  0  0  0
  -25.2632  -13.8154   20.5688 C   0  0  0  0  0  0
  -24.1864  -13.0441   20.9164 C   0  0  0  0  0  0
  -24.6404  -11.6902   20.8728 C   0  0  0  0  0  0
  -23.9063  -10.4292   21.0403 C   0  0  0  0  0  0
  -24.3616   -9.4208   21.9182 C   0  0  0  0  0  0
  -23.6292   -8.2243   22.0754 C   0  0  0  0  0  0
  -22.4275   -8.0282   21.3543 C   0  0  0  0  0  0
  -21.9909   -9.0256   20.4643 C   0  0  0  0  0  0
  -22.7236  -10.2136   20.3052 C   0  0  0  0  0  0
  -21.6851   -6.0737   22.5279 C   0  0  0  0  0  0
  -21.4014   -6.5640   23.8213 C   0  0  0  0  0  0
  -21.3658   -5.6793   24.9175 C   0  0  0  0  0  0
  -21.6043   -4.3056   24.7224 C   0  0  0  0  0  0
  -21.8822   -3.8147   23.4346 C   0  0  0  0  0  0
  -21.9193   -4.6964   22.3401 C   0  0  0  0  0  0
  -22.7887  -13.5245   21.1830 C   0  0  0  0  0  0
  -22.1663   -4.2152   21.0978 F   0  0  0  0  0  0
  -21.5629   -3.4539   25.7737 F   0  0  0  0  0  0
  -30.0426  -13.2526   20.4511 N   0  0  0  0  0  0
  -26.3066  -12.9309   20.3410 N   0  0  0  0  0  0
  -25.9334  -11.6474   20.5774 N   0  0  0  0  0  0
  -22.0517  -12.8240   22.0381 N   0  0  0  0  0  0
  -25.4404  -15.1871   20.4105 N   0  0  0  0  0  0
  -31.7559  -14.6926   20.0561 O   0  0  0  0  0  0
  -21.6638   -6.8881   21.4242 O   0  0  0  0  0  0
  -22.3576  -14.5557   20.6685 O   0  0  0  0  0  0
  -24.6133  -31.8684   23.2108 C   0  0  0  0  0  0
  -25.9033  -32.4823   23.8398 C   0  0  1  0  0  0
  -27.2413  -27.4452   20.0737 C   0  0  0  0  0  0
  -25.5895  -33.8623   24.2328 N   0  0  0  0  0  0
  -23.4007  -30.4916   21.5512 C   0  0  2  0  0  0
  -24.8462  -28.9552   20.1165 C   0  0  0  0  0  0
  -22.7398  -29.4660   22.4997 C   0  0  0  0  0  0
  -18.0268  -28.1375   22.8496 C   0  0  0  0  0  0
  -24.1488  -36.7317   23.2638 C   0  0  0  0  0  0
  -25.9289  -30.8313   21.3657 C   0  0  0  0  0  0
  -26.0042  -29.4646   20.7157 C   0  0  0  0  0  0
  -27.1986  -28.7103   20.7033 C   0  0  0  0  0  0
  -26.0580  -26.9407   19.4862 C   0  0  0  0  0  0
  -24.8660  -27.6892   19.5064 C   0  0  0  0  0  0
  -23.6086  -29.8223   20.1661 C   0  0  0  0  0  0
  -25.4108  -36.3113   24.0337 C   0  0  1  0  0  0
  -20.5858  -28.3661   23.1324 C   0  0  2  0  0  0
  -20.6759  -26.9399   22.5419 C   0  0  0  0  0  0
  -19.5740  -26.6384   21.5212 C   0  0  0  0  0  0
  -18.1917  -26.7923   22.1620 C   0  0  0  0  0  0
  -19.1517  -28.8834   23.2906 C   0  0  0  0  0  0
  -18.9447  -30.1442   23.8912 C   0  0  0  0  0  0
  -17.6451  -30.6584   24.0565 C   0  0  0  0  0  0
  -25.9035  -34.9478   23.5130 C   0  0  0  0  0  0
  -16.5341  -29.9088   23.6324 C   0  0  0  0  0  0
  -16.7259  -28.6503   23.0348 C   0  0  0  0  0  0
  -26.4466  -31.6601   25.0724 C   0  0  0  0  0  0
  -25.3734  -31.3701   26.1471 C   0  0  0  0  0  0
  -27.0298  -30.3046   24.6098 C   0  0  0  0  0  0
  -27.6041  -32.4318   25.7486 C   0  0  0  0  0  0
  -27.5583  -37.1810   24.8463 C   0  0  0  0  0  0
  -21.4128  -29.3032   22.3734 N   0  0  0  0  0  0
  -26.4294  -37.3796   23.9410 N   0  0  0  0  0  0
  -24.6657  -31.0785   22.1008 N   0  0  0  0  0  0
  -23.4172  -28.8200   23.3036 O   0  0  0  0  0  0
  -28.4333  -26.7477   20.0711 O   0  0  0  0  0  0
  -26.5599  -34.8926   22.4692 O   0  0  0  0  0  0
  -23.5327  -32.1437   23.7504 O   0  0  0  0  0  0
  -28.2277  -20.0062   19.2267 C   0  0  0  0  0  0
  -28.3168  -21.4130   19.0711 C   0  0  0  0  0  0
  -30.3078  -21.4894   20.5089 C   0  0  0  0  0  0
  -29.1952  -19.3738   20.0305 C   0  0  0  0  0  0
  -30.1952  -20.0897   20.6509 C   0  0  0  0  0  0
  -29.3508  -22.1692   19.7084 C   0  0  0  0  0  0
  -30.9857  -19.1205   21.4072 C   0  0  0  0  0  0
  -29.3629  -17.9327   20.3606 C   0  0  0  0  0  0
  -28.5382  -24.3521   19.3928 C   0  0  0  0  0  0
  -31.0365  -16.6833   21.8170 C   0  0  0  0  0  0
  -28.7016  -25.8217   19.0075 C   0  0  0  0  0  0
  -30.2695  -15.3612   21.8057 C   0  0  0  0  0  0
  -29.5277  -23.5515   19.5152 N   0  0  0  0  0  0
  -30.5245  -17.8354   21.2369 N   0  0  0  0  0  0
  -31.9891  -19.5071   22.2190 N   0  3  0  0  0  0
  -32.2290  -16.6364   22.4879 N   0  3  0  0  0  0
  -28.6577  -16.9991   19.9471 O   0  0  0  0  0  0
  -31.4655  -12.4297   19.0784 H   0  0  0  0  0  0
  -30.3419  -11.2862   19.7526 H   0  0  0  0  0  0
  -29.7179  -11.8289   17.3896 H   0  0  0  0  0  0
  -29.6459  -13.5298   17.7752 H   0  0  0  0  0  0
  -27.8201  -11.3224   18.7900 H   0  0  0  0  0  0
  -27.3521  -12.6719   17.7895 H   0  0  0  0  0  0
  -27.7264  -14.2547   19.6137 H   0  0  0  0  0  0
  -28.6849  -11.8828   21.2844 H   0  0  0  0  0  0
  -28.4618  -13.4819   21.9005 H   0  0  0  0  0  0
  -25.2763   -9.5681   22.4753 H   0  0  0  0  0  0
  -24.0001   -7.4634   22.7475 H   0  0  0  0  0  0
  -21.0841   -8.8776   19.8948 H   0  0  0  0  0  0
  -22.3699  -10.9676   19.6159 H   0  0  0  0  0  0
  -21.2004   -7.6149   23.9716 H   0  0  0  0  0  0
  -21.1480   -6.0523   25.9078 H   0  0  0  0  0  0
  -22.0600   -2.7610   23.2845 H   0  0  0  0  0  0
  -22.4121  -11.9892   22.4764 H   0  0  0  0  0  0
  -21.1134  -13.1268   22.2581 H   0  0  0  0  0  0
  -24.6763  -15.8460   20.5134 H   0  0  0  0  0  0
  -26.3004  -15.6224   20.0977 H   0  0  0  0  0  0
  -26.7106  -32.5538   23.1163 H   0  0  0  0  0  0
  -25.0046  -33.9793   25.0472 H   0  0  0  0  0  0
  -22.6893  -31.3081   21.4118 H   0  0  0  0  0  0
  -23.3748  -35.9652   23.3303 H   0  0  0  0  0  0
  -24.3582  -36.8931   22.2052 H   0  0  0  0  0  0
  -23.7242  -37.6523   23.6651 H   0  0  0  0  0  0
  -26.0420  -31.5956   20.5956 H   0  0  0  0  0  0
  -26.8170  -30.8854   21.9836 H   0  0  0  0  0  0
  -28.0943  -29.1035   21.1638 H   0  0  0  0  0  0
  -26.0350  -25.9693   19.0151 H   0  0  0  0  0  0
  -23.9722  -27.2868   19.0494 H   0  0  0  0  0  0
  -23.7165  -30.5963   19.4055 H   0  0  0  0  0  0
  -22.7327  -29.2415   19.8715 H   0  0  0  0  0  0
  -25.1283  -36.1981   25.0830 H   0  0  0  0  0  0
  -20.9947  -28.3224   24.1445 H   0  0  0  0  0  0
  -20.5665  -26.2265   23.3602 H   0  0  0  0  0  0
  -21.6630  -26.7446   22.1212 H   0  0  0  0  0  0
  -19.6903  -25.6299   21.1233 H   0  0  0  0  0  0
  -19.6684  -27.3202   20.6749 H   0  0  0  0  0  0
  -17.4190  -26.6681   21.4017 H   0  0  0  0  0  0
  -18.0312  -26.0058   22.9009 H   0  0  0  0  0  0
  -19.7924  -30.7252   24.2288 H   0  0  0  0  0  0
  -17.5009  -31.6268   24.5162 H   0  0  0  0  0  0
  -15.5345  -30.2997   23.7640 H   0  0  0  0  0  0
  -15.8657  -28.0831   22.7052 H   0  0  0  0  0  0
  -24.5908  -30.7049   25.7805 H   0  0  0  0  0  0
  -24.8925  -32.2855   26.4928 H   0  0  0  0  0  0
  -25.8091  -30.8863   27.0222 H   0  0  0  0  0  0
  -26.2843  -29.6808   24.1152 H   0  0  0  0  0  0
  -27.4071  -29.7281   25.4556 H   0  0  0  0  0  0
  -27.8677  -30.4368   23.9246 H   0  0  0  0  0  0
  -27.2660  -33.3602   26.2099 H   0  0  0  0  0  0
  -28.3834  -32.6901   25.0304 H   0  0  0  0  0  0
  -28.0728  -31.8420   26.5375 H   0  0  0  0  0  0
  -28.2596  -38.0113   24.7525 H   0  0  0  0  0  0
  -28.1085  -36.2647   24.6270 H   0  0  0  0  0  0
  -27.2303  -37.1440   25.8866 H   0  0  0  0  0  0
  -20.9282  -29.8760   21.6966 H   0  0  0  0  0  0
  -26.0186  -38.2874   24.1413 H   0  0  0  0  0  0
  -27.4493  -19.4391   18.7347 H   0  0  0  0  0  0
  -27.5933  -21.8983   18.4312 H   0  0  0  0  0  0
  -31.1073  -22.0347   20.9917 H   0  0  0  0  0  0
  -27.5006  -24.0348   19.5290 H   0  0  0  0  0  0
  -28.1172  -26.0306   18.1106 H   0  0  0  0  0  0
  -29.7375  -25.9818   18.7068 H   0  0  0  0  0  0
  -29.1964  -15.5306   21.7762 H   0  0  0  0  0  0
  -30.4352  -14.8540   22.7567 H   0  0  0  0  0  0
  -32.2496  -20.4788   22.2441 H   0  0  0  0  0  0
  -32.2459  -18.9297   23.0030 H   0  0  0  0  0  0
  -32.5202  -15.7905   22.9635 H   0  0  0  0  0  0
  -32.9723  -17.3080   22.3386 H   0  0  0  0  0  0
  1 25  1  0  0  0
  1 30  2  0  0  0
  1 82  1  0  0  0
  2  3  1  0  0  0
  2 25  1  0  0  0
  2 88  1  0  0  0
  2 89  1  0  0  0
  3  4  1  0  0  0
  3 90  1  0  0  0
  3 91  1  0  0  0
  4  5  1  0  0  0
  4 92  1  0  0  0
  4 93  1  0  0  0
  5  6  1  0  0  0
  5 26  1  0  0  0
  5 94  1  0  0  0
  6 25  1  0  0  0
  6 95  1  0  0  0
  6 96  1  0  0  0
  7  8  2  0  0  0
  7 26  1  0  0  0
  7 29  1  0  0  0
  8  9  1  0  0  0
  8 22  1  0  0  0
  9 10  1  0  0  0
  9 27  2  0  0  0
 10 11  2  0  0  0
 10 15  1  0  0  0
 11 12  1  0  0  0
 11 97  1  0  0  0
 12 13  2  0  0  0
 12 98  1  0  0  0
 13 14  1  0  0  0
 13 31  1  0  0  0
 14 15  2  0  0  0
 14 99  1  0  0  0
 15100  1  0  0  0
 16 17  2  0  0  0
 16 21  1  0  0  0
 16 31  1  0  0  0
 17 18  1  0  0  0
 17101  1  0  0  0
 18 19  2  0  0  0
 18102  1  0  0  0
 19 20  1  0  0  0
 19 24  1  0  0  0
 20 21  2  0  0  0
 20103  1  0  0  0
 21 23  1  0  0  0
 22 28  1  0  0  0
 22 32  2  0  0  0
 26 27  1  0  0  0
 28104  1  0  0  0
 28105  1  0  0  0
 29106  1  0  0  0
 29107  1  0  0  0
 33 34  1  0  0  0
 33 66  1  0  0  0
 33 70  2  0  0  0
 34 36  1  0  0  0
 34 59  1  0  0  0
 34108  1  0  0  0
 35 44  2  0  0  0
 35 45  1  0  0  0
 35 68  1  0  0  0
 36 56  1  0  0  0
 36109  1  0  0  0
 37 39  1  0  0  0
 37 47  1  0  0  0
 37 66  1  0  0  0
 37110  1  0  0  0
 38 43  2  0  0  0
 38 46  1  0  0  0
 38 47  1  0  0  0
 39 64  1  0  0  0
 39 67  2  0  0  0
 40 52  1  0  0  0
 40 53  2  0  0  0
 40 58  1  0  0  0
 41111  1  0  0  0
 41112  1  0  0  0
 41113  1  0  0  0
 41 48  1  0  0  0
 42 43  1  0  0  0
 42 66  1  0  0  0
 42114  1  0  0  0
 42115  1  0  0  0
 43 44  1  0  0  0
 44116  1  0  0  0
 45 46  2  0  0  0
 45117  1  0  0  0
 46118  1  0  0  0
 47119  1  0  0  0
 47120  1  0  0  0
 48 56  1  0  0  0
 48 65  1  0  0  0
 48121  1  0  0  0
 49 50  1  0  0  0
 49 53  1  0  0  0
 49 64  1  0  0  0
 49122  1  0  0  0
 50 51  1  0  0  0
 50123  1  0  0  0
 50124  1  0  0  0
 51 52  1  0  0  0
 51125  1  0  0  0
 51126  1  0  0  0
 52127  1  0  0  0
 52128  1  0  0  0
 53 54  1  0  0  0
 54 55  2  0  0  0
 54129  1  0  0  0
 55 57  1  0  0  0
 55130  1  0  0  0
 56 69  2  0  0  0
 57 58  2  0  0  0
 57131  1  0  0  0
 58132  1  0  0  0
 59 60  1  0  0  0
 59 61  1  0  0  0
 59 62  1  0  0  0
 60133  1  0  0  0
 60134  1  0  0  0
 60135  1  0  0  0
 61136  1  0  0  0
 61137  1  0  0  0
 61138  1  0  0  0
 62139  1  0  0  0
 62140  1  0  0  0
 62141  1  0  0  0
 63 65  1  0  0  0
 63142  1  0  0  0
 63143  1  0  0  0
 63144  1  0  0  0
 64145  1  0  0  0
 65146  1  0  0  0
 68 81  1  0  0  0
 71 72  2  0  0  0
 71 74  1  0  0  0
 71147  1  0  0  0
 72 76  1  0  0  0
 72148  1  0  0  0
 73 75  1  0  0  0
 73 76  2  0  0  0
 73149  1  0  0  0
 74 75  2  0  0  0
 74 78  1  0  0  0
 75 77  1  0  0  0
 76 83  1  0  0  0
 77 84  1  0  0  0
 77 85  2  0  0  0
 78 84  1  0  0  0
 78 87  2  0  0  0
 79 81  1  0  0  0
 79 83  2  0  0  0
 79150  1  0  0  0
 80 82  1  0  0  0
 80 84  1  0  0  0
 80 86  2  0  0  0
 81151  1  0  0  0
 81152  1  0  0  0
 82153  1  0  0  0
 82154  1  0  0  0
 85155  1  0  0  0
 85156  1  0  0  0
 86157  1  0  0  0
 86158  1  0  0  0
M  CHG  2  85   1  86   1
M  ISO  4   1 100  68 101  81 101  82 100
M  END
> <chiral flag>
0

> <version>
0

> <s_m_source_file>
/data/baiqing/PycharmProjects/Reinvent-master-3.2/result/LINK_invent/BTK/process_docking_weight1_custom_product_contain_oxygen_bond_distance_aromatic_linkinvent_7_9_3/rearranged_h_0084.sdf

> <i_m_source_file_index>
42

> <r_mmod_Potential_Energy-OPLS-2005>
-64.1686019897461

> <r_mmod_Stretch_Energy-OPLS-2005>
51.254207611084

> <r_mmod_Bend_Energy-OPLS-2005>
208.620452880859

> <r_mmod_Torsional_Energy-OPLS-2005>
193.160537719727

> <r_mmod_Improper_Torsional_Energy-OPLS-2005>
4.1868691444397

> <r_mmod_Van_der_Waal_Energy-OPLS-2005>
159.057281494141

> <r_mmod_Electrostatic_Energy-OPLS-2005>
320.893798828125

> <r_mmod_Solvation_Energy-OPLS-2005>
-1009.88623046875

> <b_mmod_Minimization_Converged-OPLS-2005>
0

> <r_mmod_RMS_Derivative-OPLS-2005>
0.446526736021042

$$$$
42
                    3D
 Structure written by MMmdl.
151159  0  0  1  0            999 V2000
  -30.6998  -14.5291   20.5356 C   0  0  0  0  0  0
  -30.4199  -12.3306   19.4404 C   0  0  0  0  0  0
  -29.4967  -12.4938   18.2154 C   0  0  0  0  0  0
  -28.0192  -12.3503   18.6294 C   0  0  0  0  0  0
  -27.6559  -13.2141   19.8671 C   0  0  2  0  0  0
  -28.7000  -13.0482   20.9953 C   0  0  0  0  0  0
  -25.2567  -13.8175   20.5682 C   0  0  0  0  0  0
  -24.1830  -13.0444   20.9187 C   0  0  0  0  0  0
  -24.6395  -11.6913   20.8744 C   0  0  0  0  0  0
  -23.9064  -10.4294   21.0408 C   0  0  0  0  0  0
  -24.3614   -9.4208   21.9185 C   0  0  0  0  0  0
  -23.6289   -8.2243   22.0756 C   0  0  0  0  0  0
  -22.4272   -8.0281   21.3544 C   0  0  0  0  0  0
  -21.9907   -9.0255   20.4648 C   0  0  0  0  0  0
  -22.7236  -10.2135   20.3058 C   0  0  0  0  0  0
  -21.6854   -6.0734   22.5277 C   0  0  0  0  0  0
  -21.4014   -6.5639   23.8210 C   0  0  0  0  0  0
  -21.3658   -5.6791   24.9172 C   0  0  0  0  0  0
  -21.6044   -4.3054   24.7223 C   0  0  0  0  0  0
  -21.8819   -3.8145   23.4345 C   0  0  0  0  0  0
  -21.9191   -4.6960   22.3402 C   0  0  0  0  0  0
  -22.7851  -13.5235   21.1843 C   0  0  0  0  0  0
  -22.1661   -4.2146   21.0980 F   0  0  0  0  0  0
  -21.5628   -3.4539   25.7738 F   0  0  0  0  0  0
  -30.0244  -13.3484   20.4308 N   0  0  0  0  0  0
  -26.3001  -12.9356   20.3344 N   0  0  0  0  0  0
  -25.9324  -11.6512   20.5774 N   0  0  0  0  0  0
  -22.0494  -12.8228   22.0402 N   0  0  0  0  0  0
  -25.4285  -15.1893   20.4082 N   0  0  0  0  0  0
  -31.8484  -14.6492   20.1036 O   0  0  0  0  0  0
  -21.6639   -6.8877   21.4240 O   0  0  0  0  0  0
  -22.3535  -14.5539   20.6692 O   0  0  0  0  0  0
  -24.6189  -31.8653   23.2094 C   0  0  0  0  0  0
  -25.9062  -32.4814   23.8395 C   0  0  1  0  0  0
  -27.2254  -27.4007   20.1044 C   0  0  0  0  0  0
  -25.5903  -33.8613   24.2321 N   0  0  0  0  0  0
  -23.4094  -30.4905   21.5500 C   0  0  2  0  0  0
  -24.8574  -28.9608   20.1077 C   0  0  0  0  0  0
  -22.7439  -29.4647   22.4967 C   0  0  0  0  0  0
  -18.0277  -28.1387   22.8488 C   0  0  0  0  0  0
  -24.1484  -36.7311   23.2640 C   0  0  0  0  0  0
  -25.9432  -30.8217   21.3694 C   0  0  0  0  0  0
  -26.0215  -29.4567   20.7107 C   0  0  0  0  0  0
  -27.2123  -28.6844   20.7074 C   0  0  0  0  0  0
  -26.0485  -26.9414   19.4719 C   0  0  0  0  0  0
  -24.8676  -27.7041   19.4816 C   0  0  0  0  0  0
  -23.6198  -29.8292   20.1627 C   0  0  0  0  0  0
  -25.4108  -36.3109   24.0338 C   0  0  1  0  0  0
  -20.5870  -28.3680   23.1302 C   0  0  2  0  0  0
  -20.6766  -26.9411   22.5417 C   0  0  0  0  0  0
  -19.5744  -26.6390   21.5215 C   0  0  0  0  0  0
  -18.1922  -26.7930   22.1624 C   0  0  0  0  0  0
  -19.1527  -28.8851   23.2889 C   0  0  0  0  0  0
  -18.9459  -30.1453   23.8905 C   0  0  0  0  0  0
  -17.6460  -30.6590   24.0568 C   0  0  0  0  0  0
  -25.9037  -34.9473   23.5127 C   0  0  0  0  0  0
  -16.5350  -29.9095   23.6327 C   0  0  0  0  0  0
  -16.7265  -28.6511   23.0348 C   0  0  0  0  0  0
  -26.4476  -31.6603   25.0734 C   0  0  0  0  0  0
  -25.3735  -31.3722   26.1481 C   0  0  0  0  0  0
  -27.0310  -30.3037   24.6139 C   0  0  0  0  0  0
  -27.6051  -32.4329   25.7492 C   0  0  0  0  0  0
  -27.5582  -37.1810   24.8466 C   0  0  0  0  0  0
  -21.4163  -29.3038   22.3706 N   0  0  0  0  0  0
  -26.4293  -37.3794   23.9413 N   0  0  0  0  0  0
  -24.6754  -31.0730   22.1011 N   0  0  0  0  0  0
  -23.4189  -28.8181   23.3020 O   0  0  0  0  0  0
  -28.3209  -26.5526   20.1647 O   0  0  0  0  0  0
  -26.5603  -34.8927   22.4691 O   0  0  0  0  0  0
  -23.5371  -32.1419   23.7464 O   0  0  0  0  0  0
  -32.0504  -18.7731   21.2200 C   0  0  0  0  0  0
  -31.0542  -19.7666   21.1725 C   0  0  0  0  0  0
  -31.7109  -17.4083   21.1505 C   0  0  0  0  0  0
  -29.3668  -18.0176   20.9709 C   0  0  0  0  0  0
  -29.6935  -19.4090   21.0479 C   0  0  0  0  0  0
  -30.3624  -16.9976   21.0114 C   0  0  0  0  0  0
  -28.6825  -24.1200   20.4187 C   0  0  0  0  0  0
  -28.0360  -25.2898   20.6760 C   0  0  0  0  0  0
  -28.6024  -20.4684   21.1232 C   0  0  0  0  0  0
  -28.1499  -22.8685   20.9909 C   0  0  0  0  0  0
  -29.9811  -15.6013   20.9640 N   0  0  0  0  0  0
  -28.9146  -21.7570   20.7995 N   0  0  0  0  0  0
  -27.4722  -20.0949   21.4595 O   0  0  0  0  0  0
  -27.0725  -22.8401   21.5993 O   0  0  0  0  0  0
  -31.4652  -12.4170   19.1387 H   0  0  0  0  0  0
  -30.3182  -11.3323   19.8688 H   0  0  0  0  0  0
  -29.7443  -11.7516   17.4554 H   0  0  0  0  0  0
  -29.6582  -13.4699   17.7552 H   0  0  0  0  0  0
  -27.8413  -11.2971   18.8503 H   0  0  0  0  0  0
  -27.3662  -12.5981   17.7917 H   0  0  0  0  0  0
  -27.6841  -14.2531   19.5383 H   0  0  0  0  0  0
  -28.6870  -12.0285   21.3828 H   0  0  0  0  0  0
  -28.4621  -13.6904   21.8445 H   0  0  0  0  0  0
  -25.2762   -9.5680   22.4758 H   0  0  0  0  0  0
  -23.9996   -7.4635   22.7479 H   0  0  0  0  0  0
  -21.0836   -8.8774   19.8956 H   0  0  0  0  0  0
  -22.3695  -10.9672   19.6165 H   0  0  0  0  0  0
  -21.2011   -7.6148   23.9711 H   0  0  0  0  0  0
  -21.1480   -6.0525   25.9074 H   0  0  0  0  0  0
  -22.0601   -2.7608   23.2848 H   0  0  0  0  0  0
  -22.4106  -11.9888   22.4789 H   0  0  0  0  0  0
  -21.1116  -13.1258   22.2619 H   0  0  0  0  0  0
  -24.6613  -15.8443   20.5146 H   0  0  0  0  0  0
  -26.2753  -15.6259   20.0668 H   0  0  0  0  0  0
  -26.7132  -32.5519   23.1158 H   0  0  0  0  0  0
  -25.0049  -33.9767   25.0464 H   0  0  0  0  0  0
  -22.6997  -31.3087   21.4120 H   0  0  0  0  0  0
  -23.3740  -35.9648   23.3310 H   0  0  0  0  0  0
  -24.3576  -36.8921   22.2053 H   0  0  0  0  0  0
  -23.7241  -37.6524   23.6645 H   0  0  0  0  0  0
  -26.0626  -31.5891   20.6036 H   0  0  0  0  0  0
  -26.8278  -30.8715   21.9923 H   0  0  0  0  0  0
  -28.1045  -29.0505   21.1955 H   0  0  0  0  0  0
  -26.0363  -25.9710   18.9951 H   0  0  0  0  0  0
  -23.9751  -27.3175   19.0090 H   0  0  0  0  0  0
  -23.7306  -30.6074   19.4069 H   0  0  0  0  0  0
  -22.7423  -29.2528   19.8638 H   0  0  0  0  0  0
  -25.1281  -36.1976   25.0829 H   0  0  0  0  0  0
  -20.9959  -28.3255   24.1423 H   0  0  0  0  0  0
  -20.5681  -26.2290   23.3615 H   0  0  0  0  0  0
  -21.6638  -26.7457   22.1207 H   0  0  0  0  0  0
  -19.6911  -25.6307   21.1239 H   0  0  0  0  0  0
  -19.6685  -27.3205   20.6751 H   0  0  0  0  0  0
  -17.4196  -26.6682   21.4022 H   0  0  0  0  0  0
  -18.0313  -26.0072   22.9020 H   0  0  0  0  0  0
  -19.7937  -30.7260   24.2281 H   0  0  0  0  0  0
  -17.5018  -31.6268   24.5174 H   0  0  0  0  0  0
  -15.5351  -30.3002   23.7648 H   0  0  0  0  0  0
  -15.8661  -28.0836   22.7057 H   0  0  0  0  0  0
  -24.5912  -30.7061   25.7823 H   0  0  0  0  0  0
  -24.8925  -32.2883   26.4918 H   0  0  0  0  0  0
  -25.8087  -30.8910   27.0248 H   0  0  0  0  0  0
  -26.2867  -29.6797   24.1179 H   0  0  0  0  0  0
  -27.4045  -29.7278   25.4616 H   0  0  0  0  0  0
  -27.8713  -30.4341   23.9317 H   0  0  0  0  0  0
  -27.2666  -33.3617   26.2095 H   0  0  0  0  0  0
  -28.3839  -32.6914   25.0306 H   0  0  0  0  0  0
  -28.0737  -31.8444   26.5391 H   0  0  0  0  0  0
  -28.2611  -38.0095   24.7503 H   0  0  0  0  0  0
  -28.1066  -36.2630   24.6298 H   0  0  0  0  0  0
  -27.2299  -37.1467   25.8869 H   0  0  0  0  0  0
  -20.9332  -29.8774   21.6936 H   0  0  0  0  0  0
  -26.0185  -38.2874   24.1407 H   0  0  0  0  0  0
  -33.0871  -19.0595   21.3337 H   0  0  0  0  0  0
  -31.3511  -20.8017   21.2680 H   0  0  0  0  0  0
  -32.5135  -16.6894   21.2249 H   0  0  0  0  0  0
  -28.3264  -17.7318   20.8967 H   0  0  0  0  0  0
  -29.5545  -24.1133   19.7816 H   0  0  0  0  0  0
  -27.1737  -25.3184   21.3322 H   0  0  0  0  0  0
  -29.0185  -15.3952   21.1827 H   0  0  0  0  0  0
  -29.8253  -21.8975   20.3947 H   0  0  0  0  0  0
  1 25  1  0  0  0
  1 30  2  0  0  0
  1 81  1  0  0  0
  2  3  1  0  0  0
  2 25  1  0  0  0
  2 85  1  0  0  0
  2 86  1  0  0  0
  3  4  1  0  0  0
  3 87  1  0  0  0
  3 88  1  0  0  0
  4  5  1  0  0  0
  4 89  1  0  0  0
  4 90  1  0  0  0
  5  6  1  0  0  0
  5 26  1  0  0  0
  5 91  1  0  0  0
  6 25  1  0  0  0
  6 92  1  0  0  0
  6 93  1  0  0  0
  7  8  2  0  0  0
  7 26  1  0  0  0
  7 29  1  0  0  0
  8  9  1  0  0  0
  8 22  1  0  0  0
  9 10  1  0  0  0
  9 27  2  0  0  0
 10 11  2  0  0  0
 10 15  1  0  0  0
 11 12  1  0  0  0
 11 94  1  0  0  0
 12 13  2  0  0  0
 12 95  1  0  0  0
 13 14  1  0  0  0
 13 31  1  0  0  0
 14 15  2  0  0  0
 14 96  1  0  0  0
 15 97  1  0  0  0
 16 17  2  0  0  0
 16 21  1  0  0  0
 16 31  1  0  0  0
 17 18  1  0  0  0
 17 98  1  0  0  0
 18 19  2  0  0  0
 18 99  1  0  0  0
 19 20  1  0  0  0
 19 24  1  0  0  0
 20 21  2  0  0  0
 20100  1  0  0  0
 21 23  1  0  0  0
 22 28  1  0  0  0
 22 32  2  0  0  0
 26 27  1  0  0  0
 28101  1  0  0  0
 28102  1  0  0  0
 29103  1  0  0  0
 29104  1  0  0  0
 33 34  1  0  0  0
 33 66  1  0  0  0
 33 70  2  0  0  0
 34 36  1  0  0  0
 34 59  1  0  0  0
 34105  1  0  0  0
 35 44  2  0  0  0
 35 45  1  0  0  0
 35 68  1  0  0  0
 36 56  1  0  0  0
 36106  1  0  0  0
 37 39  1  0  0  0
 37 47  1  0  0  0
 37 66  1  0  0  0
 37107  1  0  0  0
 38 43  2  0  0  0
 38 46  1  0  0  0
 38 47  1  0  0  0
 39 64  1  0  0  0
 39 67  2  0  0  0
 40 52  1  0  0  0
 40 53  2  0  0  0
 40 58  1  0  0  0
 41108  1  0  0  0
 41109  1  0  0  0
 41110  1  0  0  0
 41 48  1  0  0  0
 42 43  1  0  0  0
 42 66  1  0  0  0
 42111  1  0  0  0
 42112  1  0  0  0
 43 44  1  0  0  0
 44113  1  0  0  0
 45 46  2  0  0  0
 45114  1  0  0  0
 46115  1  0  0  0
 47116  1  0  0  0
 47117  1  0  0  0
 48 56  1  0  0  0
 48 65  1  0  0  0
 48118  1  0  0  0
 49 50  1  0  0  0
 49 53  1  0  0  0
 49 64  1  0  0  0
 49119  1  0  0  0
 50 51  1  0  0  0
 50120  1  0  0  0
 50121  1  0  0  0
 51 52  1  0  0  0
 51122  1  0  0  0
 51123  1  0  0  0
 52124  1  0  0  0
 52125  1  0  0  0
 53 54  1  0  0  0
 54 55  2  0  0  0
 54126  1  0  0  0
 55 57  1  0  0  0
 55127  1  0  0  0
 56 69  2  0  0  0
 57 58  2  0  0  0
 57128  1  0  0  0
 58129  1  0  0  0
 59 60  1  0  0  0
 59 61  1  0  0  0
 59 62  1  0  0  0
 60130  1  0  0  0
 60131  1  0  0  0
 60132  1  0  0  0
 61133  1  0  0  0
 61134  1  0  0  0
 61135  1  0  0  0
 62136  1  0  0  0
 62137  1  0  0  0
 62138  1  0  0  0
 63 65  1  0  0  0
 63139  1  0  0  0
 63140  1  0  0  0
 63141  1  0  0  0
 64142  1  0  0  0
 65143  1  0  0  0
 68 78  1  0  0  0
 71 72  2  0  0  0
 71 73  1  0  0  0
 71144  1  0  0  0
 72 75  1  0  0  0
 72145  1  0  0  0
 73 76  2  0  0  0
 73146  1  0  0  0
 74 75  2  0  0  0
 74 76  1  0  0  0
 74147  1  0  0  0
 75 79  1  0  0  0
 76 81  1  0  0  0
 77 78  2  0  0  0
 77 80  1  0  0  0
 77148  1  0  0  0
 78149  1  0  0  0
 79 82  1  0  0  0
 79 83  2  0  0  0
 80 82  1  0  0  0
 80 84  2  0  0  0
 81150  1  0  0  0
 82151  1  0  0  0
M  ISO  4   1 100  68 101  78 101  81 100
M  END
> <chiral flag>
0

> <version>
0

> <s_m_source_file>
/data/baiqing/PycharmProjects/Reinvent-master-3.2/result/LINK_invent/BTK/process_docking_weight1_custom_product_contain_oxygen_bond_distance_aromatic_linkinvent_7_9_3/rearranged_h_0084.sdf

> <i_m_source_file_index>
43

> <r_mmod_Potential_Energy-OPLS-2005>
-161.249298095703

> <r_mmod_Stretch_Energy-OPLS-2005>
50.0151405334473

> <r_mmod_Bend_Energy-OPLS-2005>
105.001197814941

> <r_mmod_Torsional_Energy-OPLS-2005>
225.467010498047

> <r_mmod_Improper_Torsional_Energy-OPLS-2005>
4.86862850189209

> <r_mmod_Van_der_Waal_Energy-OPLS-2005>
171.109878540039

> <r_mmod_Electrostatic_Energy-OPLS-2005>
-482.067230224609

> <r_mmod_Solvation_Energy-OPLS-2005>
-260.986633300781

> <b_mmod_Minimization_Converged-OPLS-2005>
0

> <r_mmod_RMS_Derivative-OPLS-2005>
0.669173657894135

$$$$
43
                    3D
 Structure written by MMmdl.
150159  0  0  1  0            999 V2000
  -30.5681  -14.8785   20.3985 C   0  0  0  0  0  0
  -30.4287  -12.5361   19.4919 C   0  0  0  0  0  0
  -29.5139  -12.5226   18.2462 C   0  0  0  0  0  0
  -28.0436  -12.3271   18.6574 C   0  0  0  0  0  0
  -27.6300  -13.2459   19.8376 C   0  0  2  0  0  0
  -28.6708  -13.2520   20.9771 C   0  0  0  0  0  0
  -25.2489  -13.8231   20.5725 C   0  0  0  0  0  0
  -24.1791  -13.0459   20.9224 C   0  0  0  0  0  0
  -24.6401  -11.6938   20.8770 C   0  0  0  0  0  0
  -23.9086  -10.4313   21.0428 C   0  0  0  0  0  0
  -24.3649   -9.4216   21.9188 C   0  0  0  0  0  0
  -23.6316   -8.2250   22.0743 C   0  0  0  0  0  0
  -22.4291   -8.0300   21.3540 C   0  0  0  0  0  0
  -21.9943   -9.0275   20.4638 C   0  0  0  0  0  0
  -22.7274  -10.2149   20.3063 C   0  0  0  0  0  0
  -21.6859   -6.0753   22.5284 C   0  0  0  0  0  0
  -21.4017   -6.5651   23.8219 C   0  0  0  0  0  0
  -21.3654   -5.6798   24.9176 C   0  0  0  0  0  0
  -21.6045   -4.3061   24.7219 C   0  0  0  0  0  0
  -21.8820   -3.8155   23.4339 C   0  0  0  0  0  0
  -21.9197   -4.6980   22.3402 C   0  0  0  0  0  0
  -22.7818  -13.5228   21.1889 C   0  0  0  0  0  0
  -22.1665   -4.2171   21.0973 F   0  0  0  0  0  0
  -21.5618   -3.4537   25.7723 F   0  0  0  0  0  0
  -29.9574  -13.6315   20.3833 N   0  0  0  0  0  0
  -26.2890  -12.9448   20.3238 N   0  0  0  0  0  0
  -25.9327  -11.6577   20.5741 N   0  0  0  0  0  0
  -22.0463  -12.8204   22.0432 N   0  0  0  0  0  0
  -25.4202  -15.1957   20.4199 N   0  0  0  0  0  0
  -31.7745  -14.9153   20.1365 O   0  0  0  0  0  0
  -21.6643   -6.8904   21.4242 O   0  0  0  0  0  0
  -22.3496  -14.5534   20.6735 O   0  0  0  0  0  0
  -24.6385  -31.8492   23.1906 C   0  0  0  0  0  0
  -25.9174  -32.4714   23.8295 C   0  0  1  0  0  0
  -27.2111  -27.1860   20.1493 C   0  0  0  0  0  0
  -25.5943  -33.8521   24.2224 N   0  0  0  0  0  0
  -23.4395  -30.4726   21.5338 C   0  0  2  0  0  0
  -24.8923  -28.9099   20.1062 C   0  0  0  0  0  0
  -22.7546  -29.4582   22.4839 C   0  0  0  0  0  0
  -18.0304  -28.1392   22.8483 C   0  0  0  0  0  0
  -24.1496  -36.7283   23.2637 C   0  0  0  0  0  0
  -25.9935  -30.7393   21.3854 C   0  0  0  0  0  0
  -26.0665  -29.3539   20.7300 C   0  0  0  0  0  0
  -27.2318  -28.5060   20.7397 C   0  0  0  0  0  0
  -26.0197  -26.8340   19.4816 C   0  0  0  0  0  0
  -24.8796  -27.6620   19.4641 C   0  0  0  0  0  0
  -23.6653  -29.8050   20.1511 C   0  0  0  0  0  0
  -25.4116  -36.3054   24.0329 C   0  0  1  0  0  0
  -20.5913  -28.3719   23.1234 C   0  0  2  0  0  0
  -20.6794  -26.9423   22.5400 C   0  0  0  0  0  0
  -19.5762  -26.6375   21.5209 C   0  0  0  0  0  0
  -18.1943  -26.7928   22.1631 C   0  0  0  0  0  0
  -19.1563  -28.8865   23.2855 C   0  0  0  0  0  0
  -18.9476  -30.1457   23.8891 C   0  0  0  0  0  0
  -17.6472  -30.6583   24.0566 C   0  0  0  0  0  0
  -25.9055  -34.9423   23.5080 C   0  0  0  0  0  0
  -16.5365  -29.9092   23.6328 C   0  0  0  0  0  0
  -16.7287  -28.6512   23.0351 C   0  0  0  0  0  0
  -26.4518  -31.6544   25.0702 C   0  0  0  0  0  0
  -25.3714  -31.3735   26.1401 C   0  0  0  0  0  0
  -27.0361  -30.2935   24.6243 C   0  0  0  0  0  0
  -27.6069  -32.4283   25.7487 C   0  0  0  0  0  0
  -27.5585  -37.1795   24.8460 C   0  0  0  0  0  0
  -21.4238  -29.3064   22.3602 N   0  0  0  0  0  0
  -26.4288  -37.3759   23.9397 N   0  0  0  0  0  0
  -24.7102  -31.0396   22.0926 N   0  0  0  0  0  0
  -23.4214  -28.8118   23.2961 O   0  0  0  0  0  0
  -28.2435  -26.1967   20.1771 O   0  0  0  0  0  0
  -26.5644  -34.8916   22.4656 O   0  0  0  0  0  0
  -23.5513  -32.1356   23.7135 O   0  0  0  0  0  0
  -31.3814  -18.9816   18.6294 C   0  0  0  0  0  0
  -30.6771  -20.1288   19.0307 C   0  0  0  0  0  0
  -31.0793  -17.7074   19.1299 C   0  0  0  0  0  0
  -29.3345  -18.7531   20.4579 C   0  0  0  0  0  0
  -29.6074  -20.1341   19.9618 C   0  0  0  0  0  0
  -30.0594  -17.5054   20.0838 C   0  0  0  0  0  0
  -28.4307  -23.5553   20.3951 C   0  0  0  0  0  0
  -28.0335  -22.2399   20.9595 C   0  0  0  0  0  0
  -27.9214  -24.8539   20.6280 C   0  0  0  0  0  0
  -29.5073  -22.7999   19.5743 C   0  0  0  0  0  0
  -29.0171  -21.5247   20.2108 N   0  0  0  0  0  0
  -29.8036  -16.0682   20.5323 N   0  0  0  0  0  0
  -27.1784  -21.9578   21.7724 O   0  0  0  0  0  0
  -31.4654  -12.6732   19.1795 H   0  0  0  0  0  0
  -30.3973  -11.5783   20.0144 H   0  0  0  0  0  0
  -29.8190  -11.7321   17.5591 H   0  0  0  0  0  0
  -29.6206  -13.4635   17.7027 H   0  0  0  0  0  0
  -27.9186  -11.2814   18.9401 H   0  0  0  0  0  0
  -27.3869  -12.4886   17.8022 H   0  0  0  0  0  0
  -27.6003  -14.2553   19.4258 H   0  0  0  0  0  0
  -28.7329  -12.2750   21.4580 H   0  0  0  0  0  0
  -28.3820  -13.9621   21.7538 H   0  0  0  0  0  0
  -25.2800   -9.5676   22.4760 H   0  0  0  0  0  0
  -24.0017   -7.4635   22.7465 H   0  0  0  0  0  0
  -21.0875   -8.8818   19.8952 H   0  0  0  0  0  0
  -22.3754  -10.9696   19.6177 H   0  0  0  0  0  0
  -21.2012   -7.6162   23.9739 H   0  0  0  0  0  0
  -21.1470   -6.0518   25.9081 H   0  0  0  0  0  0
  -22.0606   -2.7618   23.2835 H   0  0  0  0  0  0
  -22.4083  -11.9849   22.4806 H   0  0  0  0  0  0
  -21.1086  -13.1230   22.2667 H   0  0  0  0  0  0
  -24.6637  -15.8587   20.5497 H   0  0  0  0  0  0
  -26.2722  -15.6312   20.0923 H   0  0  0  0  0  0
  -26.7241  -32.5362   23.1030 H   0  0  0  0  0  0
  -25.0081  -33.9635   25.0362 H   0  0  0  0  0  0
  -22.7404  -31.2979   21.3810 H   0  0  0  0  0  0
  -23.3763  -35.9612   23.3285 H   0  0  0  0  0  0
  -24.3593  -36.8912   22.2055 H   0  0  0  0  0  0
  -23.7241  -37.6477   23.6676 H   0  0  0  0  0  0
  -26.1410  -31.4964   20.6135 H   0  0  0  0  0  0
  -26.8676  -30.7932   22.0239 H   0  0  0  0  0  0
  -28.1267  -28.8388   21.2466 H   0  0  0  0  0  0
  -25.9586  -25.8748   18.9870 H   0  0  0  0  0  0
  -23.9877  -27.3251   18.9542 H   0  0  0  0  0  0
  -23.7964  -30.5826   19.3978 H   0  0  0  0  0  0
  -22.7837  -29.2420   19.8392 H   0  0  0  0  0  0
  -25.1287  -36.1912   25.0827 H   0  0  0  0  0  0
  -21.0020  -28.3329   24.1349 H   0  0  0  0  0  0
  -20.5675  -26.2345   23.3626 H   0  0  0  0  0  0
  -21.6661  -26.7426   22.1199 H   0  0  0  0  0  0
  -19.6937  -25.6278   21.1251 H   0  0  0  0  0  0
  -19.6694  -27.3184   20.6734 H   0  0  0  0  0  0
  -17.4206  -26.6661   21.4044 H   0  0  0  0  0  0
  -18.0363  -26.0060   22.9025 H   0  0  0  0  0  0
  -19.7942  -30.7268   24.2281 H   0  0  0  0  0  0
  -17.5022  -31.6260   24.5165 H   0  0  0  0  0  0
  -15.5362  -30.3000   23.7619 H   0  0  0  0  0  0
  -15.8695  -28.0813   22.7079 H   0  0  0  0  0  0
  -24.5894  -30.7082   25.7721 H   0  0  0  0  0  0
  -24.8919  -32.2934   26.4774 H   0  0  0  0  0  0
  -25.8006  -30.8938   27.0206 H   0  0  0  0  0  0
  -26.2966  -29.6670   24.1253 H   0  0  0  0  0  0
  -27.3986  -29.7207   25.4787 H   0  0  0  0  0  0
  -27.8874  -30.4152   23.9537 H   0  0  0  0  0  0
  -27.2672  -33.3586   26.2049 H   0  0  0  0  0  0
  -28.3908  -32.6818   25.0337 H   0  0  0  0  0  0
  -28.0718  -31.8412   26.5415 H   0  0  0  0  0  0
  -28.2579  -38.0111   24.7499 H   0  0  0  0  0  0
  -28.1096  -36.2638   24.6284 H   0  0  0  0  0  0
  -27.2301  -37.1426   25.8860 H   0  0  0  0  0  0
  -20.9432  -29.8812   21.6821 H   0  0  0  0  0  0
  -26.0176  -38.2837   24.1382 H   0  0  0  0  0  0
  -32.1729  -19.0848   17.9006 H   0  0  0  0  0  0
  -31.0014  -21.0461   18.5646 H   0  0  0  0  0  0
  -31.6543  -16.8849   18.7370 H   0  0  0  0  0  0
  -28.5254  -18.6497   21.1657 H   0  0  0  0  0  0
  -27.1059  -24.9220   21.3349 H   0  0  0  0  0  0
  -30.5481  -23.0094   19.8262 H   0  0  0  0  0  0
  -29.3760  -22.7846   18.4907 H   0  0  0  0  0  0
  -28.8732  -15.9045   20.8888 H   0  0  0  0  0  0
  1 25  1  0  0  0
  1 30  2  0  0  0
  1 82  1  0  0  0
  2  3  1  0  0  0
  2 25  1  0  0  0
  2 84  1  0  0  0
  2 85  1  0  0  0
  3  4  1  0  0  0
  3 86  1  0  0  0
  3 87  1  0  0  0
  4  5  1  0  0  0
  4 88  1  0  0  0
  4 89  1  0  0  0
  5  6  1  0  0  0
  5 26  1  0  0  0
  5 90  1  0  0  0
  6 25  1  0  0  0
  6 91  1  0  0  0
  6 92  1  0  0  0
  7  8  2  0  0  0
  7 26  1  0  0  0
  7 29  1  0  0  0
  8  9  1  0  0  0
  8 22  1  0  0  0
  9 10  1  0  0  0
  9 27  2  0  0  0
 10 11  2  0  0  0
 10 15  1  0  0  0
 11 12  1  0  0  0
 11 93  1  0  0  0
 12 13  2  0  0  0
 12 94  1  0  0  0
 13 14  1  0  0  0
 13 31  1  0  0  0
 14 15  2  0  0  0
 14 95  1  0  0  0
 15 96  1  0  0  0
 16 17  2  0  0  0
 16 21  1  0  0  0
 16 31  1  0  0  0
 17 18  1  0  0  0
 17 97  1  0  0  0
 18 19  2  0  0  0
 18 98  1  0  0  0
 19 20  1  0  0  0
 19 24  1  0  0  0
 20 21  2  0  0  0
 20 99  1  0  0  0
 21 23  1  0  0  0
 22 28  1  0  0  0
 22 32  2  0  0  0
 26 27  1  0  0  0
 28100  1  0  0  0
 28101  1  0  0  0
 29102  1  0  0  0
 29103  1  0  0  0
 33 34  1  0  0  0
 33 66  1  0  0  0
 33 70  2  0  0  0
 34 36  1  0  0  0
 34 59  1  0  0  0
 34104  1  0  0  0
 35 44  2  0  0  0
 35 45  1  0  0  0
 35 68  1  0  0  0
 36 56  1  0  0  0
 36105  1  0  0  0
 37 39  1  0  0  0
 37 47  1  0  0  0
 37 66  1  0  0  0
 37106  1  0  0  0
 38 43  2  0  0  0
 38 46  1  0  0  0
 38 47  1  0  0  0
 39 64  1  0  0  0
 39 67  2  0  0  0
 40 52  1  0  0  0
 40 53  2  0  0  0
 40 58  1  0  0  0
 41107  1  0  0  0
 41108  1  0  0  0
 41109  1  0  0  0
 41 48  1  0  0  0
 42 43  1  0  0  0
 42 66  1  0  0  0
 42110  1  0  0  0
 42111  1  0  0  0
 43 44  1  0  0  0
 44112  1  0  0  0
 45 46  2  0  0  0
 45113  1  0  0  0
 46114  1  0  0  0
 47115  1  0  0  0
 47116  1  0  0  0
 48 56  1  0  0  0
 48 65  1  0  0  0
 48117  1  0  0  0
 49 50  1  0  0  0
 49 53  1  0  0  0
 49 64  1  0  0  0
 49118  1  0  0  0
 50 51  1  0  0  0
 50119  1  0  0  0
 50120  1  0  0  0
 51 52  1  0  0  0
 51121  1  0  0  0
 51122  1  0  0  0
 52123  1  0  0  0
 52124  1  0  0  0
 53 54  1  0  0  0
 54 55  2  0  0  0
 54125  1  0  0  0
 55 57  1  0  0  0
 55126  1  0  0  0
 56 69  2  0  0  0
 57 58  2  0  0  0
 57127  1  0  0  0
 58128  1  0  0  0
 59 60  1  0  0  0
 59 61  1  0  0  0
 59 62  1  0  0  0
 60129  1  0  0  0
 60130  1  0  0  0
 60131  1  0  0  0
 61132  1  0  0  0
 61133  1  0  0  0
 61134  1  0  0  0
 62135  1  0  0  0
 62136  1  0  0  0
 62137  1  0  0  0
 63 65  1  0  0  0
 63138  1  0  0  0
 63139  1  0  0  0
 63140  1  0  0  0
 64141  1  0  0  0
 65142  1  0  0  0
 68 79  1  0  0  0
 71 72  2  0  0  0
 71 73  1  0  0  0
 71143  1  0  0  0
 72 75  1  0  0  0
 72144  1  0  0  0
 73 76  2  0  0  0
 73145  1  0  0  0
 74 75  2  0  0  0
 74 76  1  0  0  0
 74146  1  0  0  0
 75 81  1  0  0  0
 76 82  1  0  0  0
 77 78  1  0  0  0
 77 79  2  0  0  0
 77 80  1  0  0  0
 78 81  1  0  0  0
 78 83  2  0  0  0
 79147  1  0  0  0
 80 81  1  0  0  0
 80148  1  0  0  0
 80149  1  0  0  0
 82150  1  0  0  0
M  ISO  4   1 100  68 101  79 101  82 100
M  END
> <chiral flag>
0

> <version>
0

> <s_m_source_file>
/data/baiqing/PycharmProjects/Reinvent-master-3.2/result/LINK_invent/BTK/process_docking_weight1_custom_product_contain_oxygen_bond_distance_aromatic_linkinvent_7_9_3/rearranged_h_0084.sdf

> <i_m_source_file_index>
44

> <r_mmod_Potential_Energy-OPLS-2005>
425.725402832031

> <r_mmod_Stretch_Energy-OPLS-2005>
189.669448852539

> <r_mmod_Bend_Energy-OPLS-2005>
286.754455566406

> <r_mmod_Torsional_Energy-OPLS-2005>
228.405700683594

> <r_mmod_Improper_Torsional_Energy-OPLS-2005>
3.88542342185974

> <r_mmod_Van_der_Waal_Energy-OPLS-2005>
138.61311340332

> <r_mmod_Electrostatic_Energy-OPLS-2005>
-353.397705078125

> <r_mmod_Solvation_Energy-OPLS-2005>
-220.498596191406

> <b_mmod_Minimization_Converged-OPLS-2005>
0

> <r_mmod_RMS_Derivative-OPLS-2005>
2.75652432441711

$$$$
44
                    3D
 Structure written by MMmdl.
152161  0  0  1  0            999 V2000
  -30.5883  -14.7446   20.4519 C   0  0  0  0  0  0
  -30.4490  -12.4522   19.4598 C   0  0  0  0  0  0
  -29.5125  -12.5103   18.2309 C   0  0  0  0  0  0
  -28.0383  -12.3323   18.6488 C   0  0  0  0  0  0
  -27.6470  -13.2237   19.8575 C   0  0  2  0  0  0
  -28.7002  -13.1328   20.9852 C   0  0  0  0  0  0
  -25.2504  -13.8134   20.5765 C   0  0  0  0  0  0
  -24.1789  -13.0373   20.9199 C   0  0  0  0  0  0
  -24.6397  -11.6868   20.8734 C   0  0  0  0  0  0
  -23.9074  -10.4258   21.0394 C   0  0  0  0  0  0
  -24.3619   -9.4182   21.9180 C   0  0  0  0  0  0
  -23.6288   -8.2225   22.0754 C   0  0  0  0  0  0
  -22.4270   -8.0269   21.3544 C   0  0  0  0  0  0
  -21.9907   -9.0240   20.4644 C   0  0  0  0  0  0
  -22.7243  -10.2111   20.3047 C   0  0  0  0  0  0
  -21.6847   -6.0730   22.5280 C   0  0  0  0  0  0
  -21.4010   -6.5636   23.8213 C   0  0  0  0  0  0
  -21.3659   -5.6790   24.9177 C   0  0  0  0  0  0
  -21.6044   -4.3054   24.7228 C   0  0  0  0  0  0
  -21.8820   -3.8144   23.4349 C   0  0  0  0  0  0
  -21.9191   -4.6959   22.3405 C   0  0  0  0  0  0
  -22.7810  -13.5167   21.1862 C   0  0  0  0  0  0
  -22.1660   -4.2145   21.0982 F   0  0  0  0  0  0
  -21.5631   -3.4538   25.7741 F   0  0  0  0  0  0
  -30.0038  -13.4975   20.4058 N   0  0  0  0  0  0
  -26.2969  -12.9365   20.3347 N   0  0  0  0  0  0
  -25.9335  -11.6502   20.5761 N   0  0  0  0  0  0
  -22.0462  -12.8167   22.0430 N   0  0  0  0  0  0
  -25.4008  -15.1873   20.4363 N   0  0  0  0  0  0
  -31.7750  -14.8960   20.1471 O   0  0  0  0  0  0
  -21.6630   -6.8870   21.4242 O   0  0  0  0  0  0
  -22.3490  -14.5476   20.6716 O   0  0  0  0  0  0
  -24.6313  -31.8557   23.1999 C   0  0  0  0  0  0
  -25.9138  -32.4759   23.8343 C   0  0  1  0  0  0
  -27.2253  -27.2700   20.1256 C   0  0  0  0  0  0
  -25.5931  -33.8561   24.2261 N   0  0  0  0  0  0
  -23.4296  -30.4785   21.5424 C   0  0  2  0  0  0
  -24.8816  -28.9322   20.1061 C   0  0  0  0  0  0
  -22.7511  -29.4599   22.4906 C   0  0  0  0  0  0
  -18.0295  -28.1387   22.8484 C   0  0  0  0  0  0
  -24.1490  -36.7286   23.2640 C   0  0  0  0  0  0
  -25.9765  -30.7690   21.3835 C   0  0  0  0  0  0
  -26.0524  -29.3932   20.7238 C   0  0  0  0  0  0
  -27.2281  -28.5723   20.7299 C   0  0  0  0  0  0
  -26.0393  -26.8906   19.4565 C   0  0  0  0  0  0
  -24.8795  -27.6871   19.4611 C   0  0  0  0  0  0
  -23.6497  -29.8155   20.1576 C   0  0  0  0  0  0
  -25.4117  -36.3073   24.0326 C   0  0  1  0  0  0
  -20.5900  -28.3700   23.1264 C   0  0  2  0  0  0
  -20.6781  -26.9416   22.5407 C   0  0  0  0  0  0
  -19.5755  -26.6382   21.5212 C   0  0  0  0  0  0
  -18.1937  -26.7928   22.1626 C   0  0  0  0  0  0
  -19.1549  -28.8861   23.2868 C   0  0  0  0  0  0
  -18.9469  -30.1461   23.8888 C   0  0  0  0  0  0
  -17.6467  -30.6587   24.0561 C   0  0  0  0  0  0
  -25.9056  -34.9442   23.5096 C   0  0  0  0  0  0
  -16.5358  -29.9084   23.6332 C   0  0  0  0  0  0
  -16.7281  -28.6501   23.0354 C   0  0  0  0  0  0
  -26.4503  -31.6584   25.0733 C   0  0  0  0  0  0
  -25.3721  -31.3736   26.1448 C   0  0  0  0  0  0
  -27.0358  -30.2999   24.6231 C   0  0  0  0  0  0
  -27.6050  -32.4332   25.7509 C   0  0  0  0  0  0
  -27.5578  -37.1801   24.8467 C   0  0  0  0  0  0
  -21.4217  -29.3045   22.3651 N   0  0  0  0  0  0
  -26.4293  -37.3770   23.9405 N   0  0  0  0  0  0
  -24.6978  -31.0520   22.0980 N   0  0  0  0  0  0
  -23.4208  -28.8136   23.3006 O   0  0  0  0  0  0
  -28.2720  -26.3165   20.1933 O   0  0  0  0  0  0
  -26.5630  -34.8915   22.4666 O   0  0  0  0  0  0
  -23.5460  -32.1379   23.7288 O   0  0  0  0  0  0
  -30.5689  -19.6299   20.7935 C   0  0  0  0  0  0
  -30.7770  -18.1988   20.8140 C   0  0  0  0  0  0
  -28.3376  -19.3162   20.1036 C   0  0  0  0  0  0
  -29.3231  -20.2750   20.4855 C   0  0  0  0  0  0
  -29.7426  -17.2772   20.4818 C   0  0  0  0  0  0
  -28.5339  -17.8990   20.0750 C   0  0  0  0  0  0
  -28.4516  -23.7200   20.5002 C   0  0  0  0  0  0
  -27.8227  -22.4663   20.8985 C   0  0  0  0  0  0
  -27.8870  -24.9926   20.5694 C   0  0  0  0  0  0
  -29.7047  -22.9071   20.0598 C   0  0  0  0  0  0
  -28.9826  -21.7206   20.6142 N   0  0  0  0  0  0
  -27.5018  -17.0821   19.6145 N   0  0  0  0  0  0
  -29.7208  -15.8020   20.6363 N   0  0  0  0  0  0
  -26.6904  -22.2271   21.2647 O   0  0  0  0  0  0
  -31.4857  -12.5975   19.1508 H   0  0  0  0  0  0
  -30.4100  -11.4694   19.9318 H   0  0  0  0  0  0
  -29.7908  -11.7422   17.5080 H   0  0  0  0  0  0
  -29.6346  -13.4674   17.7211 H   0  0  0  0  0  0
  -27.8954  -11.2821   18.9059 H   0  0  0  0  0  0
  -27.3781  -12.5296   17.8035 H   0  0  0  0  0  0
  -27.6400  -14.2473   19.4861 H   0  0  0  0  0  0
  -28.7369  -12.1242   21.3994 H   0  0  0  0  0  0
  -28.4378  -13.7900   21.8160 H   0  0  0  0  0  0
  -25.2764   -9.5658   22.4755 H   0  0  0  0  0  0
  -23.9991   -7.4617   22.7478 H   0  0  0  0  0  0
  -21.0837   -8.8762   19.8952 H   0  0  0  0  0  0
  -22.3707  -10.9651   19.6155 H   0  0  0  0  0  0
  -21.2000   -7.6144   23.9714 H   0  0  0  0  0  0
  -21.1482   -6.0522   25.9079 H   0  0  0  0  0  0
  -22.0600   -2.7606   23.2851 H   0  0  0  0  0  0
  -22.4084  -11.9831   22.4817 H   0  0  0  0  0  0
  -21.1083  -13.1194   22.2645 H   0  0  0  0  0  0
  -24.6189  -15.8146   20.5836 H   0  0  0  0  0  0
  -26.2564  -15.6975   20.2094 H   0  0  0  0  0  0
  -26.7206  -32.5415   23.1089 H   0  0  0  0  0  0
  -25.0070  -33.9701   25.0400 H   0  0  0  0  0  0
  -22.7260  -31.3007   21.3970 H   0  0  0  0  0  0
  -23.3750  -35.9621   23.3309 H   0  0  0  0  0  0
  -24.3577  -36.8902   22.2053 H   0  0  0  0  0  0
  -23.7248  -37.6491   23.6661 H   0  0  0  0  0  0
  -26.1176  -31.5309   20.6155 H   0  0  0  0  0  0
  -26.8526  -30.8166   22.0184 H   0  0  0  0  0  0
  -28.1183  -28.9119   21.2404 H   0  0  0  0  0  0
  -25.9908  -25.9344   18.9548 H   0  0  0  0  0  0
  -23.9869  -27.3309   18.9655 H   0  0  0  0  0  0
  -23.7715  -30.5937   19.4032 H   0  0  0  0  0  0
  -22.7693  -29.2472   19.8520 H   0  0  0  0  0  0
  -25.1301  -36.1922   25.0819 H   0  0  0  0  0  0
  -20.9994  -28.3280   24.1384 H   0  0  0  0  0  0
  -20.5682  -26.2312   23.3614 H   0  0  0  0  0  0
  -21.6649  -26.7437   22.1200 H   0  0  0  0  0  0
  -19.6917  -25.6291   21.1247 H   0  0  0  0  0  0
  -19.6690  -27.3189   20.6739 H   0  0  0  0  0  0
  -17.4205  -26.6674   21.4030 H   0  0  0  0  0  0
  -18.0338  -26.0071   22.9025 H   0  0  0  0  0  0
  -19.7945  -30.7280   24.2253 H   0  0  0  0  0  0
  -17.5021  -31.6266   24.5165 H   0  0  0  0  0  0
  -15.5358  -30.2982   23.7660 H   0  0  0  0  0  0
  -15.8681  -28.0817   22.7074 H   0  0  0  0  0  0
  -24.5905  -30.7075   25.7775 H   0  0  0  0  0  0
  -24.8901  -32.2904   26.4850 H   0  0  0  0  0  0
  -25.8032  -30.8931   27.0239 H   0  0  0  0  0  0
  -26.2951  -29.6741   24.1237 H   0  0  0  0  0  0
  -27.4014  -29.7267   25.4761 H   0  0  0  0  0  0
  -27.8840  -30.4270   23.9500 H   0  0  0  0  0  0
  -27.2650  -33.3635   26.2071 H   0  0  0  0  0  0
  -28.3868  -32.6889   25.0344 H   0  0  0  0  0  0
  -28.0711  -31.8470   26.5439 H   0  0  0  0  0  0
  -28.2601  -38.0092   24.7502 H   0  0  0  0  0  0
  -28.1067  -36.2622   24.6309 H   0  0  0  0  0  0
  -27.2292  -37.1469   25.8869 H   0  0  0  0  0  0
  -20.9404  -29.8771   21.6856 H   0  0  0  0  0  0
  -26.0173  -38.2846   24.1396 H   0  0  0  0  0  0
  -31.3961  -20.2549   21.0991 H   0  0  0  0  0  0
  -31.7354  -17.8178   21.1361 H   0  0  0  0  0  0
  -27.3642  -19.6931   19.8243 H   0  0  0  0  0  0
  -26.9014  -25.0231   21.0159 H   0  0  0  0  0  0
  -30.6429  -23.0924   20.5847 H   0  0  0  0  0  0
  -29.8818  -22.8069   18.9875 H   0  0  0  0  0  0
  -26.7314  -17.5881   19.1900 H   0  0  0  0  0  0
  -27.8286  -16.3727   18.9681 H   0  0  0  0  0  0
  -28.7736  -15.4758   20.7545 H   0  0  0  0  0  0
  1 25  1  0  0  0
  1 30  2  0  0  0
  1 83  1  0  0  0
  2  3  1  0  0  0
  2 25  1  0  0  0
  2 85  1  0  0  0
  2 86  1  0  0  0
  3  4  1  0  0  0
  3 87  1  0  0  0
  3 88  1  0  0  0
  4  5  1  0  0  0
  4 89  1  0  0  0
  4 90  1  0  0  0
  5  6  1  0  0  0
  5 26  1  0  0  0
  5 91  1  0  0  0
  6 25  1  0  0  0
  6 92  1  0  0  0
  6 93  1  0  0  0
  7  8  2  0  0  0
  7 26  1  0  0  0
  7 29  1  0  0  0
  8  9  1  0  0  0
  8 22  1  0  0  0
  9 10  1  0  0  0
  9 27  2  0  0  0
 10 11  2  0  0  0
 10 15  1  0  0  0
 11 12  1  0  0  0
 11 94  1  0  0  0
 12 13  2  0  0  0
 12 95  1  0  0  0
 13 14  1  0  0  0
 13 31  1  0  0  0
 14 15  2  0  0  0
 14 96  1  0  0  0
 15 97  1  0  0  0
 16 17  2  0  0  0
 16 21  1  0  0  0
 16 31  1  0  0  0
 17 18  1  0  0  0
 17 98  1  0  0  0
 18 19  2  0  0  0
 18 99  1  0  0  0
 19 20  1  0  0  0
 19 24  1  0  0  0
 20 21  2  0  0  0
 20100  1  0  0  0
 21 23  1  0  0  0
 22 28  1  0  0  0
 22 32  2  0  0  0
 26 27  1  0  0  0
 28101  1  0  0  0
 28102  1  0  0  0
 29103  1  0  0  0
 29104  1  0  0  0
 33 34  1  0  0  0
 33 66  1  0  0  0
 33 70  2  0  0  0
 34 36  1  0  0  0
 34 59  1  0  0  0
 34105  1  0  0  0
 35 44  2  0  0  0
 35 45  1  0  0  0
 35 68  1  0  0  0
 36 56  1  0  0  0
 36106  1  0  0  0
 37 39  1  0  0  0
 37 47  1  0  0  0
 37 66  1  0  0  0
 37107  1  0  0  0
 38 43  2  0  0  0
 38 46  1  0  0  0
 38 47  1  0  0  0
 39 64  1  0  0  0
 39 67  2  0  0  0
 40 52  1  0  0  0
 40 53  2  0  0  0
 40 58  1  0  0  0
 41108  1  0  0  0
 41109  1  0  0  0
 41110  1  0  0  0
 41 48  1  0  0  0
 42 43  1  0  0  0
 42 66  1  0  0  0
 42111  1  0  0  0
 42112  1  0  0  0
 43 44  1  0  0  0
 44113  1  0  0  0
 45 46  2  0  0  0
 45114  1  0  0  0
 46115  1  0  0  0
 47116  1  0  0  0
 47117  1  0  0  0
 48 56  1  0  0  0
 48 65  1  0  0  0
 48118  1  0  0  0
 49 50  1  0  0  0
 49 53  1  0  0  0
 49 64  1  0  0  0
 49119  1  0  0  0
 50 51  1  0  0  0
 50120  1  0  0  0
 50121  1  0  0  0
 51 52  1  0  0  0
 51122  1  0  0  0
 51123  1  0  0  0
 52124  1  0  0  0
 52125  1  0  0  0
 53 54  1  0  0  0
 54 55  2  0  0  0
 54126  1  0  0  0
 55 57  1  0  0  0
 55127  1  0  0  0
 56 69  2  0  0  0
 57 58  2  0  0  0
 57128  1  0  0  0
 58129  1  0  0  0
 59 60  1  0  0  0
 59 61  1  0  0  0
 59 62  1  0  0  0
 60130  1  0  0  0
 60131  1  0  0  0
 60132  1  0  0  0
 61133  1  0  0  0
 61134  1  0  0  0
 61135  1  0  0  0
 62136  1  0  0  0
 62137  1  0  0  0
 62138  1  0  0  0
 63 65  1  0  0  0
 63139  1  0  0  0
 63140  1  0  0  0
 63141  1  0  0  0
 64142  1  0  0  0
 65143  1  0  0  0
 68 79  1  0  0  0
 71 72  2  0  0  0
 71 74  1  0  0  0
 71144  1  0  0  0
 72 75  1  0  0  0
 72145  1  0  0  0
 73 74  2  0  0  0
 73 76  1  0  0  0
 73146  1  0  0  0
 74 81  1  0  0  0
 75 76  2  0  0  0
 75 83  1  0  0  0
 76 82  1  0  0  0
 77 78  1  0  0  0
 77 79  2  0  0  0
 77 80  1  0  0  0
 78 81  1  0  0  0
 78 84  2  0  0  0
 79147  1  0  0  0
 80 81  1  0  0  0
 80148  1  0  0  0
 80149  1  0  0  0
 82150  1  0  0  0
 82151  1  0  0  0
 83152  1  0  0  0
M  ISO  4   1 100  68 101  79 101  83 100
M  END
> <chiral flag>
0

> <version>
0

> <s_m_source_file>
/data/baiqing/PycharmProjects/Reinvent-master-3.2/result/LINK_invent/BTK/process_docking_weight1_custom_product_contain_oxygen_bond_distance_aromatic_linkinvent_7_9_3/rearranged_h_0084.sdf

> <i_m_source_file_index>
45

> <r_mmod_Potential_Energy-OPLS-2005>
164.012237548828

> <r_mmod_Stretch_Energy-OPLS-2005>
102.459053039551

> <r_mmod_Bend_Energy-OPLS-2005>
264.789855957031

> <r_mmod_Torsional_Energy-OPLS-2005>
255.915130615234

> <r_mmod_Improper_Torsional_Energy-OPLS-2005>
12.7281932830811

> <r_mmod_Van_der_Waal_Energy-OPLS-2005>
144.490264892578

> <r_mmod_Electrostatic_Energy-OPLS-2005>
-490.863677978516

> <r_mmod_Solvation_Energy-OPLS-2005>
-215.716949462891

> <b_mmod_Minimization_Converged-OPLS-2005>
0

> <r_mmod_RMS_Derivative-OPLS-2005>
0.213552057743073

$$$$
45
                    3D
 Structure written by MMmdl.
157166  0  0  1  0            999 V2000
  -30.7077  -14.5309   20.5413 C   0  0  0  0  0  0
  -30.4168  -12.3353   19.4414 C   0  0  0  0  0  0
  -29.4956  -12.4988   18.2155 C   0  0  0  0  0  0
  -28.0187  -12.3536   18.6289 C   0  0  0  0  0  0
  -27.6548  -13.2168   19.8670 C   0  0  2  0  0  0
  -28.6988  -13.0562   20.9961 C   0  0  0  0  0  0
  -25.2560  -13.8180   20.5689 C   0  0  0  0  0  0
  -24.1827  -13.0444   20.9194 C   0  0  0  0  0  0
  -24.6394  -11.6915   20.8745 C   0  0  0  0  0  0
  -23.9065  -10.4296   21.0407 C   0  0  0  0  0  0
  -24.3617   -9.4210   21.9183 C   0  0  0  0  0  0
  -23.6293   -8.2244   22.0753 C   0  0  0  0  0  0
  -22.4275   -8.0282   21.3544 C   0  0  0  0  0  0
  -21.9910   -9.0256   20.4647 C   0  0  0  0  0  0
  -22.7237  -10.2136   20.3056 C   0  0  0  0  0  0
  -21.6853   -6.0736   22.5279 C   0  0  0  0  0  0
  -21.4014   -6.5640   23.8212 C   0  0  0  0  0  0
  -21.3659   -5.6792   24.9175 C   0  0  0  0  0  0
  -21.6043   -4.3055   24.7225 C   0  0  0  0  0  0
  -21.8819   -3.8147   23.4346 C   0  0  0  0  0  0
  -21.9193   -4.6964   22.3403 C   0  0  0  0  0  0
  -22.7848  -13.5235   21.1852 C   0  0  0  0  0  0
  -22.1662   -4.2150   21.0980 F   0  0  0  0  0  0
  -21.5629   -3.4539   25.7738 F   0  0  0  0  0  0
  -30.0229  -13.3554   20.4309 N   0  0  0  0  0  0
  -26.2995  -12.9367   20.3345 N   0  0  0  0  0  0
  -25.9324  -11.6519   20.5772 N   0  0  0  0  0  0
  -22.0488  -12.8228   22.0407 N   0  0  0  0  0  0
  -25.4271  -15.1900   20.4085 N   0  0  0  0  0  0
  -31.8517  -14.6453   20.0956 O   0  0  0  0  0  0
  -21.6639   -6.8879   21.4241 O   0  0  0  0  0  0
  -22.3537  -14.5543   20.6700 O   0  0  0  0  0  0
  -24.6189  -31.8655   23.2081 C   0  0  0  0  0  0
  -25.9065  -32.4810   23.8388 C   0  0  1  0  0  0
  -27.2261  -27.3991   20.1036 C   0  0  0  0  0  0
  -25.5907  -33.8609   24.2318 N   0  0  0  0  0  0
  -23.4097  -30.4898   21.5487 C   0  0  2  0  0  0
  -24.8582  -28.9584   20.1071 C   0  0  0  0  0  0
  -22.7440  -29.4645   22.4960 C   0  0  0  0  0  0
  -18.0280  -28.1379   22.8490 C   0  0  0  0  0  0
  -24.1487  -36.7309   23.2638 C   0  0  0  0  0  0
  -25.9435  -30.8212   21.3681 C   0  0  0  0  0  0
  -26.0223  -29.4556   20.7095 C   0  0  0  0  0  0
  -27.2138  -28.6839   20.7046 C   0  0  0  0  0  0
  -26.0492  -26.9355   19.4776 C   0  0  0  0  0  0
  -24.8688  -27.6998   19.4841 C   0  0  0  0  0  0
  -23.6206  -29.8270   20.1617 C   0  0  0  0  0  0
  -25.4109  -36.3105   24.0336 C   0  0  1  0  0  0
  -20.5876  -28.3673   23.1302 C   0  0  2  0  0  0
  -20.6769  -26.9403   22.5415 C   0  0  0  0  0  0
  -19.5747  -26.6385   21.5212 C   0  0  0  0  0  0
  -18.1926  -26.7924   22.1624 C   0  0  0  0  0  0
  -19.1531  -28.8842   23.2894 C   0  0  0  0  0  0
  -18.9457  -30.1447   23.8905 C   0  0  0  0  0  0
  -17.6457  -30.6583   24.0565 C   0  0  0  0  0  0
  -25.9037  -34.9469   23.5125 C   0  0  0  0  0  0
  -16.5348  -29.9084   23.6327 C   0  0  0  0  0  0
  -16.7268  -28.6501   23.0347 C   0  0  0  0  0  0
  -26.4479  -31.6595   25.0727 C   0  0  0  0  0  0
  -25.3737  -31.3711   26.1470 C   0  0  0  0  0  0
  -27.0309  -30.3030   24.6124 C   0  0  0  0  0  0
  -27.6052  -32.4315   25.7489 C   0  0  0  0  0  0
  -27.5580  -37.1811   24.8467 C   0  0  0  0  0  0
  -21.4162  -29.3035   22.3703 N   0  0  0  0  0  0
  -26.4296  -37.3789   23.9406 N   0  0  0  0  0  0
  -24.6756  -31.0730   22.0997 N   0  0  0  0  0  0
  -23.4196  -28.8182   23.3011 O   0  0  0  0  0  0
  -28.3175  -26.5474   20.1656 O   0  0  0  0  0  0
  -26.5600  -34.8924   22.4687 O   0  0  0  0  0  0
  -23.5370  -32.1418   23.7452 O   0  0  0  0  0  0
  -32.2500  -18.6294   21.5102 C   0  0  0  0  0  0
  -31.3158  -19.6807   21.5311 C   0  0  0  0  0  0
  -31.8309  -17.3000   21.3221 C   0  0  0  0  0  0
  -29.5294  -18.0679   21.1296 C   0  0  0  0  0  0
  -29.9419  -19.4253   21.3341 C   0  0  0  0  0  0
  -30.4627  -16.9842   21.1253 C   0  0  0  0  0  0
  -28.6487  -24.1326   20.6109 C   0  0  0  0  0  0
  -28.2173  -22.9542   21.3481 C   0  0  0  0  0  0
  -28.0551  -25.3412   20.8082 C   0  0  0  0  0  0
  -28.9588  -20.5337   21.5258 C   0  0  0  0  0  0
  -29.7712  -23.7635   19.6829 C   0  0  0  0  0  0
  -30.0542  -22.2724   20.0001 C   0  0  0  0  0  0
  -29.0617  -21.8144   21.0104 N   0  0  0  0  0  0
  -30.0122  -15.6115   20.9899 N   0  0  0  0  0  0
  -27.9291  -20.2157   22.3164 N   0  3  0  0  0  0
  -27.2838  -22.8805   22.1568 O   0  0  0  0  0  0
  -31.4625  -12.4184   19.1401 H   0  0  0  0  0  0
  -30.3122  -11.3372   19.8698 H   0  0  0  0  0  0
  -29.7446  -11.7578   17.4547 H   0  0  0  0  0  0
  -29.6574  -13.4756   17.7569 H   0  0  0  0  0  0
  -27.8416  -11.3000   18.8482 H   0  0  0  0  0  0
  -27.3660  -12.6022   17.7912 H   0  0  0  0  0  0
  -27.6814  -14.2556   19.5373 H   0  0  0  0  0  0
  -28.6859  -12.0377   21.3871 H   0  0  0  0  0  0
  -28.4594  -13.7018   21.8423 H   0  0  0  0  0  0
  -25.2762   -9.5686   22.4758 H   0  0  0  0  0  0
  -24.0003   -7.4635   22.7471 H   0  0  0  0  0  0
  -21.0841   -8.8774   19.8953 H   0  0  0  0  0  0
  -22.3695  -10.9675   19.6166 H   0  0  0  0  0  0
  -21.2006   -7.6147   23.9716 H   0  0  0  0  0  0
  -21.1480   -6.0523   25.9077 H   0  0  0  0  0  0
  -22.0598   -2.7610   23.2847 H   0  0  0  0  0  0
  -22.4099  -11.9888   22.4797 H   0  0  0  0  0  0
  -21.1105  -13.1253   22.2607 H   0  0  0  0  0  0
  -24.6558  -15.8415   20.5061 H   0  0  0  0  0  0
  -26.2689  -15.6254   20.0541 H   0  0  0  0  0  0
  -26.7138  -32.5514   23.1151 H   0  0  0  0  0  0
  -25.0061  -33.9766   25.0466 H   0  0  0  0  0  0
  -22.6999  -31.3079   21.4099 H   0  0  0  0  0  0
  -23.3743  -35.9650   23.3318 H   0  0  0  0  0  0
  -24.3580  -36.8906   22.2049 H   0  0  0  0  0  0
  -23.7248  -37.6523   23.6641 H   0  0  0  0  0  0
  -26.0634  -31.5891   20.6025 H   0  0  0  0  0  0
  -26.8281  -30.8710   21.9913 H   0  0  0  0  0  0
  -28.1070  -29.0518   21.1899 H   0  0  0  0  0  0
  -26.0388  -25.9622   19.0074 H   0  0  0  0  0  0
  -23.9757  -27.3120   19.0134 H   0  0  0  0  0  0
  -23.7301  -30.6049   19.4052 H   0  0  0  0  0  0
  -22.7437  -29.2496   19.8632 H   0  0  0  0  0  0
  -25.1286  -36.1971   25.0830 H   0  0  0  0  0  0
  -20.9970  -28.3244   24.1422 H   0  0  0  0  0  0
  -20.5670  -26.2280   23.3606 H   0  0  0  0  0  0
  -21.6640  -26.7440   22.1208 H   0  0  0  0  0  0
  -19.6907  -25.6300   21.1233 H   0  0  0  0  0  0
  -19.6684  -27.3203   20.6748 H   0  0  0  0  0  0
  -17.4195  -26.6672   21.4027 H   0  0  0  0  0  0
  -18.0327  -26.0065   22.9019 H   0  0  0  0  0  0
  -19.7933  -30.7262   24.2277 H   0  0  0  0  0  0
  -17.5012  -31.6263   24.5166 H   0  0  0  0  0  0
  -15.5349  -30.2988   23.7646 H   0  0  0  0  0  0
  -15.8669  -28.0824   22.7055 H   0  0  0  0  0  0
  -24.5910  -30.7058   25.7808 H   0  0  0  0  0  0
  -24.8929  -32.2870   26.4917 H   0  0  0  0  0  0
  -25.8085  -30.8881   27.0230 H   0  0  0  0  0  0
  -26.2862  -29.6795   24.1164 H   0  0  0  0  0  0
  -27.4051  -29.7265   25.4595 H   0  0  0  0  0  0
  -27.8712  -30.4336   23.9301 H   0  0  0  0  0  0
  -27.2670  -33.3605   26.2092 H   0  0  0  0  0  0
  -28.3849  -32.6891   25.0309 H   0  0  0  0  0  0
  -28.0735  -31.8425   26.5384 H   0  0  0  0  0  0
  -28.2612  -38.0095   24.7499 H   0  0  0  0  0  0
  -28.1061  -36.2627   24.6311 H   0  0  0  0  0  0
  -27.2297  -37.1487   25.8870 H   0  0  0  0  0  0
  -20.9324  -29.8764   21.6930 H   0  0  0  0  0  0
  -26.0185  -38.2870   24.1394 H   0  0  0  0  0  0
  -33.2971  -18.8370   21.6807 H   0  0  0  0  0  0
  -31.6697  -20.6738   21.7654 H   0  0  0  0  0  0
  -32.5897  -16.5339   21.3668 H   0  0  0  0  0  0
  -28.4763  -17.8545   21.0075 H   0  0  0  0  0  0
  -27.2536  -25.4464   21.5307 H   0  0  0  0  0  0
  -30.6437  -24.3896   19.8720 H   0  0  0  0  0  0
  -29.4653  -23.9008   18.6454 H   0  0  0  0  0  0
  -31.0731  -22.1824   20.3714 H   0  0  0  0  0  0
  -29.9834  -21.6648   19.0963 H   0  0  0  0  0  0
  -29.0429  -15.4335   21.2019 H   0  0  0  0  0  0
  -27.8914  -19.3178   22.7716 H   0  0  0  0  0  0
  -27.2618  -20.9368   22.5624 H   0  0  0  0  0  0
  1 25  1  0  0  0
  1 30  2  0  0  0
  1 84  1  0  0  0
  2  3  1  0  0  0
  2 25  1  0  0  0
  2 87  1  0  0  0
  2 88  1  0  0  0
  3  4  1  0  0  0
  3 89  1  0  0  0
  3 90  1  0  0  0
  4  5  1  0  0  0
  4 91  1  0  0  0
  4 92  1  0  0  0
  5  6  1  0  0  0
  5 26  1  0  0  0
  5 93  1  0  0  0
  6 25  1  0  0  0
  6 94  1  0  0  0
  6 95  1  0  0  0
  7  8  2  0  0  0
  7 26  1  0  0  0
  7 29  1  0  0  0
  8  9  1  0  0  0
  8 22  1  0  0  0
  9 10  1  0  0  0
  9 27  2  0  0  0
 10 11  2  0  0  0
 10 15  1  0  0  0
 11 12  1  0  0  0
 11 96  1  0  0  0
 12 13  2  0  0  0
 12 97  1  0  0  0
 13 14  1  0  0  0
 13 31  1  0  0  0
 14 15  2  0  0  0
 14 98  1  0  0  0
 15 99  1  0  0  0
 16 17  2  0  0  0
 16 21  1  0  0  0
 16 31  1  0  0  0
 17 18  1  0  0  0
 17100  1  0  0  0
 18 19  2  0  0  0
 18101  1  0  0  0
 19 20  1  0  0  0
 19 24  1  0  0  0
 20 21  2  0  0  0
 20102  1  0  0  0
 21 23  1  0  0  0
 22 28  1  0  0  0
 22 32  2  0  0  0
 26 27  1  0  0  0
 28103  1  0  0  0
 28104  1  0  0  0
 29105  1  0  0  0
 29106  1  0  0  0
 33 34  1  0  0  0
 33 66  1  0  0  0
 33 70  2  0  0  0
 34 36  1  0  0  0
 34 59  1  0  0  0
 34107  1  0  0  0
 35 44  2  0  0  0
 35 45  1  0  0  0
 35 68  1  0  0  0
 36 56  1  0  0  0
 36108  1  0  0  0
 37 39  1  0  0  0
 37 47  1  0  0  0
 37 66  1  0  0  0
 37109  1  0  0  0
 38 43  2  0  0  0
 38 46  1  0  0  0
 38 47  1  0  0  0
 39 64  1  0  0  0
 39 67  2  0  0  0
 40 52  1  0  0  0
 40 53  2  0  0  0
 40 58  1  0  0  0
 41110  1  0  0  0
 41111  1  0  0  0
 41112  1  0  0  0
 41 48  1  0  0  0
 42 43  1  0  0  0
 42 66  1  0  0  0
 42113  1  0  0  0
 42114  1  0  0  0
 43 44  1  0  0  0
 44115  1  0  0  0
 45 46  2  0  0  0
 45116  1  0  0  0
 46117  1  0  0  0
 47118  1  0  0  0
 47119  1  0  0  0
 48 56  1  0  0  0
 48 65  1  0  0  0
 48120  1  0  0  0
 49 50  1  0  0  0
 49 53  1  0  0  0
 49 64  1  0  0  0
 49121  1  0  0  0
 50 51  1  0  0  0
 50122  1  0  0  0
 50123  1  0  0  0
 51 52  1  0  0  0
 51124  1  0  0  0
 51125  1  0  0  0
 52126  1  0  0  0
 52127  1  0  0  0
 53 54  1  0  0  0
 54 55  2  0  0  0
 54128  1  0  0  0
 55 57  1  0  0  0
 55129  1  0  0  0
 56 69  2  0  0  0
 57 58  2  0  0  0
 57130  1  0  0  0
 58131  1  0  0  0
 59 60  1  0  0  0
 59 61  1  0  0  0
 59 62  1  0  0  0
 60132  1  0  0  0
 60133  1  0  0  0
 60134  1  0  0  0
 61135  1  0  0  0
 61136  1  0  0  0
 61137  1  0  0  0
 62138  1  0  0  0
 62139  1  0  0  0
 62140  1  0  0  0
 63 65  1  0  0  0
 63141  1  0  0  0
 63142  1  0  0  0
 63143  1  0  0  0
 64144  1  0  0  0
 65145  1  0  0  0
 68 79  1  0  0  0
 71 72  2  0  0  0
 71 73  1  0  0  0
 71146  1  0  0  0
 72 75  1  0  0  0
 72147  1  0  0  0
 73 76  2  0  0  0
 73148  1  0  0  0
 74 75  2  0  0  0
 74 76  1  0  0  0
 74149  1  0  0  0
 75 80  1  0  0  0
 76 84  1  0  0  0
 77 78  1  0  0  0
 77 79  2  0  0  0
 77 81  1  0  0  0
 78 83  1  0  0  0
 78 86  2  0  0  0
 79150  1  0  0  0
 80 83  1  0  0  0
 80 85  2  0  0  0
 81 82  1  0  0  0
 81151  1  0  0  0
 81152  1  0  0  0
 82 83  1  0  0  0
 82153  1  0  0  0
 82154  1  0  0  0
 84155  1  0  0  0
 85156  1  0  0  0
 85157  1  0  0  0
M  CHG  1  85   1
M  ISO  4   1 100  68 101  79 101  84 100
M  END
> <chiral flag>
0

> <version>
0

> <s_m_source_file>
/data/baiqing/PycharmProjects/Reinvent-master-3.2/result/LINK_invent/BTK/process_docking_weight1_custom_product_contain_oxygen_bond_distance_aromatic_linkinvent_7_9_3/rearranged_h_0084.sdf

> <i_m_source_file_index>
46

> <r_mmod_Potential_Energy-OPLS-2005>
-175.164596557617

> <r_mmod_Stretch_Energy-OPLS-2005>
54.3735313415527

> <r_mmod_Bend_Energy-OPLS-2005>
140.297973632812

> <r_mmod_Torsional_Energy-OPLS-2005>
238.559768676758

> <r_mmod_Improper_Torsional_Energy-OPLS-2005>
5.47022724151611

> <r_mmod_Van_der_Waal_Energy-OPLS-2005>
169.492004394531

> <r_mmod_Electrostatic_Energy-OPLS-2005>
-405.683807373047

> <r_mmod_Solvation_Energy-OPLS-2005>
-403.506256103516

> <b_mmod_Minimization_Converged-OPLS-2005>
0

> <r_mmod_RMS_Derivative-OPLS-2005>
0.147905126214027

$$$$
46
                    3D
 Structure written by MMmdl.
153162  0  0  1  0            999 V2000
  -30.5943  -14.8135   20.4257 C   0  0  0  0  0  0
  -30.4275  -12.4989   19.4878 C   0  0  0  0  0  0
  -29.5100  -12.5467   18.2455 C   0  0  0  0  0  0
  -28.0368  -12.3573   18.6463 C   0  0  0  0  0  0
  -27.6400  -13.2478   19.8560 C   0  0  2  0  0  0
  -28.6833  -13.2023   20.9938 C   0  0  0  0  0  0
  -25.2493  -13.8233   20.5700 C   0  0  0  0  0  0
  -24.1803  -13.0440   20.9158 C   0  0  0  0  0  0
  -24.6420  -11.6930   20.8708 C   0  0  0  0  0  0
  -23.9079  -10.4307   21.0356 C   0  0  0  0  0  0
  -24.3623   -9.4240   21.9161 C   0  0  0  0  0  0
  -23.6288   -8.2273   22.0737 C   0  0  0  0  0  0
  -22.4280   -8.0284   21.3533 C   0  0  0  0  0  0
  -21.9906   -9.0255   20.4639 C   0  0  0  0  0  0
  -22.7226  -10.2147   20.3015 C   0  0  0  0  0  0
  -21.6852   -6.0723   22.5274 C   0  0  0  0  0  0
  -21.4033   -6.5638   23.8206 C   0  0  0  0  0  0
  -21.3665   -5.6799   24.9161 C   0  0  0  0  0  0
  -21.6049   -4.3067   24.7210 C   0  0  0  0  0  0
  -21.8822   -3.8151   23.4337 C   0  0  0  0  0  0
  -21.9195   -4.6955   22.3395 C   0  0  0  0  0  0
  -22.7819  -13.5238   21.1807 C   0  0  0  0  0  0
  -22.1642   -4.2166   21.0959 F   0  0  0  0  0  0
  -21.5626   -3.4533   25.7710 F   0  0  0  0  0  0
  -29.9803  -13.5728   20.4129 N   0  0  0  0  0  0
  -26.2955  -12.9471   20.3332 N   0  0  0  0  0  0
  -25.9381  -11.6588   20.5747 N   0  0  0  0  0  0
  -22.0492  -12.8238   22.0392 N   0  0  0  0  0  0
  -25.4198  -15.1962   20.4137 N   0  0  0  0  0  0
  -31.7752  -14.8890   20.0735 O   0  0  0  0  0  0
  -21.6647   -6.8874   21.4240 O   0  0  0  0  0  0
  -22.3490  -14.5529   20.6657 O   0  0  0  0  0  0
  -24.6410  -31.8516   23.2012 C   0  0  0  0  0  0
  -25.9221  -32.4711   23.8364 C   0  0  1  0  0  0
  -27.2060  -27.1919   20.1349 C   0  0  0  0  0  0
  -25.6048  -33.8523   24.2275 N   0  0  0  0  0  0
  -23.4387  -30.4799   21.5455 C   0  0  2  0  0  0
  -24.8856  -28.9241   20.1100 C   0  0  0  0  0  0
  -22.7557  -29.4588   22.4888 C   0  0  0  0  0  0
  -18.0316  -28.1402   22.8478 C   0  0  0  0  0  0
  -24.1512  -36.7239   23.2644 C   0  0  0  0  0  0
  -25.9948  -30.7369   21.4001 C   0  0  0  0  0  0
  -26.0601  -29.3568   20.7377 C   0  0  0  0  0  0
  -27.2185  -28.5019   20.7484 C   0  0  0  0  0  0
  -26.0104  -26.8702   19.4458 C   0  0  0  0  0  0
  -24.8687  -27.6923   19.4531 C   0  0  0  0  0  0
  -23.6640  -29.8231   20.1586 C   0  0  0  0  0  0
  -25.4141  -36.3044   24.0330 C   0  0  1  0  0  0
  -20.5939  -28.3734   23.1238 C   0  0  2  0  0  0
  -20.6809  -26.9432   22.5420 C   0  0  0  0  0  0
  -19.5768  -26.6392   21.5237 C   0  0  0  0  0  0
  -18.1950  -26.7956   22.1627 C   0  0  0  0  0  0
  -19.1572  -28.8879   23.2854 C   0  0  0  0  0  0
  -18.9481  -30.1485   23.8870 C   0  0  0  0  0  0
  -17.6468  -30.6593   24.0575 C   0  0  0  0  0  0
  -25.9092  -34.9410   23.5081 C   0  0  0  0  0  0
  -16.5354  -29.9094   23.6346 C   0  0  0  0  0  0
  -16.7302  -28.6522   23.0349 C   0  0  0  0  0  0
  -26.4568  -31.6569   25.0764 C   0  0  0  0  0  0
  -25.3781  -31.3704   26.1466 C   0  0  0  0  0  0
  -27.0465  -30.2990   24.6331 C   0  0  0  0  0  0
  -27.6148  -32.4300   25.7512 C   0  0  0  0  0  0
  -27.5570  -37.1795   24.8467 C   0  0  0  0  0  0
  -21.4262  -29.3064   22.3613 N   0  0  0  0  0  0
  -26.4293  -37.3759   23.9409 N   0  0  0  0  0  0
  -24.7101  -31.0436   22.1031 N   0  0  0  0  0  0
  -23.4229  -28.8128   23.3013 O   0  0  0  0  0  0
  -28.2715  -26.2339   20.2138 O   0  0  0  0  0  0
  -26.5637  -34.8884   22.4632 O   0  0  0  0  0  0
  -23.5538  -32.1376   23.7247 O   0  0  0  0  0  0
  -29.5586  -18.6398   20.6406 C   0  0  0  0  0  0
  -29.9577  -19.8204   18.5446 C   0  0  0  0  0  0
  -30.3188  -17.3899   18.6840 C   0  0  0  0  0  0
  -29.5707  -19.9147   19.9024 C   0  0  0  0  0  0
  -29.9284  -17.3399   20.0449 C   0  0  0  0  0  0
  -30.3282  -18.5952   17.9536 C   0  0  0  0  0  0
  -28.7928  -23.6661   20.3522 C   0  0  0  0  0  0
  -28.4310  -22.2649   19.9447 C   0  0  0  0  0  0
  -28.0612  -24.8113   20.0085 C   0  0  0  0  0  0
  -30.0721  -23.5536   21.1414 C   0  0  0  0  0  0
  -30.3902  -22.0234   21.1599 C   0  0  0  0  0  0
  -29.3371  -21.3176   20.4089 N   0  0  0  0  0  0
  -29.8578  -15.9777   20.6886 N   0  0  0  0  0  0
  -27.4287  -21.9609   19.2888 O   0  0  0  0  0  0
  -30.7089  -18.5756   16.6529 F   0  0  0  0  0  0
  -31.4684  -12.6229   19.1804 H   0  0  0  0  0  0
  -30.3792  -11.5223   19.9724 H   0  0  0  0  0  0
  -29.8034  -11.7866   17.5215 H   0  0  0  0  0  0
  -29.6376  -13.5038   17.7368 H   0  0  0  0  0  0
  -27.8881  -11.3053   18.8921 H   0  0  0  0  0  0
  -27.3859  -12.5735   17.7995 H   0  0  0  0  0  0
  -27.6296  -14.2738   19.4826 H   0  0  0  0  0  0
  -28.7328  -12.2089   21.4443 H   0  0  0  0  0  0
  -28.4121  -13.8892   21.7956 H   0  0  0  0  0  0
  -25.2769   -9.5718   22.4743 H   0  0  0  0  0  0
  -23.9977   -7.4676   22.7462 H   0  0  0  0  0  0
  -21.0821   -8.8765   19.8961 H   0  0  0  0  0  0
  -22.3649  -10.9666   19.6111 H   0  0  0  0  0  0
  -21.2036   -7.6151   23.9713 H   0  0  0  0  0  0
  -21.1474   -6.0518   25.9059 H   0  0  0  0  0  0
  -22.0595   -2.7613   23.2838 H   0  0  0  0  0  0
  -22.4053  -11.9875   22.4770 H   0  0  0  0  0  0
  -21.1110  -13.1256   22.2597 H   0  0  0  0  0  0
  -24.6565  -15.8575   20.5108 H   0  0  0  0  0  0
  -26.2776  -15.6316   20.1049 H   0  0  0  0  0  0
  -26.7274  -32.5333   23.1097 H   0  0  0  0  0  0
  -25.0359  -33.9708   25.0526 H   0  0  0  0  0  0
  -22.7401  -31.3074   21.3999 H   0  0  0  0  0  0
  -23.3817  -35.9525   23.3282 H   0  0  0  0  0  0
  -24.3606  -36.8869   22.2055 H   0  0  0  0  0  0
  -23.7206  -37.6411   23.6685 H   0  0  0  0  0  0
  -26.1611  -31.4974   20.6355 H   0  0  0  0  0  0
  -26.8613  -30.7738   22.0486 H   0  0  0  0  0  0
  -28.1088  -28.8262   21.2696 H   0  0  0  0  0  0
  -25.8847  -25.9560   18.8917 H   0  0  0  0  0  0
  -23.9732  -27.3624   18.9444 H   0  0  0  0  0  0
  -23.8120  -30.6076   19.4162 H   0  0  0  0  0  0
  -22.7760  -29.2776   19.8320 H   0  0  0  0  0  0
  -25.1325  -36.1893   25.0827 H   0  0  0  0  0  0
  -21.0002  -28.3313   24.1371 H   0  0  0  0  0  0
  -20.5764  -26.2330   23.3655 H   0  0  0  0  0  0
  -21.6662  -26.7491   22.1148 H   0  0  0  0  0  0
  -19.6935  -25.6312   21.1269 H   0  0  0  0  0  0
  -19.6689  -27.3203   20.6772 H   0  0  0  0  0  0
  -17.4236  -26.6746   21.4018 H   0  0  0  0  0  0
  -18.0279  -26.0079   22.8990 H   0  0  0  0  0  0
  -19.7948  -30.7330   24.2184 H   0  0  0  0  0  0
  -17.5022  -31.6268   24.5192 H   0  0  0  0  0  0
  -15.5360  -30.2988   23.7681 H   0  0  0  0  0  0
  -15.8709  -28.0852   22.7052 H   0  0  0  0  0  0
  -24.6018  -30.6979   25.7785 H   0  0  0  0  0  0
  -24.8930  -32.2856   26.4878 H   0  0  0  0  0  0
  -25.8107  -30.8917   27.0267 H   0  0  0  0  0  0
  -26.3092  -29.6681   24.1360 H   0  0  0  0  0  0
  -27.4132  -29.7297   25.4898 H   0  0  0  0  0  0
  -27.8957  -30.4270   23.9601 H   0  0  0  0  0  0
  -27.2833  -33.3670   26.1997 H   0  0  0  0  0  0
  -28.3994  -32.6726   25.0323 H   0  0  0  0  0  0
  -28.0776  -31.8469   26.5496 H   0  0  0  0  0  0
  -28.2585  -38.0101   24.7551 H   0  0  0  0  0  0
  -28.1076  -36.2650   24.6265 H   0  0  0  0  0  0
  -27.2291  -37.1338   25.8865 H   0  0  0  0  0  0
  -20.9472  -29.8788   21.6801 H   0  0  0  0  0  0
  -26.0164  -38.2813   24.1479 H   0  0  0  0  0  0
  -29.2746  -18.6595   21.6848 H   0  0  0  0  0  0
  -30.0027  -20.7088   17.9291 H   0  0  0  0  0  0
  -30.5985  -16.4883   18.1586 H   0  0  0  0  0  0
  -27.1754  -24.6124   19.4375 H   0  0  0  0  0  0
  -29.9373  -23.9477   22.1509 H   0  0  0  0  0  0
  -30.8653  -24.1231   20.6547 H   0  0  0  0  0  0
  -30.4339  -21.6463   22.1828 H   0  0  0  0  0  0
  -31.3594  -21.8309   20.6927 H   0  0  0  0  0  0
  -29.0293  -15.8185   21.2417 H   0  0  0  0  0  0
  1 25  1  0  0  0
  1 30  2  0  0  0
  1 83  1  0  0  0
  2  3  1  0  0  0
  2 25  1  0  0  0
  2 86  1  0  0  0
  2 87  1  0  0  0
  3  4  1  0  0  0
  3 88  1  0  0  0
  3 89  1  0  0  0
  4  5  1  0  0  0
  4 90  1  0  0  0
  4 91  1  0  0  0
  5  6  1  0  0  0
  5 26  1  0  0  0
  5 92  1  0  0  0
  6 25  1  0  0  0
  6 93  1  0  0  0
  6 94  1  0  0  0
  7  8  2  0  0  0
  7 26  1  0  0  0
  7 29  1  0  0  0
  8  9  1  0  0  0
  8 22  1  0  0  0
  9 10  1  0  0  0
  9 27  2  0  0  0
 10 11  2  0  0  0
 10 15  1  0  0  0
 11 12  1  0  0  0
 11 95  1  0  0  0
 12 13  2  0  0  0
 12 96  1  0  0  0
 13 14  1  0  0  0
 13 31  1  0  0  0
 14 15  2  0  0  0
 14 97  1  0  0  0
 15 98  1  0  0  0
 16 17  2  0  0  0
 16 21  1  0  0  0
 16 31  1  0  0  0
 17 18  1  0  0  0
 17 99  1  0  0  0
 18 19  2  0  0  0
 18100  1  0  0  0
 19 20  1  0  0  0
 19 24  1  0  0  0
 20 21  2  0  0  0
 20101  1  0  0  0
 21 23  1  0  0  0
 22 28  1  0  0  0
 22 32  2  0  0  0
 26 27  1  0  0  0
 28102  1  0  0  0
 28103  1  0  0  0
 29104  1  0  0  0
 29105  1  0  0  0
 33 34  1  0  0  0
 33 66  1  0  0  0
 33 70  2  0  0  0
 34 36  1  0  0  0
 34 59  1  0  0  0
 34106  1  0  0  0
 35 44  2  0  0  0
 35 45  1  0  0  0
 35 68  1  0  0  0
 36 56  1  0  0  0
 36107  1  0  0  0
 37 39  1  0  0  0
 37 47  1  0  0  0
 37 66  1  0  0  0
 37108  1  0  0  0
 38 43  2  0  0  0
 38 46  1  0  0  0
 38 47  1  0  0  0
 39 64  1  0  0  0
 39 67  2  0  0  0
 40 52  1  0  0  0
 40 53  2  0  0  0
 40 58  1  0  0  0
 41109  1  0  0  0
 41110  1  0  0  0
 41111  1  0  0  0
 41 48  1  0  0  0
 42 43  1  0  0  0
 42 66  1  0  0  0
 42112  1  0  0  0
 42113  1  0  0  0
 43 44  1  0  0  0
 44114  1  0  0  0
 45 46  2  0  0  0
 45115  1  0  0  0
 46116  1  0  0  0
 47117  1  0  0  0
 47118  1  0  0  0
 48 56  1  0  0  0
 48 65  1  0  0  0
 48119  1  0  0  0
 49 50  1  0  0  0
 49 53  1  0  0  0
 49 64  1  0  0  0
 49120  1  0  0  0
 50 51  1  0  0  0
 50121  1  0  0  0
 50122  1  0  0  0
 51 52  1  0  0  0
 51123  1  0  0  0
 51124  1  0  0  0
 52125  1  0  0  0
 52126  1  0  0  0
 53 54  1  0  0  0
 54 55  2  0  0  0
 54127  1  0  0  0
 55 57  1  0  0  0
 55128  1  0  0  0
 56 69  2  0  0  0
 57 58  2  0  0  0
 57129  1  0  0  0
 58130  1  0  0  0
 59 60  1  0  0  0
 59 61  1  0  0  0
 59 62  1  0  0  0
 60131  1  0  0  0
 60132  1  0  0  0
 60133  1  0  0  0
 61134  1  0  0  0
 61135  1  0  0  0
 61136  1  0  0  0
 62137  1  0  0  0
 62138  1  0  0  0
 62139  1  0  0  0
 63 65  1  0  0  0
 63140  1  0  0  0
 63141  1  0  0  0
 63142  1  0  0  0
 64143  1  0  0  0
 65144  1  0  0  0
 68 79  1  0  0  0
 71 74  2  0  0  0
 71 75  1  0  0  0
 71145  1  0  0  0
 72 74  1  0  0  0
 72 76  2  0  0  0
 72146  1  0  0  0
 73 75  2  0  0  0
 73 76  1  0  0  0
 73147  1  0  0  0
 74 82  1  0  0  0
 75 83  1  0  0  0
 76 85  1  0  0  0
 77 78  1  0  0  0
 77 79  2  0  0  0
 77 80  1  0  0  0
 78 82  1  0  0  0
 78 84  2  0  0  0
 79148  1  0  0  0
 80 81  1  0  0  0
 80149  1  0  0  0
 80150  1  0  0  0
 81 82  1  0  0  0
 81151  1  0  0  0
 81152  1  0  0  0
 83153  1  0  0  0
M  ISO  4   1 100  68 101  79 101  83 100
M  END
> <chiral flag>
0

> <version>
0

> <s_m_source_file>
/data/baiqing/PycharmProjects/Reinvent-master-3.2/result/LINK_invent/BTK/process_docking_weight1_custom_product_contain_oxygen_bond_distance_aromatic_linkinvent_7_9_3/rearranged_h_0084.sdf

> <i_m_source_file_index>
47

> <r_mmod_Potential_Energy-OPLS-2005>
419.22314453125

> <r_mmod_Stretch_Energy-OPLS-2005>
158.186782836914

> <r_mmod_Bend_Energy-OPLS-2005>
204.017547607422

> <r_mmod_Torsional_Energy-OPLS-2005>
310.751251220703

> <r_mmod_Improper_Torsional_Energy-OPLS-2005>
5.25687551498413

> <r_mmod_Van_der_Waal_Energy-OPLS-2005>
137.634704589844

> <r_mmod_Electrostatic_Energy-OPLS-2005>
-307.101226806641

> <r_mmod_Solvation_Energy-OPLS-2005>
-216.367706298828

> <b_mmod_Minimization_Converged-OPLS-2005>
0

> <r_mmod_RMS_Derivative-OPLS-2005>
4.85437250137329

$$$$
47
                    3D
 Structure written by MMmdl.
156165  0  0  1  0            999 V2000
  -30.6318  -14.6723   20.5448 C   0  0  0  0  0  0
  -30.4365  -12.4261   19.4675 C   0  0  0  0  0  0
  -29.5108  -12.5303   18.2337 C   0  0  0  0  0  0
  -28.0324  -12.3574   18.6347 C   0  0  0  0  0  0
  -27.6521  -13.2190   19.8666 C   0  0  2  0  0  0
  -28.6891  -13.0551   20.9960 C   0  0  0  0  0  0
  -25.2547  -13.8175   20.5679 C   0  0  0  0  0  0
  -24.1815  -13.0436   20.9168 C   0  0  0  0  0  0
  -24.6387  -11.6909   20.8719 C   0  0  0  0  0  0
  -23.9059  -10.4293   21.0397 C   0  0  0  0  0  0
  -24.3612   -9.4210   21.9179 C   0  0  0  0  0  0
  -23.6288   -8.2246   22.0754 C   0  0  0  0  0  0
  -22.4270   -8.0281   21.3545 C   0  0  0  0  0  0
  -21.9904   -9.0253   20.4645 C   0  0  0  0  0  0
  -22.7231  -10.2132   20.3050 C   0  0  0  0  0  0
  -21.6853   -6.0732   22.5278 C   0  0  0  0  0  0
  -21.4013   -6.5634   23.8211 C   0  0  0  0  0  0
  -21.3658   -5.6789   24.9175 C   0  0  0  0  0  0
  -21.6045   -4.3052   24.7226 C   0  0  0  0  0  0
  -21.8817   -3.8144   23.4345 C   0  0  0  0  0  0
  -21.9193   -4.6960   22.3401 C   0  0  0  0  0  0
  -22.7840  -13.5226   21.1848 C   0  0  0  0  0  0
  -22.1662   -4.2147   21.0979 F   0  0  0  0  0  0
  -21.5629   -3.4536   25.7738 F   0  0  0  0  0  0
  -30.0061  -13.4420   20.4586 N   0  0  0  0  0  0
  -26.2973  -12.9359   20.3306 N   0  0  0  0  0  0
  -25.9313  -11.6509   20.5724 N   0  0  0  0  0  0
  -22.0489  -12.8215   22.0409 N   0  0  0  0  0  0
  -25.4268  -15.1897   20.4126 N   0  0  0  0  0  0
  -31.7316  -14.8518   20.0086 O   0  0  0  0  0  0
  -21.6637   -6.8876   21.4241 O   0  0  0  0  0  0
  -22.3525  -14.5541   20.6714 O   0  0  0  0  0  0
  -24.6267  -31.8567   23.1983 C   0  0  0  0  0  0
  -25.9108  -32.4756   23.8325 C   0  0  1  0  0  0
  -27.2356  -27.3037   20.1182 C   0  0  0  0  0  0
  -25.5920  -33.8559   24.2255 N   0  0  0  0  0  0
  -23.4211  -30.4761   21.5408 C   0  0  2  0  0  0
  -24.8688  -28.9196   20.1113 C   0  0  0  0  0  0
  -22.7470  -29.4609   22.4937 C   0  0  0  0  0  0
  -18.0285  -28.1390   22.8491 C   0  0  0  0  0  0
  -24.1484  -36.7281   23.2643 C   0  0  0  0  0  0
  -25.9604  -30.7815   21.3695 C   0  0  0  0  0  0
  -26.0343  -29.4052   20.7146 C   0  0  0  0  0  0
  -27.2156  -28.6074   20.7075 C   0  0  0  0  0  0
  -26.0443  -26.8611   19.5029 C   0  0  0  0  0  0
  -24.8760  -27.6540   19.4986 C   0  0  0  0  0  0
  -23.6359  -29.8015   20.1586 C   0  0  0  0  0  0
  -25.4112  -36.3070   24.0329 C   0  0  1  0  0  0
  -20.5883  -28.3695   23.1289 C   0  0  2  0  0  0
  -20.6771  -26.9418   22.5419 C   0  0  0  0  0  0
  -19.5747  -26.6389   21.5219 C   0  0  0  0  0  0
  -18.1924  -26.7934   22.1624 C   0  0  0  0  0  0
  -19.1536  -28.8860   23.2883 C   0  0  0  0  0  0
  -18.9463  -30.1461   23.8901 C   0  0  0  0  0  0
  -17.6462  -30.6592   24.0570 C   0  0  0  0  0  0
  -25.9052  -34.9441   23.5096 C   0  0  0  0  0  0
  -16.5356  -29.9090   23.6337 C   0  0  0  0  0  0
  -16.7272  -28.6508   23.0358 C   0  0  0  0  0  0
  -26.4494  -31.6580   25.0707 C   0  0  0  0  0  0
  -25.3733  -31.3714   26.1442 C   0  0  0  0  0  0
  -27.0342  -30.3005   24.6165 C   0  0  0  0  0  0
  -27.6048  -32.4327   25.7475 C   0  0  0  0  0  0
  -27.5575  -37.1793   24.8466 C   0  0  0  0  0  0
  -21.4184  -29.3038   22.3678 N   0  0  0  0  0  0
  -26.4285  -37.3770   23.9414 N   0  0  0  0  0  0
  -24.6882  -31.0561   22.0932 N   0  0  0  0  0  0
  -23.4185  -28.8167   23.3038 O   0  0  0  0  0  0
  -28.3906  -26.5064   20.1778 O   0  0  0  0  0  0
  -26.5627  -34.8914   22.4666 O   0  0  0  0  0  0
  -23.5430  -32.1378   23.7307 O   0  0  0  0  0  0
  -28.6892  -18.9335   19.2681 C   0  0  0  0  0  0
  -29.0750  -17.5968   19.6083 C   0  0  0  0  0  0
  -30.1430  -18.4394   21.5835 C   0  0  0  0  0  0
  -28.9993  -20.0583   20.0876 C   0  0  0  0  0  0
  -29.7845  -17.2923   20.8022 C   0  0  0  0  0  0
  -29.7717  -19.7828   21.2390 C   0  0  0  0  0  0
  -28.4418  -21.4789   19.8120 C   0  0  0  0  0  0
  -29.9616  -15.8552   21.3615 C   0  0  0  0  0  0
  -30.1373  -20.9639   22.1306 C   0  0  0  0  0  0
  -30.1104  -22.3310   21.3828 C   0  0  0  0  0  0
  -28.2080  -23.8942   20.7006 C   0  0  0  0  0  0
  -28.4928  -25.1015   19.6977 C   0  0  0  0  0  0
  -29.6067  -15.6699   22.5655 N   0  0  0  0  0  0
  -28.9161  -22.5482   20.5365 N   0  0  0  0  0  0
  -27.5368  -21.6174   18.9840 O   0  0  0  0  0  0
  -31.4774  -12.5534   19.1658 H   0  0  0  0  0  0
  -30.3824  -11.4268   19.9024 H   0  0  0  0  0  0
  -29.7855  -11.7804   17.4910 H   0  0  0  0  0  0
  -29.6485  -13.5006   17.7540 H   0  0  0  0  0  0
  -27.8705  -11.3023   18.8586 H   0  0  0  0  0  0
  -27.3806  -12.5917   17.7922 H   0  0  0  0  0  0
  -27.6765  -14.2595   19.5421 H   0  0  0  0  0  0
  -28.7148  -12.0191   21.3370 H   0  0  0  0  0  0
  -28.3846  -13.6254   21.8694 H   0  0  0  0  0  0
  -25.2757   -9.5689   22.4751 H   0  0  0  0  0  0
  -24.0001   -7.4638   22.7473 H   0  0  0  0  0  0
  -21.0835   -8.8768   19.8951 H   0  0  0  0  0  0
  -22.3689  -10.9668   19.6156 H   0  0  0  0  0  0
  -21.2004   -7.6142   23.9714 H   0  0  0  0  0  0
  -21.1479   -6.0518   25.9077 H   0  0  0  0  0  0
  -22.0596   -2.7607   23.2847 H   0  0  0  0  0  0
  -22.4110  -11.9874   22.4790 H   0  0  0  0  0  0
  -21.1115  -13.1245   22.2633 H   0  0  0  0  0  0
  -24.6652  -15.8480   20.5349 H   0  0  0  0  0  0
  -26.2910  -15.6334   20.1297 H   0  0  0  0  0  0
  -26.7171  -32.5416   23.1066 H   0  0  0  0  0  0
  -25.0071  -33.9701   25.0404 H   0  0  0  0  0  0
  -22.7161  -31.2968   21.3927 H   0  0  0  0  0  0
  -23.3744  -35.9615   23.3312 H   0  0  0  0  0  0
  -24.3572  -36.8900   22.2056 H   0  0  0  0  0  0
  -23.7240  -37.6484   23.6666 H   0  0  0  0  0  0
  -26.0911  -31.5419   20.5983 H   0  0  0  0  0  0
  -26.8408  -30.8338   21.9983 H   0  0  0  0  0  0
  -28.1126  -28.9785   21.1835 H   0  0  0  0  0  0
  -25.9907  -25.8882   19.0385 H   0  0  0  0  0  0
  -23.9795  -27.2734   19.0290 H   0  0  0  0  0  0
  -23.7534  -30.5734   19.3972 H   0  0  0  0  0  0
  -22.7560  -29.2286   19.8606 H   0  0  0  0  0  0
  -25.1290  -36.1915   25.0820 H   0  0  0  0  0  0
  -20.9978  -28.3276   24.1410 H   0  0  0  0  0  0
  -20.5679  -26.2305   23.3620 H   0  0  0  0  0  0
  -21.6639  -26.7448   22.1212 H   0  0  0  0  0  0
  -19.6911  -25.6300   21.1251 H   0  0  0  0  0  0
  -19.6685  -27.3199   20.6749 H   0  0  0  0  0  0
  -17.4198  -26.6696   21.4020 H   0  0  0  0  0  0
  -18.0312  -26.0068   22.9009 H   0  0  0  0  0  0
  -19.7938  -30.7277   24.2268 H   0  0  0  0  0  0
  -17.5016  -31.6271   24.5169 H   0  0  0  0  0  0
  -15.5357  -30.2994   23.7659 H   0  0  0  0  0  0
  -15.8672  -28.0831   22.7074 H   0  0  0  0  0  0
  -24.5921  -30.7041   25.7781 H   0  0  0  0  0  0
  -24.8907  -32.2875   26.4860 H   0  0  0  0  0  0
  -25.8073  -30.8912   27.0222 H   0  0  0  0  0  0
  -26.2913  -29.6744   24.1210 H   0  0  0  0  0  0
  -27.4064  -29.7272   25.4665 H   0  0  0  0  0  0
  -27.8765  -30.4292   23.9366 H   0  0  0  0  0  0
  -27.2660  -33.3642   26.2021 H   0  0  0  0  0  0
  -28.3868  -32.6871   25.0308 H   0  0  0  0  0  0
  -28.0698  -31.8475   26.5416 H   0  0  0  0  0  0
  -28.2593  -38.0089   24.7520 H   0  0  0  0  0  0
  -28.1074  -36.2624   24.6285 H   0  0  0  0  0  0
  -27.2298  -37.1435   25.8869 H   0  0  0  0  0  0
  -20.9373  -29.8743   21.6867 H   0  0  0  0  0  0
  -26.0162  -38.2843   24.1420 H   0  0  0  0  0  0
  -28.0966  -19.0871   18.3764 H   0  0  0  0  0  0
  -28.7482  -16.7871   18.9709 H   0  0  0  0  0  0
  -30.6773  -18.2803   22.5104 H   0  0  0  0  0  0
  -31.1244  -20.8019   22.5670 H   0  0  0  0  0  0
  -29.4331  -20.9887   22.9632 H   0  0  0  0  0  0
  -30.9760  -22.3808   20.7205 H   0  0  0  0  0  0
  -30.2494  -23.1371   22.1033 H   0  0  0  0  0  0
  -27.1324  -23.7141   20.7138 H   0  0  0  0  0  0
  -28.4199  -24.2602   21.7051 H   0  0  0  0  0  0
  -27.9396  -24.9604   18.7699 H   0  0  0  0  0  0
  -29.5359  -25.0045   19.3961 H   0  0  0  0  0  0
  -29.2205  -16.5211   22.9555 H   0  0  0  0  0  0
  1 25  1  0  0  0
  1 30  2  0  0  0
  1 78  1  0  0  0
  2  3  1  0  0  0
  2 25  1  0  0  0
  2 86  1  0  0  0
  2 87  1  0  0  0
  3  4  1  0  0  0
  3 88  1  0  0  0
  3 89  1  0  0  0
  4  5  1  0  0  0
  4 90  1  0  0  0
  4 91  1  0  0  0
  5  6  1  0  0  0
  5 26  1  0  0  0
  5 92  1  0  0  0
  6 25  1  0  0  0
  6 93  1  0  0  0
  6 94  1  0  0  0
  7  8  2  0  0  0
  7 26  1  0  0  0
  7 29  1  0  0  0
  8  9  1  0  0  0
  8 22  1  0  0  0
  9 10  1  0  0  0
  9 27  2  0  0  0
 10 11  2  0  0  0
 10 15  1  0  0  0
 11 12  1  0  0  0
 11 95  1  0  0  0
 12 13  2  0  0  0
 12 96  1  0  0  0
 13 14  1  0  0  0
 13 31  1  0  0  0
 14 15  2  0  0  0
 14 97  1  0  0  0
 15 98  1  0  0  0
 16 17  2  0  0  0
 16 21  1  0  0  0
 16 31  1  0  0  0
 17 18  1  0  0  0
 17 99  1  0  0  0
 18 19  2  0  0  0
 18100  1  0  0  0
 19 20  1  0  0  0
 19 24  1  0  0  0
 20 21  2  0  0  0
 20101  1  0  0  0
 21 23  1  0  0  0
 22 28  1  0  0  0
 22 32  2  0  0  0
 26 27  1  0  0  0
 28102  1  0  0  0
 28103  1  0  0  0
 29104  1  0  0  0
 29105  1  0  0  0
 33 34  1  0  0  0
 33 66  1  0  0  0
 33 70  2  0  0  0
 34 36  1  0  0  0
 34 59  1  0  0  0
 34106  1  0  0  0
 35 44  2  0  0  0
 35 45  1  0  0  0
 35 68  1  0  0  0
 36 56  1  0  0  0
 36107  1  0  0  0
 37 39  1  0  0  0
 37 47  1  0  0  0
 37 66  1  0  0  0
 37108  1  0  0  0
 38 43  2  0  0  0
 38 46  1  0  0  0
 38 47  1  0  0  0
 39 64  1  0  0  0
 39 67  2  0  0  0
 40 52  1  0  0  0
 40 53  2  0  0  0
 40 58  1  0  0  0
 41109  1  0  0  0
 41110  1  0  0  0
 41111  1  0  0  0
 41 48  1  0  0  0
 42 43  1  0  0  0
 42 66  1  0  0  0
 42112  1  0  0  0
 42113  1  0  0  0
 43 44  1  0  0  0
 44114  1  0  0  0
 45 46  2  0  0  0
 45115  1  0  0  0
 46116  1  0  0  0
 47117  1  0  0  0
 47118  1  0  0  0
 48 56  1  0  0  0
 48 65  1  0  0  0
 48119  1  0  0  0
 49 50  1  0  0  0
 49 53  1  0  0  0
 49 64  1  0  0  0
 49120  1  0  0  0
 50 51  1  0  0  0
 50121  1  0  0  0
 50122  1  0  0  0
 51 52  1  0  0  0
 51123  1  0  0  0
 51124  1  0  0  0
 52125  1  0  0  0
 52126  1  0  0  0
 53 54  1  0  0  0
 54 55  2  0  0  0
 54127  1  0  0  0
 55 57  1  0  0  0
 55128  1  0  0  0
 56 69  2  0  0  0
 57 58  2  0  0  0
 57129  1  0  0  0
 58130  1  0  0  0
 59 60  1  0  0  0
 59 61  1  0  0  0
 59 62  1  0  0  0
 60131  1  0  0  0
 60132  1  0  0  0
 60133  1  0  0  0
 61134  1  0  0  0
 61135  1  0  0  0
 61136  1  0  0  0
 62137  1  0  0  0
 62138  1  0  0  0
 62139  1  0  0  0
 63 65  1  0  0  0
 63140  1  0  0  0
 63141  1  0  0  0
 63142  1  0  0  0
 64143  1  0  0  0
 65144  1  0  0  0
 68 82  1  0  0  0
 71 72  2  0  0  0
 71 74  1  0  0  0
 71145  1  0  0  0
 72 75  1  0  0  0
 72146  1  0  0  0
 73 75  2  0  0  0
 73 76  1  0  0  0
 73147  1  0  0  0
 74 76  2  0  0  0
 74 77  1  0  0  0
 75 78  1  0  0  0
 76 79  1  0  0  0
 77 84  1  0  0  0
 77 85  2  0  0  0
 78 83  2  0  0  0
 79 80  1  0  0  0
 79148  1  0  0  0
 79149  1  0  0  0
 80 84  1  0  0  0
 80150  1  0  0  0
 80151  1  0  0  0
 81 82  1  0  0  0
 81 84  1  0  0  0
 81152  1  0  0  0
 81153  1  0  0  0
 82154  1  0  0  0
 82155  1  0  0  0
 83156  1  0  0  0
M  ISO  4   1 100  68 101  78 100  82 101
M  END
> <chiral flag>
0

> <version>
0

> <s_m_source_file>
/data/baiqing/PycharmProjects/Reinvent-master-3.2/result/LINK_invent/BTK/process_docking_weight1_custom_product_contain_oxygen_bond_distance_aromatic_linkinvent_7_9_3/rearranged_h_0084.sdf

> <i_m_source_file_index>
48

> <r_mmod_Potential_Energy-OPLS-2005>
303.54345703125

> <r_mmod_Stretch_Energy-OPLS-2005>
105.606170654297

> <r_mmod_Bend_Energy-OPLS-2005>
166.790100097656

> <r_mmod_Torsional_Energy-OPLS-2005>
242.068054199219

> <r_mmod_Improper_Torsional_Energy-OPLS-2005>
4.36758708953857

> <r_mmod_Van_der_Waal_Energy-OPLS-2005>
149.754684448242

> <r_mmod_Electrostatic_Energy-OPLS-2005>
-198.524368286133

> <r_mmod_Solvation_Energy-OPLS-2005>
-219.655258178711

> <b_mmod_Minimization_Converged-OPLS-2005>
0

> <r_mmod_RMS_Derivative-OPLS-2005>
0.623057961463928

$$$$
48
                    3D
 Structure written by MMmdl.
154163  0  0  1  0            999 V2000
  -30.5949  -14.8070   20.4355 C   0  0  0  0  0  0
  -30.4321  -12.4894   19.4985 C   0  0  0  0  0  0
  -29.5167  -12.5206   18.2534 C   0  0  0  0  0  0
  -28.0430  -12.3390   18.6605 C   0  0  0  0  0  0
  -27.6417  -13.2429   19.8559 C   0  0  2  0  0  0
  -28.6840  -13.2014   20.9963 C   0  0  0  0  0  0
  -25.2504  -13.8231   20.5715 C   0  0  0  0  0  0
  -24.1799  -13.0455   20.9206 C   0  0  0  0  0  0
  -24.6405  -11.6935   20.8742 C   0  0  0  0  0  0
  -23.9069  -10.4315   21.0393 C   0  0  0  0  0  0
  -24.3614   -9.4234   21.9180 C   0  0  0  0  0  0
  -23.6288   -8.2264   22.0733 C   0  0  0  0  0  0
  -22.4280   -8.0284   21.3519 C   0  0  0  0  0  0
  -21.9910   -9.0255   20.4634 C   0  0  0  0  0  0
  -22.7227  -10.2149   20.3040 C   0  0  0  0  0  0
  -21.6857   -6.0731   22.5277 C   0  0  0  0  0  0
  -21.4008   -6.5634   23.8208 C   0  0  0  0  0  0
  -21.3665   -5.6790   24.9174 C   0  0  0  0  0  0
  -21.6055   -4.3052   24.7219 C   0  0  0  0  0  0
  -21.8818   -3.8132   23.4346 C   0  0  0  0  0  0
  -21.9187   -4.6950   22.3402 C   0  0  0  0  0  0
  -22.7813  -13.5234   21.1847 C   0  0  0  0  0  0
  -22.1651   -4.2136   21.0975 F   0  0  0  0  0  0
  -21.5639   -3.4534   25.7730 F   0  0  0  0  0  0
  -29.9844  -13.5646   20.4215 N   0  0  0  0  0  0
  -26.2946  -12.9458   20.3319 N   0  0  0  0  0  0
  -25.9352  -11.6590   20.5752 N   0  0  0  0  0  0
  -22.0454  -12.8231   22.0400 N   0  0  0  0  0  0
  -25.4196  -15.1955   20.4123 N   0  0  0  0  0  0
  -31.7678  -14.8967   20.0617 O   0  0  0  0  0  0
  -21.6640   -6.8880   21.4239 O   0  0  0  0  0  0
  -22.3499  -14.5524   20.6679 O   0  0  0  0  0  0
  -24.6360  -31.8511   23.1973 C   0  0  0  0  0  0
  -25.9176  -32.4721   23.8326 C   0  0  1  0  0  0
  -27.2072  -27.1943   20.1379 C   0  0  0  0  0  0
  -25.5969  -33.8529   24.2235 N   0  0  0  0  0  0
  -23.4350  -30.4756   21.5416 C   0  0  2  0  0  0
  -24.8829  -28.9195   20.1108 C   0  0  0  0  0  0
  -22.7522  -29.4575   22.4890 C   0  0  0  0  0  0
  -18.0304  -28.1389   22.8485 C   0  0  0  0  0  0
  -24.1502  -36.7258   23.2641 C   0  0  0  0  0  0
  -25.9887  -30.7395   21.3937 C   0  0  0  0  0  0
  -26.0565  -29.3562   20.7385 C   0  0  0  0  0  0
  -27.2155  -28.5019   20.7543 C   0  0  0  0  0  0
  -26.0198  -26.8727   19.4355 C   0  0  0  0  0  0
  -24.8732  -27.6866   19.4496 C   0  0  0  0  0  0
  -23.6573  -29.8133   20.1578 C   0  0  0  0  0  0
  -25.4129  -36.3035   24.0317 C   0  0  1  0  0  0
  -20.5910  -28.3695   23.1246 C   0  0  2  0  0  0
  -20.6779  -26.9406   22.5400 C   0  0  0  0  0  0
  -19.5758  -26.6374   21.5204 C   0  0  0  0  0  0
  -18.1940  -26.7934   22.1617 C   0  0  0  0  0  0
  -19.1561  -28.8856   23.2868 C   0  0  0  0  0  0
  -18.9475  -30.1453   23.8884 C   0  0  0  0  0  0
  -17.6473  -30.6584   24.0549 C   0  0  0  0  0  0
  -25.9079  -34.9413   23.5070 C   0  0  0  0  0  0
  -16.5358  -29.9079   23.6338 C   0  0  0  0  0  0
  -16.7288  -28.6503   23.0354 C   0  0  0  0  0  0
  -26.4529  -31.6564   25.0732 C   0  0  0  0  0  0
  -25.3742  -31.3732   26.1442 C   0  0  0  0  0  0
  -27.0363  -30.2958   24.6274 C   0  0  0  0  0  0
  -27.6096  -32.4298   25.7490 C   0  0  0  0  0  0
  -27.5580  -37.1781   24.8464 C   0  0  0  0  0  0
  -21.4225  -29.3041   22.3631 N   0  0  0  0  0  0
  -26.4286  -37.3745   23.9412 N   0  0  0  0  0  0
  -24.7059  -31.0427   22.0991 N   0  0  0  0  0  0
  -23.4201  -28.8122   23.3012 O   0  0  0  0  0  0
  -28.2652  -26.2317   20.2178 O   0  0  0  0  0  0
  -26.5657  -34.8889   22.4639 O   0  0  0  0  0  0
  -23.5487  -32.1358   23.7220 O   0  0  0  0  0  0
  -29.5989  -18.6230   20.6851 C   0  0  0  0  0  0
  -29.6475  -19.7496   18.5281 C   0  0  0  0  0  0
  -30.0068  -17.3214   18.6637 C   0  0  0  0  0  0
  -29.4909  -19.8809   19.9268 C   0  0  0  0  0  0
  -29.8562  -17.3076   20.0693 C   0  0  0  0  0  0
  -29.9031  -18.5089   17.9122 C   0  0  0  0  0  0
  -28.7811  -23.6540   20.3626 C   0  0  0  0  0  0
  -30.1056  -23.5020   20.9031 C   0  0  0  0  0  0
  -28.3588  -22.2334   20.0773 C   0  0  0  0  0  0
  -30.9039  -24.5120   21.2874 C   0  0  0  0  0  0
  -28.0144  -24.8038   20.1075 C   0  0  0  0  0  0
  -30.4791  -22.0238   20.9940 C   0  0  0  0  0  0
  -29.3326  -21.2935   20.4272 N   0  0  0  0  0  0
  -29.8568  -15.9589   20.7360 N   0  0  0  0  0  0
  -27.2680  -21.9094   19.5980 O   0  0  0  0  0  0
  -30.0470  -18.4556   16.5666 F   0  0  0  0  0  0
  -31.4721  -12.6147   19.1910 H   0  0  0  0  0  0
  -30.3885  -11.5178   19.9913 H   0  0  0  0  0  0
  -29.8087  -11.7430   17.5476 H   0  0  0  0  0  0
  -29.6422  -13.4701   17.7296 H   0  0  0  0  0  0
  -27.9046  -11.2899   18.9249 H   0  0  0  0  0  0
  -27.3875  -12.5257   17.8105 H   0  0  0  0  0  0
  -27.6305  -14.2629   19.4724 H   0  0  0  0  0  0
  -28.7286  -12.2107   21.4517 H   0  0  0  0  0  0
  -28.4052  -13.8926   21.7949 H   0  0  0  0  0  0
  -25.2755   -9.5697   22.4766 H   0  0  0  0  0  0
  -23.9988   -7.4645   22.7458 H   0  0  0  0  0  0
  -21.0831   -8.8748   19.8957 H   0  0  0  0  0  0
  -22.3651  -10.9669   19.6127 H   0  0  0  0  0  0
  -21.1994   -7.6137   23.9708 H   0  0  0  0  0  0
  -21.1491   -6.0523   25.9087 H   0  0  0  0  0  0
  -22.0595   -2.7591   23.2847 H   0  0  0  0  0  0
  -22.4052  -11.9892   22.4797 H   0  0  0  0  0  0
  -21.1053  -13.1235   22.2566 H   0  0  0  0  0  0
  -24.6561  -15.8536   20.5287 H   0  0  0  0  0  0
  -26.2701  -15.6330   20.0822 H   0  0  0  0  0  0
  -26.7250  -32.5329   23.1070 H   0  0  0  0  0  0
  -25.0120  -33.9684   25.0380 H   0  0  0  0  0  0
  -22.7349  -31.3010   21.3935 H   0  0  0  0  0  0
  -23.3771  -35.9581   23.3264 H   0  0  0  0  0  0
  -24.3614  -36.8912   22.2067 H   0  0  0  0  0  0
  -23.7229  -37.6433   23.6696 H   0  0  0  0  0  0
  -26.1399  -31.4924   20.6197 H   0  0  0  0  0  0
  -26.8627  -30.7881   22.0307 H   0  0  0  0  0  0
  -28.1034  -28.8253   21.2796 H   0  0  0  0  0  0
  -25.9206  -25.9650   18.8646 H   0  0  0  0  0  0
  -23.9817  -27.3534   18.9346 H   0  0  0  0  0  0
  -23.7874  -30.5896   19.4039 H   0  0  0  0  0  0
  -22.7739  -29.2515   19.8478 H   0  0  0  0  0  0
  -25.1308  -36.1866   25.0805 H   0  0  0  0  0  0
  -21.0008  -28.3266   24.1364 H   0  0  0  0  0  0
  -20.5635  -26.2316   23.3620 H   0  0  0  0  0  0
  -21.6640  -26.7405   22.1191 H   0  0  0  0  0  0
  -19.6904  -25.6277   21.1243 H   0  0  0  0  0  0
  -19.6688  -27.3178   20.6731 H   0  0  0  0  0  0
  -17.4203  -26.6679   21.4030 H   0  0  0  0  0  0
  -18.0345  -26.0073   22.9005 H   0  0  0  0  0  0
  -19.7943  -30.7275   24.2230 H   0  0  0  0  0  0
  -17.5023  -31.6274   24.5145 H   0  0  0  0  0  0
  -15.5350  -30.2970   23.7675 H   0  0  0  0  0  0
  -15.8692  -28.0806   22.7082 H   0  0  0  0  0  0
  -24.5948  -30.7055   25.7765 H   0  0  0  0  0  0
  -24.8919  -32.2899   26.4836 H   0  0  0  0  0  0
  -25.8045  -30.8925   27.0234 H   0  0  0  0  0  0
  -26.2949  -29.6712   24.1281 H   0  0  0  0  0  0
  -27.3986  -29.7229   25.4824 H   0  0  0  0  0  0
  -27.8863  -30.4204   23.9565 H   0  0  0  0  0  0
  -27.2752  -33.3641   26.2011 H   0  0  0  0  0  0
  -28.3933  -32.6769   25.0317 H   0  0  0  0  0  0
  -28.0739  -31.8446   26.5439 H   0  0  0  0  0  0
  -28.2565  -38.0116   24.7530 H   0  0  0  0  0  0
  -28.1105  -36.2633   24.6247 H   0  0  0  0  0  0
  -27.2310  -37.1353   25.8874 H   0  0  0  0  0  0
  -20.9426  -29.8781   21.6840 H   0  0  0  0  0  0
  -26.0143  -38.2797   24.1452 H   0  0  0  0  0  0
  -29.4906  -18.6714   21.7591 H   0  0  0  0  0  0
  -29.5953  -20.6259   17.8970 H   0  0  0  0  0  0
  -30.1784  -16.4004   18.1246 H   0  0  0  0  0  0
  -30.5917  -25.5429   21.2037 H   0  0  0  0  0  0
  -31.8876  -24.3217   21.6930 H   0  0  0  0  0  0
  -27.0267  -24.5958   19.7405 H   0  0  0  0  0  0
  -30.6466  -21.7318   22.0308 H   0  0  0  0  0  0
  -31.3861  -21.8182   20.4228 H   0  0  0  0  0  0
  -29.0412  -15.7766   21.3025 H   0  0  0  0  0  0
  1 25  1  0  0  0
  1 30  2  0  0  0
  1 84  1  0  0  0
  2  3  1  0  0  0
  2 25  1  0  0  0
  2 87  1  0  0  0
  2 88  1  0  0  0
  3  4  1  0  0  0
  3 89  1  0  0  0
  3 90  1  0  0  0
  4  5  1  0  0  0
  4 91  1  0  0  0
  4 92  1  0  0  0
  5  6  1  0  0  0
  5 26  1  0  0  0
  5 93  1  0  0  0
  6 25  1  0  0  0
  6 94  1  0  0  0
  6 95  1  0  0  0
  7  8  2  0  0  0
  7 26  1  0  0  0
  7 29  1  0  0  0
  8  9  1  0  0  0
  8 22  1  0  0  0
  9 10  1  0  0  0
  9 27  2  0  0  0
 10 11  2  0  0  0
 10 15  1  0  0  0
 11 12  1  0  0  0
 11 96  1  0  0  0
 12 13  2  0  0  0
 12 97  1  0  0  0
 13 14  1  0  0  0
 13 31  1  0  0  0
 14 15  2  0  0  0
 14 98  1  0  0  0
 15 99  1  0  0  0
 16 17  2  0  0  0
 16 21  1  0  0  0
 16 31  1  0  0  0
 17 18  1  0  0  0
 17100  1  0  0  0
 18 19  2  0  0  0
 18101  1  0  0  0
 19 20  1  0  0  0
 19 24  1  0  0  0
 20 21  2  0  0  0
 20102  1  0  0  0
 21 23  1  0  0  0
 22 28  1  0  0  0
 22 32  2  0  0  0
 26 27  1  0  0  0
 28103  1  0  0  0
 28104  1  0  0  0
 29105  1  0  0  0
 29106  1  0  0  0
 33 34  1  0  0  0
 33 66  1  0  0  0
 33 70  2  0  0  0
 34 36  1  0  0  0
 34 59  1  0  0  0
 34107  1  0  0  0
 35 44  2  0  0  0
 35 45  1  0  0  0
 35 68  1  0  0  0
 36 56  1  0  0  0
 36108  1  0  0  0
 37 39  1  0  0  0
 37 47  1  0  0  0
 37 66  1  0  0  0
 37109  1  0  0  0
 38 43  2  0  0  0
 38 46  1  0  0  0
 38 47  1  0  0  0
 39 64  1  0  0  0
 39 67  2  0  0  0
 40 52  1  0  0  0
 40 53  2  0  0  0
 40 58  1  0  0  0
 41110  1  0  0  0
 41111  1  0  0  0
 41112  1  0  0  0
 41 48  1  0  0  0
 42 43  1  0  0  0
 42 66  1  0  0  0
 42113  1  0  0  0
 42114  1  0  0  0
 43 44  1  0  0  0
 44115  1  0  0  0
 45 46  2  0  0  0
 45116  1  0  0  0
 46117  1  0  0  0
 47118  1  0  0  0
 47119  1  0  0  0
 48 56  1  0  0  0
 48 65  1  0  0  0
 48120  1  0  0  0
 49 50  1  0  0  0
 49 53  1  0  0  0
 49 64  1  0  0  0
 49121  1  0  0  0
 50 51  1  0  0  0
 50122  1  0  0  0
 50123  1  0  0  0
 51 52  1  0  0  0
 51124  1  0  0  0
 51125  1  0  0  0
 52126  1  0  0  0
 52127  1  0  0  0
 53 54  1  0  0  0
 54 55  2  0  0  0
 54128  1  0  0  0
 55 57  1  0  0  0
 55129  1  0  0  0
 56 69  2  0  0  0
 57 58  2  0  0  0
 57130  1  0  0  0
 58131  1  0  0  0
 59 60  1  0  0  0
 59 61  1  0  0  0
 59 62  1  0  0  0
 60132  1  0  0  0
 60133  1  0  0  0
 60134  1  0  0  0
 61135  1  0  0  0
 61136  1  0  0  0
 61137  1  0  0  0
 62138  1  0  0  0
 62139  1  0  0  0
 62140  1  0  0  0
 63 65  1  0  0  0
 63141  1  0  0  0
 63142  1  0  0  0
 63143  1  0  0  0
 64144  1  0  0  0
 65145  1  0  0  0
 68 81  1  0  0  0
 71 74  2  0  0  0
 71 75  1  0  0  0
 71146  1  0  0  0
 72 74  1  0  0  0
 72 76  2  0  0  0
 72147  1  0  0  0
 73 75  2  0  0  0
 73 76  1  0  0  0
 73148  1  0  0  0
 74 83  1  0  0  0
 75 84  1  0  0  0
 76 86  1  0  0  0
 77 78  1  0  0  0
 77 79  1  0  0  0
 77 81  2  0  0  0
 78 80  2  0  0  0
 78 82  1  0  0  0
 79 83  1  0  0  0
 79 85  2  0  0  0
 80149  1  0  0  0
 80150  1  0  0  0
 81151  1  0  0  0
 82 83  1  0  0  0
 82152  1  0  0  0
 82153  1  0  0  0
 84154  1  0  0  0
M  ISO  4   1 100  68 101  81 101  84 100
M  END
> <chiral flag>
0

> <version>
0

> <s_m_source_file>
/data/baiqing/PycharmProjects/Reinvent-master-3.2/result/LINK_invent/BTK/process_docking_weight1_custom_product_contain_oxygen_bond_distance_aromatic_linkinvent_7_9_3/rearranged_h_0084.sdf

> <i_m_source_file_index>
49

> <r_mmod_Potential_Energy-OPLS-2005>
454.297607421875

> <r_mmod_Stretch_Energy-OPLS-2005>
157.333679199219

> <r_mmod_Bend_Energy-OPLS-2005>
227.058990478516

> <r_mmod_Torsional_Energy-OPLS-2005>
313.534820556641

> <r_mmod_Improper_Torsional_Energy-OPLS-2005>
5.52400827407837

> <r_mmod_Van_der_Waal_Energy-OPLS-2005>
136.112152099609

> <r_mmod_Electrostatic_Energy-OPLS-2005>
-296.677368164062

> <r_mmod_Solvation_Energy-OPLS-2005>
-213.887420654297

> <b_mmod_Minimization_Converged-OPLS-2005>
0

> <r_mmod_RMS_Derivative-OPLS-2005>
2.94922733306885

$$$$
49
                    3D
 Structure written by MMmdl.
151159  0  0  1  0            999 V2000
  -30.6091  -14.6622   20.4931 C   0  0  0  0  0  0
  -30.4409  -12.4053   19.4572 C   0  0  0  0  0  0
  -29.5106  -12.5096   18.2274 C   0  0  0  0  0  0
  -28.0333  -12.3440   18.6375 C   0  0  0  0  0  0
  -27.6524  -13.2173   19.8623 C   0  0  2  0  0  0
  -28.6964  -13.0795   20.9933 C   0  0  0  0  0  0
  -25.2556  -13.8174   20.5680 C   0  0  0  0  0  0
  -24.1826  -13.0439   20.9199 C   0  0  0  0  0  0
  -24.6394  -11.6909   20.8745 C   0  0  0  0  0  0
  -23.9063  -10.4293   21.0409 C   0  0  0  0  0  0
  -24.3614   -9.4208   21.9186 C   0  0  0  0  0  0
  -23.6290   -8.2243   22.0754 C   0  0  0  0  0  0
  -22.4272   -8.0282   21.3544 C   0  0  0  0  0  0
  -21.9906   -9.0256   20.4648 C   0  0  0  0  0  0
  -22.7234  -10.2136   20.3058 C   0  0  0  0  0  0
  -21.6853   -6.0734   22.5279 C   0  0  0  0  0  0
  -21.4014   -6.5639   23.8213 C   0  0  0  0  0  0
  -21.3659   -5.6790   24.9175 C   0  0  0  0  0  0
  -21.6046   -4.3053   24.7225 C   0  0  0  0  0  0
  -21.8818   -3.8145   23.4345 C   0  0  0  0  0  0
  -21.9193   -4.6962   22.3400 C   0  0  0  0  0  0
  -22.7847  -13.5232   21.1859 C   0  0  0  0  0  0
  -22.1660   -4.2148   21.0978 F   0  0  0  0  0  0
  -21.5628   -3.4536   25.7735 F   0  0  0  0  0  0
  -30.0104  -13.4291   20.4315 N   0  0  0  0  0  0
  -26.2981  -12.9354   20.3305 N   0  0  0  0  0  0
  -25.9322  -11.6510   20.5753 N   0  0  0  0  0  0
  -22.0484  -12.8229   22.0415 N   0  0  0  0  0  0
  -25.4270  -15.1895   20.4075 N   0  0  0  0  0  0
  -31.7726  -14.8219   20.1121 O   0  0  0  0  0  0
  -21.6639   -6.8878   21.4241 O   0  0  0  0  0  0
  -22.3536  -14.5539   20.6704 O   0  0  0  0  0  0
  -24.6262  -31.8597   23.2017 C   0  0  0  0  0  0
  -25.9108  -32.4777   23.8352 C   0  0  1  0  0  0
  -27.2254  -27.3170   20.1273 C   0  0  0  0  0  0
  -25.5924  -33.8577   24.2282 N   0  0  0  0  0  0
  -23.4207  -30.4818   21.5440 C   0  0  2  0  0  0
  -24.8689  -28.9343   20.1127 C   0  0  0  0  0  0
  -22.7477  -29.4620   22.4934 C   0  0  0  0  0  0
  -18.0287  -28.1383   22.8484 C   0  0  0  0  0  0
  -24.1490  -36.7295   23.2639 C   0  0  0  0  0  0
  -25.9612  -30.7900   21.3732 C   0  0  0  0  0  0
  -26.0371  -29.4159   20.7183 C   0  0  0  0  0  0
  -27.2209  -28.6197   20.7139 C   0  0  0  0  0  0
  -26.0403  -26.8904   19.4905 C   0  0  0  0  0  0
  -24.8722  -27.6766   19.4888 C   0  0  0  0  0  0
  -23.6364  -29.8146   20.1603 C   0  0  0  0  0  0
  -25.4114  -36.3083   24.0330 C   0  0  1  0  0  0
  -20.5888  -28.3688   23.1282 C   0  0  2  0  0  0
  -20.6775  -26.9410   22.5410 C   0  0  0  0  0  0
  -19.5750  -26.6382   21.5213 C   0  0  0  0  0  0
  -18.1931  -26.7924   22.1626 C   0  0  0  0  0  0
  -19.1540  -28.8853   23.2878 C   0  0  0  0  0  0
  -18.9462  -30.1455   23.8892 C   0  0  0  0  0  0
  -17.6463  -30.6583   24.0564 C   0  0  0  0  0  0
  -25.9051  -34.9452   23.5106 C   0  0  0  0  0  0
  -16.5354  -29.9083   23.6327 C   0  0  0  0  0  0
  -16.7276  -28.6503   23.0345 C   0  0  0  0  0  0
  -26.4492  -31.6585   25.0721 C   0  0  0  0  0  0
  -25.3730  -31.3722   26.1451 C   0  0  0  0  0  0
  -27.0336  -30.3009   24.6171 C   0  0  0  0  0  0
  -27.6053  -32.4319   25.7491 C   0  0  0  0  0  0
  -27.5579  -37.1805   24.8465 C   0  0  0  0  0  0
  -21.4191  -29.3043   22.3678 N   0  0  0  0  0  0
  -26.4293  -37.3777   23.9405 N   0  0  0  0  0  0
  -24.6880  -31.0606   22.0968 N   0  0  0  0  0  0
  -23.4201  -28.8161   23.3016 O   0  0  0  0  0  0
  -28.3352  -26.4603   20.1469 O   0  0  0  0  0  0
  -26.5620  -34.8919   22.4673 O   0  0  0  0  0  0
  -23.5424  -32.1396   23.7345 O   0  0  0  0  0  0
  -28.6786  -19.3852   20.7237 C   0  0  0  0  0  0
  -30.9252  -19.2878   19.9003 C   0  0  0  0  0  0
  -28.7182  -17.9701   20.9467 C   0  0  0  0  0  0
  -30.9683  -17.8752   20.1171 C   0  0  0  0  0  0
  -29.7749  -20.0919   20.1679 C   0  0  0  0  0  0
  -29.8529  -17.1646   20.6330 C   0  0  0  0  0  0
  -28.9794  -23.9058   20.0235 C   0  0  0  0  0  0
  -29.7357  -21.5963   19.8002 C   0  0  0  0  0  0
  -28.1167  -25.0731   20.6393 C   0  0  0  0  0  0
  -28.9750  -22.6315   20.3716 N   0  0  0  0  0  0
  -29.7903  -15.7108   20.8444 N   0  0  0  0  0  0
  -30.5047  -21.8861   18.7913 N   0  3  0  0  0  0
  -31.4813  -12.5365   19.1540 H   0  0  0  0  0  0
  -30.3835  -11.4109   19.9028 H   0  0  0  0  0  0
  -29.7787  -11.7551   17.4865 H   0  0  0  0  0  0
  -29.6499  -13.4774   17.7424 H   0  0  0  0  0  0
  -27.8730  -11.2911   18.8723 H   0  0  0  0  0  0
  -27.3797  -12.5693   17.7940 H   0  0  0  0  0  0
  -27.6677  -14.2513   19.5172 H   0  0  0  0  0  0
  -28.7123  -12.0583   21.3770 H   0  0  0  0  0  0
  -28.4382  -13.7120   21.8440 H   0  0  0  0  0  0
  -25.2762   -9.5681   22.4756 H   0  0  0  0  0  0
  -23.9998   -7.4634   22.7472 H   0  0  0  0  0  0
  -21.0836   -8.8775   19.8954 H   0  0  0  0  0  0
  -22.3695  -10.9674   19.6164 H   0  0  0  0  0  0
  -21.2007   -7.6145   23.9716 H   0  0  0  0  0  0
  -21.1481   -6.0520   25.9078 H   0  0  0  0  0  0
  -22.0599   -2.7606   23.2848 H   0  0  0  0  0  0
  -22.4085  -11.9889   22.4808 H   0  0  0  0  0  0
  -21.1101  -13.1265   22.2612 H   0  0  0  0  0  0
  -24.6544  -15.8401   20.5031 H   0  0  0  0  0  0
  -26.2613  -15.6209   20.0313 H   0  0  0  0  0  0
  -26.7178  -32.5448   23.1104 H   0  0  0  0  0  0
  -25.0073  -33.9721   25.0426 H   0  0  0  0  0  0
  -22.7144  -31.3022   21.3997 H   0  0  0  0  0  0
  -23.3748  -35.9631   23.3309 H   0  0  0  0  0  0
  -24.3580  -36.8907   22.2053 H   0  0  0  0  0  0
  -23.7249  -37.6501   23.6656 H   0  0  0  0  0  0
  -26.0916  -31.5516   20.6033 H   0  0  0  0  0  0
  -26.8421  -30.8408   22.0016 H   0  0  0  0  0  0
  -28.1180  -28.9852   21.1941 H   0  0  0  0  0  0
  -26.0076  -25.9311   18.9940 H   0  0  0  0  0  0
  -23.9795  -27.3040   19.0054 H   0  0  0  0  0  0
  -23.7558  -30.5904   19.4031 H   0  0  0  0  0  0
  -22.7565  -29.2436   19.8579 H   0  0  0  0  0  0
  -25.1294  -36.1939   25.0823 H   0  0  0  0  0  0
  -20.9979  -28.3264   24.1403 H   0  0  0  0  0  0
  -20.5672  -26.2301   23.3612 H   0  0  0  0  0  0
  -21.6645  -26.7434   22.1208 H   0  0  0  0  0  0
  -19.6911  -25.6294   21.1239 H   0  0  0  0  0  0
  -19.6683  -27.3196   20.6746 H   0  0  0  0  0  0
  -17.4199  -26.6671   21.4030 H   0  0  0  0  0  0
  -18.0330  -26.0067   22.9022 H   0  0  0  0  0  0
  -19.7940  -30.7273   24.2257 H   0  0  0  0  0  0
  -17.5016  -31.6260   24.5172 H   0  0  0  0  0  0
  -15.5354  -30.2984   23.7648 H   0  0  0  0  0  0
  -15.8678  -28.0822   22.7054 H   0  0  0  0  0  0
  -24.5903  -30.7070   25.7784 H   0  0  0  0  0  0
  -24.8923  -32.2888   26.4880 H   0  0  0  0  0  0
  -25.8059  -30.8899   27.0224 H   0  0  0  0  0  0
  -26.2909  -29.6759   24.1197 H   0  0  0  0  0  0
  -27.4039  -29.7263   25.4671 H   0  0  0  0  0  0
  -27.8775  -30.4298   23.9391 H   0  0  0  0  0  0
  -27.2662  -33.3617   26.2072 H   0  0  0  0  0  0
  -28.3862  -32.6884   25.0320 H   0  0  0  0  0  0
  -28.0722  -31.8443   26.5405 H   0  0  0  0  0  0
  -28.2604  -38.0095   24.7502 H   0  0  0  0  0  0
  -28.1067  -36.2626   24.6304 H   0  0  0  0  0  0
  -27.2293  -37.1471   25.8868 H   0  0  0  0  0  0
  -20.9369  -29.8774   21.6895 H   0  0  0  0  0  0
  -26.0175  -38.2854   24.1396 H   0  0  0  0  0  0
  -27.7799  -19.9350   20.9535 H   0  0  0  0  0  0
  -31.8129  -19.7541   19.5056 H   0  0  0  0  0  0
  -27.8341  -17.5009   21.3543 H   0  0  0  0  0  0
  -31.8777  -17.3495   19.8662 H   0  0  0  0  0  0
  -29.6258  -24.2730   19.2217 H   0  0  0  0  0  0
  -28.3200  -25.0929   21.7101 H   0  0  0  0  0  0
  -27.0731  -24.7722   20.5608 H   0  0  0  0  0  0
  -28.9019  -15.3839   21.1927 H   0  0  0  0  0  0
  -31.0335  -21.1691   18.2989 H   0  0  0  0  0  0
  -30.6058  -22.8147   18.3965 H   0  0  0  0  0  0
  1 25  1  0  0  0
  1 30  2  0  0  0
  1 81  1  0  0  0
  2  3  1  0  0  0
  2 25  1  0  0  0
  2 83  1  0  0  0
  2 84  1  0  0  0
  3  4  1  0  0  0
  3 85  1  0  0  0
  3 86  1  0  0  0
  4  5  1  0  0  0
  4 87  1  0  0  0
  4 88  1  0  0  0
  5  6  1  0  0  0
  5 26  1  0  0  0
  5 89  1  0  0  0
  6 25  1  0  0  0
  6 90  1  0  0  0
  6 91  1  0  0  0
  7  8  2  0  0  0
  7 26  1  0  0  0
  7 29  1  0  0  0
  8  9  1  0  0  0
  8 22  1  0  0  0
  9 10  1  0  0  0
  9 27  2  0  0  0
 10 11  2  0  0  0
 10 15  1  0  0  0
 11 12  1  0  0  0
 11 92  1  0  0  0
 12 13  2  0  0  0
 12 93  1  0  0  0
 13 14  1  0  0  0
 13 31  1  0  0  0
 14 15  2  0  0  0
 14 94  1  0  0  0
 15 95  1  0  0  0
 16 17  2  0  0  0
 16 21  1  0  0  0
 16 31  1  0  0  0
 17 18  1  0  0  0
 17 96  1  0  0  0
 18 19  2  0  0  0
 18 97  1  0  0  0
 19 20  1  0  0  0
 19 24  1  0  0  0
 20 21  2  0  0  0
 20 98  1  0  0  0
 21 23  1  0  0  0
 22 28  1  0  0  0
 22 32  2  0  0  0
 26 27  1  0  0  0
 28 99  1  0  0  0
 28100  1  0  0  0
 29101  1  0  0  0
 29102  1  0  0  0
 33 34  1  0  0  0
 33 66  1  0  0  0
 33 70  2  0  0  0
 34 36  1  0  0  0
 34 59  1  0  0  0
 34103  1  0  0  0
 35 44  2  0  0  0
 35 45  1  0  0  0
 35 68  1  0  0  0
 36 56  1  0  0  0
 36104  1  0  0  0
 37 39  1  0  0  0
 37 47  1  0  0  0
 37 66  1  0  0  0
 37105  1  0  0  0
 38 43  2  0  0  0
 38 46  1  0  0  0
 38 47  1  0  0  0
 39 64  1  0  0  0
 39 67  2  0  0  0
 40 52  1  0  0  0
 40 53  2  0  0  0
 40 58  1  0  0  0
 41106  1  0  0  0
 41107  1  0  0  0
 41108  1  0  0  0
 41 48  1  0  0  0
 42 43  1  0  0  0
 42 66  1  0  0  0
 42109  1  0  0  0
 42110  1  0  0  0
 43 44  1  0  0  0
 44111  1  0  0  0
 45 46  2  0  0  0
 45112  1  0  0  0
 46113  1  0  0  0
 47114  1  0  0  0
 47115  1  0  0  0
 48 56  1  0  0  0
 48 65  1  0  0  0
 48116  1  0  0  0
 49 50  1  0  0  0
 49 53  1  0  0  0
 49 64  1  0  0  0
 49117  1  0  0  0
 50 51  1  0  0  0
 50118  1  0  0  0
 50119  1  0  0  0
 51 52  1  0  0  0
 51120  1  0  0  0
 51121  1  0  0  0
 52122  1  0  0  0
 52123  1  0  0  0
 53 54  1  0  0  0
 54 55  2  0  0  0
 54124  1  0  0  0
 55 57  1  0  0  0
 55125  1  0  0  0
 56 69  2  0  0  0
 57 58  2  0  0  0
 57126  1  0  0  0
 58127  1  0  0  0
 59 60  1  0  0  0
 59 61  1  0  0  0
 59 62  1  0  0  0
 60128  1  0  0  0
 60129  1  0  0  0
 60130  1  0  0  0
 61131  1  0  0  0
 61132  1  0  0  0
 61133  1  0  0  0
 62134  1  0  0  0
 62135  1  0  0  0
 62136  1  0  0  0
 63 65  1  0  0  0
 63137  1  0  0  0
 63138  1  0  0  0
 63139  1  0  0  0
 64140  1  0  0  0
 65141  1  0  0  0
 68 79  1  0  0  0
 71 73  2  0  0  0
 71 75  1  0  0  0
 71142  1  0  0  0
 72 74  1  0  0  0
 72 75  2  0  0  0
 72143  1  0  0  0
 73 76  1  0  0  0
 73144  1  0  0  0
 74 76  2  0  0  0
 74145  1  0  0  0
 75 78  1  0  0  0
 76 81  1  0  0  0
 77 79  1  0  0  0
 77 80  2  0  0  0
 77146  1  0  0  0
 78 80  1  0  0  0
 78 82  2  0  0  0
 79147  1  0  0  0
 79148  1  0  0  0
 81149  1  0  0  0
 82150  1  0  0  0
 82151  1  0  0  0
M  CHG  1  82   1
M  ISO  4   1 100  68 101  79 101  81 100
M  END
> <chiral flag>
0

> <version>
0

> <s_m_source_file>
/data/baiqing/PycharmProjects/Reinvent-master-3.2/result/LINK_invent/BTK/process_docking_weight1_custom_product_contain_oxygen_bond_distance_aromatic_linkinvent_7_9_3/rearranged_h_0084.sdf

> <i_m_source_file_index>
50

> <r_mmod_Potential_Energy-OPLS-2005>
81.1418838500977

> <r_mmod_Stretch_Energy-OPLS-2005>
99.0531768798828

> <r_mmod_Bend_Energy-OPLS-2005>
143.254791259766

> <r_mmod_Torsional_Energy-OPLS-2005>
230.595520019531

> <r_mmod_Improper_Torsional_Energy-OPLS-2005>
4.38265037536621

> <r_mmod_Van_der_Waal_Energy-OPLS-2005>
155.92463684082

> <r_mmod_Electrostatic_Energy-OPLS-2005>
-128.853103637695

> <r_mmod_Solvation_Energy-OPLS-2005>
-475.848602294922

> <b_mmod_Minimization_Converged-OPLS-2005>
0

> <r_mmod_RMS_Derivative-OPLS-2005>
0.499122589826584

$$$$
50
                    3D
 Structure written by MMmdl.
161170  0  0  1  0            999 V2000
  -30.6662  -14.5153   20.5535 C   0  0  0  0  0  0
  -30.4313  -12.3276   19.4297 C   0  0  0  0  0  0
  -29.4990  -12.5134   18.2122 C   0  0  0  0  0  0
  -28.0198  -12.3678   18.6219 C   0  0  0  0  0  0
  -27.6618  -13.2071   19.8777 C   0  0  2  0  0  0
  -28.7042  -12.9885   20.9980 C   0  0  0  0  0  0
  -25.2578  -13.8152   20.5687 C   0  0  0  0  0  0
  -24.1831  -13.0426   20.9170 C   0  0  0  0  0  0
  -24.6396  -11.6898   20.8737 C   0  0  0  0  0  0
  -23.9062  -10.4284   21.0407 C   0  0  0  0  0  0
  -24.3617   -9.4201   21.9185 C   0  0  0  0  0  0
  -23.6293   -8.2238   22.0754 C   0  0  0  0  0  0
  -22.4270   -8.0281   21.3550 C   0  0  0  0  0  0
  -21.9910   -9.0251   20.4646 C   0  0  0  0  0  0
  -22.7237  -10.2130   20.3056 C   0  0  0  0  0  0
  -21.6849   -6.0739   22.5283 C   0  0  0  0  0  0
  -21.4012   -6.5644   23.8218 C   0  0  0  0  0  0
  -21.3662   -5.6796   24.9180 C   0  0  0  0  0  0
  -21.6050   -4.3060   24.7228 C   0  0  0  0  0  0
  -21.8823   -3.8150   23.4349 C   0  0  0  0  0  0
  -21.9189   -4.6967   22.3404 C   0  0  0  0  0  0
  -22.7856  -13.5223   21.1838 C   0  0  0  0  0  0
  -22.1657   -4.2151   21.0984 F   0  0  0  0  0  0
  -21.5633   -3.4548   25.7745 F   0  0  0  0  0  0
  -30.0343  -13.3110   20.4512 N   0  0  0  0  0  0
  -26.3025  -12.9329   20.3384 N   0  0  0  0  0  0
  -25.9326  -11.6489   20.5776 N   0  0  0  0  0  0
  -22.0504  -12.8211   22.0399 N   0  0  0  0  0  0
  -25.4286  -15.1873   20.4110 N   0  0  0  0  0  0
  -31.7938  -14.7115   20.0903 O   0  0  0  0  0  0
  -21.6633   -6.8879   21.4245 O   0  0  0  0  0  0
  -22.3536  -14.5531   20.6697 O   0  0  0  0  0  0
  -24.6160  -31.8665   23.2085 C   0  0  0  0  0  0
  -25.9042  -32.4820   23.8390 C   0  0  1  0  0  0
  -27.2365  -27.4217   20.1012 C   0  0  0  0  0  0
  -25.5895  -33.8618   24.2328 N   0  0  0  0  0  0
  -23.4063  -30.4877   21.5485 C   0  0  2  0  0  0
  -24.8573  -28.9533   20.1116 C   0  0  0  0  0  0
  -22.7420  -29.4645   22.4980 C   0  0  0  0  0  0
  -18.0274  -28.1377   22.8494 C   0  0  0  0  0  0
  -24.1492  -36.7313   23.2645 C   0  0  0  0  0  0
  -25.9361  -30.8280   21.3653 C   0  0  0  0  0  0
  -26.0167  -29.4611   20.7134 C   0  0  0  0  0  0
  -27.2117  -28.7013   20.7092 C   0  0  0  0  0  0
  -26.0664  -26.9353   19.4873 C   0  0  0  0  0  0
  -24.8770  -27.6893   19.4950 C   0  0  0  0  0  0
  -23.6170  -29.8188   20.1637 C   0  0  0  0  0  0
  -25.4118  -36.3114   24.0340 C   0  0  1  0  0  0
  -20.5865  -28.3666   23.1312 C   0  0  2  0  0  0
  -20.6759  -26.9401   22.5415 C   0  0  0  0  0  0
  -19.5739  -26.6385   21.5212 C   0  0  0  0  0  0
  -18.1922  -26.7925   22.1625 C   0  0  0  0  0  0
  -19.1524  -28.8840   23.2901 C   0  0  0  0  0  0
  -18.9451  -30.1447   23.8907 C   0  0  0  0  0  0
  -17.6453  -30.6586   24.0567 C   0  0  0  0  0  0
  -25.9037  -34.9473   23.5132 C   0  0  0  0  0  0
  -16.5347  -29.9086   23.6327 C   0  0  0  0  0  0
  -16.7263  -28.6503   23.0353 C   0  0  0  0  0  0
  -26.4464  -31.6591   25.0716 C   0  0  0  0  0  0
  -25.3732  -31.3701   26.1470 C   0  0  0  0  0  0
  -27.0283  -30.3028   24.6096 C   0  0  0  0  0  0
  -27.6040  -32.4303   25.7486 C   0  0  0  0  0  0
  -27.5575  -37.1837   24.8480 C   0  0  0  0  0  0
  -21.4143  -29.3031   22.3716 N   0  0  0  0  0  0
  -26.4318  -37.3782   23.9380 N   0  0  0  0  0  0
  -24.6708  -31.0755   22.0991 N   0  0  0  0  0  0
  -23.4181  -28.8192   23.3036 O   0  0  0  0  0  0
  -28.3459  -26.6025   20.1178 O   0  0  0  0  0  0
  -26.5602  -34.8921   22.4697 O   0  0  0  0  0  0
  -23.5347  -32.1425   23.7463 O   0  0  0  0  0  0
  -30.6539  -19.0095   19.7890 C   0  0  0  0  0  0
  -30.8241  -17.6231   20.0407 C   0  0  0  0  0  0
  -28.6583  -19.0271   21.1635 C   0  0  0  0  0  0
  -29.5671  -19.7343   20.3416 C   0  0  0  0  0  0
  -29.8974  -16.9137   20.8462 C   0  0  0  0  0  0
  -28.8242  -17.6429   21.4090 C   0  0  0  0  0  0
  -28.8142  -24.6451   21.5596 C   0  0  0  0  0  0
  -28.9898  -24.1973   22.9348 C   0  0  0  0  0  0
  -28.9038  -23.6274   20.4833 C   0  0  0  0  0  0
  -28.3265  -24.7584   23.9669 C   0  0  0  0  0  0
  -28.5749  -25.9689   21.3202 C   0  0  0  0  0  0
  -29.3420  -21.1639   19.9676 C   0  0  0  0  0  0
  -29.9204  -23.0450   23.1769 C   0  0  0  0  0  0
  -29.5012  -21.8702   22.2954 C   0  0  0  0  0  0
  -29.2403  -22.2174   20.8630 N   0  0  0  0  0  0
  -29.9254  -15.4989   21.1076 N   0  0  0  0  0  0
  -29.2469  -21.3590   18.6502 N   0  3  0  0  0  0
  -28.7043  -23.9028   19.2927 O   0  0  0  0  0  0
  -27.9156  -16.9906   22.1749 F   0  0  0  0  0  0
  -31.4746  -12.4378   19.1274 H   0  0  0  0  0  0
  -30.3435  -11.3160   19.8293 H   0  0  0  0  0  0
  -29.7447  -11.7908   17.4333 H   0  0  0  0  0  0
  -29.6617  -13.4996   17.7738 H   0  0  0  0  0  0
  -27.8312  -11.3114   18.8164 H   0  0  0  0  0  0
  -27.3701  -12.6410   17.7903 H   0  0  0  0  0  0
  -27.7023  -14.2555   19.5805 H   0  0  0  0  0  0
  -28.6873  -11.9490   21.3291 H   0  0  0  0  0  0
  -28.4571  -13.5757   21.8837 H   0  0  0  0  0  0
  -25.2770   -9.5672   22.4746 H   0  0  0  0  0  0
  -24.0006   -7.4632   22.7476 H   0  0  0  0  0  0
  -21.0845   -8.8777   19.8946 H   0  0  0  0  0  0
  -22.3711  -10.9672   19.6161 H   0  0  0  0  0  0
  -21.2002   -7.6154   23.9723 H   0  0  0  0  0  0
  -21.1479   -6.0527   25.9082 H   0  0  0  0  0  0
  -22.0594   -2.7610   23.2857 H   0  0  0  0  0  0
  -22.4130  -11.9865   22.4769 H   0  0  0  0  0  0
  -21.1126  -13.1236   22.2627 H   0  0  0  0  0  0
  -24.6658  -15.8431   20.5391 H   0  0  0  0  0  0
  -26.2920  -15.6348   20.1338 H   0  0  0  0  0  0
  -26.7118  -32.5538   23.1160 H   0  0  0  0  0  0
  -25.0049  -33.9776   25.0476 H   0  0  0  0  0  0
  -22.6951  -31.3043   21.4070 H   0  0  0  0  0  0
  -23.3720  -35.9689   23.3399 H   0  0  0  0  0  0
  -24.3558  -36.8823   22.2037 H   0  0  0  0  0  0
  -23.7295  -37.6573   23.6588 H   0  0  0  0  0  0
  -26.0509  -31.5929   20.5962 H   0  0  0  0  0  0
  -26.8230  -30.8827   21.9849 H   0  0  0  0  0  0
  -28.1055  -29.0836   21.1821 H   0  0  0  0  0  0
  -26.0758  -25.9594   19.0234 H   0  0  0  0  0  0
  -23.9857  -27.2916   19.0299 H   0  0  0  0  0  0
  -23.7229  -30.5936   19.4037 H   0  0  0  0  0  0
  -22.7421  -29.2360   19.8688 H   0  0  0  0  0  0
  -25.1311  -36.1998   25.0838 H   0  0  0  0  0  0
  -20.9963  -28.3237   24.1433 H   0  0  0  0  0  0
  -20.5665  -26.2274   23.3607 H   0  0  0  0  0  0
  -21.6632  -26.7432   22.1216 H   0  0  0  0  0  0
  -19.6900  -25.6297   21.1233 H   0  0  0  0  0  0
  -19.6685  -27.3201   20.6750 H   0  0  0  0  0  0
  -17.4192  -26.6681   21.4025 H   0  0  0  0  0  0
  -18.0318  -26.0062   22.9016 H   0  0  0  0  0  0
  -19.7924  -30.7263   24.2286 H   0  0  0  0  0  0
  -17.5006  -31.6270   24.5167 H   0  0  0  0  0  0
  -15.5350  -30.2997   23.7638 H   0  0  0  0  0  0
  -15.8664  -28.0828   22.7061 H   0  0  0  0  0  0
  -24.5895  -30.7060   25.7803 H   0  0  0  0  0  0
  -24.8939  -32.2857   26.4935 H   0  0  0  0  0  0
  -25.8090  -30.8850   27.0214 H   0  0  0  0  0  0
  -26.2822  -29.6811   24.1128 H   0  0  0  0  0  0
  -27.4018  -29.7241   25.4554 H   0  0  0  0  0  0
  -27.8678  -30.4336   23.9263 H   0  0  0  0  0  0
  -27.2663  -33.3586   26.2102 H   0  0  0  0  0  0
  -28.3837  -32.6886   25.0306 H   0  0  0  0  0  0
  -28.0726  -31.8398   26.5373 H   0  0  0  0  0  0
  -28.2675  -38.0049   24.7412 H   0  0  0  0  0  0
  -28.0987  -36.2578   24.6471 H   0  0  0  0  0  0
  -27.2267  -37.1691   25.8879 H   0  0  0  0  0  0
  -20.9304  -29.8766   21.6947 H   0  0  0  0  0  0
  -26.0219  -38.2885   24.1291 H   0  0  0  0  0  0
  -31.3626  -19.5159   19.1465 H   0  0  0  0  0  0
  -31.6616  -17.1197   19.5815 H   0  0  0  0  0  0
  -27.7958  -19.5262   21.5795 H   0  0  0  0  0  0
  -27.6267  -25.5717   23.8343 H   0  0  0  0  0  0
  -28.4628  -24.4058   24.9798 H   0  0  0  0  0  0
  -28.5335  -26.6852   22.1284 H   0  0  0  0  0  0
  -29.9065  -22.7439   24.2255 H   0  0  0  0  0  0
  -30.9434  -23.3508   22.9541 H   0  0  0  0  0  0
  -28.5907  -21.4368   22.7119 H   0  0  0  0  0  0
  -30.2818  -21.1142   22.3955 H   0  0  0  0  0  0
  -29.1008  -15.1696   21.5853 H   0  0  0  0  0  0
  -29.2841  -20.5851   18.0062 H   0  0  0  0  0  0
  -29.0488  -22.2957   18.3157 H   0  0  0  0  0  0
  1 25  1  0  0  0
  1 30  2  0  0  0
  1 86  1  0  0  0
  2  3  1  0  0  0
  2 25  1  0  0  0
  2 90  1  0  0  0
  2 91  1  0  0  0
  3  4  1  0  0  0
  3 92  1  0  0  0
  3 93  1  0  0  0
  4  5  1  0  0  0
  4 94  1  0  0  0
  4 95  1  0  0  0
  5  6  1  0  0  0
  5 26  1  0  0  0
  5 96  1  0  0  0
  6 25  1  0  0  0
  6 97  1  0  0  0
  6 98  1  0  0  0
  7  8  2  0  0  0
  7 26  1  0  0  0
  7 29  1  0  0  0
  8  9  1  0  0  0
  8 22  1  0  0  0
  9 10  1  0  0  0
  9 27  2  0  0  0
 10 11  2  0  0  0
 10 15  1  0  0  0
 11 12  1  0  0  0
 11 99  1  0  0  0
 12 13  2  0  0  0
 12100  1  0  0  0
 13 14  1  0  0  0
 13 31  1  0  0  0
 14 15  2  0  0  0
 14101  1  0  0  0
 15102  1  0  0  0
 16 17  2  0  0  0
 16 21  1  0  0  0
 16 31  1  0  0  0
 17 18  1  0  0  0
 17103  1  0  0  0
 18 19  2  0  0  0
 18104  1  0  0  0
 19 20  1  0  0  0
 19 24  1  0  0  0
 20 21  2  0  0  0
 20105  1  0  0  0
 21 23  1  0  0  0
 22 28  1  0  0  0
 22 32  2  0  0  0
 26 27  1  0  0  0
 28106  1  0  0  0
 28107  1  0  0  0
 29108  1  0  0  0
 29109  1  0  0  0
 33 34  1  0  0  0
 33 66  1  0  0  0
 33 70  2  0  0  0
 34 36  1  0  0  0
 34 59  1  0  0  0
 34110  1  0  0  0
 35 44  2  0  0  0
 35 45  1  0  0  0
 35 68  1  0  0  0
 36 56  1  0  0  0
 36111  1  0  0  0
 37 39  1  0  0  0
 37 47  1  0  0  0
 37 66  1  0  0  0
 37112  1  0  0  0
 38 43  2  0  0  0
 38 46  1  0  0  0
 38 47  1  0  0  0
 39 64  1  0  0  0
 39 67  2  0  0  0
 40 52  1  0  0  0
 40 53  2  0  0  0
 40 58  1  0  0  0
 41113  1  0  0  0
 41114  1  0  0  0
 41115  1  0  0  0
 41 48  1  0  0  0
 42 43  1  0  0  0
 42 66  1  0  0  0
 42116  1  0  0  0
 42117  1  0  0  0
 43 44  1  0  0  0
 44118  1  0  0  0
 45 46  2  0  0  0
 45119  1  0  0  0
 46120  1  0  0  0
 47121  1  0  0  0
 47122  1  0  0  0
 48 56  1  0  0  0
 48 65  1  0  0  0
 48123  1  0  0  0
 49 50  1  0  0  0
 49 53  1  0  0  0
 49 64  1  0  0  0
 49124  1  0  0  0
 50 51  1  0  0  0
 50125  1  0  0  0
 50126  1  0  0  0
 51 52  1  0  0  0
 51127  1  0  0  0
 51128  1  0  0  0
 52129  1  0  0  0
 52130  1  0  0  0
 53 54  1  0  0  0
 54 55  2  0  0  0
 54131  1  0  0  0
 55 57  1  0  0  0
 55132  1  0  0  0
 56 69  2  0  0  0
 57 58  2  0  0  0
 57133  1  0  0  0
 58134  1  0  0  0
 59 60  1  0  0  0
 59 61  1  0  0  0
 59 62  1  0  0  0
 60135  1  0  0  0
 60136  1  0  0  0
 60137  1  0  0  0
 61138  1  0  0  0
 61139  1  0  0  0
 61140  1  0  0  0
 62141  1  0  0  0
 62142  1  0  0  0
 62143  1  0  0  0
 63 65  1  0  0  0
 63144  1  0  0  0
 63145  1  0  0  0
 63146  1  0  0  0
 64147  1  0  0  0
 65148  1  0  0  0
 68 81  1  0  0  0
 71 72  2  0  0  0
 71 74  1  0  0  0
 71149  1  0  0  0
 72 75  1  0  0  0
 72150  1  0  0  0
 73 74  2  0  0  0
 73 76  1  0  0  0
 73151  1  0  0  0
 74 82  1  0  0  0
 75 76  2  0  0  0
 75 86  1  0  0  0
 76 89  1  0  0  0
 77 78  1  0  0  0
 77 79  1  0  0  0
 77 81  2  0  0  0
 78 80  2  0  0  0
 78 83  1  0  0  0
 79 85  1  0  0  0
 79 88  2  0  0  0
 80152  1  0  0  0
 80153  1  0  0  0
 81154  1  0  0  0
 82 85  1  0  0  0
 82 87  2  0  0  0
 83 84  1  0  0  0
 83155  1  0  0  0
 83156  1  0  0  0
 84 85  1  0  0  0
 84157  1  0  0  0
 84158  1  0  0  0
 86159  1  0  0  0
 87160  1  0  0  0
 87161  1  0  0  0
M  CHG  1  87   1
M  ISO  4   1 100  68 101  81 101  86 100
M  END
> <chiral flag>
0

> <version>
0

> <s_m_source_file>
/data/baiqing/PycharmProjects/Reinvent-master-3.2/result/LINK_invent/BTK/process_docking_weight1_custom_product_contain_oxygen_bond_distance_aromatic_linkinvent_7_9_3/rearranged_h_0084.sdf

> <i_m_source_file_index>
51

> <r_mmod_Potential_Energy-OPLS-2005>
-159.232559204102

> <r_mmod_Stretch_Energy-OPLS-2005>
58.9193382263184

> <r_mmod_Bend_Energy-OPLS-2005>
132.726028442383

> <r_mmod_Torsional_Energy-OPLS-2005>
266.090606689453

> <r_mmod_Improper_Torsional_Energy-OPLS-2005>
4.01375102996826

> <r_mmod_Van_der_Waal_Energy-OPLS-2005>
186.3896484375

> <r_mmod_Electrostatic_Energy-OPLS-2005>
-426.712951660156

> <r_mmod_Solvation_Energy-OPLS-2005>
-398.353210449219

> <b_mmod_Minimization_Converged-OPLS-2005>
0

> <r_mmod_RMS_Derivative-OPLS-2005>
1.08544158935547

$$$$
51
                    3D
 Structure written by MMmdl.
156165  0  0  1  0            999 V2000
  -30.6952  -14.9257   20.3133 C   0  0  0  0  0  0
  -30.4133  -12.5838   19.4135 C   0  0  0  0  0  0
  -29.4542  -12.3379   18.2317 C   0  0  0  0  0  0
  -28.0169  -12.1754   18.7334 C   0  0  0  0  0  0
  -27.6048  -13.2246   19.7943 C   0  0  2  0  0  0
  -28.6859  -13.3895   20.8811 C   0  0  0  0  0  0
  -25.2360  -13.8150   20.5731 C   0  0  0  0  0  0
  -24.1689  -13.0400   20.9293 C   0  0  0  0  0  0
  -24.6245  -11.6884   20.8870 C   0  0  0  0  0  0
  -23.8943  -10.4246   21.0395 C   0  0  0  0  0  0
  -24.3517   -9.4152   21.9131 C   0  0  0  0  0  0
  -23.6201   -8.2178   22.0702 C   0  0  0  0  0  0
  -22.4204   -8.0198   21.3479 C   0  0  0  0  0  0
  -21.9827   -9.0170   20.4601 C   0  0  0  0  0  0
  -22.7126  -10.2063   20.3024 C   0  0  0  0  0  0
  -21.6838   -6.0617   22.5228 C   0  0  0  0  0  0
  -21.3995   -6.5553   23.8139 C   0  0  0  0  0  0
  -21.3683   -5.6739   24.9131 C   0  0  0  0  0  0
  -21.6053   -4.2997   24.7228 C   0  0  0  0  0  0
  -21.8836   -3.8051   23.4369 C   0  0  0  0  0  0
  -21.9196   -4.6844   22.3396 C   0  0  0  0  0  0
  -22.7696  -13.5174   21.1892 C   0  0  0  0  0  0
  -22.1659   -4.2008   21.0975 F   0  0  0  0  0  0
  -21.5677   -3.4508   25.7764 F   0  0  0  0  0  0
  -29.9218  -13.7740   20.1679 N   0  0  0  0  0  0
  -26.2790  -12.9373   20.3315 N   0  0  0  0  0  0
  -25.9191  -11.6539   20.5948 N   0  0  0  0  0  0
  -22.0399  -12.8141   22.0488 N   0  0  0  0  0  0
  -25.3901  -15.1848   20.3949 N   0  0  0  0  0  0
  -31.8941  -14.7157   20.5079 O   0  0  0  0  0  0
  -21.6613   -6.8758   21.4171 O   0  0  0  0  0  0
  -22.3373  -14.5462   20.6733 O   0  0  0  0  0  0
  -24.6369  -31.8447   23.1898 C   0  0  0  0  0  0
  -25.9187  -32.4676   23.8271 C   0  0  1  0  0  0
  -27.2368  -27.1906   20.1473 C   0  0  0  0  0  0
  -25.5962  -33.8482   24.2188 N   0  0  0  0  0  0
  -23.4376  -30.4597   21.5340 C   0  0  2  0  0  0
  -24.8950  -28.8879   20.1184 C   0  0  0  0  0  0
  -22.7520  -29.4527   22.4896 C   0  0  0  0  0  0
  -18.0295  -28.1432   22.8454 C   0  0  0  0  0  0
  -24.1488  -36.7232   23.2643 C   0  0  0  0  0  0
  -25.9911  -30.7293   21.3884 C   0  0  0  0  0  0
  -26.0667  -29.3452   20.7372 C   0  0  0  0  0  0
  -27.2391  -28.5074   20.7461 C   0  0  0  0  0  0
  -26.0359  -26.8117   19.5146 C   0  0  0  0  0  0
  -24.8849  -27.6249   19.5049 C   0  0  0  0  0  0
  -23.6646  -29.7811   20.1572 C   0  0  0  0  0  0
  -25.4111  -36.2999   24.0315 C   0  0  1  0  0  0
  -20.5906  -28.3737   23.1272 C   0  0  2  0  0  0
  -20.6786  -26.9450   22.5418 C   0  0  0  0  0  0
  -19.5756  -26.6386   21.5234 C   0  0  0  0  0  0
  -18.1936  -26.7946   22.1643 C   0  0  0  0  0  0
  -19.1544  -28.8903   23.2844 C   0  0  0  0  0  0
  -18.9480  -30.1511   23.8830 C   0  0  0  0  0  0
  -17.6473  -30.6610   24.0590 C   0  0  0  0  0  0
  -25.9064  -34.9388   23.5059 C   0  0  0  0  0  0
  -16.5358  -29.9106   23.6348 C   0  0  0  0  0  0
  -16.7286  -28.6561   23.0297 C   0  0  0  0  0  0
  -26.4495  -31.6540   25.0705 C   0  0  0  0  0  0
  -25.3692  -31.3836   26.1433 C   0  0  0  0  0  0
  -27.0357  -30.2904   24.6355 C   0  0  0  0  0  0
  -27.5986  -32.4342   25.7489 C   0  0  0  0  0  0
  -27.5559  -37.1768   24.8429 C   0  0  0  0  0  0
  -21.4218  -29.3035   22.3610 N   0  0  0  0  0  0
  -26.4261  -37.3727   23.9418 N   0  0  0  0  0  0
  -24.7060  -31.0322   22.0914 N   0  0  0  0  0  0
  -23.4194  -28.8099   23.3026 O   0  0  0  0  0  0
  -28.3036  -26.2394   20.1079 O   0  0  0  0  0  0
  -26.5639  -34.8884   22.4620 O   0  0  0  0  0  0
  -23.5504  -32.1339   23.7147 O   0  0  0  0  0  0
  -27.2728  -18.1336   20.7403 C   0  0  0  0  0  0
  -27.6060  -19.4991   20.6311 C   0  0  0  0  0  0
  -28.2199  -17.1135   20.5380 C   0  0  0  0  0  0
  -29.8337  -18.8773   20.0590 C   0  0  0  0  0  0
  -28.9000  -20.0013   20.3377 C   0  0  0  0  0  0
  -29.5387  -17.4068   20.1541 C   0  0  0  0  0  0
  -28.5407  -23.6048   20.4725 C   0  0  0  0  0  0
  -28.2754  -22.4410   21.3171 C   0  0  0  0  0  0
  -31.7528  -15.7309   16.4063 C   0  0  0  0  0  0
  -28.1414  -24.9399   20.7211 C   0  0  0  0  0  0
  -30.9266  -15.7090   17.4658 C   0  0  0  0  0  0
  -31.1761  -16.5144   18.6539 C   0  0  0  0  0  0
  -29.2569  -22.6099   19.4764 C   0  0  0  0  0  0
  -29.0039  -21.5223   20.4996 N   0  0  0  0  0  0
  -30.3694  -16.1991   19.7044 N   0  0  0  0  0  0
  -27.5665  -22.3458   22.3014 O   0  0  0  0  0  0
  -32.0721  -17.3667   18.7241 O   0  0  0  0  0  0
  -31.4226  -12.7206   19.0257 H   0  0  0  0  0  0
  -30.4605  -11.7049   20.0595 H   0  0  0  0  0  0
  -29.7405  -11.4271   17.7007 H   0  0  0  0  0  0
  -29.5016  -13.1234   17.4875 H   0  0  0  0  0  0
  -27.9603  -11.1787   19.1776 H   0  0  0  0  0  0
  -27.3102  -12.1527   17.9067 H   0  0  0  0  0  0
  -27.5253  -14.1657   19.2524 H   0  0  0  0  0  0
  -28.8003  -12.4657   21.4467 H   0  0  0  0  0  0
  -28.3972  -14.1580   21.6014 H   0  0  0  0  0  0
  -25.2623   -9.5647   22.4728 H   0  0  0  0  0  0
  -23.9889   -7.4579   22.7455 H   0  0  0  0  0  0
  -21.0737   -8.8630   19.8955 H   0  0  0  0  0  0
  -22.3456  -10.9575   19.6184 H   0  0  0  0  0  0
  -21.1915   -7.6049   23.9602 H   0  0  0  0  0  0
  -21.1532   -6.0463   25.9018 H   0  0  0  0  0  0
  -22.0605   -2.7493   23.2916 H   0  0  0  0  0  0
  -22.4074  -11.9783   22.4826 H   0  0  0  0  0  0
  -21.1008  -13.1121   22.2831 H   0  0  0  0  0  0
  -24.6051  -15.8182   20.4918 H   0  0  0  0  0  0
  -26.1791  -15.6066   19.9250 H   0  0  0  0  0  0
  -26.7241  -32.5303   23.0998 H   0  0  0  0  0  0
  -25.0056  -33.9596   25.0297 H   0  0  0  0  0  0
  -22.7345  -31.2826   21.3766 H   0  0  0  0  0  0
  -23.3741  -35.9561   23.3229 H   0  0  0  0  0  0
  -24.3561  -36.8924   22.2052 H   0  0  0  0  0  0
  -23.7255  -37.6425   23.6718 H   0  0  0  0  0  0
  -26.1474  -31.4891   20.6204 H   0  0  0  0  0  0
  -26.8592  -30.7766   22.0364 H   0  0  0  0  0  0
  -28.1335  -28.8503   21.2492 H   0  0  0  0  0  0
  -25.9795  -25.8443   19.0377 H   0  0  0  0  0  0
  -23.9849  -27.2574   19.0315 H   0  0  0  0  0  0
  -23.7918  -30.5504   19.3925 H   0  0  0  0  0  0
  -22.7812  -29.2163   19.8537 H   0  0  0  0  0  0
  -25.1280  -36.1767   25.0805 H   0  0  0  0  0  0
  -20.9973  -28.3341   24.1411 H   0  0  0  0  0  0
  -20.5706  -26.2344   23.3635 H   0  0  0  0  0  0
  -21.6671  -26.7459   22.1245 H   0  0  0  0  0  0
  -19.6912  -25.6301   21.1276 H   0  0  0  0  0  0
  -19.6687  -27.3197   20.6765 H   0  0  0  0  0  0
  -17.4192  -26.6682   21.4058 H   0  0  0  0  0  0
  -18.0332  -26.0137   22.9080 H   0  0  0  0  0  0
  -19.7943  -30.7388   24.2141 H   0  0  0  0  0  0
  -17.5007  -31.6253   24.5258 H   0  0  0  0  0  0
  -15.5357  -30.2996   23.7710 H   0  0  0  0  0  0
  -15.8702  -28.0915   22.6961 H   0  0  0  0  0  0
  -24.5761  -30.7279   25.7791 H   0  0  0  0  0  0
  -24.9047  -32.3117   26.4794 H   0  0  0  0  0  0
  -25.7975  -30.9018   27.0237 H   0  0  0  0  0  0
  -26.3014  -29.6615   24.1307 H   0  0  0  0  0  0
  -27.3835  -29.7202   25.4973 H   0  0  0  0  0  0
  -27.8950  -30.4043   23.9754 H   0  0  0  0  0  0
  -27.2502  -33.3626   26.2037 H   0  0  0  0  0  0
  -28.3829  -32.6969   25.0369 H   0  0  0  0  0  0
  -28.0634  -31.8532   26.5481 H   0  0  0  0  0  0
  -28.2535  -38.0118   24.7546 H   0  0  0  0  0  0
  -28.1147  -36.2659   24.6156 H   0  0  0  0  0  0
  -27.2322  -37.1234   25.8855 H   0  0  0  0  0  0
  -20.9402  -29.8757   21.6809 H   0  0  0  0  0  0
  -26.0083  -38.2761   24.1505 H   0  0  0  0  0  0
  -26.2491  -17.8680   20.9835 H   0  0  0  0  0  0
  -26.7984  -20.1960   20.8125 H   0  0  0  0  0  0
  -27.9126  -16.0836   20.6163 H   0  0  0  0  0  0
  -30.8340  -19.1840   19.7685 H   0  0  0  0  0  0
  -31.5416  -15.1158   15.5395 H   0  0  0  0  0  0
  -32.6409  -16.3497   16.3793 H   0  0  0  0  0  0
  -27.5910  -25.0833   21.6446 H   0  0  0  0  0  0
  -30.0401  -15.0938   17.4369 H   0  0  0  0  0  0
  -30.3230  -22.7612   19.2885 H   0  0  0  0  0  0
  -28.7472  -22.4222   18.5313 H   0  0  0  0  0  0
  1 25  1  0  0  0
  1 30  2  0  0  0
  1 85  1  0  0  0
  2  3  1  0  0  0
  2 25  1  0  0  0
  2 88  1  0  0  0
  2 89  1  0  0  0
  3  4  1  0  0  0
  3 90  1  0  0  0
  3 91  1  0  0  0
  4  5  1  0  0  0
  4 92  1  0  0  0
  4 93  1  0  0  0
  5  6  1  0  0  0
  5 26  1  0  0  0
  5 94  1  0  0  0
  6 25  1  0  0  0
  6 95  1  0  0  0
  6 96  1  0  0  0
  7  8  2  0  0  0
  7 26  1  0  0  0
  7 29  1  0  0  0
  8  9  1  0  0  0
  8 22  1  0  0  0
  9 10  1  0  0  0
  9 27  2  0  0  0
 10 11  2  0  0  0
 10 15  1  0  0  0
 11 12  1  0  0  0
 11 97  1  0  0  0
 12 13  2  0  0  0
 12 98  1  0  0  0
 13 14  1  0  0  0
 13 31  1  0  0  0
 14 15  2  0  0  0
 14 99  1  0  0  0
 15100  1  0  0  0
 16 17  2  0  0  0
 16 21  1  0  0  0
 16 31  1  0  0  0
 17 18  1  0  0  0
 17101  1  0  0  0
 18 19  2  0  0  0
 18102  1  0  0  0
 19 20  1  0  0  0
 19 24  1  0  0  0
 20 21  2  0  0  0
 20103  1  0  0  0
 21 23  1  0  0  0
 22 28  1  0  0  0
 22 32  2  0  0  0
 26 27  1  0  0  0
 28104  1  0  0  0
 28105  1  0  0  0
 29106  1  0  0  0
 29107  1  0  0  0
 33 34  1  0  0  0
 33 66  1  0  0  0
 33 70  2  0  0  0
 34 36  1  0  0  0
 34 59  1  0  0  0
 34108  1  0  0  0
 35 44  2  0  0  0
 35 45  1  0  0  0
 35 68  1  0  0  0
 36 56  1  0  0  0
 36109  1  0  0  0
 37 39  1  0  0  0
 37 47  1  0  0  0
 37 66  1  0  0  0
 37110  1  0  0  0
 38 43  2  0  0  0
 38 46  1  0  0  0
 38 47  1  0  0  0
 39 64  1  0  0  0
 39 67  2  0  0  0
 40 52  1  0  0  0
 40 53  2  0  0  0
 40 58  1  0  0  0
 41111  1  0  0  0
 41112  1  0  0  0
 41113  1  0  0  0
 41 48  1  0  0  0
 42 43  1  0  0  0
 42 66  1  0  0  0
 42114  1  0  0  0
 42115  1  0  0  0
 43 44  1  0  0  0
 44116  1  0  0  0
 45 46  2  0  0  0
 45117  1  0  0  0
 46118  1  0  0  0
 47119  1  0  0  0
 47120  1  0  0  0
 48 56  1  0  0  0
 48 65  1  0  0  0
 48121  1  0  0  0
 49 50  1  0  0  0
 49 53  1  0  0  0
 49 64  1  0  0  0
 49122  1  0  0  0
 50 51  1  0  0  0
 50123  1  0  0  0
 50124  1  0  0  0
 51 52  1  0  0  0
 51125  1  0  0  0
 51126  1  0  0  0
 52127  1  0  0  0
 52128  1  0  0  0
 53 54  1  0  0  0
 54 55  2  0  0  0
 54129  1  0  0  0
 55 57  1  0  0  0
 55130  1  0  0  0
 56 69  2  0  0  0
 57 58  2  0  0  0
 57131  1  0  0  0
 58132  1  0  0  0
 59 60  1  0  0  0
 59 61  1  0  0  0
 59 62  1  0  0  0
 60133  1  0  0  0
 60134  1  0  0  0
 60135  1  0  0  0
 61136  1  0  0  0
 61137  1  0  0  0
 61138  1  0  0  0
 62139  1  0  0  0
 62140  1  0  0  0
 62141  1  0  0  0
 63 65  1  0  0  0
 63142  1  0  0  0
 63143  1  0  0  0
 63144  1  0  0  0
 64145  1  0  0  0
 65146  1  0  0  0
 68 80  1  0  0  0
 71 72  2  0  0  0
 71 73  1  0  0  0
 71147  1  0  0  0
 72 75  1  0  0  0
 72148  1  0  0  0
 73 76  2  0  0  0
 73149  1  0  0  0
 74 75  2  0  0  0
 74 76  1  0  0  0
 74150  1  0  0  0
 75 84  1  0  0  0
 76 85  1  0  0  0
 77 78  1  0  0  0
 77 80  2  0  0  0
 77 83  1  0  0  0
 78 84  1  0  0  0
 78 86  2  0  0  0
 79 81  2  0  0  0
 79151  1  0  0  0
 79152  1  0  0  0
 80153  1  0  0  0
 81 82  1  0  0  0
 81154  1  0  0  0
 82 85  1  0  0  0
 82 87  2  0  0  0
 83 84  1  0  0  0
 83155  1  0  0  0
 83156  1  0  0  0
M  ISO  4   1 100  68 101  80 101  85 100
M  END
> <chiral flag>
0

> <version>
0

> <s_m_source_file>
/data/baiqing/PycharmProjects/Reinvent-master-3.2/result/LINK_invent/BTK/process_docking_weight1_custom_product_contain_oxygen_bond_distance_aromatic_linkinvent_7_9_3/rearranged_h_0084.sdf

> <i_m_source_file_index>
52

> <r_mmod_Potential_Energy-OPLS-2005>
826.005859375

> <r_mmod_Stretch_Energy-OPLS-2005>
211.898300170898

> <r_mmod_Bend_Energy-OPLS-2005>
344.604309082031

> <r_mmod_Torsional_Energy-OPLS-2005>
406.226715087891

> <r_mmod_Improper_Torsional_Energy-OPLS-2005>
27.8708190917969

> <r_mmod_Van_der_Waal_Energy-OPLS-2005>
148.862854003906

> <r_mmod_Electrostatic_Energy-OPLS-2005>
-320.595428466797

> <r_mmod_Solvation_Energy-OPLS-2005>
-208.216766357422

> <b_mmod_Minimization_Converged-OPLS-2005>
0

> <r_mmod_RMS_Derivative-OPLS-2005>
7.66163349151611

$$$$
52
                    3D
 Structure written by MMmdl.
156165  0  0  1  0            999 V2000
  -30.6687  -14.6723   20.5308 C   0  0  0  0  0  0
  -30.4394  -12.4213   19.4879 C   0  0  0  0  0  0
  -29.5267  -12.4853   18.2468 C   0  0  0  0  0  0
  -28.0461  -12.3300   18.6483 C   0  0  0  0  0  0
  -27.6524  -13.2232   19.8539 C   0  0  2  0  0  0
  -28.6900  -13.1487   20.9951 C   0  0  0  0  0  0
  -25.2560  -13.8185   20.5656 C   0  0  0  0  0  0
  -24.1813  -13.0461   20.9157 C   0  0  0  0  0  0
  -24.6383  -11.6929   20.8694 C   0  0  0  0  0  0
  -23.9018  -10.4314   21.0362 C   0  0  0  0  0  0
  -24.3570   -9.4245   21.9155 C   0  0  0  0  0  0
  -23.6273   -8.2261   22.0730 C   0  0  0  0  0  0
  -22.4254   -8.0280   21.3541 C   0  0  0  0  0  0
  -21.9856   -9.0239   20.4647 C   0  0  0  0  0  0
  -22.7169  -10.2132   20.3055 C   0  0  0  0  0  0
  -21.6885   -6.0719   22.5263 C   0  0  0  0  0  0
  -21.4014   -6.5622   23.8179 C   0  0  0  0  0  0
  -21.3656   -5.6773   24.9137 C   0  0  0  0  0  0
  -21.6041   -4.3037   24.7200 C   0  0  0  0  0  0
  -21.8820   -3.8151   23.4329 C   0  0  0  0  0  0
  -21.9195   -4.6968   22.3383 C   0  0  0  0  0  0
  -22.7866  -13.5263   21.1827 C   0  0  0  0  0  0
  -22.1691   -4.2175   21.0972 F   0  0  0  0  0  0
  -21.5628   -3.4514   25.7704 F   0  0  0  0  0  0
  -30.0014  -13.4784   20.4237 N   0  0  0  0  0  0
  -26.2973  -12.9350   20.3219 N   0  0  0  0  0  0
  -25.9311  -11.6515   20.5692 N   0  0  0  0  0  0
  -22.0511  -12.8292   22.0399 N   0  0  0  0  0  0
  -25.4409  -15.1892   20.4126 N   0  0  0  0  0  0
  -31.8461  -14.7596   20.1685 O   0  0  0  0  0  0
  -21.6663   -6.8851   21.4199 O   0  0  0  0  0  0
  -22.3553  -14.5586   20.6688 O   0  0  0  0  0  0
  -24.6287  -31.8582   23.2032 C   0  0  0  0  0  0
  -25.9132  -32.4779   23.8362 C   0  0  1  0  0  0
  -27.2279  -27.2976   20.0970 C   0  0  0  0  0  0
  -25.5933  -33.8580   24.2290 N   0  0  0  0  0  0
  -23.4238  -30.4806   21.5487 C   0  0  2  0  0  0
  -24.8680  -28.9385   20.1121 C   0  0  0  0  0  0
  -22.7499  -29.4588   22.4943 C   0  0  0  0  0  0
  -18.0299  -28.1414   22.8466 C   0  0  0  0  0  0
  -24.1491  -36.7297   23.2622 C   0  0  0  0  0  0
  -25.9677  -30.7803   21.3792 C   0  0  0  0  0  0
  -26.0422  -29.4080   20.7144 C   0  0  0  0  0  0
  -27.2213  -28.5977   20.6999 C   0  0  0  0  0  0
  -26.0118  -26.8808   19.5003 C   0  0  0  0  0  0
  -24.8561  -27.6792   19.5006 C   0  0  0  0  0  0
  -23.6392  -29.8235   20.1611 C   0  0  0  0  0  0
  -25.4104  -36.3066   24.0315 C   0  0  1  0  0  0
  -20.5898  -28.3699   23.1285 C   0  0  2  0  0  0
  -20.6783  -26.9414   22.5404 C   0  0  0  0  0  0
  -19.5763  -26.6402   21.5205 C   0  0  0  0  0  0
  -18.1946  -26.7958   22.1605 C   0  0  0  0  0  0
  -19.1549  -28.8883   23.2870 C   0  0  0  0  0  0
  -18.9459  -30.1490   23.8884 C   0  0  0  0  0  0
  -17.6459  -30.6580   24.0584 C   0  0  0  0  0  0
  -25.9043  -34.9445   23.5104 C   0  0  0  0  0  0
  -16.5368  -29.9084   23.6340 C   0  0  0  0  0  0
  -16.7293  -28.6526   23.0338 C   0  0  0  0  0  0
  -26.4498  -31.6612   25.0755 C   0  0  0  0  0  0
  -25.3718  -31.3799   26.1483 C   0  0  0  0  0  0
  -27.0327  -30.3021   24.6249 C   0  0  0  0  0  0
  -27.6072  -32.4347   25.7516 C   0  0  0  0  0  0
  -27.5598  -37.1763   24.8413 C   0  0  0  0  0  0
  -21.4198  -29.3036   22.3677 N   0  0  0  0  0  0
  -26.4264  -37.3773   23.9422 N   0  0  0  0  0  0
  -24.6937  -31.0559   22.1005 N   0  0  0  0  0  0
  -23.4210  -28.8101   23.3004 O   0  0  0  0  0  0
  -28.3405  -26.4270   20.1448 O   0  0  0  0  0  0
  -26.5601  -34.8905   22.4663 O   0  0  0  0  0  0
  -23.5445  -32.1403   23.7336 O   0  0  0  0  0  0
  -32.1648  -18.5955   22.0962 C   0  0  0  0  0  0
  -31.5485  -19.7539   21.5910 C   0  0  0  0  0  0
  -31.6100  -17.3259   21.8538 C   0  0  0  0  0  0
  -30.3378  -19.7018   20.8576 C   0  0  0  0  0  0
  -30.4602  -17.1681   21.0510 C   0  0  0  0  0  0
  -29.8169  -18.3768   20.5707 C   0  0  0  0  0  0
  -28.7301  -23.9101   19.9229 C   0  0  0  0  0  0
  -29.2678  -21.3423   19.2689 C   0  0  0  0  0  0
  -28.2771  -25.1549   19.5282 C   0  0  0  0  0  0
  -28.4343  -22.6528   19.0794 C   0  0  0  0  0  0
  -29.4921  -23.5572   21.1988 C   0  0  0  0  0  0
  -29.5231  -22.0229   21.5863 C   0  0  0  0  0  0
  -29.6997  -20.9959   20.5149 N   0  0  0  0  0  0
  -29.9518  -15.8085   20.8294 N   0  0  0  0  0  0
  -29.5031  -20.6547   18.2701 O   0  0  0  0  0  0
  -28.6723  -18.2496   19.8575 F   0  0  0  0  0  0
  -31.4835  -12.5427   19.1969 H   0  0  0  0  0  0
  -30.3808  -11.4452   19.9735 H   0  0  0  0  0  0
  -29.8025  -11.7063   17.5366 H   0  0  0  0  0  0
  -29.6764  -13.4329   17.7270 H   0  0  0  0  0  0
  -27.8756  -11.2815   18.9005 H   0  0  0  0  0  0
  -27.4068  -12.5498   17.7963 H   0  0  0  0  0  0
  -27.6595  -14.2447   19.4746 H   0  0  0  0  0  0
  -28.7083  -12.1563   21.4473 H   0  0  0  0  0  0
  -28.4239  -13.8330   21.8025 H   0  0  0  0  0  0
  -25.2741   -9.5760   22.4679 H   0  0  0  0  0  0
  -24.0055   -7.4646   22.7439 H   0  0  0  0  0  0
  -21.0808   -8.8722   19.8968 H   0  0  0  0  0  0
  -22.3614  -10.9628   19.6149 H   0  0  0  0  0  0
  -21.2022   -7.6133   23.9669 H   0  0  0  0  0  0
  -21.1477   -6.0522   25.9021 H   0  0  0  0  0  0
  -22.0619   -2.7611   23.2822 H   0  0  0  0  0  0
  -22.4156  -11.9988   22.4834 H   0  0  0  0  0  0
  -21.1104  -13.1286   22.2534 H   0  0  0  0  0  0
  -24.6866  -15.8561   20.5211 H   0  0  0  0  0  0
  -26.2866  -15.6088   20.0486 H   0  0  0  0  0  0
  -26.7191  -32.5430   23.1098 H   0  0  0  0  0  0
  -25.0076  -33.9729   25.0429 H   0  0  0  0  0  0
  -22.7185  -31.2995   21.4068 H   0  0  0  0  0  0
  -23.3772  -35.9597   23.3185 H   0  0  0  0  0  0
  -24.3606  -36.9035   22.2053 H   0  0  0  0  0  0
  -23.7221  -37.6451   23.6730 H   0  0  0  0  0  0
  -26.1021  -31.5472   20.6153 H   0  0  0  0  0  0
  -26.8490  -30.8302   22.0080 H   0  0  0  0  0  0
  -28.1227  -28.9460   21.1833 H   0  0  0  0  0  0
  -25.8979  -25.9095   19.0455 H   0  0  0  0  0  0
  -23.9498  -27.3041   19.0454 H   0  0  0  0  0  0
  -23.7637  -30.6050   19.4091 H   0  0  0  0  0  0
  -22.7579  -29.2572   19.8553 H   0  0  0  0  0  0
  -25.1273  -36.1888   25.0798 H   0  0  0  0  0  0
  -20.9987  -28.3274   24.1410 H   0  0  0  0  0  0
  -20.5694  -26.2284   23.3589 H   0  0  0  0  0  0
  -21.6658  -26.7439   22.1204 H   0  0  0  0  0  0
  -19.6907  -25.6306   21.1264 H   0  0  0  0  0  0
  -19.6729  -27.3195   20.6727 H   0  0  0  0  0  0
  -17.4201  -26.6716   21.4022 H   0  0  0  0  0  0
  -18.0330  -26.0130   22.9022 H   0  0  0  0  0  0
  -19.7928  -30.7346   24.2226 H   0  0  0  0  0  0
  -17.4991  -31.6250   24.5215 H   0  0  0  0  0  0
  -15.5355  -30.2977   23.7662 H   0  0  0  0  0  0
  -15.8686  -28.0845   22.7044 H   0  0  0  0  0  0
  -24.5832  -30.7218   25.7821 H   0  0  0  0  0  0
  -24.8981  -32.2995   26.4932 H   0  0  0  0  0  0
  -25.8008  -30.8937   27.0248 H   0  0  0  0  0  0
  -26.2908  -29.6790   24.1247 H   0  0  0  0  0  0
  -27.3961  -29.7283   25.4780 H   0  0  0  0  0  0
  -27.8808  -30.4286   23.9522 H   0  0  0  0  0  0
  -27.2704  -33.3631   26.2137 H   0  0  0  0  0  0
  -28.3853  -32.6943   25.0328 H   0  0  0  0  0  0
  -28.0775  -31.8461   26.5399 H   0  0  0  0  0  0
  -28.2484  -38.0185   24.7615 H   0  0  0  0  0  0
  -28.1239  -36.2739   24.6023 H   0  0  0  0  0  0
  -27.2359  -37.1127   25.8814 H   0  0  0  0  0  0
  -20.9380  -29.8765   21.6881 H   0  0  0  0  0  0
  -26.0146  -38.2805   24.1563 H   0  0  0  0  0  0
  -33.0666  -18.6835   22.6881 H   0  0  0  0  0  0
  -32.0247  -20.7011   21.7970 H   0  0  0  0  0  0
  -32.0847  -16.4669   22.3021 H   0  0  0  0  0  0
  -27.7848  -25.2272   18.5686 H   0  0  0  0  0  0
  -28.4112  -22.9159   18.0196 H   0  0  0  0  0  0
  -27.4072  -22.3796   19.3300 H   0  0  0  0  0  0
  -29.0700  -24.1224   22.0296 H   0  0  0  0  0  0
  -30.5142  -23.9164   21.0736 H   0  0  0  0  0  0
  -28.5816  -21.7682   22.0659 H   0  0  0  0  0  0
  -30.2738  -21.9006   22.3646 H   0  0  0  0  0  0
  -28.9519  -15.6992   20.9076 H   0  0  0  0  0  0
  1 25  1  0  0  0
  1 30  2  0  0  0
  1 84  1  0  0  0
  2  3  1  0  0  0
  2 25  1  0  0  0
  2 87  1  0  0  0
  2 88  1  0  0  0
  3  4  1  0  0  0
  3 89  1  0  0  0
  3 90  1  0  0  0
  4  5  1  0  0  0
  4 91  1  0  0  0
  4 92  1  0  0  0
  5  6  1  0  0  0
  5 26  1  0  0  0
  5 93  1  0  0  0
  6 25  1  0  0  0
  6 94  1  0  0  0
  6 95  1  0  0  0
  7  8  2  0  0  0
  7 26  1  0  0  0
  7 29  1  0  0  0
  8  9  1  0  0  0
  8 22  1  0  0  0
  9 10  1  0  0  0
  9 27  2  0  0  0
 10 11  2  0  0  0
 10 15  1  0  0  0
 11 12  1  0  0  0
 11 96  1  0  0  0
 12 13  2  0  0  0
 12 97  1  0  0  0
 13 14  1  0  0  0
 13 31  1  0  0  0
 14 15  2  0  0  0
 14 98  1  0  0  0
 15 99  1  0  0  0
 16 17  2  0  0  0
 16 21  1  0  0  0
 16 31  1  0  0  0
 17 18  1  0  0  0
 17100  1  0  0  0
 18 19  2  0  0  0
 18101  1  0  0  0
 19 20  1  0  0  0
 19 24  1  0  0  0
 20 21  2  0  0  0
 20102  1  0  0  0
 21 23  1  0  0  0
 22 28  1  0  0  0
 22 32  2  0  0  0
 26 27  1  0  0  0
 28103  1  0  0  0
 28104  1  0  0  0
 29105  1  0  0  0
 29106  1  0  0  0
 33 34  1  0  0  0
 33 66  1  0  0  0
 33 70  2  0  0  0
 34 36  1  0  0  0
 34 59  1  0  0  0
 34107  1  0  0  0
 35 44  2  0  0  0
 35 45  1  0  0  0
 35 68  1  0  0  0
 36 56  1  0  0  0
 36108  1  0  0  0
 37 39  1  0  0  0
 37 47  1  0  0  0
 37 66  1  0  0  0
 37109  1  0  0  0
 38 43  2  0  0  0
 38 46  1  0  0  0
 38 47  1  0  0  0
 39 64  1  0  0  0
 39 67  2  0  0  0
 40 52  1  0  0  0
 40 53  2  0  0  0
 40 58  1  0  0  0
 41110  1  0  0  0
 41111  1  0  0  0
 41112  1  0  0  0
 41 48  1  0  0  0
 42 43  1  0  0  0
 42 66  1  0  0  0
 42113  1  0  0  0
 42114  1  0  0  0
 43 44  1  0  0  0
 44115  1  0  0  0
 45 46  2  0  0  0
 45116  1  0  0  0
 46117  1  0  0  0
 47118  1  0  0  0
 47119  1  0  0  0
 48 56  1  0  0  0
 48 65  1  0  0  0
 48120  1  0  0  0
 49 50  1  0  0  0
 49 53  1  0  0  0
 49 64  1  0  0  0
 49121  1  0  0  0
 50 51  1  0  0  0
 50122  1  0  0  0
 50123  1  0  0  0
 51 52  1  0  0  0
 51124  1  0  0  0
 51125  1  0  0  0
 52126  1  0  0  0
 52127  1  0  0  0
 53 54  1  0  0  0
 54 55  2  0  0  0
 54128  1  0  0  0
 55 57  1  0  0  0
 55129  1  0  0  0
 56 69  2  0  0  0
 57 58  2  0  0  0
 57130  1  0  0  0
 58131  1  0  0  0
 59 60  1  0  0  0
 59 61  1  0  0  0
 59 62  1  0  0  0
 60132  1  0  0  0
 60133  1  0  0  0
 60134  1  0  0  0
 61135  1  0  0  0
 61136  1  0  0  0
 61137  1  0  0  0
 62138  1  0  0  0
 62139  1  0  0  0
 62140  1  0  0  0
 63 65  1  0  0  0
 63141  1  0  0  0
 63142  1  0  0  0
 63143  1  0  0  0
 64144  1  0  0  0
 65145  1  0  0  0
 68 79  1  0  0  0
 71 72  2  0  0  0
 71 73  1  0  0  0
 71146  1  0  0  0
 72 74  1  0  0  0
 72147  1  0  0  0
 73 75  2  0  0  0
 73148  1  0  0  0
 74 76  2  0  0  0
 74 83  1  0  0  0
 75 76  1  0  0  0
 75 84  1  0  0  0
 76 86  1  0  0  0
 77 79  2  0  0  0
 77 80  1  0  0  0
 77 81  1  0  0  0
 78 80  1  0  0  0
 78 83  1  0  0  0
 78 85  2  0  0  0
 79149  1  0  0  0
 80150  1  0  0  0
 80151  1  0  0  0
 81 82  1  0  0  0
 81152  1  0  0  0
 81153  1  0  0  0
 82 83  1  0  0  0
 82154  1  0  0  0
 82155  1  0  0  0
 84156  1  0  0  0
M  ISO  4   1 100  68 101  79 101  84 100
M  END
> <chiral flag>
0

> <version>
0

> <s_m_source_file>
/data/baiqing/PycharmProjects/Reinvent-master-3.2/result/LINK_invent/BTK/process_docking_weight1_custom_product_contain_oxygen_bond_distance_aromatic_linkinvent_7_9_3/rearranged_h_0084.sdf

> <i_m_source_file_index>
53

> <r_mmod_Potential_Energy-OPLS-2005>
155.437301635742

> <r_mmod_Stretch_Energy-OPLS-2005>
92.5006637573242

> <r_mmod_Bend_Energy-OPLS-2005>
148.175964355469

> <r_mmod_Torsional_Energy-OPLS-2005>
287.350189208984

> <r_mmod_Improper_Torsional_Energy-OPLS-2005>
5.28181171417236

> <r_mmod_Van_der_Waal_Energy-OPLS-2005>
159.93098449707

> <r_mmod_Electrostatic_Energy-OPLS-2005>
-384.342590332031

> <r_mmod_Solvation_Energy-OPLS-2005>
-215.683288574219

> <b_mmod_Minimization_Converged-OPLS-2005>
0

> <r_mmod_RMS_Derivative-OPLS-2005>
6.55495452880859

$$$$
53
                    3D
 Structure written by MMmdl.
152161  0  0  1  0            999 V2000
  -30.6250  -14.6071   20.5265 C   0  0  0  0  0  0
  -30.4390  -12.3794   19.4432 C   0  0  0  0  0  0
  -29.5058  -12.5143   18.2189 C   0  0  0  0  0  0
  -28.0267  -12.3552   18.6285 C   0  0  0  0  0  0
  -27.6538  -13.2123   19.8665 C   0  0  2  0  0  0
  -28.6983  -13.0432   20.9936 C   0  0  0  0  0  0
  -25.2549  -13.8151   20.5652 C   0  0  0  0  0  0
  -24.1823  -13.0422   20.9187 C   0  0  0  0  0  0
  -24.6387  -11.6894   20.8744 C   0  0  0  0  0  0
  -23.9047  -10.4289   21.0417 C   0  0  0  0  0  0
  -24.3604   -9.4207   21.9190 C   0  0  0  0  0  0
  -23.6289   -8.2233   22.0752 C   0  0  0  0  0  0
  -22.4270   -8.0273   21.3541 C   0  0  0  0  0  0
  -21.9903   -9.0247   20.4647 C   0  0  0  0  0  0
  -22.7221  -10.2130   20.3062 C   0  0  0  0  0  0
  -21.6851   -6.0733   22.5286 C   0  0  0  0  0  0
  -21.4015   -6.5637   23.8221 C   0  0  0  0  0  0
  -21.3659   -5.6786   24.9183 C   0  0  0  0  0  0
  -21.6052   -4.3050   24.7231 C   0  0  0  0  0  0
  -21.8819   -3.8140   23.4351 C   0  0  0  0  0  0
  -21.9190   -4.6959   22.3410 C   0  0  0  0  0  0
  -22.7845  -13.5221   21.1853 C   0  0  0  0  0  0
  -22.1651   -4.2151   21.0985 F   0  0  0  0  0  0
  -21.5643   -3.4538   25.7742 F   0  0  0  0  0  0
  -30.0164  -13.3855   20.4346 N   0  0  0  0  0  0
  -26.2987  -12.9328   20.3319 N   0  0  0  0  0  0
  -25.9314  -11.6484   20.5743 N   0  0  0  0  0  0
  -22.0474  -12.8249   22.0430 N   0  0  0  0  0  0
  -25.4216  -15.1875   20.4025 N   0  0  0  0  0  0
  -31.7881  -14.7867   20.1495 O   0  0  0  0  0  0
  -21.6626   -6.8875   21.4243 O   0  0  0  0  0  0
  -22.3536  -14.5523   20.6687 O   0  0  0  0  0  0
  -24.6229  -31.8628   23.2039 C   0  0  0  0  0  0
  -25.9091  -32.4795   23.8367 C   0  0  1  0  0  0
  -27.2296  -27.3571   20.1291 C   0  0  0  0  0  0
  -25.5930  -33.8599   24.2306 N   0  0  0  0  0  0
  -23.4157  -30.4845   21.5437 C   0  0  2  0  0  0
  -24.8677  -28.9381   20.1148 C   0  0  0  0  0  0
  -22.7446  -29.4638   22.4936 C   0  0  0  0  0  0
  -18.0289  -28.1374   22.8486 C   0  0  0  0  0  0
  -24.1479  -36.7298   23.2632 C   0  0  0  0  0  0
  -25.9516  -30.8052   21.3702 C   0  0  0  0  0  0
  -26.0308  -29.4310   20.7226 C   0  0  0  0  0  0
  -27.2194  -28.6481   20.7270 C   0  0  0  0  0  0
  -26.0531  -26.9003   19.5055 C   0  0  0  0  0  0
  -24.8770  -27.6745   19.5000 C   0  0  0  0  0  0
  -23.6323  -29.8150   20.1600 C   0  0  0  0  0  0
  -25.4098  -36.3094   24.0335 C   0  0  1  0  0  0
  -20.5889  -28.3686   23.1287 C   0  0  2  0  0  0
  -20.6780  -26.9406   22.5437 C   0  0  0  0  0  0
  -19.5766  -26.6364   21.5230 C   0  0  0  0  0  0
  -18.1947  -26.7907   22.1644 C   0  0  0  0  0  0
  -19.1543  -28.8844   23.2887 C   0  0  0  0  0  0
  -18.9454  -30.1451   23.8896 C   0  0  0  0  0  0
  -17.6455  -30.6583   24.0555 C   0  0  0  0  0  0
  -25.9037  -34.9468   23.5108 C   0  0  0  0  0  0
  -16.5347  -29.9080   23.6314 C   0  0  0  0  0  0
  -16.7278  -28.6492   23.0344 C   0  0  0  0  0  0
  -26.4498  -31.6584   25.0715 C   0  0  0  0  0  0
  -25.3753  -31.3726   26.1454 C   0  0  0  0  0  0
  -27.0329  -30.3007   24.6147 C   0  0  0  0  0  0
  -27.6063  -32.4309   25.7491 C   0  0  0  0  0  0
  -27.5580  -37.1796   24.8459 C   0  0  0  0  0  0
  -21.4168  -29.3046   22.3679 N   0  0  0  0  0  0
  -26.4274  -37.3792   23.9427 N   0  0  0  0  0  0
  -24.6815  -31.0669   22.0973 N   0  0  0  0  0  0
  -23.4177  -28.8179   23.3015 O   0  0  0  0  0  0
  -28.3246  -26.5013   20.1199 O   0  0  0  0  0  0
  -26.5595  -34.8920   22.4670 O   0  0  0  0  0  0
  -23.5400  -32.1418   23.7390 O   0  0  0  0  0  0
  -30.7063  -19.2333   21.2050 C   0  0  0  0  0  0
  -30.9043  -17.8159   21.4030 C   0  0  0  0  0  0
  -29.6119  -19.5616   20.4358 C   0  0  0  0  0  0
  -29.9677  -17.0059   20.7975 C   0  0  0  0  0  0
  -28.6718  -24.2480   21.1906 C   0  0  0  0  0  0
  -28.8245  -23.3182   20.0630 C   0  0  0  0  0  0
  -28.4251  -25.6006   21.1778 C   0  0  0  0  0  0
  -29.0968  -20.8691   19.8367 C   0  0  0  0  0  0
  -28.8179  -23.4708   22.4697 C   0  0  0  0  0  0
  -29.2309  -22.0681   22.0116 C   0  0  0  0  0  0
  -29.0816  -22.0510   20.5521 N   0  0  0  0  0  0
  -29.7999  -15.6373   20.8767 N   0  0  0  0  0  0
  -28.7257  -23.6322   18.8710 O   0  0  0  0  0  0
  -28.6936  -20.8052   18.6688 O   0  0  0  0  0  0
  -28.8201  -18.0543   19.9475 S   0  0  0  0  0  0
  -31.4800  -12.5105   19.1422 H   0  0  0  0  0  0
  -30.3746  -11.3772   19.8696 H   0  0  0  0  0  0
  -29.7644  -11.7724   17.4623 H   0  0  0  0  0  0
  -29.6532  -13.4904   17.7541 H   0  0  0  0  0  0
  -27.8559  -11.3000   18.8450 H   0  0  0  0  0  0
  -27.3724  -12.6026   17.7918 H   0  0  0  0  0  0
  -27.6768  -14.2511   19.5387 H   0  0  0  0  0  0
  -28.7065  -12.0163   21.3625 H   0  0  0  0  0  0
  -28.4482  -13.6636   21.8560 H   0  0  0  0  0  0
  -25.2745   -9.5688   22.4774 H   0  0  0  0  0  0
  -24.0009   -7.4616   22.7471 H   0  0  0  0  0  0
  -21.0832   -8.8751   19.8959 H   0  0  0  0  0  0
  -22.3664  -10.9670   19.6185 H   0  0  0  0  0  0
  -21.1995   -7.6143   23.9732 H   0  0  0  0  0  0
  -21.1486   -6.0512   25.9093 H   0  0  0  0  0  0
  -22.0594   -2.7604   23.2842 H   0  0  0  0  0  0
  -22.4066  -11.9920   22.4863 H   0  0  0  0  0  0
  -21.1103  -13.1321   22.2621 H   0  0  0  0  0  0
  -24.6364  -15.8251   20.4826 H   0  0  0  0  0  0
  -26.2559  -15.6326   20.0416 H   0  0  0  0  0  0
  -26.7165  -32.5489   23.1128 H   0  0  0  0  0  0
  -25.0115  -33.9758   25.0474 H   0  0  0  0  0  0
  -22.7086  -31.3035   21.3985 H   0  0  0  0  0  0
  -23.3751  -35.9622   23.3285 H   0  0  0  0  0  0
  -24.3573  -36.8916   22.2049 H   0  0  0  0  0  0
  -23.7222  -37.6493   23.6646 H   0  0  0  0  0  0
  -26.0718  -31.5652   20.5967 H   0  0  0  0  0  0
  -26.8356  -30.8622   21.9931 H   0  0  0  0  0  0
  -28.1143  -29.0195   21.2074 H   0  0  0  0  0  0
  -26.0461  -25.9243   19.0416 H   0  0  0  0  0  0
  -23.9867  -27.2890   19.0232 H   0  0  0  0  0  0
  -23.7511  -30.5890   19.4013 H   0  0  0  0  0  0
  -22.7542  -29.2402   19.8583 H   0  0  0  0  0  0
  -25.1279  -36.1940   25.0828 H   0  0  0  0  0  0
  -20.9996  -28.3287   24.1403 H   0  0  0  0  0  0
  -20.5665  -26.2316   23.3654 H   0  0  0  0  0  0
  -21.6659  -26.7415   22.1255 H   0  0  0  0  0  0
  -19.6934  -25.6271   21.1280 H   0  0  0  0  0  0
  -19.6702  -27.3153   20.6747 H   0  0  0  0  0  0
  -17.4214  -26.6629   21.4053 H   0  0  0  0  0  0
  -18.0353  -26.0072   22.9062 H   0  0  0  0  0  0
  -19.7933  -30.7281   24.2259 H   0  0  0  0  0  0
  -17.5006  -31.6258   24.5167 H   0  0  0  0  0  0
  -15.5348  -30.2986   23.7622 H   0  0  0  0  0  0
  -15.8681  -28.0806   22.7050 H   0  0  0  0  0  0
  -24.5924  -30.7073   25.7807 H   0  0  0  0  0  0
  -24.8956  -32.2902   26.4877 H   0  0  0  0  0  0
  -25.8098  -30.8920   27.0230 H   0  0  0  0  0  0
  -26.2902  -29.6769   24.1162 H   0  0  0  0  0  0
  -27.4022  -29.7242   25.4645 H   0  0  0  0  0  0
  -27.8773  -30.4286   23.9367 H   0  0  0  0  0  0
  -27.2666  -33.3600   26.2081 H   0  0  0  0  0  0
  -28.3870  -32.6885   25.0323 H   0  0  0  0  0  0
  -28.0730  -31.8428   26.5397 H   0  0  0  0  0  0
  -28.2576  -38.0117   24.7550 H   0  0  0  0  0  0
  -28.1093  -36.2653   24.6218 H   0  0  0  0  0  0
  -27.2309  -37.1367   25.8862 H   0  0  0  0  0  0
  -20.9328  -29.8782   21.6914 H   0  0  0  0  0  0
  -26.0155  -38.2858   24.1463 H   0  0  0  0  0  0
  -31.3975  -19.9557   21.6132 H   0  0  0  0  0  0
  -31.7257  -17.4499   22.0038 H   0  0  0  0  0  0
  -28.3217  -26.1272   22.1169 H   0  0  0  0  0  0
  -27.8642  -23.4445   22.9980 H   0  0  0  0  0  0
  -29.5630  -23.9216   23.1276 H   0  0  0  0  0  0
  -28.6112  -21.3047   22.4868 H   0  0  0  0  0  0
  -30.2699  -21.8763   22.2816 H   0  0  0  0  0  0
  -28.8549  -15.3329   21.0530 H   0  0  0  0  0  0
  1 25  1  0  0  0
  1 30  2  0  0  0
  1 82  1  0  0  0
  2  3  1  0  0  0
  2 25  1  0  0  0
  2 86  1  0  0  0
  2 87  1  0  0  0
  3  4  1  0  0  0
  3 88  1  0  0  0
  3 89  1  0  0  0
  4  5  1  0  0  0
  4 90  1  0  0  0
  4 91  1  0  0  0
  5  6  1  0  0  0
  5 26  1  0  0  0
  5 92  1  0  0  0
  6 25  1  0  0  0
  6 93  1  0  0  0
  6 94  1  0  0  0
  7  8  2  0  0  0
  7 26  1  0  0  0
  7 29  1  0  0  0
  8  9  1  0  0  0
  8 22  1  0  0  0
  9 10  1  0  0  0
  9 27  2  0  0  0
 10 11  2  0  0  0
 10 15  1  0  0  0
 11 12  1  0  0  0
 11 95  1  0  0  0
 12 13  2  0  0  0
 12 96  1  0  0  0
 13 14  1  0  0  0
 13 31  1  0  0  0
 14 15  2  0  0  0
 14 97  1  0  0  0
 15 98  1  0  0  0
 16 17  2  0  0  0
 16 21  1  0  0  0
 16 31  1  0  0  0
 17 18  1  0  0  0
 17 99  1  0  0  0
 18 19  2  0  0  0
 18100  1  0  0  0
 19 20  1  0  0  0
 19 24  1  0  0  0
 20 21  2  0  0  0
 20101  1  0  0  0
 21 23  1  0  0  0
 22 28  1  0  0  0
 22 32  2  0  0  0
 26 27  1  0  0  0
 28102  1  0  0  0
 28103  1  0  0  0
 29104  1  0  0  0
 29105  1  0  0  0
 33 34  1  0  0  0
 33 66  1  0  0  0
 33 70  2  0  0  0
 34 36  1  0  0  0
 34 59  1  0  0  0
 34106  1  0  0  0
 35 44  2  0  0  0
 35 45  1  0  0  0
 35 68  1  0  0  0
 36 56  1  0  0  0
 36107  1  0  0  0
 37 39  1  0  0  0
 37 47  1  0  0  0
 37 66  1  0  0  0
 37108  1  0  0  0
 38 43  2  0  0  0
 38 46  1  0  0  0
 38 47  1  0  0  0
 39 64  1  0  0  0
 39 67  2  0  0  0
 40 52  1  0  0  0
 40 53  2  0  0  0
 40 58  1  0  0  0
 41109  1  0  0  0
 41110  1  0  0  0
 41111  1  0  0  0
 41 48  1  0  0  0
 42 43  1  0  0  0
 42 66  1  0  0  0
 42112  1  0  0  0
 42113  1  0  0  0
 43 44  1  0  0  0
 44114  1  0  0  0
 45 46  2  0  0  0
 45115  1  0  0  0
 46116  1  0  0  0
 47117  1  0  0  0
 47118  1  0  0  0
 48 56  1  0  0  0
 48 65  1  0  0  0
 48119  1  0  0  0
 49 50  1  0  0  0
 49 53  1  0  0  0
 49 64  1  0  0  0
 49120  1  0  0  0
 50 51  1  0  0  0
 50121  1  0  0  0
 50122  1  0  0  0
 51 52  1  0  0  0
 51123  1  0  0  0
 51124  1  0  0  0
 52125  1  0  0  0
 52126  1  0  0  0
 53 54  1  0  0  0
 54 55  2  0  0  0
 54127  1  0  0  0
 55 57  1  0  0  0
 55128  1  0  0  0
 56 69  2  0  0  0
 57 58  2  0  0  0
 57129  1  0  0  0
 58130  1  0  0  0
 59 60  1  0  0  0
 59 61  1  0  0  0
 59 62  1  0  0  0
 60131  1  0  0  0
 60132  1  0  0  0
 60133  1  0  0  0
 61134  1  0  0  0
 61135  1  0  0  0
 61136  1  0  0  0
 62137  1  0  0  0
 62138  1  0  0  0
 62139  1  0  0  0
 63 65  1  0  0  0
 63140  1  0  0  0
 63141  1  0  0  0
 63142  1  0  0  0
 64143  1  0  0  0
 65144  1  0  0  0
 68 77  1  0  0  0
 71 72  1  0  0  0
 71 73  2  0  0  0
 71145  1  0  0  0
 72 74  2  0  0  0
 72146  1  0  0  0
 73 78  1  0  0  0
 73 85  1  0  0  0
 74 82  1  0  0  0
 74 85  1  0  0  0
 75 76  1  0  0  0
 75 77  2  0  0  0
 75 79  1  0  0  0
 76 81  1  0  0  0
 76 83  2  0  0  0
 77147  1  0  0  0
 78 81  1  0  0  0
 78 84  2  0  0  0
 79 80  1  0  0  0
 79148  1  0  0  0
 79149  1  0  0  0
 80 81  1  0  0  0
 80150  1  0  0  0
 80151  1  0  0  0
 82152  1  0  0  0
M  ISO  4   1 100  68 101  77 101  82 100
M  END
> <chiral flag>
0

> <version>
0

> <s_m_source_file>
/data/baiqing/PycharmProjects/Reinvent-master-3.2/result/LINK_invent/BTK/process_docking_weight1_custom_product_contain_oxygen_bond_distance_aromatic_linkinvent_7_9_3/rearranged_h_0084.sdf

> <i_m_source_file_index>
54

> <r_mmod_Potential_Energy-OPLS-2005>
87.4666290283203

> <r_mmod_Stretch_Energy-OPLS-2005>
61.6367111206055

> <r_mmod_Bend_Energy-OPLS-2005>
160.891708374023

> <r_mmod_Torsional_Energy-OPLS-2005>
301.117523193359

> <r_mmod_Improper_Torsional_Energy-OPLS-2005>
5.69263219833374

> <r_mmod_Van_der_Waal_Energy-OPLS-2005>
119.373168945312

> <r_mmod_Electrostatic_Energy-OPLS-2005>
-358.395843505859

> <r_mmod_Solvation_Energy-OPLS-2005>
-240.661468505859

> <b_mmod_Minimization_Converged-OPLS-2005>
0

> <r_mmod_RMS_Derivative-OPLS-2005>
1.80305361747742

$$$$
54
                    3D
 Structure written by MMmdl.
155164  0  0  1  0            999 V2000
  -30.7513  -14.4985   20.5494 C   0  0  0  0  0  0
  -30.3947  -12.3198   19.4412 C   0  0  0  0  0  0
  -29.4872  -12.4999   18.2109 C   0  0  0  0  0  0
  -28.0113  -12.3588   18.6247 C   0  0  0  0  0  0
  -27.6493  -13.2241   19.8638 C   0  0  2  0  0  0
  -28.6938  -13.0792   20.9945 C   0  0  0  0  0  0
  -25.2524  -13.8192   20.5702 C   0  0  0  0  0  0
  -24.1803  -13.0441   20.9196 C   0  0  0  0  0  0
  -24.6391  -11.6919   20.8749 C   0  0  0  0  0  0
  -23.9072  -10.4296   21.0410 C   0  0  0  0  0  0
  -24.3625   -9.4212   21.9192 C   0  0  0  0  0  0
  -23.6296   -8.2249   22.0767 C   0  0  0  0  0  0
  -22.4284   -8.0284   21.3552 C   0  0  0  0  0  0
  -21.9914   -9.0257   20.4659 C   0  0  0  0  0  0
  -22.7243  -10.2133   20.3064 C   0  0  0  0  0  0
  -21.6858   -6.0742   22.5286 C   0  0  0  0  0  0
  -21.4016   -6.5645   23.8217 C   0  0  0  0  0  0
  -21.3661   -5.6798   24.9181 C   0  0  0  0  0  0
  -21.6047   -4.3058   24.7232 C   0  0  0  0  0  0
  -21.8814   -3.8149   23.4354 C   0  0  0  0  0  0
  -21.9192   -4.6969   22.3410 C   0  0  0  0  0  0
  -22.7833  -13.5231   21.1859 C   0  0  0  0  0  0
  -22.1658   -4.2157   21.0986 F   0  0  0  0  0  0
  -21.5627   -3.4542   25.7742 F   0  0  0  0  0  0
  -30.0162  -13.3559   20.4210 N   0  0  0  0  0  0
  -26.2966  -12.9395   20.3347 N   0  0  0  0  0  0
  -25.9320  -11.6538   20.5773 N   0  0  0  0  0  0
  -22.0479  -12.8225   22.0413 N   0  0  0  0  0  0
  -25.4179  -15.1916   20.4115 N   0  0  0  0  0  0
  -31.9075  -14.5359   20.1227 O   0  0  0  0  0  0
  -21.6647   -6.8886   21.4244 O   0  0  0  0  0  0
  -22.3526  -14.5555   20.6731 O   0  0  0  0  0  0
  -24.6161  -31.8655   23.2086 C   0  0  0  0  0  0
  -25.9047  -32.4807   23.8398 C   0  0  1  0  0  0
  -27.2193  -27.4196   20.1123 C   0  0  0  0  0  0
  -25.5904  -33.8615   24.2336 N   0  0  0  0  0  0
  -23.4041  -30.4912   21.5472 C   0  0  2  0  0  0
  -24.8499  -28.9560   20.1118 C   0  0  0  0  0  0
  -22.7403  -29.4657   22.4956 C   0  0  0  0  0  0
  -18.0264  -28.1392   22.8487 C   0  0  0  0  0  0
  -24.1485  -36.7317   23.2639 C   0  0  0  0  0  0
  -25.9339  -30.8310   21.3606 C   0  0  0  0  0  0
  -26.0095  -29.4630   20.7132 C   0  0  0  0  0  0
  -27.2009  -28.7006   20.7133 C   0  0  0  0  0  0
  -26.0531  -26.9333   19.4936 C   0  0  0  0  0  0
  -24.8668  -27.6909   19.4980 C   0  0  0  0  0  0
  -23.6131  -29.8252   20.1613 C   0  0  0  0  0  0
  -25.4100  -36.3114   24.0348 C   0  0  1  0  0  0
  -20.5858  -28.3680   23.1309 C   0  0  2  0  0  0
  -20.6762  -26.9408   22.5430 C   0  0  0  0  0  0
  -19.5740  -26.6386   21.5230 C   0  0  0  0  0  0
  -18.1910  -26.7937   22.1626 C   0  0  0  0  0  0
  -19.1515  -28.8848   23.2896 C   0  0  0  0  0  0
  -18.9441  -30.1452   23.8914 C   0  0  0  0  0  0
  -17.6442  -30.6592   24.0570 C   0  0  0  0  0  0
  -25.9035  -34.9474   23.5138 C   0  0  0  0  0  0
  -16.5332  -29.9101   23.6323 C   0  0  0  0  0  0
  -16.7251  -28.6519   23.0341 C   0  0  0  0  0  0
  -26.4481  -31.6583   25.0714 C   0  0  0  0  0  0
  -25.3758  -31.3667   26.1465 C   0  0  0  0  0  0
  -27.0311  -30.3026   24.6083 C   0  0  0  0  0  0
  -27.6075  -32.4293   25.7460 C   0  0  0  0  0  0
  -27.5592  -37.1781   24.8447 C   0  0  0  0  0  0
  -21.4129  -29.3042   22.3699 N   0  0  0  0  0  0
  -26.4271  -37.3811   23.9445 N   0  0  0  0  0  0
  -24.6700  -31.0764   22.0979 N   0  0  0  0  0  0
  -23.4168  -28.8192   23.3000 O   0  0  0  0  0  0
  -28.3488  -26.6346   20.1067 O   0  0  0  0  0  0
  -26.5588  -34.8929   22.4697 O   0  0  0  0  0  0
  -23.5347  -32.1396   23.7474 O   0  0  0  0  0  0
  -30.4941  -19.2076   20.3713 C   0  0  0  0  0  0
  -29.9003  -20.4867   20.3639 C   0  0  0  0  0  0
  -26.7629  -23.8403   21.1610 C   0  0  0  0  0  0
  -28.1098  -19.6440   21.7606 C   0  0  0  0  0  0
  -28.9145  -23.2496   21.1060 C   0  0  0  0  0  0
  -29.9175  -18.1211   21.0739 C   0  0  0  0  0  0
  -28.0936  -24.3563   21.1586 C   0  0  0  0  0  0
  -28.7049  -20.7353   21.0717 C   0  0  0  0  0  0
  -28.7020  -18.3519   21.7618 C   0  0  0  0  0  0
  -26.8364  -22.4744   21.1280 C   0  0  0  0  0  0
  -30.7116  -16.8317   21.1635 C   0  0  0  0  0  0
  -28.5236  -25.8227   21.2811 C   0  0  0  0  0  0
  -28.1658  -22.0698   21.1006 N   0  0  0  0  0  0
  -30.1101  -15.6259   20.9643 N   0  0  0  0  0  0
  -31.9280  -16.9607   21.3612 O   0  0  0  0  0  0
  -25.8161  -21.5739   21.1203 O   0  0  0  0  0  0
  -28.1159  -17.3506   22.4637 F   0  0  0  0  0  0
  -31.4450  -12.3613   19.1485 H   0  0  0  0  0  0
  -30.2520  -11.3277   19.8726 H   0  0  0  0  0  0
  -29.7333  -11.7606   17.4473 H   0  0  0  0  0  0
  -29.6558  -13.4783   17.7573 H   0  0  0  0  0  0
  -27.8328  -11.3050   18.8416 H   0  0  0  0  0  0
  -27.3579  -12.6077   17.7872 H   0  0  0  0  0  0
  -27.6703  -14.2627   19.5314 H   0  0  0  0  0  0
  -28.6740  -12.0699   21.4092 H   0  0  0  0  0  0
  -28.4632  -13.7491   21.8243 H   0  0  0  0  0  0
  -25.2768   -9.5693   22.4771 H   0  0  0  0  0  0
  -24.0011   -7.4646   22.7494 H   0  0  0  0  0  0
  -21.0848   -8.8772   19.8971 H   0  0  0  0  0  0
  -22.3700  -10.9673   19.6179 H   0  0  0  0  0  0
  -21.2005   -7.6152   23.9724 H   0  0  0  0  0  0
  -21.1489   -6.0531   25.9086 H   0  0  0  0  0  0
  -22.0593   -2.7613   23.2852 H   0  0  0  0  0  0
  -22.4080  -11.9862   22.4765 H   0  0  0  0  0  0
  -21.1116  -13.1278   22.2655 H   0  0  0  0  0  0
  -24.6446  -15.8380   20.5265 H   0  0  0  0  0  0
  -26.2682  -15.6435   20.1011 H   0  0  0  0  0  0
  -26.7123  -32.5494   23.1176 H   0  0  0  0  0  0
  -25.0062  -33.9791   25.0485 H   0  0  0  0  0  0
  -22.6921  -31.3068   21.4067 H   0  0  0  0  0  0
  -23.3771  -35.9619   23.3236 H   0  0  0  0  0  0
  -24.3603  -36.8988   22.2066 H   0  0  0  0  0  0
  -23.7193  -37.6490   23.6680 H   0  0  0  0  0  0
  -26.0408  -31.5945   20.5884 H   0  0  0  0  0  0
  -26.8267  -30.8892   21.9715 H   0  0  0  0  0  0
  -28.0974  -29.0855   21.1788 H   0  0  0  0  0  0
  -26.0623  -25.9595   19.0236 H   0  0  0  0  0  0
  -23.9749  -27.2974   19.0304 H   0  0  0  0  0  0
  -23.7219  -30.6006   19.4018 H   0  0  0  0  0  0
  -22.7350  -29.2473   19.8656 H   0  0  0  0  0  0
  -25.1266  -36.1975   25.0835 H   0  0  0  0  0  0
  -20.9947  -28.3266   24.1431 H   0  0  0  0  0  0
  -20.5666  -26.2291   23.3626 H   0  0  0  0  0  0
  -21.6627  -26.7446   22.1207 H   0  0  0  0  0  0
  -19.6895  -25.6307   21.1232 H   0  0  0  0  0  0
  -19.6681  -27.3216   20.6778 H   0  0  0  0  0  0
  -17.4177  -26.6694   21.4024 H   0  0  0  0  0  0
  -18.0289  -26.0099   22.9038 H   0  0  0  0  0  0
  -19.7914  -30.7265   24.2290 H   0  0  0  0  0  0
  -17.4993  -31.6269   24.5184 H   0  0  0  0  0  0
  -15.5332  -30.3006   23.7645 H   0  0  0  0  0  0
  -15.8649  -28.0848   22.7046 H   0  0  0  0  0  0
  -24.5957  -30.6978   25.7812 H   0  0  0  0  0  0
  -24.8923  -32.2797   26.4939 H   0  0  0  0  0  0
  -25.8135  -30.8833   27.0206 H   0  0  0  0  0  0
  -26.2847  -29.6761   24.1176 H   0  0  0  0  0  0
  -27.4123  -29.7280   25.4539 H   0  0  0  0  0  0
  -27.8667  -30.4348   23.9206 H   0  0  0  0  0  0
  -27.2732  -33.3603   26.2057 H   0  0  0  0  0  0
  -28.3875  -32.6828   25.0265 H   0  0  0  0  0  0
  -28.0756  -31.8392   26.5348 H   0  0  0  0  0  0
  -28.2534  -38.0161   24.7625 H   0  0  0  0  0  0
  -28.1165  -36.2694   24.6093 H   0  0  0  0  0  0
  -27.2327  -37.1214   25.8851 H   0  0  0  0  0  0
  -20.9268  -29.8775   21.6945 H   0  0  0  0  0  0
  -26.0151  -38.2866   24.1540 H   0  0  0  0  0  0
  -31.4307  -19.0700   19.8485 H   0  0  0  0  0  0
  -30.3883  -21.2857   19.8235 H   0  0  0  0  0  0
  -25.8502  -24.4195   21.2071 H   0  0  0  0  0  0
  -27.2017  -19.7951   22.3242 H   0  0  0  0  0  0
  -29.9948  -23.2007   21.1043 H   0  0  0  0  0  0
  -29.5811  -25.8508   21.5418 H   0  0  0  0  0  0
  -28.0058  -26.2601   22.1374 H   0  0  0  0  0  0
  -29.1081  -15.5939   21.0421 H   0  0  0  0  0  0
  -24.9983  -22.0599   21.1511 H   0  0  0  0  0  0
  1 25  1  0  0  0
  1 30  2  0  0  0
  1 84  1  0  0  0
  2  3  1  0  0  0
  2 25  1  0  0  0
  2 88  1  0  0  0
  2 89  1  0  0  0
  3  4  1  0  0  0
  3 90  1  0  0  0
  3 91  1  0  0  0
  4  5  1  0  0  0
  4 92  1  0  0  0
  4 93  1  0  0  0
  5  6  1  0  0  0
  5 26  1  0  0  0
  5 94  1  0  0  0
  6 25  1  0  0  0
  6 95  1  0  0  0
  6 96  1  0  0  0
  7  8  2  0  0  0
  7 26  1  0  0  0
  7 29  1  0  0  0
  8  9  1  0  0  0
  8 22  1  0  0  0
  9 10  1  0  0  0
  9 27  2  0  0  0
 10 11  2  0  0  0
 10 15  1  0  0  0
 11 12  1  0  0  0
 11 97  1  0  0  0
 12 13  2  0  0  0
 12 98  1  0  0  0
 13 14  1  0  0  0
 13 31  1  0  0  0
 14 15  2  0  0  0
 14 99  1  0  0  0
 15100  1  0  0  0
 16 17  2  0  0  0
 16 21  1  0  0  0
 16 31  1  0  0  0
 17 18  1  0  0  0
 17101  1  0  0  0
 18 19  2  0  0  0
 18102  1  0  0  0
 19 20  1  0  0  0
 19 24  1  0  0  0
 20 21  2  0  0  0
 20103  1  0  0  0
 21 23  1  0  0  0
 22 28  1  0  0  0
 22 32  2  0  0  0
 26 27  1  0  0  0
 28104  1  0  0  0
 28105  1  0  0  0
 29106  1  0  0  0
 29107  1  0  0  0
 33 34  1  0  0  0
 33 66  1  0  0  0
 33 70  2  0  0  0
 34 36  1  0  0  0
 34 59  1  0  0  0
 34108  1  0  0  0
 35 44  2  0  0  0
 35 45  1  0  0  0
 35 68  1  0  0  0
 36 56  1  0  0  0
 36109  1  0  0  0
 37 39  1  0  0  0
 37 47  1  0  0  0
 37 66  1  0  0  0
 37110  1  0  0  0
 38 43  2  0  0  0
 38 46  1  0  0  0
 38 47  1  0  0  0
 39 64  1  0  0  0
 39 67  2  0  0  0
 40 52  1  0  0  0
 40 53  2  0  0  0
 40 58  1  0  0  0
 41111  1  0  0  0
 41112  1  0  0  0
 41113  1  0  0  0
 41 48  1  0  0  0
 42 43  1  0  0  0
 42 66  1  0  0  0
 42114  1  0  0  0
 42115  1  0  0  0
 43 44  1  0  0  0
 44116  1  0  0  0
 45 46  2  0  0  0
 45117  1  0  0  0
 46118  1  0  0  0
 47119  1  0  0  0
 47120  1  0  0  0
 48 56  1  0  0  0
 48 65  1  0  0  0
 48121  1  0  0  0
 49 50  1  0  0  0
 49 53  1  0  0  0
 49 64  1  0  0  0
 49122  1  0  0  0
 50 51  1  0  0  0
 50123  1  0  0  0
 50124  1  0  0  0
 51 52  1  0  0  0
 51125  1  0  0  0
 51126  1  0  0  0
 52127  1  0  0  0
 52128  1  0  0  0
 53 54  1  0  0  0
 54 55  2  0  0  0
 54129  1  0  0  0
 55 57  1  0  0  0
 55130  1  0  0  0
 56 69  2  0  0  0
 57 58  2  0  0  0
 57131  1  0  0  0
 58132  1  0  0  0
 59 60  1  0  0  0
 59 61  1  0  0  0
 59 62  1  0  0  0
 60133  1  0  0  0
 60134  1  0  0  0
 60135  1  0  0  0
 61136  1  0  0  0
 61137  1  0  0  0
 61138  1  0  0  0
 62139  1  0  0  0
 62140  1  0  0  0
 62141  1  0  0  0
 63 65  1  0  0  0
 63142  1  0  0  0
 63143  1  0  0  0
 63144  1  0  0  0
 64145  1  0  0  0
 65146  1  0  0  0
 68 82  1  0  0  0
 71 72  2  0  0  0
 71 76  1  0  0  0
 71147  1  0  0  0
 72 78  1  0  0  0
 72148  1  0  0  0
 73 77  1  0  0  0
 73 80  2  0  0  0
 73149  1  0  0  0
 74 78  2  0  0  0
 74 79  1  0  0  0
 74150  1  0  0  0
 75 77  2  0  0  0
 75 83  1  0  0  0
 75151  1  0  0  0
 76 79  2  0  0  0
 76 81  1  0  0  0
 77 82  1  0  0  0
 78 83  1  0  0  0
 79 87  1  0  0  0
 80 83  1  0  0  0
 80 86  1  0  0  0
 81 84  1  0  0  0
 81 85  2  0  0  0
 82152  1  0  0  0
 82153  1  0  0  0
 84154  1  0  0  0
 86155  1  0  0  0
M  ISO  4   1 100  68 101  82 101  84 100
M  END
> <chiral flag>
0

> <version>
0

> <s_m_source_file>
/data/baiqing/PycharmProjects/Reinvent-master-3.2/result/LINK_invent/BTK/process_docking_weight1_custom_product_contain_oxygen_bond_distance_aromatic_linkinvent_7_9_3/rearranged_h_0084.sdf

> <i_m_source_file_index>
55

> <r_mmod_Potential_Energy-OPLS-2005>
-63.0852394104004

> <r_mmod_Stretch_Energy-OPLS-2005>
43.1933403015137

> <r_mmod_Bend_Energy-OPLS-2005>
107.375274658203

> <r_mmod_Torsional_Energy-OPLS-2005>
266.177093505859

> <r_mmod_Improper_Torsional_Energy-OPLS-2005>
5.4160041809082

> <r_mmod_Van_der_Waal_Energy-OPLS-2005>
152.913986206055

> <r_mmod_Electrostatic_Energy-OPLS-2005>
-436.578796386719

> <r_mmod_Solvation_Energy-OPLS-2005>
-223.64860534668

> <b_mmod_Minimization_Converged-OPLS-2005>
0

> <r_mmod_RMS_Derivative-OPLS-2005>
1.76646256446838

$$$$
55
                    3D
 Structure written by MMmdl.
165175  0  0  1  0            999 V2000
  -28.1937  -17.1915   20.9674 C   0  0  0  0  0  0
  -29.6839  -14.5896   19.8246 C   0  0  0  0  0  0
  -29.4168  -13.3973   18.7155 C   0  0  0  0  0  0
  -28.2499  -12.4858   19.0750 C   0  0  0  0  0  0
  -27.3898  -13.4134   19.9178 C   0  0  2  0  0  0
  -28.0265  -14.1810   21.1234 C   0  0  0  0  0  0
  -25.0935  -13.8183   20.5617 C   0  0  0  0  0  0
  -24.0742  -13.0166   20.9335 C   0  0  0  0  0  0
  -24.5777  -11.6773   20.8827 C   0  0  0  0  0  0
  -23.8759  -10.4115   21.0461 C   0  0  0  0  0  0
  -24.3452   -9.4103   21.9215 C   0  0  0  0  0  0
  -23.6202   -8.2111   22.0756 C   0  0  0  0  0  0
  -22.4190   -8.0129   21.3537 C   0  0  0  0  0  0
  -21.9754   -9.0047   20.4630 C   0  0  0  0  0  0
  -22.6998  -10.1944   20.3056 C   0  0  0  0  0  0
  -21.6808   -6.0652   22.5294 C   0  0  0  0  0  0
  -21.3979   -6.5592   23.8214 C   0  0  0  0  0  0
  -21.3653   -5.6765   24.9190 C   0  0  0  0  0  0
  -21.6048   -4.3027   24.7252 C   0  0  0  0  0  0
  -21.8825   -3.8097   23.4382 C   0  0  0  0  0  0
  -21.9182   -4.6894   22.3428 C   0  0  0  0  0  0
  -22.6882  -13.4898   21.2073 C   0  0  0  0  0  0
  -22.1660   -4.2086   21.1005 F   0  0  0  0  0  0
  -21.5639   -3.4524   25.7774 F   0  0  0  0  0  0
  -28.4765  -15.5375   20.5940 N   0  0  0  0  0  0
  -26.1304  -12.9573   20.3179 N   0  0  0  0  0  0
  -25.8658  -11.6601   20.5654 N   0  0  0  0  0  0
  -21.9705  -12.7905   22.0734 N   0  0  0  0  0  0
  -25.2297  -15.1982   20.3930 N   0  0  0  0  0  0
  -29.5160  -17.1692   20.7916 O   0  0  0  0  0  0
  -21.6578   -6.8737   21.4235 O   0  0  0  0  0  0
  -22.2624  -14.5247   20.6945 O   0  0  0  0  0  0
  -24.7111  -31.9555   23.1777 C   0  0  0  0  0  0
  -25.9800  -32.5197   23.8531 C   0  0  1  0  0  0
  -26.9809  -27.2001   20.0111 C   0  0  0  0  0  0
  -25.6466  -33.8879   24.2532 N   0  0  0  0  0  0
  -23.6065  -30.5150   21.5878 C   0  0  2  0  0  0
  -24.9505  -29.1308   19.9586 C   0  0  0  0  0  0
  -23.5146  -29.3070   22.5150 C   0  0  0  0  0  0
  -18.4189  -26.8859   22.9973 C   0  0  0  0  0  0
  -24.1515  -36.7381   23.2595 C   0  0  0  0  0  0
  -26.1069  -30.7702   21.4313 C   0  0  0  0  0  0
  -26.0982  -29.4081   20.7164 C   0  0  0  0  0  0
  -27.1041  -28.3839   20.8291 C   0  0  0  0  0  0
  -26.1360  -27.3246   18.8995 C   0  0  0  0  0  0
  -24.9629  -28.0729   19.0535 C   0  0  0  0  0  0
  -23.7433  -30.0285   20.1195 C   0  0  0  0  0  0
  -25.4140  -36.3241   24.0314 C   0  0  1  0  0  0
  -22.1943  -27.2160   22.9021 C   0  0  2  0  0  0
  -22.1250  -26.4953   20.9270 C   0  0  0  0  0  0
  -20.2703  -25.7012   20.5210 C   0  0  0  0  0  0
  -18.7437  -25.7823   21.7026 C   0  0  0  0  0  0
  -19.6599  -27.1968   23.8963 C   0  0  0  0  0  0
  -18.9461  -28.3932   24.6752 C   0  0  0  0  0  0
  -17.9691  -29.4280   24.3363 C   0  0  0  0  0  0
  -25.9176  -34.9668   23.5127 C   0  0  0  0  0  0
  -17.0130  -29.0822   23.4058 C   0  0  0  0  0  0
  -17.2258  -27.7885   22.8352 C   0  0  0  0  0  0
  -26.4714  -31.6734   25.0912 C   0  0  0  0  0  0
  -25.3624  -31.3814   26.1294 C   0  0  0  0  0  0
  -27.0884  -30.3221   24.6578 C   0  0  0  0  0  0
  -27.6113  -32.4403   25.7946 C   0  0  0  0  0  0
  -27.5600  -37.1893   24.8465 C   0  0  0  0  0  0
  -22.8177  -28.3351   22.1043 N   0  0  0  0  0  0
  -26.4305  -37.3931   23.9427 N   0  0  0  0  0  0
  -24.8196  -31.1881   22.0566 N   0  0  0  0  0  0
  -24.1257  -29.1324   23.5438 O   0  0  0  0  0  0
  -27.1260  -25.8210   20.3506 O   0  0  0  0  0  0
  -26.5552  -34.9083   22.4578 O   0  0  0  0  0  0
  -23.6118  -32.2091   23.7011 O   0  0  0  0  0  0
  -25.0664  -21.4674   20.4616 C   0  0  0  0  0  0
  -24.3140  -22.1280   22.5599 C   0  0  0  0  0  0
  -24.1572  -22.6904   20.3372 C   0  0  0  0  0  0
  -22.8422  -23.0272   21.1661 C   0  0  0  0  0  0
  -23.0415  -23.7510   22.2549 C   0  0  0  0  0  0
  -25.4461  -20.6642   21.6625 C   0  0  0  0  0  0
  -20.7309  -29.1007   23.0499 C   0  0  0  0  0  0
  -20.4635  -30.3839   22.7385 C   0  0  0  0  0  0
  -24.8329  -24.1170   20.2251 C   0  0  0  0  0  0
  -25.7836  -25.1716   20.2391 C   0  0  0  0  0  0
  -21.7000  -22.5043   22.3062 C   0  0  0  0  0  0
  -21.5139  -28.5036   24.7474 C   0  0  0  0  0  0
  -20.3874  -27.5715   21.8229 C   0  0  0  0  0  0
  -21.4185  -23.3256   23.9298 C   0  0  0  0  0  0
  -21.6717  -26.5427   25.1852 C   0  0  0  0  0  0
  -21.2583  -25.0145   24.0593 C   0  0  1  0  0  0
  -21.4457  -25.1184   22.5917 N   0  0  0  0  0  0
  -26.8792  -18.7153   21.4993 N   0  0  0  0  0  0
  -30.2857  -15.3195   19.2820 H   0  0  0  0  0  0
  -30.4048  -14.2314   20.5644 H   0  0  0  0  0  0
  -30.3231  -12.8163   18.5407 H   0  0  0  0  0  0
  -29.1857  -13.8787   17.7644 H   0  0  0  0  0  0
  -28.5866  -11.6365   19.6712 H   0  0  0  0  0  0
  -27.7315  -12.1050   18.1940 H   0  0  0  0  0  0
  -27.1311  -14.1627   19.1650 H   0  0  0  0  0  0
  -28.7471  -13.5829   21.6886 H   0  0  0  0  0  0
  -27.2908  -14.4192   21.8916 H   0  0  0  0  0  0
  -25.2572   -9.5668   22.4801 H   0  0  0  0  0  0
  -23.9939   -7.4507   22.7467 H   0  0  0  0  0  0
  -21.0693   -8.8504   19.8934 H   0  0  0  0  0  0
  -22.3414  -10.9478   19.6182 H   0  0  0  0  0  0
  -21.1953   -7.6100   23.9693 H   0  0  0  0  0  0
  -21.1480   -6.0508   25.9089 H   0  0  0  0  0  0
  -22.0615   -2.7558   23.2902 H   0  0  0  0  0  0
  -22.3411  -11.9585   22.5076 H   0  0  0  0  0  0
  -21.0354  -13.0905   22.3094 H   0  0  0  0  0  0
  -24.4376  -15.8288   20.4634 H   0  0  0  0  0  0
  -26.0309  -15.6054   19.9317 H   0  0  0  0  0  0
  -26.8019  -32.5783   23.1418 H   0  0  0  0  0  0
  -25.0680  -33.9984   25.0727 H   0  0  0  0  0  0
  -22.7303  -31.1605   21.6662 H   0  0  0  0  0  0
  -23.3810  -35.9681   23.3251 H   0  0  0  0  0  0
  -24.3617  -36.9001   22.2013 H   0  0  0  0  0  0
  -23.7216  -37.6565   23.6595 H   0  0  0  0  0  0
  -26.3659  -31.5225   20.6860 H   0  0  0  0  0  0
  -26.9435  -30.7429   22.1178 H   0  0  0  0  0  0
  -27.8384  -28.4337   21.6226 H   0  0  0  0  0  0
  -26.0963  -26.5348   18.1602 H   0  0  0  0  0  0
  -24.1262  -27.9156   18.3874 H   0  0  0  0  0  0
  -23.8685  -30.8885   19.4611 H   0  0  0  0  0  0
  -22.8341  -29.5334   19.7763 H   0  0  0  0  0  0
  -25.1291  -36.2088   25.0795 H   0  0  0  0  0  0
  -23.0606  -26.7658   23.4075 H   0  0  0  0  0  0
  -22.9244  -25.8054   20.8182 H   0  0  0  0  0  0
  -22.3778  -27.1996   20.1278 H   0  0  0  0  0  0
  -20.4098  -24.6644   20.2112 H   0  0  0  0  0  0
  -19.9505  -26.1821   19.5949 H   0  0  0  0  0  0
  -18.7176  -24.8076   22.1910 H   0  0  0  0  0  0
  -17.8551  -25.7625   21.0697 H   0  0  0  0  0  0
  -19.2988  -28.6065   25.6670 H   0  0  0  0  0  0
  -17.8333  -30.3024   24.9554 H   0  0  0  0  0  0
  -16.1610  -29.7025   23.1743 H   0  0  0  0  0  0
  -16.4995  -27.4840   22.0940 H   0  0  0  0  0  0
  -24.5916  -30.7213   25.7314 H   0  0  0  0  0  0
  -24.8681  -32.2956   26.4582 H   0  0  0  0  0  0
  -25.7641  -30.8926   27.0168 H   0  0  0  0  0  0
  -26.4002  -29.6897   24.1079 H   0  0  0  0  0  0
  -27.4070  -29.7405   25.5237 H   0  0  0  0  0  0
  -27.9760  -30.4644   24.0416 H   0  0  0  0  0  0
  -27.2635  -33.3621   26.2607 H   0  0  0  0  0  0
  -28.4008  -32.7079   25.0912 H   0  0  0  0  0  0
  -28.0684  -31.8419   26.5830 H   0  0  0  0  0  0
  -28.2599  -38.0214   24.7594 H   0  0  0  0  0  0
  -28.1126  -36.2761   24.6203 H   0  0  0  0  0  0
  -27.2333  -37.1437   25.8868 H   0  0  0  0  0  0
  -22.4494  -28.4420   21.1749 H   0  0  0  0  0  0
  -26.0197  -38.3007   24.1434 H   0  0  0  0  0  0
  -25.7025  -21.2814   19.6082 H   0  0  0  0  0  0
  -24.3613  -21.9591   23.6282 H   0  0  0  0  0  0
  -20.6767  -31.1799   23.4369 H   0  0  0  0  0  0
  -20.0270  -30.6544   21.7875 H   0  0  0  0  0  0
  -23.9749  -24.6060   19.8105 H   0  0  0  0  0  0
  -25.0802  -25.9808   20.3372 H   0  0  0  0  0  0
  -21.8271  -21.4332   22.4748 H   0  0  0  0  0  0
  -20.7467  -22.5509   21.7771 H   0  0  0  0  0  0
  -21.1481  -29.0743   25.5996 H   0  0  0  0  0  0
  -22.4758  -28.9323   24.9343 H   0  0  0  0  0  0
  -20.7483  -28.1194   20.9407 H   0  0  0  0  0  0
  -19.4590  -27.8028   21.2841 H   0  0  0  0  0  0
  -22.2153  -23.0290   24.6154 H   0  0  0  0  0  0
  -20.5338  -22.8686   24.3756 H   0  0  0  0  0  0
  -21.0738  -26.3898   26.0847 H   0  0  0  0  0  0
  -22.6895  -26.3949   25.5479 H   0  0  0  0  0  0
  -20.1833  -24.9668   24.1970 H   0  0  0  0  0  0
  -27.4425  -18.9130   22.3183 H   0  0  0  0  0  0
  1 25  1  0  0  0
  1 30  2  0  0  0
  1 88  1  0  0  0
  2  3  1  0  0  0
  2 25  1  0  0  0
  2 89  1  0  0  0
  2 90  1  0  0  0
  3  4  1  0  0  0
  3 91  1  0  0  0
  3 92  1  0  0  0
  4  5  1  0  0  0
  4 93  1  0  0  0
  4 94  1  0  0  0
  5  6  1  0  0  0
  5 26  1  0  0  0
  5 95  1  0  0  0
  6 25  1  0  0  0
  6 96  1  0  0  0
  6 97  1  0  0  0
  7  8  2  0  0  0
  7 26  1  0  0  0
  7 29  1  0  0  0
  8  9  1  0  0  0
  8 22  1  0  0  0
  9 10  1  0  0  0
  9 27  2  0  0  0
 10 11  2  0  0  0
 10 15  1  0  0  0
 11 12  1  0  0  0
 11 98  1  0  0  0
 12 13  2  0  0  0
 12 99  1  0  0  0
 13 14  1  0  0  0
 13 31  1  0  0  0
 14 15  2  0  0  0
 14100  1  0  0  0
 15101  1  0  0  0
 16 17  2  0  0  0
 16 21  1  0  0  0
 16 31  1  0  0  0
 17 18  1  0  0  0
 17102  1  0  0  0
 18 19  2  0  0  0
 18103  1  0  0  0
 19 20  1  0  0  0
 19 24  1  0  0  0
 20 21  2  0  0  0
 20104  1  0  0  0
 21 23  1  0  0  0
 22 28  1  0  0  0
 22 32  2  0  0  0
 26 27  1  0  0  0
 28105  1  0  0  0
 28106  1  0  0  0
 29107  1  0  0  0
 29108  1  0  0  0
 33 34  1  0  0  0
 33 66  1  0  0  0
 33 70  2  0  0  0
 34 36  1  0  0  0
 34 59  1  0  0  0
 34109  1  0  0  0
 35 44  2  0  0  0
 35 45  1  0  0  0
 35 68  1  0  0  0
 36 56  1  0  0  0
 36110  1  0  0  0
 37 39  1  0  0  0
 37 47  1  0  0  0
 37 66  1  0  0  0
 37111  1  0  0  0
 38 43  2  0  0  0
 38 46  1  0  0  0
 38 47  1  0  0  0
 39 64  1  0  0  0
 39 67  2  0  0  0
 40 52  1  0  0  0
 40 53  2  0  0  0
 40 58  1  0  0  0
 41112  1  0  0  0
 41113  1  0  0  0
 41114  1  0  0  0
 41 48  1  0  0  0
 42 43  1  0  0  0
 42 66  1  0  0  0
 42115  1  0  0  0
 42116  1  0  0  0
 43 44  1  0  0  0
 44117  1  0  0  0
 45 46  2  0  0  0
 45118  1  0  0  0
 46119  1  0  0  0
 47120  1  0  0  0
 47121  1  0  0  0
 48 56  1  0  0  0
 48 65  1  0  0  0
 48122  1  0  0  0
 49 50  1  0  0  0
 49 53  1  0  0  0
 49 64  1  0  0  0
 49123  1  0  0  0
 50 51  1  0  0  0
 50124  1  0  0  0
 50125  1  0  0  0
 51 52  1  0  0  0
 51126  1  0  0  0
 51127  1  0  0  0
 52128  1  0  0  0
 52129  1  0  0  0
 53 54  1  0  0  0
 54 55  2  0  0  0
 54130  1  0  0  0
 55 57  1  0  0  0
 55131  1  0  0  0
 56 69  2  0  0  0
 57 58  2  0  0  0
 57132  1  0  0  0
 58133  1  0  0  0
 59 60  1  0  0  0
 59 61  1  0  0  0
 59 62  1  0  0  0
 60134  1  0  0  0
 60135  1  0  0  0
 60136  1  0  0  0
 61137  1  0  0  0
 61138  1  0  0  0
 61139  1  0  0  0
 62140  1  0  0  0
 62141  1  0  0  0
 62142  1  0  0  0
 63 65  1  0  0  0
 63143  1  0  0  0
 63144  1  0  0  0
 63145  1  0  0  0
 64146  1  0  0  0
 65147  1  0  0  0
 68 80  1  0  0  0
 71 73  2  0  0  0
 71 76  1  0  0  0
 71148  1  0  0  0
 72 75  1  0  0  0
 72 76  2  0  0  0
 72149  1  0  0  0
 73 74  1  0  0  0
 73 79  1  0  0  0
 74 75  2  0  0  0
 74 81  1  0  0  0
 75 87  1  0  0  0
 76 88  1  0  0  0
 77 78  2  0  0  0
 77 82  1  0  0  0
 77 83  1  0  0  0
 78150  1  0  0  0
 78151  1  0  0  0
 79 80  2  0  0  0
 79152  1  0  0  0
 80153  1  0  0  0
 81 84  1  0  0  0
 81154  1  0  0  0
 81155  1  0  0  0
 82 85  1  0  0  0
 82156  1  0  0  0
 82157  1  0  0  0
 83 87  1  0  0  0
 83158  1  0  0  0
 83159  1  0  0  0
 84160  1  0  0  0
 84161  1  0  0  0
 84 86  1  0  0  0
 85 86  1  0  0  0
 85162  1  0  0  0
 85163  1  0  0  0
 86 87  1  0  0  0
 86164  1  0  0  0
 88165  1  0  0  0
M  ISO  4   1 100  68 101  80 101  88 100
M  END
> <chiral flag>
0

> <version>
0

> <s_m_source_file>
/data/baiqing/PycharmProjects/Reinvent-master-3.2/result/LINK_invent/BTK/process_docking_weight1_custom_product_contain_oxygen_bond_distance_aromatic_linkinvent_7_9_3/rearranged_h_0084.sdf

> <i_m_source_file_index>
56

> <r_mmod_Potential_Energy-OPLS-2005>
27798.03125

> <r_mmod_Stretch_Energy-OPLS-2005>
13379.462890625

> <r_mmod_Bend_Energy-OPLS-2005>
2845.42260742188

> <r_mmod_Torsional_Energy-OPLS-2005>
894.651000976562

> <r_mmod_Improper_Torsional_Energy-OPLS-2005>
117.766494750977

> <r_mmod_Van_der_Waal_Energy-OPLS-2005>
3336.27392578125

> <r_mmod_Electrostatic_Energy-OPLS-2005>
-400.014434814453

> <r_mmod_Solvation_Energy-OPLS-2005>
-197.25732421875

> <b_mmod_Minimization_Converged-OPLS-2005>
0

> <r_mmod_RMS_Derivative-OPLS-2005>
6.68680429458618

$$$$
56
                    3D
 Structure written by MMmdl.
156165  0  0  1  0            999 V2000
  -30.6153  -14.7284   20.3648 C   0  0  0  0  0  0
  -30.4460  -12.4126   19.4669 C   0  0  0  0  0  0
  -29.5113  -12.3930   18.2349 C   0  0  0  0  0  0
  -28.0276  -12.2952   18.6525 C   0  0  0  0  0  0
  -27.6407  -13.2144   19.8455 C   0  0  2  0  0  0
  -28.6989  -13.1796   20.9676 C   0  0  0  0  0  0
  -25.2543  -13.8154   20.5731 C   0  0  0  0  0  0
  -24.1802  -13.0424   20.9212 C   0  0  0  0  0  0
  -24.6377  -11.6895   20.8780 C   0  0  0  0  0  0
  -23.9050  -10.4282   21.0429 C   0  0  0  0  0  0
  -24.3610   -9.4194   21.9198 C   0  0  0  0  0  0
  -23.6294   -8.2228   22.0757 C   0  0  0  0  0  0
  -22.4277   -8.0270   21.3546 C   0  0  0  0  0  0
  -21.9908   -9.0244   20.4653 C   0  0  0  0  0  0
  -22.7229  -10.2126   20.3069 C   0  0  0  0  0  0
  -21.6848   -6.0734   22.5276 C   0  0  0  0  0  0
  -21.4006   -6.5637   23.8209 C   0  0  0  0  0  0
  -21.3660   -5.6795   24.9173 C   0  0  0  0  0  0
  -21.6045   -4.3058   24.7229 C   0  0  0  0  0  0
  -21.8819   -3.8148   23.4349 C   0  0  0  0  0  0
  -21.9189   -4.6962   22.3402 C   0  0  0  0  0  0
  -22.7829  -13.5224   21.1866 C   0  0  0  0  0  0
  -22.1665   -4.2145   21.0982 F   0  0  0  0  0  0
  -21.5635   -3.4546   25.7746 F   0  0  0  0  0  0
  -29.9928  -13.5014   20.3542 N   0  0  0  0  0  0
  -26.2959  -12.9318   20.3353 N   0  0  0  0  0  0
  -25.9306  -11.6483   20.5839 N   0  0  0  0  0  0
  -22.0478  -12.8217   22.0427 N   0  0  0  0  0  0
  -25.4291  -15.1871   20.4168 N   0  0  0  0  0  0
  -31.8470  -14.7946   20.3081 O   0  0  0  0  0  0
  -21.6638   -6.8870   21.4236 O   0  0  0  0  0  0
  -22.3513  -14.5534   20.6720 O   0  0  0  0  0  0
  -24.6280  -31.8595   23.2015 C   0  0  0  0  0  0
  -25.9126  -32.4778   23.8354 C   0  0  1  0  0  0
  -27.2249  -27.2965   20.1150 C   0  0  0  0  0  0
  -25.5941  -33.8579   24.2284 N   0  0  0  0  0  0
  -23.4215  -30.4829   21.5449 C   0  0  2  0  0  0
  -24.8664  -28.9357   20.1111 C   0  0  0  0  0  0
  -22.7493  -29.4617   22.4933 C   0  0  0  0  0  0
  -18.0296  -28.1386   22.8481 C   0  0  0  0  0  0
  -24.1480  -36.7277   23.2634 C   0  0  0  0  0  0
  -25.9651  -30.7829   21.3749 C   0  0  0  0  0  0
  -26.0367  -29.4091   20.7153 C   0  0  0  0  0  0
  -27.2143  -28.6008   20.7082 C   0  0  0  0  0  0
  -26.0199  -26.8761   19.5015 C   0  0  0  0  0  0
  -24.8618  -27.6752   19.4980 C   0  0  0  0  0  0
  -23.6365  -29.8192   20.1595 C   0  0  0  0  0  0
  -25.4106  -36.3080   24.0329 C   0  0  1  0  0  0
  -20.5896  -28.3684   23.1281 C   0  0  2  0  0  0
  -20.6772  -26.9404   22.5408 C   0  0  0  0  0  0
  -19.5750  -26.6383   21.5206 C   0  0  0  0  0  0
  -18.1935  -26.7929   22.1620 C   0  0  0  0  0  0
  -19.1550  -28.8854   23.2874 C   0  0  0  0  0  0
  -18.9464  -30.1457   23.8885 C   0  0  0  0  0  0
  -17.6460  -30.6582   24.0560 C   0  0  0  0  0  0
  -25.9052  -34.9454   23.5105 C   0  0  0  0  0  0
  -16.5354  -29.9076   23.6331 C   0  0  0  0  0  0
  -16.7281  -28.6500   23.0346 C   0  0  0  0  0  0
  -26.4501  -31.6601   25.0738 C   0  0  0  0  0  0
  -25.3746  -31.3738   26.1475 C   0  0  0  0  0  0
  -27.0346  -30.3025   24.6207 C   0  0  0  0  0  0
  -27.6065  -32.4341   25.7509 C   0  0  0  0  0  0
  -27.5582  -37.1788   24.8464 C   0  0  0  0  0  0
  -21.4206  -29.3035   22.3679 N   0  0  0  0  0  0
  -26.4282  -37.3781   23.9423 N   0  0  0  0  0  0
  -24.6906  -31.0593   22.0968 N   0  0  0  0  0  0
  -23.4216  -28.8153   23.3011 O   0  0  0  0  0  0
  -28.3590  -26.4622   20.1974 O   0  0  0  0  0  0
  -26.5616  -34.8921   22.4668 O   0  0  0  0  0  0
  -23.5440  -32.1409   23.7333 O   0  0  0  0  0  0
  -30.4566  -19.3792   21.1837 C   0  0  0  0  0  0
  -28.4173  -19.3240   19.9276 C   0  0  0  0  0  0
  -30.6195  -17.9608   21.0130 C   0  0  0  0  0  0
  -28.5755  -17.9185   19.7637 C   0  0  0  0  0  0
  -29.3655  -20.1184   20.6217 C   0  0  0  0  0  0
  -29.6939  -17.1829   20.2618 C   0  0  0  0  0  0
  -29.0432  -23.6794   21.6350 C   0  0  0  0  0  0
  -28.7690  -23.8311   20.3376 C   0  0  0  0  0  0
  -29.3135  -22.2758   21.9158 C   0  0  0  0  0  0
  -28.8650  -22.4762   19.7603 C   0  0  0  0  0  0
  -30.7235  -16.0706   17.5645 C   0  0  0  0  0  0
  -29.7517  -15.7160   18.4248 C   0  0  0  0  0  0
  -28.4559  -25.1402   19.5187 C   0  0  0  0  0  0
  -29.1985  -21.5902   20.7528 N   0  0  0  0  0  0
  -29.8715  -15.7764   19.8242 N   0  0  0  0  0  0
  -29.5894  -21.7874   23.0173 O   0  0  0  0  0  0
  -28.6918  -22.1738   18.5744 O   0  0  0  0  0  0
  -31.4812  -12.5494   19.1489 H   0  0  0  0  0  0
  -30.4137  -11.4580   19.9955 H   0  0  0  0  0  0
  -29.7648  -11.5417   17.6016 H   0  0  0  0  0  0
  -29.6747  -13.2644   17.6056 H   0  0  0  0  0  0
  -27.8496  -11.2554   18.9271 H   0  0  0  0  0  0
  -27.3795  -12.4919   17.7981 H   0  0  0  0  0  0
  -27.6121  -14.2283   19.4578 H   0  0  0  0  0  0
  -28.7313  -12.2006   21.4476 H   0  0  0  0  0  0
  -28.4570  -13.9065   21.7451 H   0  0  0  0  0  0
  -25.2757   -9.5675   22.4768 H   0  0  0  0  0  0
  -24.0011   -7.4615   22.7468 H   0  0  0  0  0  0
  -21.0842   -8.8758   19.8958 H   0  0  0  0  0  0
  -22.3688  -10.9668   19.6181 H   0  0  0  0  0  0
  -21.1992   -7.6146   23.9709 H   0  0  0  0  0  0
  -21.1487   -6.0530   25.9075 H   0  0  0  0  0  0
  -22.0599   -2.7611   23.2852 H   0  0  0  0  0  0
  -22.4112  -11.9884   22.4815 H   0  0  0  0  0  0
  -21.1094  -13.1232   22.2652 H   0  0  0  0  0  0
  -24.6737  -15.8505   20.5444 H   0  0  0  0  0  0
  -26.3037  -15.6258   20.1593 H   0  0  0  0  0  0
  -26.7196  -32.5436   23.1099 H   0  0  0  0  0  0
  -25.0124  -33.9726   25.0454 H   0  0  0  0  0  0
  -22.7154  -31.3035   21.4027 H   0  0  0  0  0  0
  -23.3756  -35.9598   23.3301 H   0  0  0  0  0  0
  -24.3567  -36.8893   22.2050 H   0  0  0  0  0  0
  -23.7225  -37.6475   23.6650 H   0  0  0  0  0  0
  -26.1030  -31.5468   20.6086 H   0  0  0  0  0  0
  -26.8428  -30.8286   22.0075 H   0  0  0  0  0  0
  -28.1117  -28.9623   21.1902 H   0  0  0  0  0  0
  -25.9051  -25.9073   19.0453 H   0  0  0  0  0  0
  -23.9602  -27.2997   19.0333 H   0  0  0  0  0  0
  -23.7596  -30.5968   19.4048 H   0  0  0  0  0  0
  -22.7538  -29.2534   19.8548 H   0  0  0  0  0  0
  -25.1283  -36.1924   25.0822 H   0  0  0  0  0  0
  -20.9989  -28.3250   24.1401 H   0  0  0  0  0  0
  -20.5656  -26.2293   23.3606 H   0  0  0  0  0  0
  -21.6643  -26.7422   22.1210 H   0  0  0  0  0  0
  -19.6901  -25.6295   21.1235 H   0  0  0  0  0  0
  -19.6685  -27.3192   20.6733 H   0  0  0  0  0  0
  -17.4201  -26.6688   21.4025 H   0  0  0  0  0  0
  -18.0324  -26.0078   22.9018 H   0  0  0  0  0  0
  -19.7937  -30.7284   24.2245 H   0  0  0  0  0  0
  -17.5010  -31.6260   24.5166 H   0  0  0  0  0  0
  -15.5352  -30.2963   23.7664 H   0  0  0  0  0  0
  -15.8688  -28.0812   22.7057 H   0  0  0  0  0  0
  -24.5914  -30.7085   25.7813 H   0  0  0  0  0  0
  -24.8938  -32.2899   26.4920 H   0  0  0  0  0  0
  -25.8086  -30.8915   27.0245 H   0  0  0  0  0  0
  -26.2924  -29.6780   24.1219 H   0  0  0  0  0  0
  -27.4025  -29.7279   25.4719 H   0  0  0  0  0  0
  -27.8801  -30.4307   23.9447 H   0  0  0  0  0  0
  -27.2682  -33.3639   26.2095 H   0  0  0  0  0  0
  -28.3873  -32.6916   25.0341 H   0  0  0  0  0  0
  -28.0743  -31.8474   26.5427 H   0  0  0  0  0  0
  -28.2586  -38.0097   24.7541 H   0  0  0  0  0  0
  -28.1094  -36.2637   24.6249 H   0  0  0  0  0  0
  -27.2313  -37.1390   25.8868 H   0  0  0  0  0  0
  -20.9390  -29.8763   21.6891 H   0  0  0  0  0  0
  -26.0162  -38.2850   24.1449 H   0  0  0  0  0  0
  -31.2169  -19.9087   21.7410 H   0  0  0  0  0  0
  -27.5466  -19.7941   19.4912 H   0  0  0  0  0  0
  -31.5043  -17.4890   21.4179 H   0  0  0  0  0  0
  -27.8200  -17.4053   19.1862 H   0  0  0  0  0  0
  -29.0767  -24.4731   22.3655 H   0  0  0  0  0  0
  -30.5698  -16.0133   16.4967 H   0  0  0  0  0  0
  -31.6867  -16.4181   17.9115 H   0  0  0  0  0  0
  -28.7875  -15.3764   18.0797 H   0  0  0  0  0  0
  -27.6249  -24.9115   18.8600 H   0  0  0  0  0  0
  -29.2946  -25.2467   18.8311 H   0  0  0  0  0  0
  1 25  1  0  0  0
  1 30  2  0  0  0
  1 85  1  0  0  0
  2  3  1  0  0  0
  2 25  1  0  0  0
  2 88  1  0  0  0
  2 89  1  0  0  0
  3  4  1  0  0  0
  3 90  1  0  0  0
  3 91  1  0  0  0
  4  5  1  0  0  0
  4 92  1  0  0  0
  4 93  1  0  0  0
  5  6  1  0  0  0
  5 26  1  0  0  0
  5 94  1  0  0  0
  6 25  1  0  0  0
  6 95  1  0  0  0
  6 96  1  0  0  0
  7  8  2  0  0  0
  7 26  1  0  0  0
  7 29  1  0  0  0
  8  9  1  0  0  0
  8 22  1  0  0  0
  9 10  1  0  0  0
  9 27  2  0  0  0
 10 11  2  0  0  0
 10 15  1  0  0  0
 11 12  1  0  0  0
 11 97  1  0  0  0
 12 13  2  0  0  0
 12 98  1  0  0  0
 13 14  1  0  0  0
 13 31  1  0  0  0
 14 15  2  0  0  0
 14 99  1  0  0  0
 15100  1  0  0  0
 16 17  2  0  0  0
 16 21  1  0  0  0
 16 31  1  0  0  0
 17 18  1  0  0  0
 17101  1  0  0  0
 18 19  2  0  0  0
 18102  1  0  0  0
 19 20  1  0  0  0
 19 24  1  0  0  0
 20 21  2  0  0  0
 20103  1  0  0  0
 21 23  1  0  0  0
 22 28  1  0  0  0
 22 32  2  0  0  0
 26 27  1  0  0  0
 28104  1  0  0  0
 28105  1  0  0  0
 29106  1  0  0  0
 29107  1  0  0  0
 33 34  1  0  0  0
 33 66  1  0  0  0
 33 70  2  0  0  0
 34 36  1  0  0  0
 34 59  1  0  0  0
 34108  1  0  0  0
 35 44  2  0  0  0
 35 45  1  0  0  0
 35 68  1  0  0  0
 36 56  1  0  0  0
 36109  1  0  0  0
 37 39  1  0  0  0
 37 47  1  0  0  0
 37 66  1  0  0  0
 37110  1  0  0  0
 38 43  2  0  0  0
 38 46  1  0  0  0
 38 47  1  0  0  0
 39 64  1  0  0  0
 39 67  2  0  0  0
 40 52  1  0  0  0
 40 53  2  0  0  0
 40 58  1  0  0  0
 41111  1  0  0  0
 41112  1  0  0  0
 41113  1  0  0  0
 41 48  1  0  0  0
 42 43  1  0  0  0
 42 66  1  0  0  0
 42114  1  0  0  0
 42115  1  0  0  0
 43 44  1  0  0  0
 44116  1  0  0  0
 45 46  2  0  0  0
 45117  1  0  0  0
 46118  1  0  0  0
 47119  1  0  0  0
 47120  1  0  0  0
 48 56  1  0  0  0
 48 65  1  0  0  0
 48121  1  0  0  0
 49 50  1  0  0  0
 49 53  1  0  0  0
 49 64  1  0  0  0
 49122  1  0  0  0
 50 51  1  0  0  0
 50123  1  0  0  0
 50124  1  0  0  0
 51 52  1  0  0  0
 51125  1  0  0  0
 51126  1  0  0  0
 52127  1  0  0  0
 52128  1  0  0  0
 53 54  1  0  0  0
 54 55  2  0  0  0
 54129  1  0  0  0
 55 57  1  0  0  0
 55130  1  0  0  0
 56 69  2  0  0  0
 57 58  2  0  0  0
 57131  1  0  0  0
 58132  1  0  0  0
 59 60  1  0  0  0
 59 61  1  0  0  0
 59 62  1  0  0  0
 60133  1  0  0  0
 60134  1  0  0  0
 60135  1  0  0  0
 61136  1  0  0  0
 61137  1  0  0  0
 61138  1  0  0  0
 62139  1  0  0  0
 62140  1  0  0  0
 62141  1  0  0  0
 63 65  1  0  0  0
 63142  1  0  0  0
 63143  1  0  0  0
 63144  1  0  0  0
 64145  1  0  0  0
 65146  1  0  0  0
 68 83  1  0  0  0
 71 73  2  0  0  0
 71 75  1  0  0  0
 71147  1  0  0  0
 72 74  1  0  0  0
 72 75  2  0  0  0
 72148  1  0  0  0
 73 76  1  0  0  0
 73149  1  0  0  0
 74 76  2  0  0  0
 74150  1  0  0  0
 75 84  1  0  0  0
 76 85  1  0  0  0
 77 78  2  0  0  0
 77 79  1  0  0  0
 77151  1  0  0  0
 78 80  1  0  0  0
 78 83  1  0  0  0
 79 84  1  0  0  0
 79 86  2  0  0  0
 80 84  1  0  0  0
 80 87  2  0  0  0
 81 82  2  0  0  0
 81152  1  0  0  0
 81153  1  0  0  0
 82 85  1  0  0  0
 82154  1  0  0  0
 83155  1  0  0  0
 83156  1  0  0  0
M  ISO  4   1 100  68 101  83 101  85 100
M  END
> <chiral flag>
0

> <version>
0

> <s_m_source_file>
/data/baiqing/PycharmProjects/Reinvent-master-3.2/result/LINK_invent/BTK/process_docking_weight1_custom_product_contain_oxygen_bond_distance_aromatic_linkinvent_7_9_3/rearranged_h_0084.sdf

> <i_m_source_file_index>
57

> <r_mmod_Potential_Energy-OPLS-2005>
399.791564941406

> <r_mmod_Stretch_Energy-OPLS-2005>
97.5325164794922

> <r_mmod_Bend_Energy-OPLS-2005>
208.380950927734

> <r_mmod_Torsional_Energy-OPLS-2005>
380.962646484375

> <r_mmod_Improper_Torsional_Energy-OPLS-2005>
24.6579608917236

> <r_mmod_Van_der_Waal_Energy-OPLS-2005>
144.1455078125

> <r_mmod_Electrostatic_Energy-OPLS-2005>
-316.0498046875

> <r_mmod_Solvation_Energy-OPLS-2005>
-224.129791259766

> <b_mmod_Minimization_Converged-OPLS-2005>
0

> <r_mmod_RMS_Derivative-OPLS-2005>
1.38994717597961

$$$$
57
                    3D
 Structure written by MMmdl.
153162  0  0  1  0            999 V2000
  -30.5945  -14.6901   20.4919 C   0  0  0  0  0  0
  -30.4449  -12.4230   19.4601 C   0  0  0  0  0  0
  -29.5125  -12.5147   18.2302 C   0  0  0  0  0  0
  -28.0361  -12.3425   18.6414 C   0  0  0  0  0  0
  -27.6526  -13.2183   19.8634 C   0  0  2  0  0  0
  -28.6975  -13.0866   20.9946 C   0  0  0  0  0  0
  -25.2560  -13.8171   20.5688 C   0  0  0  0  0  0
  -24.1829  -13.0435   20.9194 C   0  0  0  0  0  0
  -24.6398  -11.6906   20.8740 C   0  0  0  0  0  0
  -23.9065  -10.4290   21.0406 C   0  0  0  0  0  0
  -24.3617   -9.4206   21.9184 C   0  0  0  0  0  0
  -23.6291   -8.2241   22.0754 C   0  0  0  0  0  0
  -22.4274   -8.0281   21.3544 C   0  0  0  0  0  0
  -21.9909   -9.0255   20.4646 C   0  0  0  0  0  0
  -22.7238  -10.2133   20.3055 C   0  0  0  0  0  0
  -21.6852   -6.0736   22.5279 C   0  0  0  0  0  0
  -21.4014   -6.5640   23.8212 C   0  0  0  0  0  0
  -21.3660   -5.6794   24.9175 C   0  0  0  0  0  0
  -21.6045   -4.3056   24.7225 C   0  0  0  0  0  0
  -21.8819   -3.8147   23.4347 C   0  0  0  0  0  0
  -21.9192   -4.6964   22.3403 C   0  0  0  0  0  0
  -22.7851  -13.5229   21.1856 C   0  0  0  0  0  0
  -22.1661   -4.2149   21.0980 F   0  0  0  0  0  0
  -21.5630   -3.4539   25.7738 F   0  0  0  0  0  0
  -30.0087  -13.4480   20.4322 N   0  0  0  0  0  0
  -26.2987  -12.9352   20.3317 N   0  0  0  0  0  0
  -25.9327  -11.6505   20.5755 N   0  0  0  0  0  0
  -22.0493  -12.8219   22.0411 N   0  0  0  0  0  0
  -25.4271  -15.1893   20.4098 N   0  0  0  0  0  0
  -31.7550  -14.8613   20.1051 O   0  0  0  0  0  0
  -21.6638   -6.8879   21.4242 O   0  0  0  0  0  0
  -22.3538  -14.5537   20.6706 O   0  0  0  0  0  0
  -24.6279  -31.8578   23.2009 C   0  0  0  0  0  0
  -25.9118  -32.4770   23.8347 C   0  0  1  0  0  0
  -27.2264  -27.2987   20.1273 C   0  0  0  0  0  0
  -25.5927  -33.8572   24.2274 N   0  0  0  0  0  0
  -23.4239  -30.4798   21.5432 C   0  0  2  0  0  0
  -24.8734  -28.9303   20.1121 C   0  0  0  0  0  0
  -22.7487  -29.4611   22.4925 C   0  0  0  0  0  0
  -18.0289  -28.1387   22.8487 C   0  0  0  0  0  0
  -24.1489  -36.7289   23.2639 C   0  0  0  0  0  0
  -25.9664  -30.7817   21.3766 C   0  0  0  0  0  0
  -26.0423  -29.4057   20.7220 C   0  0  0  0  0  0
  -27.2230  -28.6004   20.7223 C   0  0  0  0  0  0
  -26.0392  -26.8837   19.4857 C   0  0  0  0  0  0
  -24.8741  -27.6746   19.4847 C   0  0  0  0  0  0
  -23.6417  -29.8127   20.1595 C   0  0  0  0  0  0
  -25.4115  -36.3079   24.0329 C   0  0  1  0  0  0
  -20.5891  -28.3694   23.1278 C   0  0  2  0  0  0
  -20.6777  -26.9414   22.5411 C   0  0  0  0  0  0
  -19.5753  -26.6385   21.5213 C   0  0  0  0  0  0
  -18.1933  -26.7929   22.1624 C   0  0  0  0  0  0
  -19.1542  -28.8857   23.2877 C   0  0  0  0  0  0
  -18.9464  -30.1458   23.8894 C   0  0  0  0  0  0
  -17.6463  -30.6588   24.0563 C   0  0  0  0  0  0
  -25.9052  -34.9448   23.5102 C   0  0  0  0  0  0
  -16.5354  -29.9086   23.6331 C   0  0  0  0  0  0
  -16.7276  -28.6504   23.0352 C   0  0  0  0  0  0
  -26.4499  -31.6585   25.0723 C   0  0  0  0  0  0
  -25.3729  -31.3724   26.1447 C   0  0  0  0  0  0
  -27.0346  -30.3007   24.6188 C   0  0  0  0  0  0
  -27.6055  -32.4322   25.7497 C   0  0  0  0  0  0
  -27.5579  -37.1803   24.8466 C   0  0  0  0  0  0
  -21.4198  -29.3042   22.3668 N   0  0  0  0  0  0
  -26.4293  -37.3774   23.9406 N   0  0  0  0  0  0
  -24.6915  -31.0570   22.0971 N   0  0  0  0  0  0
  -23.4197  -28.8154   23.3018 O   0  0  0  0  0  0
  -28.3198  -26.4135   20.1506 O   0  0  0  0  0  0
  -26.5621  -34.8917   22.4669 O   0  0  0  0  0  0
  -23.5437  -32.1385   23.7322 O   0  0  0  0  0  0
  -28.5905  -19.3803   21.0203 C   0  0  0  0  0  0
  -28.6827  -17.9598   21.1609 C   0  0  0  0  0  0
  -30.8073  -17.9700   20.0774 C   0  0  0  0  0  0
  -29.6000  -20.1731   20.3961 C   0  0  0  0  0  0
  -29.7882  -17.1965   20.6945 C   0  0  0  0  0  0
  -30.7194  -19.3960   19.9330 C   0  0  0  0  0  0
  -28.8643  -23.9436   20.2331 C   0  0  0  0  0  0
  -28.5291  -22.5520   20.6384 C   0  0  0  0  0  0
  -28.0831  -25.0550   20.4896 C   0  0  0  0  0  0
  -30.1714  -23.9152   19.5072 C   0  0  0  0  0  0
  -30.5658  -22.4233   19.5345 C   0  0  0  0  0  0
  -29.5082  -21.6643   20.2292 N   0  0  0  0  0  0
  -29.7664  -15.7280   20.8618 N   0  0  0  0  0  0
  -27.5107  -22.2347   21.2600 O   0  0  0  0  0  0
  -31.7643  -20.0014   19.3207 F   0  0  0  0  0  0
  -31.4839  -12.5620   19.1563 H   0  0  0  0  0  0
  -30.3954  -11.4299   19.9093 H   0  0  0  0  0  0
  -29.7852  -11.7590   17.4923 H   0  0  0  0  0  0
  -29.6448  -13.4809   17.7406 H   0  0  0  0  0  0
  -27.8808  -11.2897   18.8798 H   0  0  0  0  0  0
  -27.3804  -12.5622   17.7980 H   0  0  0  0  0  0
  -27.6656  -14.2510   19.5150 H   0  0  0  0  0  0
  -28.7208  -12.0653   21.3780 H   0  0  0  0  0  0
  -28.4339  -13.7158   21.8460 H   0  0  0  0  0  0
  -25.2763   -9.5681   22.4755 H   0  0  0  0  0  0
  -24.0002   -7.4633   22.7474 H   0  0  0  0  0  0
  -21.0841   -8.8773   19.8952 H   0  0  0  0  0  0
  -22.3698  -10.9672   19.6164 H   0  0  0  0  0  0
  -21.2006   -7.6148   23.9715 H   0  0  0  0  0  0
  -21.1483   -6.0524   25.9078 H   0  0  0  0  0  0
  -22.0598   -2.7609   23.2847 H   0  0  0  0  0  0
  -22.4109  -11.9879   22.4795 H   0  0  0  0  0  0
  -21.1112  -13.1247   22.2620 H   0  0  0  0  0  0
  -24.6557  -15.8402   20.5101 H   0  0  0  0  0  0
  -26.2671  -15.6256   20.0520 H   0  0  0  0  0  0
  -26.7185  -32.5439   23.1095 H   0  0  0  0  0  0
  -25.0078  -33.9715   25.0421 H   0  0  0  0  0  0
  -22.7188  -31.3007   21.3976 H   0  0  0  0  0  0
  -23.3751  -35.9623   23.3310 H   0  0  0  0  0  0
  -24.3577  -36.8901   22.2052 H   0  0  0  0  0  0
  -23.7244  -37.6494   23.6656 H   0  0  0  0  0  0
  -26.0992  -31.5427   20.6063 H   0  0  0  0  0  0
  -26.8461  -30.8331   22.0065 H   0  0  0  0  0  0
  -28.1197  -28.9574   21.2091 H   0  0  0  0  0  0
  -26.0035  -25.9200   18.9976 H   0  0  0  0  0  0
  -23.9800  -27.3054   19.0013 H   0  0  0  0  0  0
  -23.7629  -30.5884   19.4025 H   0  0  0  0  0  0
  -22.7618  -29.2426   19.8561 H   0  0  0  0  0  0
  -25.1298  -36.1932   25.0822 H   0  0  0  0  0  0
  -20.9983  -28.3270   24.1399 H   0  0  0  0  0  0
  -20.5680  -26.2302   23.3612 H   0  0  0  0  0  0
  -21.6645  -26.7440   22.1205 H   0  0  0  0  0  0
  -19.6914  -25.6295   21.1244 H   0  0  0  0  0  0
  -19.6692  -27.3194   20.6742 H   0  0  0  0  0  0
  -17.4203  -26.6678   21.4026 H   0  0  0  0  0  0
  -18.0332  -26.0071   22.9021 H   0  0  0  0  0  0
  -19.7939  -30.7276   24.2261 H   0  0  0  0  0  0
  -17.5017  -31.6268   24.5166 H   0  0  0  0  0  0
  -15.5355  -30.2987   23.7657 H   0  0  0  0  0  0
  -15.8676  -28.0822   22.7069 H   0  0  0  0  0  0
  -24.5911  -30.7065   25.7776 H   0  0  0  0  0  0
  -24.8913  -32.2889   26.4863 H   0  0  0  0  0  0
  -25.8054  -30.8911   27.0227 H   0  0  0  0  0  0
  -26.2924  -29.6754   24.1210 H   0  0  0  0  0  0
  -27.4037  -29.7266   25.4697 H   0  0  0  0  0  0
  -27.8796  -30.4290   23.9420 H   0  0  0  0  0  0
  -27.2664  -33.3625   26.2067 H   0  0  0  0  0  0
  -28.3872  -32.6875   25.0331 H   0  0  0  0  0  0
  -28.0715  -31.8450   26.5421 H   0  0  0  0  0  0
  -28.2602  -38.0094   24.7506 H   0  0  0  0  0  0
  -28.1070  -36.2625   24.6306 H   0  0  0  0  0  0
  -27.2294  -37.1468   25.8869 H   0  0  0  0  0  0
  -20.9379  -29.8761   21.6873 H   0  0  0  0  0  0
  -26.0175  -38.2851   24.1402 H   0  0  0  0  0  0
  -27.6986  -19.8446   21.4103 H   0  0  0  0  0  0
  -27.8606  -17.4497   21.6438 H   0  0  0  0  0  0
  -31.6859  -17.4757   19.6904 H   0  0  0  0  0  0
  -27.1538  -24.9464   21.0344 H   0  0  0  0  0  0
  -30.9057  -24.5398   20.0174 H   0  0  0  0  0  0
  -30.0467  -24.2830   18.4881 H   0  0  0  0  0  0
  -31.5150  -22.3012   20.0578 H   0  0  0  0  0  0
  -30.6882  -22.0501   18.5169 H   0  0  0  0  0  0
  -28.8941  -15.3781   21.2276 H   0  0  0  0  0  0
  1 25  1  0  0  0
  1 30  2  0  0  0
  1 83  1  0  0  0
  2  3  1  0  0  0
  2 25  1  0  0  0
  2 86  1  0  0  0
  2 87  1  0  0  0
  3  4  1  0  0  0
  3 88  1  0  0  0
  3 89  1  0  0  0
  4  5  1  0  0  0
  4 90  1  0  0  0
  4 91  1  0  0  0
  5  6  1  0  0  0
  5 26  1  0  0  0
  5 92  1  0  0  0
  6 25  1  0  0  0
  6 93  1  0  0  0
  6 94  1  0  0  0
  7  8  2  0  0  0
  7 26  1  0  0  0
  7 29  1  0  0  0
  8  9  1  0  0  0
  8 22  1  0  0  0
  9 10  1  0  0  0
  9 27  2  0  0  0
 10 11  2  0  0  0
 10 15  1  0  0  0
 11 12  1  0  0  0
 11 95  1  0  0  0
 12 13  2  0  0  0
 12 96  1  0  0  0
 13 14  1  0  0  0
 13 31  1  0  0  0
 14 15  2  0  0  0
 14 97  1  0  0  0
 15 98  1  0  0  0
 16 17  2  0  0  0
 16 21  1  0  0  0
 16 31  1  0  0  0
 17 18  1  0  0  0
 17 99  1  0  0  0
 18 19  2  0  0  0
 18100  1  0  0  0
 19 20  1  0  0  0
 19 24  1  0  0  0
 20 21  2  0  0  0
 20101  1  0  0  0
 21 23  1  0  0  0
 22 28  1  0  0  0
 22 32  2  0  0  0
 26 27  1  0  0  0
 28102  1  0  0  0
 28103  1  0  0  0
 29104  1  0  0  0
 29105  1  0  0  0
 33 34  1  0  0  0
 33 66  1  0  0  0
 33 70  2  0  0  0
 34 36  1  0  0  0
 34 59  1  0  0  0
 34106  1  0  0  0
 35 44  2  0  0  0
 35 45  1  0  0  0
 35 68  1  0  0  0
 36 56  1  0  0  0
 36107  1  0  0  0
 37 39  1  0  0  0
 37 47  1  0  0  0
 37 66  1  0  0  0
 37108  1  0  0  0
 38 43  2  0  0  0
 38 46  1  0  0  0
 38 47  1  0  0  0
 39 64  1  0  0  0
 39 67  2  0  0  0
 40 52  1  0  0  0
 40 53  2  0  0  0
 40 58  1  0  0  0
 41109  1  0  0  0
 41110  1  0  0  0
 41111  1  0  0  0
 41 48  1  0  0  0
 42 43  1  0  0  0
 42 66  1  0  0  0
 42112  1  0  0  0
 42113  1  0  0  0
 43 44  1  0  0  0
 44114  1  0  0  0
 45 46  2  0  0  0
 45115  1  0  0  0
 46116  1  0  0  0
 47117  1  0  0  0
 47118  1  0  0  0
 48 56  1  0  0  0
 48 65  1  0  0  0
 48119  1  0  0  0
 49 50  1  0  0  0
 49 53  1  0  0  0
 49 64  1  0  0  0
 49120  1  0  0  0
 50 51  1  0  0  0
 50121  1  0  0  0
 50122  1  0  0  0
 51 52  1  0  0  0
 51123  1  0  0  0
 51124  1  0  0  0
 52125  1  0  0  0
 52126  1  0  0  0
 53 54  1  0  0  0
 54 55  2  0  0  0
 54127  1  0  0  0
 55 57  1  0  0  0
 55128  1  0  0  0
 56 69  2  0  0  0
 57 58  2  0  0  0
 57129  1  0  0  0
 58130  1  0  0  0
 59 60  1  0  0  0
 59 61  1  0  0  0
 59 62  1  0  0  0
 60131  1  0  0  0
 60132  1  0  0  0
 60133  1  0  0  0
 61134  1  0  0  0
 61135  1  0  0  0
 61136  1  0  0  0
 62137  1  0  0  0
 62138  1  0  0  0
 62139  1  0  0  0
 63 65  1  0  0  0
 63140  1  0  0  0
 63141  1  0  0  0
 63142  1  0  0  0
 64143  1  0  0  0
 65144  1  0  0  0
 68 79  1  0  0  0
 71 72  2  0  0  0
 71 74  1  0  0  0
 71145  1  0  0  0
 72 75  1  0  0  0
 72146  1  0  0  0
 73 75  2  0  0  0
 73 76  1  0  0  0
 73147  1  0  0  0
 74 76  2  0  0  0
 74 82  1  0  0  0
 75 83  1  0  0  0
 76 85  1  0  0  0
 77 78  1  0  0  0
 77 79  2  0  0  0
 77 80  1  0  0  0
 78 82  1  0  0  0
 78 84  2  0  0  0
 79148  1  0  0  0
 80 81  1  0  0  0
 80149  1  0  0  0
 80150  1  0  0  0
 81 82  1  0  0  0
 81151  1  0  0  0
 81152  1  0  0  0
 83153  1  0  0  0
M  ISO  4   1 100  68 101  79 101  83 100
M  END
> <chiral flag>
0

> <version>
0

> <s_m_source_file>
/data/baiqing/PycharmProjects/Reinvent-master-3.2/result/LINK_invent/BTK/process_docking_weight1_custom_product_contain_oxygen_bond_distance_aromatic_linkinvent_7_9_3/rearranged_h_0084.sdf

> <i_m_source_file_index>
58

> <r_mmod_Potential_Energy-OPLS-2005>
178.937393188477

> <r_mmod_Stretch_Energy-OPLS-2005>
97.4976806640625

> <r_mmod_Bend_Energy-OPLS-2005>
173.273834228516

> <r_mmod_Torsional_Energy-OPLS-2005>
249.628494262695

> <r_mmod_Improper_Torsional_Energy-OPLS-2005>
3.72030401229858

> <r_mmod_Van_der_Waal_Energy-OPLS-2005>
146.315933227539

> <r_mmod_Electrostatic_Energy-OPLS-2005>
-347.910522460938

> <r_mmod_Solvation_Energy-OPLS-2005>
-206.900238037109

> <b_mmod_Minimization_Converged-OPLS-2005>
0

> <r_mmod_RMS_Derivative-OPLS-2005>
0.183930769562721

$$$$
58
                    3D
 Structure written by MMmdl.
154163  0  0  1  0            999 V2000
  -30.5718  -14.7415   20.4861 C   0  0  0  0  0  0
  -30.4525  -12.4568   19.4656 C   0  0  0  0  0  0
  -29.5195  -12.5274   18.2328 C   0  0  0  0  0  0
  -28.0419  -12.3458   18.6391 C   0  0  0  0  0  0
  -27.6518  -13.2216   19.8598 C   0  0  2  0  0  0
  -28.6983  -13.1074   20.9922 C   0  0  0  0  0  0
  -25.2561  -13.8168   20.5667 C   0  0  0  0  0  0
  -24.1828  -13.0442   20.9164 C   0  0  0  0  0  0
  -24.6411  -11.6915   20.8723 C   0  0  0  0  0  0
  -23.9076  -10.4300   21.0391 C   0  0  0  0  0  0
  -24.3629   -9.4229   21.9172 C   0  0  0  0  0  0
  -23.6300   -8.2268   22.0758 C   0  0  0  0  0  0
  -22.4285   -8.0288   21.3547 C   0  0  0  0  0  0
  -21.9913   -9.0268   20.4659 C   0  0  0  0  0  0
  -22.7241  -10.2148   20.3055 C   0  0  0  0  0  0
  -21.6869   -6.0720   22.5273 C   0  0  0  0  0  0
  -21.4017   -6.5626   23.8205 C   0  0  0  0  0  0
  -21.3660   -5.6785   24.9170 C   0  0  0  0  0  0
  -21.6050   -4.3046   24.7229 C   0  0  0  0  0  0
  -21.8829   -3.8136   23.4355 C   0  0  0  0  0  0
  -21.9199   -4.6944   22.3407 C   0  0  0  0  0  0
  -22.7852  -13.5247   21.1816 C   0  0  0  0  0  0
  -22.1653   -4.2121   21.0982 F   0  0  0  0  0  0
  -21.5656   -3.4541   25.7747 F   0  0  0  0  0  0
  -30.0039  -13.4878   20.4277 N   0  0  0  0  0  0
  -26.2991  -12.9362   20.3319 N   0  0  0  0  0  0
  -25.9349  -11.6515   20.5765 N   0  0  0  0  0  0
  -22.0495  -12.8245   22.0374 N   0  0  0  0  0  0
  -25.4292  -15.1877   20.4115 N   0  0  0  0  0  0
  -31.7366  -14.9205   20.1114 O   0  0  0  0  0  0
  -21.6663   -6.8873   21.4235 O   0  0  0  0  0  0
  -22.3528  -14.5542   20.6649 O   0  0  0  0  0  0
  -24.6295  -31.8550   23.1987 C   0  0  0  0  0  0
  -25.9134  -32.4749   23.8322 C   0  0  1  0  0  0
  -27.2226  -27.2676   20.1279 C   0  0  0  0  0  0
  -25.5931  -33.8546   24.2240 N   0  0  0  0  0  0
  -23.4279  -30.4776   21.5409 C   0  0  2  0  0  0
  -24.8799  -28.9297   20.1049 C   0  0  0  0  0  0
  -22.7497  -29.4586   22.4887 C   0  0  0  0  0  0
  -18.0293  -28.1365   22.8476 C   0  0  0  0  0  0
  -24.1496  -36.7292   23.2632 C   0  0  0  0  0  0
  -25.9743  -30.7672   21.3832 C   0  0  0  0  0  0
  -26.0509  -29.3922   20.7215 C   0  0  0  0  0  0
  -27.2264  -28.5714   20.7285 C   0  0  0  0  0  0
  -26.0349  -26.8802   19.4691 C   0  0  0  0  0  0
  -24.8767  -27.6808   19.4661 C   0  0  0  0  0  0
  -23.6486  -29.8156   20.1554 C   0  0  0  0  0  0
  -25.4120  -36.3061   24.0312 C   0  0  1  0  0  0
  -20.5900  -28.3683   23.1259 C   0  0  2  0  0  0
  -20.6767  -26.9397   22.5408 C   0  0  0  0  0  0
  -19.5757  -26.6358   21.5198 C   0  0  0  0  0  0
  -18.1940  -26.7901   22.1618 C   0  0  0  0  0  0
  -19.1549  -28.8840   23.2863 C   0  0  0  0  0  0
  -18.9473  -30.1447   23.8875 C   0  0  0  0  0  0
  -17.6474  -30.6572   24.0559 C   0  0  0  0  0  0
  -25.9053  -34.9434   23.5077 C   0  0  0  0  0  0
  -16.5364  -29.9078   23.6319 C   0  0  0  0  0  0
  -16.7281  -28.6493   23.0339 C   0  0  0  0  0  0
  -26.4496  -31.6561   25.0710 C   0  0  0  0  0  0
  -25.3730  -31.3779   26.1450 C   0  0  0  0  0  0
  -27.0290  -30.2936   24.6230 C   0  0  0  0  0  0
  -27.6051  -32.4285   25.7486 C   0  0  0  0  0  0
  -27.5592  -37.1791   24.8453 C   0  0  0  0  0  0
  -21.4209  -29.3033   22.3639 N   0  0  0  0  0  0
  -26.4298  -37.3759   23.9405 N   0  0  0  0  0  0
  -24.6955  -31.0517   22.0964 N   0  0  0  0  0  0
  -23.4197  -28.8121   23.2977 O   0  0  0  0  0  0
  -28.2680  -26.3151   20.1913 O   0  0  0  0  0  0
  -26.5643  -34.8909   22.4658 O   0  0  0  0  0  0
  -23.5452  -32.1373   23.7293 O   0  0  0  0  0  0
  -28.2578  -19.2918   21.0546 C   0  0  0  0  0  0
  -30.6700  -18.1695   20.2949 C   0  0  0  0  0  0
  -29.2299  -20.2520   20.6397 C   0  0  0  0  0  0
  -29.6665  -17.2520   20.7252 C   0  0  0  0  0  0
  -30.4680  -19.6118   20.2695 C   0  0  0  0  0  0
  -28.4556  -17.8787   21.1030 C   0  0  0  0  0  0
  -28.4258  -23.7336   20.6035 C   0  0  0  0  0  0
  -27.8738  -22.5230   21.2030 C   0  0  0  0  0  0
  -27.9133  -25.0289   20.7024 C   0  0  0  0  0  0
  -29.5573  -22.8613   19.9803 C   0  0  0  0  0  0
  -32.8214  -20.0138   20.0608 C   0  0  0  0  0  0
  -28.9019  -21.7137   20.6812 N   0  0  0  0  0  0
  -29.7179  -15.7692   20.8365 N   0  0  0  0  0  0
  -26.8762  -22.3537   21.8732 O   0  0  0  0  0  0
  -31.4827  -20.4723   19.9071 O   0  0  0  0  0  0
  -27.4383  -17.0944   21.5332 F   0  0  0  0  0  0
  -31.4901  -12.6107   19.1619 H   0  0  0  0  0  0
  -30.4184  -11.4676   19.9249 H   0  0  0  0  0  0
  -29.8044  -11.7730   17.4972 H   0  0  0  0  0  0
  -29.6429  -13.4936   17.7438 H   0  0  0  0  0  0
  -27.8887  -11.2921   18.8726 H   0  0  0  0  0  0
  -27.3892  -12.5634   17.7926 H   0  0  0  0  0  0
  -27.6578  -14.2530   19.5049 H   0  0  0  0  0  0
  -28.7350  -12.0879   21.3803 H   0  0  0  0  0  0
  -28.4292  -13.7395   21.8403 H   0  0  0  0  0  0
  -25.2784   -9.5711   22.4718 H   0  0  0  0  0  0
  -24.0015   -7.4677   22.7492 H   0  0  0  0  0  0
  -21.0836   -8.8786   19.8969 H   0  0  0  0  0  0
  -22.3693  -10.9684   19.6163 H   0  0  0  0  0  0
  -21.1991   -7.6132   23.9689 H   0  0  0  0  0  0
  -21.1468   -6.0518   25.9067 H   0  0  0  0  0  0
  -22.0601   -2.7593   23.2866 H   0  0  0  0  0  0
  -22.4111  -11.9921   22.4775 H   0  0  0  0  0  0
  -21.1118  -13.1283   22.2581 H   0  0  0  0  0  0
  -24.6785  -15.8469   20.5794 H   0  0  0  0  0  0
  -26.3142  -15.6443   20.2326 H   0  0  0  0  0  0
  -26.7198  -32.5398   23.1058 H   0  0  0  0  0  0
  -25.0033  -33.9670   25.0351 H   0  0  0  0  0  0
  -22.7243  -31.2995   21.3966 H   0  0  0  0  0  0
  -23.3746  -35.9635   23.3285 H   0  0  0  0  0  0
  -24.3571  -36.8932   22.2044 H   0  0  0  0  0  0
  -23.7267  -37.6498   23.6663 H   0  0  0  0  0  0
  -26.1181  -31.5298   20.6167 H   0  0  0  0  0  0
  -26.8480  -30.8100   22.0217 H   0  0  0  0  0  0
  -28.1157  -28.9124   21.2384 H   0  0  0  0  0  0
  -25.9910  -25.9168   18.9810 H   0  0  0  0  0  0
  -23.9834  -27.3245   18.9714 H   0  0  0  0  0  0
  -23.7742  -30.5964   19.4041 H   0  0  0  0  0  0
  -22.7676  -29.2522   19.8445 H   0  0  0  0  0  0
  -25.1303  -36.1894   25.0806 H   0  0  0  0  0  0
  -20.9992  -28.3256   24.1377 H   0  0  0  0  0  0
  -20.5621  -26.2303   23.3619 H   0  0  0  0  0  0
  -21.6640  -26.7371   22.1242 H   0  0  0  0  0  0
  -19.6920  -25.6268   21.1237 H   0  0  0  0  0  0
  -19.6701  -27.3162   20.6729 H   0  0  0  0  0  0
  -17.4204  -26.6641   21.4031 H   0  0  0  0  0  0
  -18.0369  -26.0039   22.9013 H   0  0  0  0  0  0
  -19.7953  -30.7270   24.2225 H   0  0  0  0  0  0
  -17.5028  -31.6242   24.5182 H   0  0  0  0  0  0
  -15.5365  -30.2987   23.7629 H   0  0  0  0  0  0
  -15.8688  -28.0815   22.7049 H   0  0  0  0  0  0
  -24.5883  -30.7137   25.7823 H   0  0  0  0  0  0
  -24.8964  -32.2988   26.4816 H   0  0  0  0  0  0
  -25.8037  -30.9011   27.0262 H   0  0  0  0  0  0
  -26.2861  -29.6719   24.1217 H   0  0  0  0  0  0
  -27.3874  -29.7166   25.4766 H   0  0  0  0  0  0
  -27.8801  -30.4134   23.9520 H   0  0  0  0  0  0
  -27.2635  -33.3569   26.2070 H   0  0  0  0  0  0
  -28.3861  -32.6862   25.0324 H   0  0  0  0  0  0
  -28.0718  -31.8414   26.5406 H   0  0  0  0  0  0
  -28.2596  -38.0099   24.7485 H   0  0  0  0  0  0
  -28.1097  -36.2622   24.6276 H   0  0  0  0  0  0
  -27.2311  -37.1441   25.8857 H   0  0  0  0  0  0
  -20.9382  -29.8796   21.6893 H   0  0  0  0  0  0
  -26.0175  -38.2834   24.1389 H   0  0  0  0  0  0
  -27.2892  -19.6488   21.3717 H   0  0  0  0  0  0
  -31.6152  -17.7490   19.9883 H   0  0  0  0  0  0
  -27.0222  -25.1300   21.3091 H   0  0  0  0  0  0
  -30.5763  -23.0247   20.3352 H   0  0  0  0  0  0
  -29.5478  -22.7280   18.8965 H   0  0  0  0  0  0
  -33.5050  -20.8589   19.9756 H   0  0  0  0  0  0
  -33.0950  -19.2946   19.2876 H   0  0  0  0  0  0
  -32.9856  -19.5639   21.0428 H   0  0  0  0  0  0
  -28.8381  -15.3991   21.1662 H   0  0  0  0  0  0
  1 25  1  0  0  0
  1 30  2  0  0  0
  1 83  1  0  0  0
  2  3  1  0  0  0
  2 25  1  0  0  0
  2 87  1  0  0  0
  2 88  1  0  0  0
  3  4  1  0  0  0
  3 89  1  0  0  0
  3 90  1  0  0  0
  4  5  1  0  0  0
  4 91  1  0  0  0
  4 92  1  0  0  0
  5  6  1  0  0  0
  5 26  1  0  0  0
  5 93  1  0  0  0
  6 25  1  0  0  0
  6 94  1  0  0  0
  6 95  1  0  0  0
  7  8  2  0  0  0
  7 26  1  0  0  0
  7 29  1  0  0  0
  8  9  1  0  0  0
  8 22  1  0  0  0
  9 10  1  0  0  0
  9 27  2  0  0  0
 10 11  2  0  0  0
 10 15  1  0  0  0
 11 12  1  0  0  0
 11 96  1  0  0  0
 12 13  2  0  0  0
 12 97  1  0  0  0
 13 14  1  0  0  0
 13 31  1  0  0  0
 14 15  2  0  0  0
 14 98  1  0  0  0
 15 99  1  0  0  0
 16 17  2  0  0  0
 16 21  1  0  0  0
 16 31  1  0  0  0
 17 18  1  0  0  0
 17100  1  0  0  0
 18 19  2  0  0  0
 18101  1  0  0  0
 19 20  1  0  0  0
 19 24  1  0  0  0
 20 21  2  0  0  0
 20102  1  0  0  0
 21 23  1  0  0  0
 22 28  1  0  0  0
 22 32  2  0  0  0
 26 27  1  0  0  0
 28103  1  0  0  0
 28104  1  0  0  0
 29105  1  0  0  0
 29106  1  0  0  0
 33 34  1  0  0  0
 33 66  1  0  0  0
 33 70  2  0  0  0
 34 36  1  0  0  0
 34 59  1  0  0  0
 34107  1  0  0  0
 35 44  2  0  0  0
 35 45  1  0  0  0
 35 68  1  0  0  0
 36 56  1  0  0  0
 36108  1  0  0  0
 37 39  1  0  0  0
 37 47  1  0  0  0
 37 66  1  0  0  0
 37109  1  0  0  0
 38 43  2  0  0  0
 38 46  1  0  0  0
 38 47  1  0  0  0
 39 64  1  0  0  0
 39 67  2  0  0  0
 40 52  1  0  0  0
 40 53  2  0  0  0
 40 58  1  0  0  0
 41110  1  0  0  0
 41111  1  0  0  0
 41112  1  0  0  0
 41 48  1  0  0  0
 42 43  1  0  0  0
 42 66  1  0  0  0
 42113  1  0  0  0
 42114  1  0  0  0
 43 44  1  0  0  0
 44115  1  0  0  0
 45 46  2  0  0  0
 45116  1  0  0  0
 46117  1  0  0  0
 47118  1  0  0  0
 47119  1  0  0  0
 48 56  1  0  0  0
 48 65  1  0  0  0
 48120  1  0  0  0
 49 50  1  0  0  0
 49 53  1  0  0  0
 49 64  1  0  0  0
 49121  1  0  0  0
 50 51  1  0  0  0
 50122  1  0  0  0
 50123  1  0  0  0
 51 52  1  0  0  0
 51124  1  0  0  0
 51125  1  0  0  0
 52126  1  0  0  0
 52127  1  0  0  0
 53 54  1  0  0  0
 54 55  2  0  0  0
 54128  1  0  0  0
 55 57  1  0  0  0
 55129  1  0  0  0
 56 69  2  0  0  0
 57 58  2  0  0  0
 57130  1  0  0  0
 58131  1  0  0  0
 59 60  1  0  0  0
 59 61  1  0  0  0
 59 62  1  0  0  0
 60132  1  0  0  0
 60133  1  0  0  0
 60134  1  0  0  0
 61135  1  0  0  0
 61136  1  0  0  0
 61137  1  0  0  0
 62138  1  0  0  0
 62139  1  0  0  0
 62140  1  0  0  0
 63 65  1  0  0  0
 63141  1  0  0  0
 63142  1  0  0  0
 63143  1  0  0  0
 64144  1  0  0  0
 65145  1  0  0  0
 68 79  1  0  0  0
 71 73  2  0  0  0
 71 76  1  0  0  0
 71146  1  0  0  0
 72 74  1  0  0  0
 72 75  2  0  0  0
 72147  1  0  0  0
 73 75  1  0  0  0
 73 82  1  0  0  0
 74 76  2  0  0  0
 74 83  1  0  0  0
 75 85  1  0  0  0
 76 86  1  0  0  0
 77 78  1  0  0  0
 77 79  2  0  0  0
 77 80  1  0  0  0
 78 82  1  0  0  0
 78 84  2  0  0  0
 79148  1  0  0  0
 80 82  1  0  0  0
 80149  1  0  0  0
 80150  1  0  0  0
 81 85  1  0  0  0
 81151  1  0  0  0
 81152  1  0  0  0
 81153  1  0  0  0
 83154  1  0  0  0
M  ISO  4   1 100  68 101  79 101  83 100
M  END
> <chiral flag>
0

> <version>
0

> <s_m_source_file>
/data/baiqing/PycharmProjects/Reinvent-master-3.2/result/LINK_invent/BTK/process_docking_weight1_custom_product_contain_oxygen_bond_distance_aromatic_linkinvent_7_9_3/rearranged_h_0084.sdf

> <i_m_source_file_index>
59

> <r_mmod_Potential_Energy-OPLS-2005>
197.206527709961

> <r_mmod_Stretch_Energy-OPLS-2005>
109.582237243652

> <r_mmod_Bend_Energy-OPLS-2005>
276.723968505859

> <r_mmod_Torsional_Energy-OPLS-2005>
227.003128051758

> <r_mmod_Improper_Torsional_Energy-OPLS-2005>
3.96901988983154

> <r_mmod_Van_der_Waal_Energy-OPLS-2005>
140.317642211914

> <r_mmod_Electrostatic_Energy-OPLS-2005>
-438.974578857422

> <r_mmod_Solvation_Energy-OPLS-2005>
-210.342483520508

> <b_mmod_Minimization_Converged-OPLS-2005>
0

> <r_mmod_RMS_Derivative-OPLS-2005>
2.62015151977539

$$$$
59
                    3D
 Structure written by MMmdl.
158167  0  0  1  0            999 V2000
  -30.6230  -14.6545   20.4998 C   0  0  0  0  0  0
  -30.4388  -12.4010   19.4644 C   0  0  0  0  0  0
  -29.5118  -12.5041   18.2326 C   0  0  0  0  0  0
  -28.0335  -12.3413   18.6398 C   0  0  0  0  0  0
  -27.6499  -13.2187   19.8619 C   0  0  2  0  0  0
  -28.6928  -13.0838   20.9942 C   0  0  0  0  0  0
  -25.2497  -13.8135   20.5606 C   0  0  0  0  0  0
  -24.1799  -13.0412   20.9199 C   0  0  0  0  0  0
  -24.6386  -11.6895   20.8768 C   0  0  0  0  0  0
  -23.9059  -10.4282   21.0425 C   0  0  0  0  0  0
  -24.3610   -9.4198   21.9200 C   0  0  0  0  0  0
  -23.6289   -8.2232   22.0757 C   0  0  0  0  0  0
  -22.4272   -8.0276   21.3545 C   0  0  0  0  0  0
  -21.9909   -9.0249   20.4644 C   0  0  0  0  0  0
  -22.7238  -10.2127   20.3064 C   0  0  0  0  0  0
  -21.6847   -6.0738   22.5284 C   0  0  0  0  0  0
  -21.4005   -6.5635   23.8220 C   0  0  0  0  0  0
  -21.3657   -5.6780   24.9178 C   0  0  0  0  0  0
  -21.6047   -4.3047   24.7220 C   0  0  0  0  0  0
  -21.8819   -3.8144   23.4339 C   0  0  0  0  0  0
  -21.9186   -4.6968   22.3398 C   0  0  0  0  0  0
  -22.7825  -13.5219   21.1850 C   0  0  0  0  0  0
  -22.1655   -4.2158   21.0973 F   0  0  0  0  0  0
  -21.5634   -3.4525   25.7731 F   0  0  0  0  0  0
  -30.0090  -13.4289   20.4343 N   0  0  0  0  0  0
  -26.2960  -12.9345   20.3289 N   0  0  0  0  0  0
  -25.9318  -11.6503   20.5782 N   0  0  0  0  0  0
  -22.0447  -12.8244   22.0409 N   0  0  0  0  0  0
  -25.4082  -15.1833   20.3867 N   0  0  0  0  0  0
  -31.7933  -14.7827   20.1388 O   0  0  0  0  0  0
  -21.6629   -6.8882   21.4246 O   0  0  0  0  0  0
  -22.3530  -14.5535   20.6698 O   0  0  0  0  0  0
  -24.6242  -31.8601   23.2016 C   0  0  0  0  0  0
  -25.9092  -32.4783   23.8353 C   0  0  1  0  0  0
  -27.2296  -27.3323   20.1271 C   0  0  0  0  0  0
  -25.5918  -33.8588   24.2287 N   0  0  0  0  0  0
  -23.4184  -30.4805   21.5443 C   0  0  2  0  0  0
  -24.8664  -28.9308   20.1150 C   0  0  0  0  0  0
  -22.7464  -29.4625   22.4950 C   0  0  0  0  0  0
  -18.0285  -28.1395   22.8486 C   0  0  0  0  0  0
  -24.1485  -36.7288   23.2636 C   0  0  0  0  0  0
  -25.9556  -30.7957   21.3674 C   0  0  0  0  0  0
  -26.0332  -29.4212   20.7161 C   0  0  0  0  0  0
  -27.2204  -28.6346   20.7089 C   0  0  0  0  0  0
  -26.0457  -26.8871   19.5010 C   0  0  0  0  0  0
  -24.8732  -27.6683   19.4984 C   0  0  0  0  0  0
  -23.6327  -29.8093   20.1613 C   0  0  0  0  0  0
  -25.4110  -36.3084   24.0328 C   0  0  1  0  0  0
  -20.5881  -28.3704   23.1285 C   0  0  2  0  0  0
  -20.6779  -26.9435   22.5412 C   0  0  0  0  0  0
  -19.5758  -26.6400   21.5212 C   0  0  0  0  0  0
  -18.1934  -26.7941   22.1619 C   0  0  0  0  0  0
  -19.1534  -28.8866   23.2882 C   0  0  0  0  0  0
  -18.9460  -30.1463   23.8903 C   0  0  0  0  0  0
  -17.6462  -30.6596   24.0570 C   0  0  0  0  0  0
  -25.9056  -34.9455   23.5108 C   0  0  0  0  0  0
  -16.5353  -29.9095   23.6331 C   0  0  0  0  0  0
  -16.7272  -28.6513   23.0351 C   0  0  0  0  0  0
  -26.4498  -31.6579   25.0705 C   0  0  0  0  0  0
  -25.3748  -31.3688   26.1438 C   0  0  0  0  0  0
  -27.0331  -30.3013   24.6117 C   0  0  0  0  0  0
  -27.6074  -32.4302   25.7463 C   0  0  0  0  0  0
  -27.5581  -37.1784   24.8464 C   0  0  0  0  0  0
  -21.4181  -29.3045   22.3673 N   0  0  0  0  0  0
  -26.4283  -37.3783   23.9426 N   0  0  0  0  0  0
  -24.6850  -31.0621   22.0955 N   0  0  0  0  0  0
  -23.4182  -28.8175   23.3045 O   0  0  0  0  0  0
  -28.3528  -26.5003   20.1392 O   0  0  0  0  0  0
  -26.5634  -34.8920   22.4683 O   0  0  0  0  0  0
  -23.5406  -32.1392   23.7350 O   0  0  0  0  0  0
  -28.6711  -19.3736   20.8828 C   0  0  0  0  0  0
  -30.7666  -19.2974   19.7436 C   0  0  0  0  0  0
  -28.7626  -17.9660   21.1333 C   0  0  0  0  0  0
  -29.6553  -20.0963   20.1540 C   0  0  0  0  0  0
  -29.8486  -17.1662   20.6488 C   0  0  0  0  0  0
  -30.8614  -17.8906   19.9556 C   0  0  0  0  0  0
  -29.4857  -24.1710   18.7495 C   0  0  0  0  0  0
  -30.0981  -21.8658   18.5175 C   0  0  0  0  0  0
  -28.8945  -23.9499   19.9395 C   0  0  0  0  0  0
  -30.1114  -23.1070   18.0062 C   0  0  0  0  0  0
  -28.9243  -22.5510   20.5183 C   0  0  0  0  0  0
  -27.6494  -17.3348   21.9552 C   0  0  0  0  0  0
  -28.1882  -25.1326   20.6860 C   0  0  0  0  0  0
  -29.5282  -21.5326   19.7702 N   0  0  0  0  0  0
  -29.8190  -15.7069   20.8667 N   0  0  0  0  0  0
  -28.4434  -22.3199   21.6333 O   0  0  0  0  0  0
  -30.6673  -23.3392   16.8123 O   0  0  0  0  0  0
  -31.9476  -17.2634   19.4527 F   0  0  0  0  0  0
  -31.4805  -12.5274   19.1644 H   0  0  0  0  0  0
  -30.3782  -11.4096   19.9156 H   0  0  0  0  0  0
  -29.7837  -11.7469   17.4963 H   0  0  0  0  0  0
  -29.6517  -13.4702   17.7455 H   0  0  0  0  0  0
  -27.8740  -11.2889   18.8771 H   0  0  0  0  0  0
  -27.3803  -12.5620   17.7950 H   0  0  0  0  0  0
  -27.6636  -14.2524   19.5164 H   0  0  0  0  0  0
  -28.7072  -12.0630   21.3798 H   0  0  0  0  0  0
  -28.4325  -13.7177   21.8435 H   0  0  0  0  0  0
  -25.2755   -9.5680   22.4779 H   0  0  0  0  0  0
  -24.0004   -7.4616   22.7468 H   0  0  0  0  0  0
  -21.0845   -8.8771   19.8939 H   0  0  0  0  0  0
  -22.3707  -10.9672   19.6174 H   0  0  0  0  0  0
  -21.1992   -7.6143   23.9735 H   0  0  0  0  0  0
  -21.1478   -6.0501   25.9086 H   0  0  0  0  0  0
  -22.0600   -2.7610   23.2823 H   0  0  0  0  0  0
  -22.4030  -11.9904   22.4818 H   0  0  0  0  0  0
  -21.1071  -13.1317   22.2587 H   0  0  0  0  0  0
  -24.6341  -15.8281   20.5025 H   0  0  0  0  0  0
  -26.2337  -15.6218   20.0015 H   0  0  0  0  0  0
  -26.7168  -32.5460   23.1111 H   0  0  0  0  0  0
  -25.0066  -33.9767   25.0427 H   0  0  0  0  0  0
  -22.7112  -31.2994   21.3998 H   0  0  0  0  0  0
  -23.3753  -35.9611   23.3269 H   0  0  0  0  0  0
  -24.3589  -36.8939   22.2058 H   0  0  0  0  0  0
  -23.7218  -37.6471   23.6680 H   0  0  0  0  0  0
  -26.0815  -31.5537   20.5929 H   0  0  0  0  0  0
  -26.8380  -30.8512   21.9931 H   0  0  0  0  0  0
  -28.1186  -29.0092   21.1802 H   0  0  0  0  0  0
  -26.0228  -25.9205   19.0171 H   0  0  0  0  0  0
  -23.9784  -27.2884   19.0242 H   0  0  0  0  0  0
  -23.7524  -30.5828   19.4019 H   0  0  0  0  0  0
  -22.7524  -29.2372   19.8620 H   0  0  0  0  0  0
  -25.1280  -36.1935   25.0816 H   0  0  0  0  0  0
  -20.9981  -28.3295   24.1402 H   0  0  0  0  0  0
  -20.5703  -26.2325   23.3615 H   0  0  0  0  0  0
  -21.6647  -26.7490   22.1191 H   0  0  0  0  0  0
  -19.6931  -25.6314   21.1238 H   0  0  0  0  0  0
  -19.6686  -27.3209   20.6740 H   0  0  0  0  0  0
  -17.4212  -26.6690   21.4013 H   0  0  0  0  0  0
  -18.0335  -26.0084   22.9017 H   0  0  0  0  0  0
  -19.7939  -30.7277   24.2271 H   0  0  0  0  0  0
  -17.5022  -31.6279   24.5169 H   0  0  0  0  0  0
  -15.5354  -30.3004   23.7654 H   0  0  0  0  0  0
  -15.8671  -28.0835   22.7061 H   0  0  0  0  0  0
  -24.5933  -30.7035   25.7746 H   0  0  0  0  0  0
  -24.8928  -32.2839   26.4893 H   0  0  0  0  0  0
  -25.8084  -30.8839   27.0194 H   0  0  0  0  0  0
  -26.2877  -29.6753   24.1199 H   0  0  0  0  0  0
  -27.4115  -29.7277   25.4588 H   0  0  0  0  0  0
  -27.8711  -30.4303   23.9262 H   0  0  0  0  0  0
  -27.2716  -33.3622   26.2020 H   0  0  0  0  0  0
  -28.3887  -32.6824   25.0279 H   0  0  0  0  0  0
  -28.0740  -31.8436   26.5388 H   0  0  0  0  0  0
  -28.2570  -38.0112   24.7567 H   0  0  0  0  0  0
  -28.1106  -36.2650   24.6209 H   0  0  0  0  0  0
  -27.2323  -37.1329   25.8872 H   0  0  0  0  0  0
  -20.9373  -29.8733   21.6842 H   0  0  0  0  0  0
  -26.0153  -38.2846   24.1464 H   0  0  0  0  0  0
  -27.7995  -19.9015   21.2443 H   0  0  0  0  0  0
  -31.5929  -19.7551   19.2207 H   0  0  0  0  0  0
  -29.4635  -25.1689   18.3339 H   0  0  0  0  0  0
  -30.5063  -21.0426   17.9542 H   0  0  0  0  0  0
  -26.7313  -17.9215   21.8974 H   0  0  0  0  0  0
  -27.9442  -17.2797   23.0030 H   0  0  0  0  0  0
  -27.4111  -16.3276   21.6234 H   0  0  0  0  0  0
  -28.5903  -25.1593   21.6994 H   0  0  0  0  0  0
  -27.1361  -24.8702   20.8005 H   0  0  0  0  0  0
  -28.9421  -15.3818   21.2379 H   0  0  0  0  0  0
  -30.5569  -24.2610   16.6116 H   0  0  0  0  0  0
  1 25  1  0  0  0
  1 30  2  0  0  0
  1 85  1  0  0  0
  2  3  1  0  0  0
  2 25  1  0  0  0
  2 89  1  0  0  0
  2 90  1  0  0  0
  3  4  1  0  0  0
  3 91  1  0  0  0
  3 92  1  0  0  0
  4  5  1  0  0  0
  4 93  1  0  0  0
  4 94  1  0  0  0
  5  6  1  0  0  0
  5 26  1  0  0  0
  5 95  1  0  0  0
  6 25  1  0  0  0
  6 96  1  0  0  0
  6 97  1  0  0  0
  7  8  2  0  0  0
  7 26  1  0  0  0
  7 29  1  0  0  0
  8  9  1  0  0  0
  8 22  1  0  0  0
  9 10  1  0  0  0
  9 27  2  0  0  0
 10 11  2  0  0  0
 10 15  1  0  0  0
 11 12  1  0  0  0
 11 98  1  0  0  0
 12 13  2  0  0  0
 12 99  1  0  0  0
 13 14  1  0  0  0
 13 31  1  0  0  0
 14 15  2  0  0  0
 14100  1  0  0  0
 15101  1  0  0  0
 16 17  2  0  0  0
 16 21  1  0  0  0
 16 31  1  0  0  0
 17 18  1  0  0  0
 17102  1  0  0  0
 18 19  2  0  0  0
 18103  1  0  0  0
 19 20  1  0  0  0
 19 24  1  0  0  0
 20 21  2  0  0  0
 20104  1  0  0  0
 21 23  1  0  0  0
 22 28  1  0  0  0
 22 32  2  0  0  0
 26 27  1  0  0  0
 28105  1  0  0  0
 28106  1  0  0  0
 29107  1  0  0  0
 29108  1  0  0  0
 33 34  1  0  0  0
 33 66  1  0  0  0
 33 70  2  0  0  0
 34 36  1  0  0  0
 34 59  1  0  0  0
 34109  1  0  0  0
 35 44  2  0  0  0
 35 45  1  0  0  0
 35 68  1  0  0  0
 36 56  1  0  0  0
 36110  1  0  0  0
 37 39  1  0  0  0
 37 47  1  0  0  0
 37 66  1  0  0  0
 37111  1  0  0  0
 38 43  2  0  0  0
 38 46  1  0  0  0
 38 47  1  0  0  0
 39 64  1  0  0  0
 39 67  2  0  0  0
 40 52  1  0  0  0
 40 53  2  0  0  0
 40 58  1  0  0  0
 41112  1  0  0  0
 41113  1  0  0  0
 41114  1  0  0  0
 41 48  1  0  0  0
 42 43  1  0  0  0
 42 66  1  0  0  0
 42115  1  0  0  0
 42116  1  0  0  0
 43 44  1  0  0  0
 44117  1  0  0  0
 45 46  2  0  0  0
 45118  1  0  0  0
 46119  1  0  0  0
 47120  1  0  0  0
 47121  1  0  0  0
 48 56  1  0  0  0
 48 65  1  0  0  0
 48122  1  0  0  0
 49 50  1  0  0  0
 49 53  1  0  0  0
 49 64  1  0  0  0
 49123  1  0  0  0
 50 51  1  0  0  0
 50124  1  0  0  0
 50125  1  0  0  0
 51 52  1  0  0  0
 51126  1  0  0  0
 51127  1  0  0  0
 52128  1  0  0  0
 52129  1  0  0  0
 53 54  1  0  0  0
 54 55  2  0  0  0
 54130  1  0  0  0
 55 57  1  0  0  0
 55131  1  0  0  0
 56 69  2  0  0  0
 57 58  2  0  0  0
 57132  1  0  0  0
 58133  1  0  0  0
 59 60  1  0  0  0
 59 61  1  0  0  0
 59 62  1  0  0  0
 60134  1  0  0  0
 60135  1  0  0  0
 60136  1  0  0  0
 61137  1  0  0  0
 61138  1  0  0  0
 61139  1  0  0  0
 62140  1  0  0  0
 62141  1  0  0  0
 62142  1  0  0  0
 63 65  1  0  0  0
 63143  1  0  0  0
 63144  1  0  0  0
 63145  1  0  0  0
 64146  1  0  0  0
 65147  1  0  0  0
 68 83  1  0  0  0
 71 73  2  0  0  0
 71 74  1  0  0  0
 71148  1  0  0  0
 72 74  2  0  0  0
 72 76  1  0  0  0
 72149  1  0  0  0
 73 75  1  0  0  0
 73 82  1  0  0  0
 74 84  1  0  0  0
 75 76  2  0  0  0
 75 85  1  0  0  0
 76 88  1  0  0  0
 77 79  2  0  0  0
 77 80  1  0  0  0
 77150  1  0  0  0
 78 80  2  0  0  0
 78 84  1  0  0  0
 78151  1  0  0  0
 79 81  1  0  0  0
 79 83  1  0  0  0
 80 87  1  0  0  0
 81 84  1  0  0  0
 81 86  2  0  0  0
 82152  1  0  0  0
 82153  1  0  0  0
 82154  1  0  0  0
 83155  1  0  0  0
 83156  1  0  0  0
 85157  1  0  0  0
 87158  1  0  0  0
M  ISO  4   1 100  68 101  83 101  85 100
M  END
> <chiral flag>
0

> <version>
0

> <s_m_source_file>
/data/baiqing/PycharmProjects/Reinvent-master-3.2/result/LINK_invent/BTK/process_docking_weight1_custom_product_contain_oxygen_bond_distance_aromatic_linkinvent_7_9_3/rearranged_h_0084.sdf

> <i_m_source_file_index>
60

> <r_mmod_Potential_Energy-OPLS-2005>
105.261032104492

> <r_mmod_Stretch_Energy-OPLS-2005>
98.6981048583984

> <r_mmod_Bend_Energy-OPLS-2005>
146.226806640625

> <r_mmod_Torsional_Energy-OPLS-2005>
250.93408203125

> <r_mmod_Improper_Torsional_Energy-OPLS-2005>
3.70702695846558

> <r_mmod_Van_der_Waal_Energy-OPLS-2005>
177.584457397461

> <r_mmod_Electrostatic_Energy-OPLS-2005>
-388.281555175781

> <r_mmod_Solvation_Energy-OPLS-2005>
-230.817886352539

> <b_mmod_Minimization_Converged-OPLS-2005>
0

> <r_mmod_RMS_Derivative-OPLS-2005>
1.3497953414917

$$$$
60
                    3D
 Structure written by MMmdl.
152160  0  0  1  0            999 V2000
  -30.6618  -14.5400   20.5223 C   0  0  0  0  0  0
  -30.4257  -12.3327   19.4369 C   0  0  0  0  0  0
  -29.4991  -12.5130   18.2157 C   0  0  0  0  0  0
  -28.0200  -12.3668   18.6251 C   0  0  0  0  0  0
  -27.6591  -13.2118   19.8767 C   0  0  2  0  0  0
  -28.7033  -13.0159   20.9997 C   0  0  0  0  0  0
  -25.2571  -13.8159   20.5693 C   0  0  0  0  0  0
  -24.1831  -13.0433   20.9190 C   0  0  0  0  0  0
  -24.6391  -11.6898   20.8741 C   0  0  0  0  0  0
  -23.9062  -10.4288   21.0397 C   0  0  0  0  0  0
  -24.3618   -9.4204   21.9172 C   0  0  0  0  0  0
  -23.6293   -8.2240   22.0754 C   0  0  0  0  0  0
  -22.4273   -8.0278   21.3548 C   0  0  0  0  0  0
  -21.9912   -9.0247   20.4647 C   0  0  0  0  0  0
  -22.7238  -10.2127   20.3052 C   0  0  0  0  0  0
  -21.6851   -6.0734   22.5279 C   0  0  0  0  0  0
  -21.4016   -6.5641   23.8212 C   0  0  0  0  0  0
  -21.3662   -5.6796   24.9174 C   0  0  0  0  0  0
  -21.6046   -4.3059   24.7223 C   0  0  0  0  0  0
  -21.8819   -3.8153   23.4346 C   0  0  0  0  0  0
  -21.9193   -4.6964   22.3401 C   0  0  0  0  0  0
  -22.7851  -13.5224   21.1846 C   0  0  0  0  0  0
  -22.1654   -4.2155   21.0976 F   0  0  0  0  0  0
  -21.5632   -3.4543   25.7739 F   0  0  0  0  0  0
  -30.0292  -13.3337   20.4434 N   0  0  0  0  0  0
  -26.3013  -12.9336   20.3393 N   0  0  0  0  0  0
  -25.9325  -11.6492   20.5784 N   0  0  0  0  0  0
  -22.0506  -12.8209   22.0407 N   0  0  0  0  0  0
  -25.4294  -15.1881   20.4077 N   0  0  0  0  0  0
  -31.8118  -14.6985   20.1057 O   0  0  0  0  0  0
  -21.6640   -6.8875   21.4240 O   0  0  0  0  0  0
  -22.3528  -14.5533   20.6703 O   0  0  0  0  0  0
  -24.6182  -31.8662   23.2079 C   0  0  0  0  0  0
  -25.9062  -32.4814   23.8392 C   0  0  1  0  0  0
  -27.2314  -27.4057   20.0973 C   0  0  0  0  0  0
  -25.5895  -33.8617   24.2323 N   0  0  0  0  0  0
  -23.4101  -30.4888   21.5481 C   0  0  2  0  0  0
  -24.8592  -28.9538   20.1113 C   0  0  0  0  0  0
  -22.7446  -29.4651   22.4966 C   0  0  0  0  0  0
  -18.0289  -28.1382   22.8494 C   0  0  0  0  0  0
  -24.1486  -36.7308   23.2638 C   0  0  0  0  0  0
  -25.9430  -30.8223   21.3674 C   0  0  0  0  0  0
  -26.0226  -29.4562   20.7101 C   0  0  0  0  0  0
  -27.2165  -28.6893   20.7012 C   0  0  0  0  0  0
  -26.0534  -26.9270   19.4911 C   0  0  0  0  0  0
  -24.8705  -27.6894   19.4972 C   0  0  0  0  0  0
  -23.6229  -29.8249   20.1618 C   0  0  0  0  0  0
  -25.4108  -36.3118   24.0342 C   0  0  1  0  0  0
  -20.5883  -28.3679   23.1309 C   0  0  2  0  0  0
  -20.6782  -26.9411   22.5416 C   0  0  0  0  0  0
  -19.5752  -26.6392   21.5222 C   0  0  0  0  0  0
  -18.1934  -26.7934   22.1631 C   0  0  0  0  0  0
  -19.1535  -28.8850   23.2898 C   0  0  0  0  0  0
  -18.9458  -30.1457   23.8909 C   0  0  0  0  0  0
  -17.6459  -30.6593   24.0573 C   0  0  0  0  0  0
  -25.9036  -34.9479   23.5134 C   0  0  0  0  0  0
  -16.5355  -29.9094   23.6326 C   0  0  0  0  0  0
  -16.7278  -28.6508   23.0353 C   0  0  0  0  0  0
  -26.4476  -31.6590   25.0724 C   0  0  0  0  0  0
  -25.3733  -31.3692   26.1462 C   0  0  0  0  0  0
  -27.0301  -30.3030   24.6102 C   0  0  0  0  0  0
  -27.6058  -32.4297   25.7488 C   0  0  0  0  0  0
  -27.5595  -37.1803   24.8462 C   0  0  0  0  0  0
  -21.4168  -29.3043   22.3711 N   0  0  0  0  0  0
  -26.4295  -37.3804   23.9427 N   0  0  0  0  0  0
  -24.6756  -31.0735   22.0994 N   0  0  0  0  0  0
  -23.4201  -28.8191   23.3024 O   0  0  0  0  0  0
  -28.3274  -26.5648   20.1334 O   0  0  0  0  0  0
  -26.5613  -34.8930   22.4706 O   0  0  0  0  0  0
  -23.5362  -32.1422   23.7448 O   0  0  0  0  0  0
  -30.9719  -19.0020   19.6570 C   0  0  0  0  0  0
  -31.0294  -17.6281   20.0010 C   0  0  0  0  0  0
  -28.8191  -17.7993   20.9600 C   0  0  0  0  0  0
  -29.8407  -19.8071   19.9466 C   0  0  0  0  0  0
  -29.9396  -16.9868   20.6409 C   0  0  0  0  0  0
  -28.7629  -19.1797   20.6212 C   0  0  0  0  0  0
  -28.2551  -25.6056   21.1291 C   0  0  0  0  0  0
  -29.7816  -21.2389   19.4167 C   0  0  0  0  0  0
  -28.5592  -24.2754   21.0927 C   0  0  0  0  0  0
  -29.0776  -23.5441   19.9221 C   0  0  0  0  0  0
  -29.8895  -15.5719   20.9545 N   0  0  0  0  0  0
  -29.2295  -22.2141   20.1822 N   0  0  0  0  0  0
  -30.3017  -21.4578   18.3156 O   0  0  0  0  0  0
  -29.3486  -24.0764   18.8405 O   0  0  0  0  0  0
  -28.3668  -23.5700   22.2220 O   0  0  0  0  0  0
  -27.6444  -19.8839   20.9234 F   0  0  0  0  0  0
  -31.4717  -12.4314   19.1389 H   0  0  0  0  0  0
  -30.3270  -11.3268   19.8479 H   0  0  0  0  0  0
  -29.7463  -11.7863   17.4416 H   0  0  0  0  0  0
  -29.6616  -13.4974   17.7737 H   0  0  0  0  0  0
  -27.8334  -11.3104   18.8235 H   0  0  0  0  0  0
  -27.3709  -12.6385   17.7921 H   0  0  0  0  0  0
  -27.6932  -14.2575   19.5700 H   0  0  0  0  0  0
  -28.6917  -11.9840   21.3552 H   0  0  0  0  0  0
  -28.4655  -13.6277   21.8714 H   0  0  0  0  0  0
  -25.2765   -9.5675   22.4751 H   0  0  0  0  0  0
  -24.0006   -7.4630   22.7474 H   0  0  0  0  0  0
  -21.0852   -8.8756   19.8946 H   0  0  0  0  0  0
  -22.3692  -10.9660   19.6171 H   0  0  0  0  0  0
  -21.2004   -7.6146   23.9718 H   0  0  0  0  0  0
  -21.1488   -6.0524   25.9076 H   0  0  0  0  0  0
  -22.0599   -2.7617   23.2844 H   0  0  0  0  0  0
  -22.4122  -11.9860   22.4772 H   0  0  0  0  0  0
  -21.1132  -13.1227   22.2633 H   0  0  0  0  0  0
  -24.6625  -15.8439   20.5084 H   0  0  0  0  0  0
  -26.2735  -15.6221   20.0571 H   0  0  0  0  0  0
  -26.7135  -32.5531   23.1157 H   0  0  0  0  0  0
  -25.0043  -33.9781   25.0466 H   0  0  0  0  0  0
  -22.6998  -31.3065   21.4087 H   0  0  0  0  0  0
  -23.3765  -35.9621   23.3281 H   0  0  0  0  0  0
  -24.3576  -36.8937   22.2051 H   0  0  0  0  0  0
  -23.7202  -37.6497   23.6655 H   0  0  0  0  0  0
  -26.0617  -31.5888   20.6002 H   0  0  0  0  0  0
  -26.8270  -30.8741   21.9911 H   0  0  0  0  0  0
  -28.1112  -29.0638   21.1777 H   0  0  0  0  0  0
  -26.0489  -25.9472   19.0343 H   0  0  0  0  0  0
  -23.9748  -27.2939   19.0376 H   0  0  0  0  0  0
  -23.7399  -30.6034   19.4072 H   0  0  0  0  0  0
  -22.7454  -29.2511   19.8589 H   0  0  0  0  0  0
  -25.1278  -36.1988   25.0830 H   0  0  0  0  0  0
  -20.9975  -28.3252   24.1429 H   0  0  0  0  0  0
  -20.5706  -26.2290   23.3607 H   0  0  0  0  0  0
  -21.6650  -26.7469   22.1197 H   0  0  0  0  0  0
  -19.6918  -25.6303   21.1245 H   0  0  0  0  0  0
  -19.6696  -27.3216   20.6756 H   0  0  0  0  0  0
  -17.4212  -26.6701   21.4026 H   0  0  0  0  0  0
  -18.0327  -26.0070   22.9011 H   0  0  0  0  0  0
  -19.7928  -30.7277   24.2283 H   0  0  0  0  0  0
  -17.5010  -31.6275   24.5165 H   0  0  0  0  0  0
  -15.5352  -30.3004   23.7631 H   0  0  0  0  0  0
  -15.8681  -28.0834   22.7054 H   0  0  0  0  0  0
  -24.5920  -30.7022   25.7790 H   0  0  0  0  0  0
  -24.8908  -32.2845   26.4910 H   0  0  0  0  0  0
  -25.8079  -30.8863   27.0225 H   0  0  0  0  0  0
  -26.2846  -29.6804   24.1139 H   0  0  0  0  0  0
  -27.4053  -29.7250   25.4560 H   0  0  0  0  0  0
  -27.8692  -30.4348   23.9264 H   0  0  0  0  0  0
  -27.2691  -33.3596   26.2086 H   0  0  0  0  0  0
  -28.3861  -32.6851   25.0303 H   0  0  0  0  0  0
  -28.0731  -31.8401   26.5389 H   0  0  0  0  0  0
  -28.2588  -38.0129   24.7570 H   0  0  0  0  0  0
  -28.1119  -36.2668   24.6213 H   0  0  0  0  0  0
  -27.2323  -37.1358   25.8865 H   0  0  0  0  0  0
  -20.9340  -29.8751   21.6911 H   0  0  0  0  0  0
  -26.0189  -38.2880   24.1456 H   0  0  0  0  0  0
  -31.8120  -19.4391   19.1348 H   0  0  0  0  0  0
  -31.9231  -17.0839   19.7354 H   0  0  0  0  0  0
  -27.9611  -17.3615   21.4496 H   0  0  0  0  0  0
  -27.8850  -26.0539   22.0417 H   0  0  0  0  0  0
  -29.0231  -15.2598   21.3653 H   0  0  0  0  0  0
  -28.8913  -21.9465   21.0953 H   0  0  0  0  0  0
  -28.0349  -24.1692   22.8773 H   0  0  0  0  0  0
  1 25  1  0  0  0
  1 30  2  0  0  0
  1 81  1  0  0  0
  2  3  1  0  0  0
  2 25  1  0  0  0
  2 87  1  0  0  0
  2 88  1  0  0  0
  3  4  1  0  0  0
  3 89  1  0  0  0
  3 90  1  0  0  0
  4  5  1  0  0  0
  4 91  1  0  0  0
  4 92  1  0  0  0
  5  6  1  0  0  0
  5 26  1  0  0  0
  5 93  1  0  0  0
  6 25  1  0  0  0
  6 94  1  0  0  0
  6 95  1  0  0  0
  7  8  2  0  0  0
  7 26  1  0  0  0
  7 29  1  0  0  0
  8  9  1  0  0  0
  8 22  1  0  0  0
  9 10  1  0  0  0
  9 27  2  0  0  0
 10 11  2  0  0  0
 10 15  1  0  0  0
 11 12  1  0  0  0
 11 96  1  0  0  0
 12 13  2  0  0  0
 12 97  1  0  0  0
 13 14  1  0  0  0
 13 31  1  0  0  0
 14 15  2  0  0  0
 14 98  1  0  0  0
 15 99  1  0  0  0
 16 17  2  0  0  0
 16 21  1  0  0  0
 16 31  1  0  0  0
 17 18  1  0  0  0
 17100  1  0  0  0
 18 19  2  0  0  0
 18101  1  0  0  0
 19 20  1  0  0  0
 19 24  1  0  0  0
 20 21  2  0  0  0
 20102  1  0  0  0
 21 23  1  0  0  0
 22 28  1  0  0  0
 22 32  2  0  0  0
 26 27  1  0  0  0
 28103  1  0  0  0
 28104  1  0  0  0
 29105  1  0  0  0
 29106  1  0  0  0
 33 34  1  0  0  0
 33 66  1  0  0  0
 33 70  2  0  0  0
 34 36  1  0  0  0
 34 59  1  0  0  0
 34107  1  0  0  0
 35 44  2  0  0  0
 35 45  1  0  0  0
 35 68  1  0  0  0
 36 56  1  0  0  0
 36108  1  0  0  0
 37 39  1  0  0  0
 37 47  1  0  0  0
 37 66  1  0  0  0
 37109  1  0  0  0
 38 43  2  0  0  0
 38 46  1  0  0  0
 38 47  1  0  0  0
 39 64  1  0  0  0
 39 67  2  0  0  0
 40 52  1  0  0  0
 40 53  2  0  0  0
 40 58  1  0  0  0
 41110  1  0  0  0
 41111  1  0  0  0
 41112  1  0  0  0
 41 48  1  0  0  0
 42 43  1  0  0  0
 42 66  1  0  0  0
 42113  1  0  0  0
 42114  1  0  0  0
 43 44  1  0  0  0
 44115  1  0  0  0
 45 46  2  0  0  0
 45116  1  0  0  0
 46117  1  0  0  0
 47118  1  0  0  0
 47119  1  0  0  0
 48 56  1  0  0  0
 48 65  1  0  0  0
 48120  1  0  0  0
 49 50  1  0  0  0
 49 53  1  0  0  0
 49 64  1  0  0  0
 49121  1  0  0  0
 50 51  1  0  0  0
 50122  1  0  0  0
 50123  1  0  0  0
 51 52  1  0  0  0
 51124  1  0  0  0
 51125  1  0  0  0
 52126  1  0  0  0
 52127  1  0  0  0
 53 54  1  0  0  0
 54 55  2  0  0  0
 54128  1  0  0  0
 55 57  1  0  0  0
 55129  1  0  0  0
 56 69  2  0  0  0
 57 58  2  0  0  0
 57130  1  0  0  0
 58131  1  0  0  0
 59 60  1  0  0  0
 59 61  1  0  0  0
 59 62  1  0  0  0
 60132  1  0  0  0
 60133  1  0  0  0
 60134  1  0  0  0
 61135  1  0  0  0
 61136  1  0  0  0
 61137  1  0  0  0
 62138  1  0  0  0
 62139  1  0  0  0
 62140  1  0  0  0
 63 65  1  0  0  0
 63141  1  0  0  0
 63142  1  0  0  0
 63143  1  0  0  0
 64144  1  0  0  0
 65145  1  0  0  0
 68 77  1  0  0  0
 71 72  2  0  0  0
 71 74  1  0  0  0
 71146  1  0  0  0
 72 75  1  0  0  0
 72147  1  0  0  0
 73 75  2  0  0  0
 73 76  1  0  0  0
 73148  1  0  0  0
 74 76  2  0  0  0
 74 78  1  0  0  0
 75 81  1  0  0  0
 76 86  1  0  0  0
 77 79  2  0  0  0
 77149  1  0  0  0
 78 82  1  0  0  0
 78 83  2  0  0  0
 79 80  1  0  0  0
 79 85  1  0  0  0
 80 82  1  0  0  0
 80 84  2  0  0  0
 81150  1  0  0  0
 82151  1  0  0  0
 85152  1  0  0  0
M  ISO  4   1 100  68 101  77 101  81 100
M  END
> <chiral flag>
0

> <version>
0

> <s_m_source_file>
/data/baiqing/PycharmProjects/Reinvent-master-3.2/result/LINK_invent/BTK/process_docking_weight1_custom_product_contain_oxygen_bond_distance_aromatic_linkinvent_7_9_3/rearranged_h_0084.sdf

> <i_m_source_file_index>
61

> <r_mmod_Potential_Energy-OPLS-2005>
-127.071502685547

> <r_mmod_Stretch_Energy-OPLS-2005>
49.5689353942871

> <r_mmod_Bend_Energy-OPLS-2005>
123.49845123291

> <r_mmod_Torsional_Energy-OPLS-2005>
229.526672363281

> <r_mmod_Improper_Torsional_Energy-OPLS-2005>
5.02975940704346

> <r_mmod_Van_der_Waal_Energy-OPLS-2005>
161.224044799805

> <r_mmod_Electrostatic_Energy-OPLS-2005>
-457.891967773438

> <r_mmod_Solvation_Energy-OPLS-2005>
-261.466705322266

> <b_mmod_Minimization_Converged-OPLS-2005>
0

> <r_mmod_RMS_Derivative-OPLS-2005>
1.5991884469986

$$$$
61
                    3D
 Structure written by MMmdl.
154163  0  0  1  0            999 V2000
  -30.5781  -14.8833   20.5205 C   0  0  0  0  0  0
  -30.4371  -12.5625   19.4942 C   0  0  0  0  0  0
  -29.5184  -12.5684   18.2499 C   0  0  0  0  0  0
  -28.0471  -12.3477   18.6543 C   0  0  0  0  0  0
  -27.6363  -13.2350   19.8598 C   0  0  2  0  0  0
  -28.6793  -13.1363   20.9887 C   0  0  0  0  0  0
  -25.2364  -13.8102   20.5521 C   0  0  0  0  0  0
  -24.1726  -13.0359   20.9174 C   0  0  0  0  0  0
  -24.6373  -11.6865   20.8759 C   0  0  0  0  0  0
  -23.9064  -10.4248   21.0415 C   0  0  0  0  0  0
  -24.3613   -9.4166   21.9193 C   0  0  0  0  0  0
  -23.6274   -8.2207   22.0762 C   0  0  0  0  0  0
  -22.4262   -8.0252   21.3538 C   0  0  0  0  0  0
  -21.9900   -9.0226   20.4649 C   0  0  0  0  0  0
  -22.7242  -10.2098   20.3053 C   0  0  0  0  0  0
  -21.6842   -6.0714   22.5280 C   0  0  0  0  0  0
  -21.4013   -6.5626   23.8213 C   0  0  0  0  0  0
  -21.3656   -5.6781   24.9182 C   0  0  0  0  0  0
  -21.6045   -4.3039   24.7239 C   0  0  0  0  0  0
  -21.8817   -3.8134   23.4355 C   0  0  0  0  0  0
  -21.9191   -4.6941   22.3417 C   0  0  0  0  0  0
  -22.7753  -13.5140   21.1869 C   0  0  0  0  0  0
  -22.1653   -4.2126   21.0982 F   0  0  0  0  0  0
  -21.5636   -3.4526   25.7751 F   0  0  0  0  0  0
  -29.9568  -13.6261   20.4316 N   0  0  0  0  0  0
  -26.2875  -12.9366   20.3289 N   0  0  0  0  0  0
  -25.9315  -11.6511   20.5792 N   0  0  0  0  0  0
  -22.0443  -12.8122   22.0453 N   0  0  0  0  0  0
  -25.3827  -15.1784   20.3632 N   0  0  0  0  0  0
  -31.7471  -14.9151   20.1204 O   0  0  0  0  0  0
  -21.6617   -6.8851   21.4239 O   0  0  0  0  0  0
  -22.3444  -14.5471   20.6777 O   0  0  0  0  0  0
  -24.6423  -31.8479   23.1925 C   0  0  0  0  0  0
  -25.9204  -32.4719   23.8321 C   0  0  1  0  0  0
  -27.2257  -27.1769   20.1377 C   0  0  0  0  0  0
  -25.5964  -33.8524   24.2252 N   0  0  0  0  0  0
  -23.4454  -30.4679   21.5372 C   0  0  2  0  0  0
  -24.8955  -28.9042   20.1101 C   0  0  0  0  0  0
  -22.7558  -29.4567   22.4876 C   0  0  0  0  0  0
  -18.0302  -28.1410   22.8484 C   0  0  0  0  0  0
  -24.1490  -36.7255   23.2641 C   0  0  0  0  0  0
  -25.9980  -30.7338   21.3864 C   0  0  0  0  0  0
  -26.0705  -29.3487   20.7286 C   0  0  0  0  0  0
  -27.2344  -28.4977   20.7314 C   0  0  0  0  0  0
  -26.0201  -26.8255   19.4873 C   0  0  0  0  0  0
  -24.8791  -27.6545   19.4772 C   0  0  0  0  0  0
  -23.6693  -29.8008   20.1557 C   0  0  0  0  0  0
  -25.4123  -36.3047   24.0318 C   0  0  1  0  0  0
  -20.5920  -28.3736   23.1231 C   0  0  2  0  0  0
  -20.6799  -26.9441   22.5400 C   0  0  0  0  0  0
  -19.5766  -26.6409   21.5217 C   0  0  0  0  0  0
  -18.1943  -26.7954   22.1629 C   0  0  0  0  0  0
  -19.1556  -28.8891   23.2853 C   0  0  0  0  0  0
  -18.9471  -30.1489   23.8888 C   0  0  0  0  0  0
  -17.6466  -30.6605   24.0567 C   0  0  0  0  0  0
  -25.9066  -34.9408   23.5091 C   0  0  0  0  0  0
  -16.5360  -29.9104   23.6335 C   0  0  0  0  0  0
  -16.7287  -28.6520   23.0361 C   0  0  0  0  0  0
  -26.4545  -31.6547   25.0727 C   0  0  0  0  0  0
  -25.3745  -31.3725   26.1436 C   0  0  0  0  0  0
  -27.0391  -30.2950   24.6252 C   0  0  0  0  0  0
  -27.6102  -32.4279   25.7500 C   0  0  0  0  0  0
  -27.5560  -37.1798   24.8483 C   0  0  0  0  0  0
  -21.4255  -29.3062   22.3599 N   0  0  0  0  0  0
  -26.4305  -37.3732   23.9376 N   0  0  0  0  0  0
  -24.7150  -31.0362   22.0951 N   0  0  0  0  0  0
  -23.4203  -28.8120   23.3014 O   0  0  0  0  0  0
  -28.2819  -26.2077   20.2451 O   0  0  0  0  0  0
  -26.5625  -34.8889   22.4662 O   0  0  0  0  0  0
  -23.5537  -32.1356   23.7142 O   0  0  0  0  0  0
  -32.0014  -19.2352   20.1260 C   0  0  0  0  0  0
  -31.1116  -20.3264   20.1596 C   0  0  0  0  0  0
  -31.5762  -17.9048   20.3040 C   0  0  0  0  0  0
  -29.3391  -18.7719   20.5697 C   0  0  0  0  0  0
  -29.7234  -20.1933   20.3771 C   0  0  0  0  0  0
  -30.2225  -17.5695   20.5464 C   0  0  0  0  0  0
  -28.5699  -23.5626   20.0437 C   0  0  0  0  0  0
  -28.4522  -22.3126   19.2730 C   0  0  0  0  0  0
  -27.7427  -16.4314   21.9996 C   0  0  0  0  0  0
  -28.1905  -24.8768   19.6741 C   0  0  0  0  0  0
  -29.0116  -15.9958   21.9599 C   0  0  0  0  0  0
  -29.2485  -22.7063   21.1567 C   0  0  0  0  0  0
  -28.9140  -21.4802   20.3401 N   0  0  0  0  0  0
  -29.8827  -16.0986   20.8697 N   0  0  0  0  0  0
  -28.1907  -22.1460   18.1001 O   0  0  0  0  0  0
  -31.4741  -12.7037   19.1887 H   0  0  0  0  0  0
  -30.4190  -11.5828   19.9732 H   0  0  0  0  0  0
  -29.8354  -11.8083   17.5347 H   0  0  0  0  0  0
  -29.6116  -13.5287   17.7391 H   0  0  0  0  0  0
  -27.9298  -11.2957   18.9166 H   0  0  0  0  0  0
  -27.3878  -12.5265   17.8043 H   0  0  0  0  0  0
  -27.6339  -14.2653   19.5052 H   0  0  0  0  0  0
  -28.7708  -12.0990   21.3165 H   0  0  0  0  0  0
  -28.3532  -13.6519   21.8847 H   0  0  0  0  0  0
  -25.2756   -9.5630   22.4779 H   0  0  0  0  0  0
  -23.9969   -7.4590   22.7482 H   0  0  0  0  0  0
  -21.0832   -8.8758   19.8950 H   0  0  0  0  0  0
  -22.3713  -10.9638   19.6162 H   0  0  0  0  0  0
  -21.2004   -7.6134   23.9714 H   0  0  0  0  0  0
  -21.1486   -6.0513   25.9082 H   0  0  0  0  0  0
  -22.0606   -2.7590   23.2873 H   0  0  0  0  0  0
  -22.4047  -11.9724   22.4742 H   0  0  0  0  0  0
  -21.1098  -13.1185   22.2770 H   0  0  0  0  0  0
  -24.6079  -15.8259   20.4560 H   0  0  0  0  0  0
  -26.2397  -15.6174   20.0566 H   0  0  0  0  0  0
  -26.7252  -32.5342   23.1034 H   0  0  0  0  0  0
  -25.0112  -33.9637   25.0402 H   0  0  0  0  0  0
  -22.7468  -31.2927   21.3857 H   0  0  0  0  0  0
  -23.3728  -35.9621   23.3391 H   0  0  0  0  0  0
  -24.3566  -36.8802   22.2039 H   0  0  0  0  0  0
  -23.7249  -37.6483   23.6620 H   0  0  0  0  0  0
  -26.1435  -31.4880   20.6114 H   0  0  0  0  0  0
  -26.8718  -30.7869   22.0245 H   0  0  0  0  0  0
  -28.1288  -28.8280   21.2411 H   0  0  0  0  0  0
  -25.9068  -25.8640   19.0102 H   0  0  0  0  0  0
  -23.9782  -27.3107   18.9897 H   0  0  0  0  0  0
  -23.8037  -30.5794   19.4043 H   0  0  0  0  0  0
  -22.7851  -29.2426   19.8429 H   0  0  0  0  0  0
  -25.1299  -36.1928   25.0806 H   0  0  0  0  0  0
  -20.9988  -28.3354   24.1365 H   0  0  0  0  0  0
  -20.5710  -26.2354   23.3631 H   0  0  0  0  0  0
  -21.6661  -26.7467   22.1176 H   0  0  0  0  0  0
  -19.6929  -25.6319   21.1253 H   0  0  0  0  0  0
  -19.6700  -27.3220   20.6751 H   0  0  0  0  0  0
  -17.4197  -26.6688   21.4044 H   0  0  0  0  0  0
  -18.0360  -26.0111   22.9044 H   0  0  0  0  0  0
  -19.7936  -30.7310   24.2268 H   0  0  0  0  0  0
  -17.5012  -31.6283   24.5178 H   0  0  0  0  0  0
  -15.5356  -30.3001   23.7672 H   0  0  0  0  0  0
  -15.8690  -28.0838   22.7087 H   0  0  0  0  0  0
  -24.5923  -30.7075   25.7759 H   0  0  0  0  0  0
  -24.8930  -32.2908   26.4808 H   0  0  0  0  0  0
  -25.8038  -30.8928   27.0245 H   0  0  0  0  0  0
  -26.2995  -29.6677   24.1260 H   0  0  0  0  0  0
  -27.4040  -29.7223   25.4788 H   0  0  0  0  0  0
  -27.8897  -30.4210   23.9550 H   0  0  0  0  0  0
  -27.2748  -33.3620   26.2025 H   0  0  0  0  0  0
  -28.3950  -32.6765   25.0337 H   0  0  0  0  0  0
  -28.0739  -31.8420   26.5448 H   0  0  0  0  0  0
  -28.2640  -38.0025   24.7420 H   0  0  0  0  0  0
  -28.0987  -36.2548   24.6477 H   0  0  0  0  0  0
  -27.2268  -37.1656   25.8888 H   0  0  0  0  0  0
  -20.9483  -29.8762   21.6752 H   0  0  0  0  0  0
  -26.0203  -38.2825   24.1326 H   0  0  0  0  0  0
  -33.0533  -19.4286   19.9701 H   0  0  0  0  0  0
  -31.5269  -21.3119   20.0019 H   0  0  0  0  0  0
  -32.3536  -17.1576   20.3010 H   0  0  0  0  0  0
  -28.2868  -18.6298   20.7451 H   0  0  0  0  0  0
  -27.1458  -16.3278   22.8945 H   0  0  0  0  0  0
  -27.2655  -16.8821   21.1450 H   0  0  0  0  0  0
  -27.7724  -24.9615   18.6822 H   0  0  0  0  0  0
  -29.4704  -15.5322   22.8246 H   0  0  0  0  0  0
  -28.7596  -22.6815   22.1316 H   0  0  0  0  0  0
  -30.3225  -22.8399   21.2938 H   0  0  0  0  0  0
  1 25  1  0  0  0
  1 30  2  0  0  0
  1 84  1  0  0  0
  2  3  1  0  0  0
  2 25  1  0  0  0
  2 86  1  0  0  0
  2 87  1  0  0  0
  3  4  1  0  0  0
  3 88  1  0  0  0
  3 89  1  0  0  0
  4  5  1  0  0  0
  4 90  1  0  0  0
  4 91  1  0  0  0
  5  6  1  0  0  0
  5 26  1  0  0  0
  5 92  1  0  0  0
  6 25  1  0  0  0
  6 93  1  0  0  0
  6 94  1  0  0  0
  7  8  2  0  0  0
  7 26  1  0  0  0
  7 29  1  0  0  0
  8  9  1  0  0  0
  8 22  1  0  0  0
  9 10  1  0  0  0
  9 27  2  0  0  0
 10 11  2  0  0  0
 10 15  1  0  0  0
 11 12  1  0  0  0
 11 95  1  0  0  0
 12 13  2  0  0  0
 12 96  1  0  0  0
 13 14  1  0  0  0
 13 31  1  0  0  0
 14 15  2  0  0  0
 14 97  1  0  0  0
 15 98  1  0  0  0
 16 17  2  0  0  0
 16 21  1  0  0  0
 16 31  1  0  0  0
 17 18  1  0  0  0
 17 99  1  0  0  0
 18 19  2  0  0  0
 18100  1  0  0  0
 19 20  1  0  0  0
 19 24  1  0  0  0
 20 21  2  0  0  0
 20101  1  0  0  0
 21 23  1  0  0  0
 22 28  1  0  0  0
 22 32  2  0  0  0
 26 27  1  0  0  0
 28102  1  0  0  0
 28103  1  0  0  0
 29104  1  0  0  0
 29105  1  0  0  0
 33 34  1  0  0  0
 33 66  1  0  0  0
 33 70  2  0  0  0
 34 36  1  0  0  0
 34 59  1  0  0  0
 34106  1  0  0  0
 35 44  2  0  0  0
 35 45  1  0  0  0
 35 68  1  0  0  0
 36 56  1  0  0  0
 36107  1  0  0  0
 37 39  1  0  0  0
 37 47  1  0  0  0
 37 66  1  0  0  0
 37108  1  0  0  0
 38 43  2  0  0  0
 38 46  1  0  0  0
 38 47  1  0  0  0
 39 64  1  0  0  0
 39 67  2  0  0  0
 40 52  1  0  0  0
 40 53  2  0  0  0
 40 58  1  0  0  0
 41109  1  0  0  0
 41110  1  0  0  0
 41111  1  0  0  0
 41 48  1  0  0  0
 42 43  1  0  0  0
 42 66  1  0  0  0
 42112  1  0  0  0
 42113  1  0  0  0
 43 44  1  0  0  0
 44114  1  0  0  0
 45 46  2  0  0  0
 45115  1  0  0  0
 46116  1  0  0  0
 47117  1  0  0  0
 47118  1  0  0  0
 48 56  1  0  0  0
 48 65  1  0  0  0
 48119  1  0  0  0
 49 50  1  0  0  0
 49 53  1  0  0  0
 49 64  1  0  0  0
 49120  1  0  0  0
 50 51  1  0  0  0
 50121  1  0  0  0
 50122  1  0  0  0
 51 52  1  0  0  0
 51123  1  0  0  0
 51124  1  0  0  0
 52125  1  0  0  0
 52126  1  0  0  0
 53 54  1  0  0  0
 54 55  2  0  0  0
 54127  1  0  0  0
 55 57  1  0  0  0
 55128  1  0  0  0
 56 69  2  0  0  0
 57 58  2  0  0  0
 57129  1  0  0  0
 58130  1  0  0  0
 59 60  1  0  0  0
 59 61  1  0  0  0
 59 62  1  0  0  0
 60131  1  0  0  0
 60132  1  0  0  0
 60133  1  0  0  0
 61134  1  0  0  0
 61135  1  0  0  0
 61136  1  0  0  0
 62137  1  0  0  0
 62138  1  0  0  0
 62139  1  0  0  0
 63 65  1  0  0  0
 63140  1  0  0  0
 63141  1  0  0  0
 63142  1  0  0  0
 64143  1  0  0  0
 65144  1  0  0  0
 68 80  1  0  0  0
 71 72  2  0  0  0
 71 73  1  0  0  0
 71145  1  0  0  0
 72 75  1  0  0  0
 72146  1  0  0  0
 73 76  2  0  0  0
 73147  1  0  0  0
 74 75  2  0  0  0
 74 76  1  0  0  0
 74148  1  0  0  0
 75 83  1  0  0  0
 76 84  1  0  0  0
 77 78  1  0  0  0
 77 80  2  0  0  0
 77 82  1  0  0  0
 78 83  1  0  0  0
 78 85  2  0  0  0
 79 81  2  0  0  0
 79149  1  0  0  0
 79150  1  0  0  0
 80151  1  0  0  0
 81 84  1  0  0  0
 81152  1  0  0  0
 82 83  1  0  0  0
 82153  1  0  0  0
 82154  1  0  0  0
M  ISO  4   1 100  68 101  80 101  84 100
M  END
> <chiral flag>
0

> <version>
0

> <s_m_source_file>
/data/baiqing/PycharmProjects/Reinvent-master-3.2/result/LINK_invent/BTK/process_docking_weight1_custom_product_contain_oxygen_bond_distance_aromatic_linkinvent_7_9_3/rearranged_h_0084.sdf

> <i_m_source_file_index>
62

> <r_mmod_Potential_Energy-OPLS-2005>
684.602478027344

> <r_mmod_Stretch_Energy-OPLS-2005>
209.1796875

> <r_mmod_Bend_Energy-OPLS-2005>
298.408416748047

> <r_mmod_Torsional_Energy-OPLS-2005>
346.618988037109

> <r_mmod_Improper_Torsional_Energy-OPLS-2005>
10.6376619338989

> <r_mmod_Van_der_Waal_Energy-OPLS-2005>
160.305572509766

> <r_mmod_Electrostatic_Energy-OPLS-2005>
-279.620025634766

> <r_mmod_Solvation_Energy-OPLS-2005>
-205.885223388672

> <b_mmod_Minimization_Converged-OPLS-2005>
0

> <r_mmod_RMS_Derivative-OPLS-2005>
2.74275922775269

$$$$
62
                    3D
 Structure written by MMmdl.
152160  0  0  1  0            999 V2000
  -30.6661  -14.5409   20.5329 C   0  0  0  0  0  0
  -30.4289  -12.3345   19.4429 C   0  0  0  0  0  0
  -29.5022  -12.5030   18.2190 C   0  0  0  0  0  0
  -28.0230  -12.3554   18.6280 C   0  0  0  0  0  0
  -27.6586  -13.2099   19.8714 C   0  0  2  0  0  0
  -28.6998  -13.0224   20.9981 C   0  0  0  0  0  0
  -25.2580  -13.8164   20.5675 C   0  0  0  0  0  0
  -24.1837  -13.0437   20.9184 C   0  0  0  0  0  0
  -24.6398  -11.6907   20.8741 C   0  0  0  0  0  0
  -23.9063  -10.4292   21.0415 C   0  0  0  0  0  0
  -24.3617   -9.4207   21.9189 C   0  0  0  0  0  0
  -23.6293   -8.2240   22.0754 C   0  0  0  0  0  0
  -22.4273   -8.0285   21.3545 C   0  0  0  0  0  0
  -21.9912   -9.0259   20.4644 C   0  0  0  0  0  0
  -22.7240  -10.2139   20.3055 C   0  0  0  0  0  0
  -21.6850   -6.0745   22.5284 C   0  0  0  0  0  0
  -21.4012   -6.5649   23.8220 C   0  0  0  0  0  0
  -21.3656   -5.6800   24.9180 C   0  0  0  0  0  0
  -21.6043   -4.3059   24.7227 C   0  0  0  0  0  0
  -21.8816   -3.8152   23.4348 C   0  0  0  0  0  0
  -21.9192   -4.6973   22.3404 C   0  0  0  0  0  0
  -22.7863  -13.5237   21.1851 C   0  0  0  0  0  0
  -22.1658   -4.2159   21.0977 F   0  0  0  0  0  0
  -21.5629   -3.4537   25.7737 F   0  0  0  0  0  0
  -30.0274  -13.3378   20.4453 N   0  0  0  0  0  0
  -26.3008  -12.9336   20.3345 N   0  0  0  0  0  0
  -25.9323  -11.6494   20.5763 N   0  0  0  0  0  0
  -22.0494  -12.8239   22.0411 N   0  0  0  0  0  0
  -25.4310  -15.1878   20.4079 N   0  0  0  0  0  0
  -31.8137  -14.6970   20.1067 O   0  0  0  0  0  0
  -21.6636   -6.8885   21.4243 O   0  0  0  0  0  0
  -22.3559  -14.5554   20.6713 O   0  0  0  0  0  0
  -24.6184  -31.8638   23.2068 C   0  0  0  0  0  0
  -25.9060  -32.4799   23.8379 C   0  0  1  0  0  0
  -27.2333  -27.4017   20.1030 C   0  0  0  0  0  0
  -25.5908  -33.8599   24.2312 N   0  0  0  0  0  0
  -23.4106  -30.4863   21.5467 C   0  0  2  0  0  0
  -24.8610  -28.9511   20.1076 C   0  0  0  0  0  0
  -22.7438  -29.4637   22.4962 C   0  0  0  0  0  0
  -18.0266  -28.1370   22.8489 C   0  0  0  0  0  0
  -24.1487  -36.7307   23.2633 C   0  0  0  0  0  0
  -25.9434  -30.8204   21.3661 C   0  0  0  0  0  0
  -26.0234  -29.4533   20.7094 C   0  0  0  0  0  0
  -27.2163  -28.6856   20.7053 C   0  0  0  0  0  0
  -26.0593  -26.9266   19.4858 C   0  0  0  0  0  0
  -24.8761  -27.6891   19.4887 C   0  0  0  0  0  0
  -23.6220  -29.8180   20.1615 C   0  0  0  0  0  0
  -25.4101  -36.3100   24.0339 C   0  0  1  0  0  0
  -20.5863  -28.3666   23.1303 C   0  0  2  0  0  0
  -20.6748  -26.9396   22.5416 C   0  0  0  0  0  0
  -19.5732  -26.6377   21.5207 C   0  0  0  0  0  0
  -18.1912  -26.7915   22.1619 C   0  0  0  0  0  0
  -19.1518  -28.8835   23.2891 C   0  0  0  0  0  0
  -18.9448  -30.1436   23.8902 C   0  0  0  0  0  0
  -17.6453  -30.6585   24.0561 C   0  0  0  0  0  0
  -25.9040  -34.9467   23.5127 C   0  0  0  0  0  0
  -16.5339  -29.9090   23.6330 C   0  0  0  0  0  0
  -16.7253  -28.6499   23.0358 C   0  0  0  0  0  0
  -26.4479  -31.6581   25.0718 C   0  0  0  0  0  0
  -25.3746  -31.3703   26.1470 C   0  0  0  0  0  0
  -27.0292  -30.3012   24.6111 C   0  0  0  0  0  0
  -27.6061  -32.4297   25.7475 C   0  0  0  0  0  0
  -27.5596  -37.1776   24.8443 C   0  0  0  0  0  0
  -21.4156  -29.3033   22.3707 N   0  0  0  0  0  0
  -26.4271  -37.3804   23.9446 N   0  0  0  0  0  0
  -24.6756  -31.0714   22.0982 N   0  0  0  0  0  0
  -23.4187  -28.8169   23.3016 O   0  0  0  0  0  0
  -28.3246  -26.5531   20.1602 O   0  0  0  0  0  0
  -26.5607  -34.8927   22.4693 O   0  0  0  0  0  0
  -23.5366  -32.1397   23.7442 O   0  0  0  0  0  0
  -31.0880  -19.0237   19.8582 C   0  0  0  0  0  0
  -28.8164  -19.1827   20.6656 C   0  0  0  0  0  0
  -31.1221  -17.6444   20.1806 C   0  0  0  0  0  0
  -28.8473  -17.7968   20.9832 C   0  0  0  0  0  0
  -29.9342  -19.8190   20.0724 C   0  0  0  0  0  0
  -29.9857  -16.9910   20.7202 C   0  0  0  0  0  0
  -28.2271  -25.5966   21.1586 C   0  0  0  0  0  0
  -29.8907  -21.2485   19.5377 C   0  0  0  0  0  0
  -28.5529  -24.2708   21.1459 C   0  0  0  0  0  0
  -29.1306  -23.5409   20.0032 C   0  0  0  0  0  0
  -29.9088  -15.5711   20.9930 N   0  0  0  0  0  0
  -29.3014  -22.2162   20.2811 N   0  0  0  0  0  0
  -30.4422  -21.4629   18.4514 O   0  0  0  0  0  0
  -29.4266  -24.0692   18.9254 O   0  0  0  0  0  0
  -28.3239  -23.5689   22.2711 O   0  0  0  0  0  0
  -31.4739  -12.4367   19.1447 H   0  0  0  0  0  0
  -30.3355  -11.3306   19.8596 H   0  0  0  0  0  0
  -29.7515  -11.7673   17.4531 H   0  0  0  0  0  0
  -29.6616  -13.4827   17.7652 H   0  0  0  0  0  0
  -27.8445  -11.3007   18.8398 H   0  0  0  0  0  0
  -27.3721  -12.6090   17.7909 H   0  0  0  0  0  0
  -27.6922  -14.2520   19.5545 H   0  0  0  0  0  0
  -28.6856  -11.9923   21.3577 H   0  0  0  0  0  0
  -28.4526  -13.6372   21.8647 H   0  0  0  0  0  0
  -25.2763   -9.5684   22.4767 H   0  0  0  0  0  0
  -24.0003   -7.4629   22.7471 H   0  0  0  0  0  0
  -21.0842   -8.8777   19.8948 H   0  0  0  0  0  0
  -22.3700  -10.9678   19.6161 H   0  0  0  0  0  0
  -21.1998   -7.6158   23.9726 H   0  0  0  0  0  0
  -21.1479   -6.0529   25.9088 H   0  0  0  0  0  0
  -22.0596   -2.7617   23.2840 H   0  0  0  0  0  0
  -22.4089  -11.9881   22.4778 H   0  0  0  0  0  0
  -21.1122  -13.1289   22.2621 H   0  0  0  0  0  0
  -24.6608  -15.8413   20.4985 H   0  0  0  0  0  0
  -26.2799  -15.6225   20.0682 H   0  0  0  0  0  0
  -26.7135  -32.5500   23.1146 H   0  0  0  0  0  0
  -25.0065  -33.9741   25.0463 H   0  0  0  0  0  0
  -22.7017  -31.3047   21.4043 H   0  0  0  0  0  0
  -23.3770  -35.9613   23.3232 H   0  0  0  0  0  0
  -24.3626  -36.8985   22.2069 H   0  0  0  0  0  0
  -23.7191  -37.6474   23.6682 H   0  0  0  0  0  0
  -26.0626  -31.5881   20.5997 H   0  0  0  0  0  0
  -26.8288  -30.8724   21.9879 H   0  0  0  0  0  0
  -28.1081  -29.0576   21.1893 H   0  0  0  0  0  0
  -26.0594  -25.9485   19.0250 H   0  0  0  0  0  0
  -23.9847  -27.2944   19.0200 H   0  0  0  0  0  0
  -23.7276  -30.5924   19.4010 H   0  0  0  0  0  0
  -22.7465  -29.2365   19.8668 H   0  0  0  0  0  0
  -25.1271  -36.1952   25.0828 H   0  0  0  0  0  0
  -20.9947  -28.3213   24.1426 H   0  0  0  0  0  0
  -20.5638  -26.2274   23.3604 H   0  0  0  0  0  0
  -21.6619  -26.7423   22.1209 H   0  0  0  0  0  0
  -19.6898  -25.6289   21.1230 H   0  0  0  0  0  0
  -19.6677  -27.3187   20.6736 H   0  0  0  0  0  0
  -17.4186  -26.6662   21.4020 H   0  0  0  0  0  0
  -18.0320  -26.0052   22.9012 H   0  0  0  0  0  0
  -19.7933  -30.7244   24.2272 H   0  0  0  0  0  0
  -17.5020  -31.6270   24.5152 H   0  0  0  0  0  0
  -15.5344  -30.3002   23.7647 H   0  0  0  0  0  0
  -15.8643  -28.0820   22.7088 H   0  0  0  0  0  0
  -24.5892  -30.7081   25.7816 H   0  0  0  0  0  0
  -24.8967  -32.2860   26.4957 H   0  0  0  0  0  0
  -25.8101  -30.8838   27.0205 H   0  0  0  0  0  0
  -26.2828  -29.6786   24.1161 H   0  0  0  0  0  0
  -27.4036  -29.7248   25.4581 H   0  0  0  0  0  0
  -27.8685  -30.4317   23.9278 H   0  0  0  0  0  0
  -27.2692  -33.3601   26.2062 H   0  0  0  0  0  0
  -28.3859  -32.6842   25.0285 H   0  0  0  0  0  0
  -28.0731  -31.8404   26.5377 H   0  0  0  0  0  0
  -28.2513  -38.0172   24.7648 H   0  0  0  0  0  0
  -28.1183  -36.2718   24.6045 H   0  0  0  0  0  0
  -27.2357  -37.1156   25.8846 H   0  0  0  0  0  0
  -20.9309  -29.8791   21.6962 H   0  0  0  0  0  0
  -26.0150  -38.2855   24.1541 H   0  0  0  0  0  0
  -31.9618  -19.4728   19.4055 H   0  0  0  0  0  0
  -27.9063  -19.7412   20.8340 H   0  0  0  0  0  0
  -32.0347  -17.1047   19.9753 H   0  0  0  0  0  0
  -27.9597  -17.3454   21.4045 H   0  0  0  0  0  0
  -27.8121  -26.0412   22.0541 H   0  0  0  0  0  0
  -29.0318  -15.2639   21.3852 H   0  0  0  0  0  0
  -28.9627  -21.9555   21.1956 H   0  0  0  0  0  0
  -27.9480  -24.1634   22.9061 H   0  0  0  0  0  0
  1 25  1  0  0  0
  1 30  2  0  0  0
  1 81  1  0  0  0
  2  3  1  0  0  0
  2 25  1  0  0  0
  2 86  1  0  0  0
  2 87  1  0  0  0
  3  4  1  0  0  0
  3 88  1  0  0  0
  3 89  1  0  0  0
  4  5  1  0  0  0
  4 90  1  0  0  0
  4 91  1  0  0  0
  5  6  1  0  0  0
  5 26  1  0  0  0
  5 92  1  0  0  0
  6 25  1  0  0  0
  6 93  1  0  0  0
  6 94  1  0  0  0
  7  8  2  0  0  0
  7 26  1  0  0  0
  7 29  1  0  0  0
  8  9  1  0  0  0
  8 22  1  0  0  0
  9 10  1  0  0  0
  9 27  2  0  0  0
 10 11  2  0  0  0
 10 15  1  0  0  0
 11 12  1  0  0  0
 11 95  1  0  0  0
 12 13  2  0  0  0
 12 96  1  0  0  0
 13 14  1  0  0  0
 13 31  1  0  0  0
 14 15  2  0  0  0
 14 97  1  0  0  0
 15 98  1  0  0  0
 16 17  2  0  0  0
 16 21  1  0  0  0
 16 31  1  0  0  0
 17 18  1  0  0  0
 17 99  1  0  0  0
 18 19  2  0  0  0
 18100  1  0  0  0
 19 20  1  0  0  0
 19 24  1  0  0  0
 20 21  2  0  0  0
 20101  1  0  0  0
 21 23  1  0  0  0
 22 28  1  0  0  0
 22 32  2  0  0  0
 26 27  1  0  0  0
 28102  1  0  0  0
 28103  1  0  0  0
 29104  1  0  0  0
 29105  1  0  0  0
 33 34  1  0  0  0
 33 66  1  0  0  0
 33 70  2  0  0  0
 34 36  1  0  0  0
 34 59  1  0  0  0
 34106  1  0  0  0
 35 44  2  0  0  0
 35 45  1  0  0  0
 35 68  1  0  0  0
 36 56  1  0  0  0
 36107  1  0  0  0
 37 39  1  0  0  0
 37 47  1  0  0  0
 37 66  1  0  0  0
 37108  1  0  0  0
 38 43  2  0  0  0
 38 46  1  0  0  0
 38 47  1  0  0  0
 39 64  1  0  0  0
 39 67  2  0  0  0
 40 52  1  0  0  0
 40 53  2  0  0  0
 40 58  1  0  0  0
 41109  1  0  0  0
 41110  1  0  0  0
 41111  1  0  0  0
 41 48  1  0  0  0
 42 43  1  0  0  0
 42 66  1  0  0  0
 42112  1  0  0  0
 42113  1  0  0  0
 43 44  1  0  0  0
 44114  1  0  0  0
 45 46  2  0  0  0
 45115  1  0  0  0
 46116  1  0  0  0
 47117  1  0  0  0
 47118  1  0  0  0
 48 56  1  0  0  0
 48 65  1  0  0  0
 48119  1  0  0  0
 49 50  1  0  0  0
 49 53  1  0  0  0
 49 64  1  0  0  0
 49120  1  0  0  0
 50 51  1  0  0  0
 50121  1  0  0  0
 50122  1  0  0  0
 51 52  1  0  0  0
 51123  1  0  0  0
 51124  1  0  0  0
 52125  1  0  0  0
 52126  1  0  0  0
 53 54  1  0  0  0
 54 55  2  0  0  0
 54127  1  0  0  0
 55 57  1  0  0  0
 55128  1  0  0  0
 56 69  2  0  0  0
 57 58  2  0  0  0
 57129  1  0  0  0
 58130  1  0  0  0
 59 60  1  0  0  0
 59 61  1  0  0  0
 59 62  1  0  0  0
 60131  1  0  0  0
 60132  1  0  0  0
 60133  1  0  0  0
 61134  1  0  0  0
 61135  1  0  0  0
 61136  1  0  0  0
 62137  1  0  0  0
 62138  1  0  0  0
 62139  1  0  0  0
 63 65  1  0  0  0
 63140  1  0  0  0
 63141  1  0  0  0
 63142  1  0  0  0
 64143  1  0  0  0
 65144  1  0  0  0
 68 77  1  0  0  0
 71 73  2  0  0  0
 71 75  1  0  0  0
 71145  1  0  0  0
 72 74  1  0  0  0
 72 75  2  0  0  0
 72146  1  0  0  0
 73 76  1  0  0  0
 73147  1  0  0  0
 74 76  2  0  0  0
 74148  1  0  0  0
 75 78  1  0  0  0
 76 81  1  0  0  0
 77 79  2  0  0  0
 77149  1  0  0  0
 78 82  1  0  0  0
 78 83  2  0  0  0
 79 80  1  0  0  0
 79 85  1  0  0  0
 80 82  1  0  0  0
 80 84  2  0  0  0
 81150  1  0  0  0
 82151  1  0  0  0
 85152  1  0  0  0
M  ISO  4   1 100  68 101  77 101  81 100
M  END
> <chiral flag>
0

> <version>
0

> <s_m_source_file>
/data/baiqing/PycharmProjects/Reinvent-master-3.2/result/LINK_invent/BTK/process_docking_weight1_custom_product_contain_oxygen_bond_distance_aromatic_linkinvent_7_9_3/rearranged_h_0084.sdf

> <i_m_source_file_index>
63

> <r_mmod_Potential_Energy-OPLS-2005>
-158.088928222656

> <r_mmod_Stretch_Energy-OPLS-2005>
49.1873970031738

> <r_mmod_Bend_Energy-OPLS-2005>
122.570152282715

> <r_mmod_Torsional_Energy-OPLS-2005>
230.086685180664

> <r_mmod_Improper_Torsional_Energy-OPLS-2005>
4.86310005187988

> <r_mmod_Van_der_Waal_Energy-OPLS-2005>
160.109985351562

> <r_mmod_Electrostatic_Energy-OPLS-2005>
-477.899566650391

> <r_mmod_Solvation_Energy-OPLS-2005>
-271.960906982422

> <b_mmod_Minimization_Converged-OPLS-2005>
0

> <r_mmod_RMS_Derivative-OPLS-2005>
1.24969983100891

$$$$
63
                    3D
 Structure written by MMmdl.
156165  0  0  1  0            999 V2000
  -30.6434  -14.6238   20.5608 C   0  0  0  0  0  0
  -30.4390  -12.3955   19.4707 C   0  0  0  0  0  0
  -29.5179  -12.5429   18.2396 C   0  0  0  0  0  0
  -28.0373  -12.3705   18.6337 C   0  0  0  0  0  0
  -27.6601  -13.2143   19.8796 C   0  0  2  0  0  0
  -28.6946  -13.0209   21.0064 C   0  0  0  0  0  0
  -25.2585  -13.8167   20.5664 C   0  0  0  0  0  0
  -24.1833  -13.0429   20.9138 C   0  0  0  0  0  0
  -24.6390  -11.6895   20.8694 C   0  0  0  0  0  0
  -23.9048  -10.4282   21.0372 C   0  0  0  0  0  0
  -24.3604   -9.4213   21.9152 C   0  0  0  0  0  0
  -23.6272   -8.2255   22.0759 C   0  0  0  0  0  0
  -22.4256   -8.0285   21.3546 C   0  0  0  0  0  0
  -21.9886   -9.0242   20.4646 C   0  0  0  0  0  0
  -22.7219  -10.2115   20.3032 C   0  0  0  0  0  0
  -21.6841   -6.0721   22.5266 C   0  0  0  0  0  0
  -21.4007   -6.5623   23.8204 C   0  0  0  0  0  0
  -21.3668   -5.6791   24.9172 C   0  0  0  0  0  0
  -21.6041   -4.3048   24.7233 C   0  0  0  0  0  0
  -21.8818   -3.8138   23.4348 C   0  0  0  0  0  0
  -21.9185   -4.6946   22.3398 C   0  0  0  0  0  0
  -22.7868  -13.5225   21.1819 C   0  0  0  0  0  0
  -22.1657   -4.2130   21.0974 F   0  0  0  0  0  0
  -21.5637   -3.4537   25.7751 F   0  0  0  0  0  0
  -30.0168  -13.3983   20.4738 N   0  0  0  0  0  0
  -26.3016  -12.9327   20.3348 N   0  0  0  0  0  0
  -25.9317  -11.6484   20.5731 N   0  0  0  0  0  0
  -22.0531  -12.8240   22.0402 N   0  0  0  0  0  0
  -25.4312  -15.1888   20.4113 N   0  0  0  0  0  0
  -31.7303  -14.8251   20.0024 O   0  0  0  0  0  0
  -21.6638   -6.8868   21.4232 O   0  0  0  0  0  0
  -22.3551  -14.5546   20.6674 O   0  0  0  0  0  0
  -24.6287  -31.8614   23.1962 C   0  0  0  0  0  0
  -25.9140  -32.4753   23.8266 C   0  0  1  0  0  0
  -27.1968  -27.3152   20.0620 C   0  0  0  0  0  0
  -25.5978  -33.8547   24.2214 N   0  0  0  0  0  0
  -23.4162  -30.4859   21.5472 C   0  0  2  0  0  0
  -24.8523  -28.9396   20.1120 C   0  0  0  0  0  0
  -22.7458  -29.4640   22.4946 C   0  0  0  0  0  0
  -18.0277  -28.1375   22.8488 C   0  0  0  0  0  0
  -24.1514  -36.7257   23.2633 C   0  0  0  0  0  0
  -25.9660  -30.7771   21.3766 C   0  0  0  0  0  0
  -26.0334  -29.4113   20.7032 C   0  0  0  0  0  0
  -27.2163  -28.6119   20.6642 C   0  0  0  0  0  0
  -25.9907  -26.8983   19.4610 C   0  0  0  0  0  0
  -24.8281  -27.6854   19.4926 C   0  0  0  0  0  0
  -23.6253  -29.8235   20.1655 C   0  0  0  0  0  0
  -25.4148  -36.3033   24.0296 C   0  0  1  0  0  0
  -20.5875  -28.3698   23.1290 C   0  0  2  0  0  0
  -20.6775  -26.9420   22.5401 C   0  0  0  0  0  0
  -19.5740  -26.6368   21.5215 C   0  0  0  0  0  0
  -18.1914  -26.7921   22.1610 C   0  0  0  0  0  0
  -19.1523  -28.8852   23.2874 C   0  0  0  0  0  0
  -18.9463  -30.1458   23.8872 C   0  0  0  0  0  0
  -17.6471  -30.6589   24.0567 C   0  0  0  0  0  0
  -25.9099  -34.9419   23.5052 C   0  0  0  0  0  0
  -16.5362  -29.9079   23.6360 C   0  0  0  0  0  0
  -16.7268  -28.6492   23.0383 C   0  0  0  0  0  0
  -26.4518  -31.6563   25.0636 C   0  0  0  0  0  0
  -25.3716  -31.3686   26.1317 C   0  0  0  0  0  0
  -27.0414  -30.2981   24.6155 C   0  0  0  0  0  0
  -27.6048  -32.4350   25.7408 C   0  0  0  0  0  0
  -27.5601  -37.1754   24.8452 C   0  0  0  0  0  0
  -21.4171  -29.3061   22.3709 N   0  0  0  0  0  0
  -26.4315  -37.3744   23.9404 N   0  0  0  0  0  0
  -24.6888  -31.0600   22.0931 N   0  0  0  0  0  0
  -23.4197  -28.8162   23.2993 O   0  0  0  0  0  0
  -28.2814  -26.4273   20.0379 O   0  0  0  0  0  0
  -26.5678  -34.8907   22.4613 O   0  0  0  0  0  0
  -23.5462  -32.1464   23.7267 O   0  0  0  0  0  0
  -29.5423  -17.5864   19.5352 C   0  0  0  0  0  0
  -29.7278  -18.2883   21.8025 C   0  0  0  0  0  0
  -29.2550  -18.9407   19.1576 C   0  0  0  0  0  0
  -29.4291  -19.6292   21.4328 C   0  0  0  0  0  0
  -29.7876  -17.2051   20.8812 C   0  0  0  0  0  0
  -29.1839  -20.0339   20.0866 C   0  0  0  0  0  0
  -28.1310  -23.3150   18.5911 C   0  0  0  0  0  0
  -28.4223  -23.7431   19.8259 C   0  0  0  0  0  0
  -28.3830  -21.8794   18.5132 C   0  0  0  0  0  0
  -28.9547  -22.5647   20.5289 C   0  0  0  0  0  0
  -29.9902  -15.7685   21.4181 C   0  0  0  0  0  0
  -27.4627  -24.0810   17.4516 C   0  0  0  0  0  0
  -27.9969  -25.0680   20.5665 C   0  0  0  0  0  0
  -29.6846  -15.5386   22.6285 N   0  0  0  0  0  0
  -28.8603  -21.4563   19.7184 N   0  0  0  0  0  0
  -28.1416  -21.1710   17.5282 O   0  0  0  0  0  0
  -29.4479  -22.5895   21.6609 O   0  0  0  0  0  0
  -31.4843  -12.5149   19.1815 H   0  0  0  0  0  0
  -30.3664  -11.3909   19.8899 H   0  0  0  0  0  0
  -29.7936  -11.8180   17.4726 H   0  0  0  0  0  0
  -29.6620  -13.5315   17.7986 H   0  0  0  0  0  0
  -27.8631  -11.3128   18.8392 H   0  0  0  0  0  0
  -27.3918  -12.6301   17.7935 H   0  0  0  0  0  0
  -27.6964  -14.2617   19.5785 H   0  0  0  0  0  0
  -28.7110  -11.9810   21.3329 H   0  0  0  0  0  0
  -28.3966  -13.5744   21.8923 H   0  0  0  0  0  0
  -25.2740   -9.5698   22.4729 H   0  0  0  0  0  0
  -23.9978   -7.4655   22.7493 H   0  0  0  0  0  0
  -21.0824   -8.8751   19.8955 H   0  0  0  0  0  0
  -22.3666  -10.9649   19.6153 H   0  0  0  0  0  0
  -21.1995   -7.6141   23.9697 H   0  0  0  0  0  0
  -21.1492   -6.0527   25.9071 H   0  0  0  0  0  0
  -22.0582   -2.7592   23.2857 H   0  0  0  0  0  0
  -22.4156  -11.9862   22.4722 H   0  0  0  0  0  0
  -21.1191  -13.1311   22.2714 H   0  0  0  0  0  0
  -24.6658  -15.8454   20.5246 H   0  0  0  0  0  0
  -26.2943  -15.6303   20.1191 H   0  0  0  0  0  0
  -26.7163  -32.5397   23.0975 H   0  0  0  0  0  0
  -25.0130  -33.9679   25.0360 H   0  0  0  0  0  0
  -22.7092  -31.3043   21.4011 H   0  0  0  0  0  0
  -23.3789  -35.9570   23.3280 H   0  0  0  0  0  0
  -24.3581  -36.8939   22.2051 H   0  0  0  0  0  0
  -23.7279  -37.6428   23.6735 H   0  0  0  0  0  0
  -26.1340  -31.5461   20.6222 H   0  0  0  0  0  0
  -26.8319  -30.7918   22.0282 H   0  0  0  0  0  0
  -28.1305  -28.9715   21.1144 H   0  0  0  0  0  0
  -25.9237  -25.9381   18.9749 H   0  0  0  0  0  0
  -23.9170  -27.3146   19.0445 H   0  0  0  0  0  0
  -23.7410  -30.6004   19.4088 H   0  0  0  0  0  0
  -22.7411  -29.2543   19.8720 H   0  0  0  0  0  0
  -25.1330  -36.1829   25.0781 H   0  0  0  0  0  0
  -20.9965  -28.3306   24.1415 H   0  0  0  0  0  0
  -20.5729  -26.2306   23.3602 H   0  0  0  0  0  0
  -21.6636  -26.7472   22.1149 H   0  0  0  0  0  0
  -19.6926  -25.6269   21.1268 H   0  0  0  0  0  0
  -19.6694  -27.3167   20.6731 H   0  0  0  0  0  0
  -17.4194  -26.6688   21.4018 H   0  0  0  0  0  0
  -18.0288  -26.0050   22.8978 H   0  0  0  0  0  0
  -19.7933  -30.7277   24.2233 H   0  0  0  0  0  0
  -17.5015  -31.6265   24.5165 H   0  0  0  0  0  0
  -15.5353  -30.2985   23.7700 H   0  0  0  0  0  0
  -15.8656  -28.0808   22.7145 H   0  0  0  0  0  0
  -24.5903  -30.7067   25.7574 H   0  0  0  0  0  0
  -24.8892  -32.2835   26.4735 H   0  0  0  0  0  0
  -25.7962  -30.8807   27.0090 H   0  0  0  0  0  0
  -26.3013  -29.6634   24.1268 H   0  0  0  0  0  0
  -27.4212  -29.7323   25.4678 H   0  0  0  0  0  0
  -27.8831  -30.4251   23.9344 H   0  0  0  0  0  0
  -27.2637  -33.3695   26.1866 H   0  0  0  0  0  0
  -28.3886  -32.6842   25.0243 H   0  0  0  0  0  0
  -28.0671  -31.8540   26.5402 H   0  0  0  0  0  0
  -28.2545  -38.0129   24.7635 H   0  0  0  0  0  0
  -28.1197  -36.2665   24.6165 H   0  0  0  0  0  0
  -27.2302  -37.1242   25.8845 H   0  0  0  0  0  0
  -20.9349  -29.8823   21.6959 H   0  0  0  0  0  0
  -26.0178  -38.2794   24.1446 H   0  0  0  0  0  0
  -29.5395  -16.8262   18.7653 H   0  0  0  0  0  0
  -29.8920  -18.1010   22.8542 H   0  0  0  0  0  0
  -29.0774  -19.0939   18.1060 H   0  0  0  0  0  0
  -29.3854  -20.3320   22.2488 H   0  0  0  0  0  0
  -26.4265  -23.7576   17.3235 H   0  0  0  0  0  0
  -27.9859  -23.9134   16.5042 H   0  0  0  0  0  0
  -27.4832  -25.1516   17.6516 H   0  0  0  0  0  0
  -28.4435  -25.0466   21.5597 H   0  0  0  0  0  0
  -26.9347  -24.9404   20.7782 H   0  0  0  0  0  0
  -29.3046  -16.3698   23.0625 H   0  0  0  0  0  0
  1 25  1  0  0  0
  1 30  2  0  0  0
  1 81  1  0  0  0
  2  3  1  0  0  0
  2 25  1  0  0  0
  2 88  1  0  0  0
  2 89  1  0  0  0
  3  4  1  0  0  0
  3 90  1  0  0  0
  3 91  1  0  0  0
  4  5  1  0  0  0
  4 92  1  0  0  0
  4 93  1  0  0  0
  5  6  1  0  0  0
  5 26  1  0  0  0
  5 94  1  0  0  0
  6 25  1  0  0  0
  6 95  1  0  0  0
  6 96  1  0  0  0
  7  8  2  0  0  0
  7 26  1  0  0  0
  7 29  1  0  0  0
  8  9  1  0  0  0
  8 22  1  0  0  0
  9 10  1  0  0  0
  9 27  2  0  0  0
 10 11  2  0  0  0
 10 15  1  0  0  0
 11 12  1  0  0  0
 11 97  1  0  0  0
 12 13  2  0  0  0
 12 98  1  0  0  0
 13 14  1  0  0  0
 13 31  1  0  0  0
 14 15  2  0  0  0
 14 99  1  0  0  0
 15100  1  0  0  0
 16 17  2  0  0  0
 16 21  1  0  0  0
 16 31  1  0  0  0
 17 18  1  0  0  0
 17101  1  0  0  0
 18 19  2  0  0  0
 18102  1  0  0  0
 19 20  1  0  0  0
 19 24  1  0  0  0
 20 21  2  0  0  0
 20103  1  0  0  0
 21 23  1  0  0  0
 22 28  1  0  0  0
 22 32  2  0  0  0
 26 27  1  0  0  0
 28104  1  0  0  0
 28105  1  0  0  0
 29106  1  0  0  0
 29107  1  0  0  0
 33 34  1  0  0  0
 33 66  1  0  0  0
 33 70  2  0  0  0
 34 36  1  0  0  0
 34 59  1  0  0  0
 34108  1  0  0  0
 35 44  2  0  0  0
 35 45  1  0  0  0
 35 68  1  0  0  0
 36 56  1  0  0  0
 36109  1  0  0  0
 37 39  1  0  0  0
 37 47  1  0  0  0
 37 66  1  0  0  0
 37110  1  0  0  0
 38 43  2  0  0  0
 38 46  1  0  0  0
 38 47  1  0  0  0
 39 64  1  0  0  0
 39 67  2  0  0  0
 40 52  1  0  0  0
 40 53  2  0  0  0
 40 58  1  0  0  0
 41111  1  0  0  0
 41112  1  0  0  0
 41113  1  0  0  0
 41 48  1  0  0  0
 42 43  1  0  0  0
 42 66  1  0  0  0
 42114  1  0  0  0
 42115  1  0  0  0
 43 44  1  0  0  0
 44116  1  0  0  0
 45 46  2  0  0  0
 45117  1  0  0  0
 46118  1  0  0  0
 47119  1  0  0  0
 47120  1  0  0  0
 48 56  1  0  0  0
 48 65  1  0  0  0
 48121  1  0  0  0
 49 50  1  0  0  0
 49 53  1  0  0  0
 49 64  1  0  0  0
 49122  1  0  0  0
 50 51  1  0  0  0
 50123  1  0  0  0
 50124  1  0  0  0
 51 52  1  0  0  0
 51125  1  0  0  0
 51126  1  0  0  0
 52127  1  0  0  0
 52128  1  0  0  0
 53 54  1  0  0  0
 54 55  2  0  0  0
 54129  1  0  0  0
 55 57  1  0  0  0
 55130  1  0  0  0
 56 69  2  0  0  0
 57 58  2  0  0  0
 57131  1  0  0  0
 58132  1  0  0  0
 59 60  1  0  0  0
 59 61  1  0  0  0
 59 62  1  0  0  0
 60133  1  0  0  0
 60134  1  0  0  0
 60135  1  0  0  0
 61136  1  0  0  0
 61137  1  0  0  0
 61138  1  0  0  0
 62139  1  0  0  0
 62140  1  0  0  0
 62141  1  0  0  0
 63 65  1  0  0  0
 63142  1  0  0  0
 63143  1  0  0  0
 63144  1  0  0  0
 64145  1  0  0  0
 65146  1  0  0  0
 68 83  1  0  0  0
 71 73  2  0  0  0
 71 75  1  0  0  0
 71147  1  0  0  0
 72 74  1  0  0  0
 72 75  2  0  0  0
 72148  1  0  0  0
 73 76  1  0  0  0
 73149  1  0  0  0
 74 76  2  0  0  0
 74150  1  0  0  0
 75 81  1  0  0  0
 76 85  1  0  0  0
 77 78  2  0  0  0
 77 79  1  0  0  0
 77 82  1  0  0  0
 78 80  1  0  0  0
 78 83  1  0  0  0
 79 85  1  0  0  0
 79 86  2  0  0  0
 80 85  1  0  0  0
 80 87  2  0  0  0
 81 84  2  0  0  0
 82151  1  0  0  0
 82152  1  0  0  0
 82153  1  0  0  0
 83154  1  0  0  0
 83155  1  0  0  0
 84156  1  0  0  0
M  ISO  4   1 100  68 101  81 100  83 101
M  END
> <chiral flag>
0

> <version>
0

> <s_m_source_file>
/data/baiqing/PycharmProjects/Reinvent-master-3.2/result/LINK_invent/BTK/process_docking_weight1_custom_product_contain_oxygen_bond_distance_aromatic_linkinvent_7_9_3/rearranged_h_0084.sdf

> <i_m_source_file_index>
64

> <r_mmod_Potential_Energy-OPLS-2005>
322.961517333984

> <r_mmod_Stretch_Energy-OPLS-2005>
101.079032897949

> <r_mmod_Bend_Energy-OPLS-2005>
203.017013549805

> <r_mmod_Torsional_Energy-OPLS-2005>
236.661010742188

> <r_mmod_Improper_Torsional_Energy-OPLS-2005>
4.19410610198975

> <r_mmod_Van_der_Waal_Energy-OPLS-2005>
162.493728637695

> <r_mmod_Electrostatic_Energy-OPLS-2005>
-215.910125732422

> <r_mmod_Solvation_Energy-OPLS-2005>
-217.997329711914

> <b_mmod_Minimization_Converged-OPLS-2005>
0

> <r_mmod_RMS_Derivative-OPLS-2005>
4.93901777267456

$$$$
64
                    3D
 Structure written by MMmdl.
151160  0  0  1  0            999 V2000
  -30.5901  -14.7249   20.5619 C   0  0  0  0  0  0
  -30.4560  -12.4700   19.4608 C   0  0  0  0  0  0
  -29.5182  -12.5504   18.2305 C   0  0  0  0  0  0
  -28.0377  -12.3665   18.6281 C   0  0  0  0  0  0
  -27.6552  -13.2133   19.8690 C   0  0  2  0  0  0
  -28.6971  -13.0087   20.9842 C   0  0  0  0  0  0
  -25.2567  -13.8149   20.5671 C   0  0  0  0  0  0
  -24.1825  -13.0419   20.9164 C   0  0  0  0  0  0
  -24.6391  -11.6890   20.8712 C   0  0  0  0  0  0
  -23.9058  -10.4281   21.0395 C   0  0  0  0  0  0
  -24.3611   -9.4204   21.9179 C   0  0  0  0  0  0
  -23.6287   -8.2240   22.0753 C   0  0  0  0  0  0
  -22.4269   -8.0276   21.3544 C   0  0  0  0  0  0
  -21.9901   -9.0248   20.4646 C   0  0  0  0  0  0
  -22.7229  -10.2126   20.3050 C   0  0  0  0  0  0
  -21.6852   -6.0732   22.5280 C   0  0  0  0  0  0
  -21.4013   -6.5638   23.8212 C   0  0  0  0  0  0
  -21.3659   -5.6791   24.9175 C   0  0  0  0  0  0
  -21.6044   -4.3054   24.7226 C   0  0  0  0  0  0
  -21.8820   -3.8145   23.4348 C   0  0  0  0  0  0
  -21.9192   -4.6960   22.3403 C   0  0  0  0  0  0
  -22.7853  -13.5223   21.1845 C   0  0  0  0  0  0
  -22.1662   -4.2146   21.0981 F   0  0  0  0  0  0
  -21.5629   -3.4538   25.7739 F   0  0  0  0  0  0
  -30.0015  -13.4681   20.4638 N   0  0  0  0  0  0
  -26.2990  -12.9318   20.3309 N   0  0  0  0  0  0
  -25.9314  -11.6473   20.5706 N   0  0  0  0  0  0
  -22.0499  -12.8218   22.0408 N   0  0  0  0  0  0
  -25.4285  -15.1871   20.4113 N   0  0  0  0  0  0
  -31.6991  -14.9192   20.0479 O   0  0  0  0  0  0
  -21.6636   -6.8873   21.4241 O   0  0  0  0  0  0
  -22.3536  -14.5532   20.6703 O   0  0  0  0  0  0
  -24.6297  -31.8561   23.1988 C   0  0  0  0  0  0
  -25.9125  -32.4763   23.8335 C   0  0  1  0  0  0
  -27.2319  -27.2875   20.1263 C   0  0  0  0  0  0
  -25.5925  -33.8564   24.2262 N   0  0  0  0  0  0
  -23.4274  -30.4763   21.5416 C   0  0  2  0  0  0
  -24.8789  -28.9216   20.1157 C   0  0  0  0  0  0
  -22.7498  -29.4600   22.4923 C   0  0  0  0  0  0
  -18.0290  -28.1387   22.8486 C   0  0  0  0  0  0
  -24.1489  -36.7287   23.2639 C   0  0  0  0  0  0
  -25.9711  -30.7759   21.3762 C   0  0  0  0  0  0
  -26.0493  -29.3981   20.7225 C   0  0  0  0  0  0
  -27.2325  -28.5927   20.7179 C   0  0  0  0  0  0
  -26.0403  -26.8660   19.5034 C   0  0  0  0  0  0
  -24.8769  -27.6608   19.4971 C   0  0  0  0  0  0
  -23.6472  -29.8055   20.1599 C   0  0  0  0  0  0
  -25.4115  -36.3076   24.0327 C   0  0  1  0  0  0
  -20.5893  -28.3696   23.1274 C   0  0  2  0  0  0
  -20.6779  -26.9414   22.5410 C   0  0  0  0  0  0
  -19.5755  -26.6383   21.5212 C   0  0  0  0  0  0
  -18.1934  -26.7929   22.1624 C   0  0  0  0  0  0
  -19.1544  -28.8859   23.2874 C   0  0  0  0  0  0
  -18.9465  -30.1459   23.8892 C   0  0  0  0  0  0
  -17.6464  -30.6589   24.0561 C   0  0  0  0  0  0
  -25.9053  -34.9445   23.5098 C   0  0  0  0  0  0
  -16.5355  -29.9085   23.6332 C   0  0  0  0  0  0
  -16.7277  -28.6502   23.0354 C   0  0  0  0  0  0
  -26.4499  -31.6585   25.0719 C   0  0  0  0  0  0
  -25.3722  -31.3728   26.1439 C   0  0  0  0  0  0
  -27.0349  -30.3005   24.6194 C   0  0  0  0  0  0
  -27.6051  -32.4326   25.7496 C   0  0  0  0  0  0
  -27.5579  -37.1799   24.8466 C   0  0  0  0  0  0
  -21.4206  -29.3042   22.3665 N   0  0  0  0  0  0
  -26.4293  -37.3772   23.9407 N   0  0  0  0  0  0
  -24.6948  -31.0536   22.0957 N   0  0  0  0  0  0
  -23.4200  -28.8144   23.3024 O   0  0  0  0  0  0
  -28.3131  -26.3861   20.1139 O   0  0  0  0  0  0
  -26.5626  -34.8918   22.4667 O   0  0  0  0  0  0
  -23.5448  -32.1373   23.7290 O   0  0  0  0  0  0
  -29.7485  -18.0913   19.7374 C   0  0  0  0  0  0
  -29.5627  -19.5199   19.6014 C   0  0  0  0  0  0
  -29.9017  -18.3820   22.0764 C   0  0  0  0  0  0
  -29.8988  -17.4464   21.0012 C   0  0  0  0  0  0
  -29.4839  -20.4539   20.6904 C   0  0  0  0  0  0
  -29.6989  -19.7871   21.9359 C   0  0  0  0  0  0
  -28.5947  -23.8898   20.7331 C   0  0  0  0  0  0
  -29.2093  -23.0348   19.7114 C   0  0  0  0  0  0
  -28.2004  -25.2140   20.9007 C   0  0  0  0  0  0
  -29.8384  -15.9152   21.3420 C   0  0  0  0  0  0
  -28.5218  -22.6712   21.6693 C   0  0  0  0  0  0
  -29.1719  -15.6511   22.3876 N   0  0  0  0  0  0
  -29.2210  -21.9225   20.6046 N   0  0  0  0  0  0
  -29.5138  -23.2514   18.5566 O   0  0  0  0  0  0
  -29.7059  -20.5157   23.0775 F   0  0  0  0  0  0
  -31.4889  -12.6362   19.1513 H   0  0  0  0  0  0
  -30.4444  -11.4652   19.8860 H   0  0  0  0  0  0
  -29.8023  -11.8015   17.4902 H   0  0  0  0  0  0
  -29.6437  -13.5198   17.7459 H   0  0  0  0  0  0
  -27.8789  -11.3087   18.8413 H   0  0  0  0  0  0
  -27.3862  -12.6084   17.7878 H   0  0  0  0  0  0
  -27.6868  -14.2599   19.5661 H   0  0  0  0  0  0
  -28.7519  -11.9499   21.2422 H   0  0  0  0  0  0
  -28.3759  -13.4672   21.9120 H   0  0  0  0  0  0
  -25.2758   -9.5682   22.4750 H   0  0  0  0  0  0
  -23.9998   -7.4633   22.7472 H   0  0  0  0  0  0
  -21.0832   -8.8764   19.8953 H   0  0  0  0  0  0
  -22.3687  -10.9663   19.6156 H   0  0  0  0  0  0
  -21.2005   -7.6145   23.9714 H   0  0  0  0  0  0
  -21.1481   -6.0522   25.9078 H   0  0  0  0  0  0
  -22.0600   -2.7606   23.2849 H   0  0  0  0  0  0
  -22.4112  -11.9874   22.4790 H   0  0  0  0  0  0
  -21.1122  -13.1250   22.2626 H   0  0  0  0  0  0
  -24.6702  -15.8481   20.5394 H   0  0  0  0  0  0
  -26.2991  -15.6287   20.1438 H   0  0  0  0  0  0
  -26.7194  -32.5428   23.1083 H   0  0  0  0  0  0
  -25.0070  -33.9700   25.0407 H   0  0  0  0  0  0
  -22.7230  -31.2973   21.3925 H   0  0  0  0  0  0
  -23.3753  -35.9619   23.3306 H   0  0  0  0  0  0
  -24.3576  -36.8904   22.2053 H   0  0  0  0  0  0
  -23.7243  -37.6489   23.6662 H   0  0  0  0  0  0
  -26.1045  -31.5358   20.6049 H   0  0  0  0  0  0
  -26.8500  -30.8289   22.0071 H   0  0  0  0  0  0
  -28.1332  -28.9530   21.1949 H   0  0  0  0  0  0
  -26.0086  -25.8936   19.0323 H   0  0  0  0  0  0
  -23.9804  -27.2886   19.0206 H   0  0  0  0  0  0
  -23.7697  -30.5791   19.4009 H   0  0  0  0  0  0
  -22.7671  -29.2351   19.8570 H   0  0  0  0  0  0
  -25.1296  -36.1925   25.0820 H   0  0  0  0  0  0
  -20.9981  -28.3273   24.1397 H   0  0  0  0  0  0
  -20.5678  -26.2304   23.3611 H   0  0  0  0  0  0
  -21.6647  -26.7438   22.1203 H   0  0  0  0  0  0
  -19.6917  -25.6292   21.1245 H   0  0  0  0  0  0
  -19.6694  -27.3190   20.6739 H   0  0  0  0  0  0
  -17.4202  -26.6676   21.4029 H   0  0  0  0  0  0
  -18.0337  -26.0071   22.9022 H   0  0  0  0  0  0
  -19.7939  -30.7277   24.2262 H   0  0  0  0  0  0
  -17.5017  -31.6269   24.5162 H   0  0  0  0  0  0
  -15.5355  -30.2984   23.7658 H   0  0  0  0  0  0
  -15.8677  -28.0817   22.7075 H   0  0  0  0  0  0
  -24.5903  -30.7071   25.7766 H   0  0  0  0  0  0
  -24.8907  -32.2895   26.4853 H   0  0  0  0  0  0
  -25.8040  -30.8914   27.0222 H   0  0  0  0  0  0
  -26.2933  -29.6750   24.1211 H   0  0  0  0  0  0
  -27.4029  -29.7266   25.4709 H   0  0  0  0  0  0
  -27.8809  -30.4284   23.9438 H   0  0  0  0  0  0
  -27.2656  -33.3626   26.2068 H   0  0  0  0  0  0
  -28.3868  -32.6887   25.0332 H   0  0  0  0  0  0
  -28.0716  -31.8457   26.5418 H   0  0  0  0  0  0
  -28.2597  -38.0095   24.7509 H   0  0  0  0  0  0
  -28.1074  -36.2625   24.6298 H   0  0  0  0  0  0
  -27.2295  -37.1455   25.8868 H   0  0  0  0  0  0
  -20.9395  -29.8757   21.6862 H   0  0  0  0  0  0
  -26.0174  -38.2847   24.1406 H   0  0  0  0  0  0
  -29.7164  -17.4807   18.8459 H   0  0  0  0  0  0
  -29.4293  -19.9074   18.6015 H   0  0  0  0  0  0
  -30.0191  -18.0157   23.0859 H   0  0  0  0  0  0
  -27.7457  -25.4748   21.8463 H   0  0  0  0  0  0
  -27.5324  -22.2583   21.8741 H   0  0  0  0  0  0
  -29.0998  -22.7432   22.5912 H   0  0  0  0  0  0
  -28.7665  -16.4905   22.7822 H   0  0  0  0  0  0
  1 25  1  0  0  0
  1 30  2  0  0  0
  1 80  1  0  0  0
  2  3  1  0  0  0
  2 25  1  0  0  0
  2 86  1  0  0  0
  2 87  1  0  0  0
  3  4  1  0  0  0
  3 88  1  0  0  0
  3 89  1  0  0  0
  4  5  1  0  0  0
  4 90  1  0  0  0
  4 91  1  0  0  0
  5  6  1  0  0  0
  5 26  1  0  0  0
  5 92  1  0  0  0
  6 25  1  0  0  0
  6 93  1  0  0  0
  6 94  1  0  0  0
  7  8  2  0  0  0
  7 26  1  0  0  0
  7 29  1  0  0  0
  8  9  1  0  0  0
  8 22  1  0  0  0
  9 10  1  0  0  0
  9 27  2  0  0  0
 10 11  2  0  0  0
 10 15  1  0  0  0
 11 12  1  0  0  0
 11 95  1  0  0  0
 12 13  2  0  0  0
 12 96  1  0  0  0
 13 14  1  0  0  0
 13 31  1  0  0  0
 14 15  2  0  0  0
 14 97  1  0  0  0
 15 98  1  0  0  0
 16 17  2  0  0  0
 16 21  1  0  0  0
 16 31  1  0  0  0
 17 18  1  0  0  0
 17 99  1  0  0  0
 18 19  2  0  0  0
 18100  1  0  0  0
 19 20  1  0  0  0
 19 24  1  0  0  0
 20 21  2  0  0  0
 20101  1  0  0  0
 21 23  1  0  0  0
 22 28  1  0  0  0
 22 32  2  0  0  0
 26 27  1  0  0  0
 28102  1  0  0  0
 28103  1  0  0  0
 29104  1  0  0  0
 29105  1  0  0  0
 33 34  1  0  0  0
 33 66  1  0  0  0
 33 70  2  0  0  0
 34 36  1  0  0  0
 34 59  1  0  0  0
 34106  1  0  0  0
 35 44  2  0  0  0
 35 45  1  0  0  0
 35 68  1  0  0  0
 36 56  1  0  0  0
 36107  1  0  0  0
 37 39  1  0  0  0
 37 47  1  0  0  0
 37 66  1  0  0  0
 37108  1  0  0  0
 38 43  2  0  0  0
 38 46  1  0  0  0
 38 47  1  0  0  0
 39 64  1  0  0  0
 39 67  2  0  0  0
 40 52  1  0  0  0
 40 53  2  0  0  0
 40 58  1  0  0  0
 41109  1  0  0  0
 41110  1  0  0  0
 41111  1  0  0  0
 41 48  1  0  0  0
 42 43  1  0  0  0
 42 66  1  0  0  0
 42112  1  0  0  0
 42113  1  0  0  0
 43 44  1  0  0  0
 44114  1  0  0  0
 45 46  2  0  0  0
 45115  1  0  0  0
 46116  1  0  0  0
 47117  1  0  0  0
 47118  1  0  0  0
 48 56  1  0  0  0
 48 65  1  0  0  0
 48119  1  0  0  0
 49 50  1  0  0  0
 49 53  1  0  0  0
 49 64  1  0  0  0
 49120  1  0  0  0
 50 51  1  0  0  0
 50121  1  0  0  0
 50122  1  0  0  0
 51 52  1  0  0  0
 51123  1  0  0  0
 51124  1  0  0  0
 52125  1  0  0  0
 52126  1  0  0  0
 53 54  1  0  0  0
 54 55  2  0  0  0
 54127  1  0  0  0
 55 57  1  0  0  0
 55128  1  0  0  0
 56 69  2  0  0  0
 57 58  2  0  0  0
 57129  1  0  0  0
 58130  1  0  0  0
 59 60  1  0  0  0
 59 61  1  0  0  0
 59 62  1  0  0  0
 60131  1  0  0  0
 60132  1  0  0  0
 60133  1  0  0  0
 61134  1  0  0  0
 61135  1  0  0  0
 61136  1  0  0  0
 62137  1  0  0  0
 62138  1  0  0  0
 62139  1  0  0  0
 63 65  1  0  0  0
 63140  1  0  0  0
 63141  1  0  0  0
 63142  1  0  0  0
 64143  1  0  0  0
 65144  1  0  0  0
 68 79  1  0  0  0
 71 72  2  0  0  0
 71 74  1  0  0  0
 71145  1  0  0  0
 72 75  1  0  0  0
 72146  1  0  0  0
 73 74  2  0  0  0
 73 76  1  0  0  0
 73147  1  0  0  0
 74 80  1  0  0  0
 75 76  2  0  0  0
 75 83  1  0  0  0
 76 85  1  0  0  0
 77 78  1  0  0  0
 77 79  2  0  0  0
 77 81  1  0  0  0
 78 83  1  0  0  0
 78 84  2  0  0  0
 79148  1  0  0  0
 80 82  2  0  0  0
 81 83  1  0  0  0
 81149  1  0  0  0
 81150  1  0  0  0
 82151  1  0  0  0
M  ISO  4   1 100  68 101  79 101  80 100
M  END
> <chiral flag>
0

> <version>
0

> <s_m_source_file>
/data/baiqing/PycharmProjects/Reinvent-master-3.2/result/LINK_invent/BTK/process_docking_weight1_custom_product_contain_oxygen_bond_distance_aromatic_linkinvent_7_9_3/rearranged_h_0084.sdf

> <i_m_source_file_index>
65

> <r_mmod_Potential_Energy-OPLS-2005>
364.042266845703

> <r_mmod_Stretch_Energy-OPLS-2005>
117.951934814453

> <r_mmod_Bend_Energy-OPLS-2005>
271.072967529297

> <r_mmod_Torsional_Energy-OPLS-2005>
217.215759277344

> <r_mmod_Improper_Torsional_Energy-OPLS-2005>
4.01535892486572

> <r_mmod_Van_der_Waal_Energy-OPLS-2005>
148.357421875

> <r_mmod_Electrostatic_Energy-OPLS-2005>
-254.684173583984

> <r_mmod_Solvation_Energy-OPLS-2005>
-210.956329345703

> <b_mmod_Minimization_Converged-OPLS-2005>
0

> <r_mmod_RMS_Derivative-OPLS-2005>
0.363794058561325

$$$$
65
                    3D
 Structure written by MMmdl.
152161  0  0  1  0            999 V2000
  -30.5624  -14.7475   20.4770 C   0  0  0  0  0  0
  -30.4513  -12.4578   19.4657 C   0  0  0  0  0  0
  -29.5181  -12.5227   18.2336 C   0  0  0  0  0  0
  -28.0423  -12.3407   18.6439 C   0  0  0  0  0  0
  -27.6517  -13.2206   19.8607 C   0  0  2  0  0  0
  -28.6971  -13.1061   20.9932 C   0  0  0  0  0  0
  -25.2558  -13.8165   20.5675 C   0  0  0  0  0  0
  -24.1830  -13.0428   20.9180 C   0  0  0  0  0  0
  -24.6403  -11.6898   20.8729 C   0  0  0  0  0  0
  -23.9071  -10.4283   21.0395 C   0  0  0  0  0  0
  -24.3616   -9.4199   21.9177 C   0  0  0  0  0  0
  -23.6285   -8.2240   22.0756 C   0  0  0  0  0  0
  -22.4267   -8.0277   21.3546 C   0  0  0  0  0  0
  -21.9902   -9.0253   20.4653 C   0  0  0  0  0  0
  -22.7238  -10.2128   20.3052 C   0  0  0  0  0  0
  -21.6851   -6.0725   22.5273 C   0  0  0  0  0  0
  -21.4021   -6.5631   23.8206 C   0  0  0  0  0  0
  -21.3662   -5.6786   24.9168 C   0  0  0  0  0  0
  -21.6042   -4.3047   24.7218 C   0  0  0  0  0  0
  -21.8821   -3.8136   23.4340 C   0  0  0  0  0  0
  -21.9197   -4.6954   22.3399 C   0  0  0  0  0  0
  -22.7855  -13.5230   21.1834 C   0  0  0  0  0  0
  -22.1663   -4.2138   21.0975 F   0  0  0  0  0  0
  -21.5627   -3.4534   25.7733 F   0  0  0  0  0  0
  -30.0016  -13.4886   20.4284 N   0  0  0  0  0  0
  -26.2985  -12.9350   20.3300 N   0  0  0  0  0  0
  -25.9335  -11.6501   20.5740 N   0  0  0  0  0  0
  -22.0498  -12.8233   22.0399 N   0  0  0  0  0  0
  -25.4264  -15.1885   20.4071 N   0  0  0  0  0  0
  -31.7225  -14.9302   20.0923 O   0  0  0  0  0  0
  -21.6637   -6.8869   21.4234 O   0  0  0  0  0  0
  -22.3544  -14.5539   20.6681 O   0  0  0  0  0  0
  -24.6333  -31.8546   23.1981 C   0  0  0  0  0  0
  -25.9153  -32.4748   23.8340 C   0  0  1  0  0  0
  -27.2267  -27.2643   20.1301 C   0  0  0  0  0  0
  -25.5939  -33.8549   24.2260 N   0  0  0  0  0  0
  -23.4323  -30.4763   21.5405 C   0  0  2  0  0  0
  -24.8830  -28.9231   20.1103 C   0  0  0  0  0  0
  -22.7521  -29.4598   22.4897 C   0  0  0  0  0  0
  -18.0291  -28.1388   22.8473 C   0  0  0  0  0  0
  -24.1490  -36.7282   23.2642 C   0  0  0  0  0  0
  -25.9787  -30.7673   21.3797 C   0  0  0  0  0  0
  -26.0550  -29.3901   20.7211 C   0  0  0  0  0  0
  -27.2334  -28.5734   20.7209 C   0  0  0  0  0  0
  -26.0352  -26.8643   19.4911 C   0  0  0  0  0  0
  -24.8779  -27.6675   19.4829 C   0  0  0  0  0  0
  -23.6532  -29.8105   20.1570 C   0  0  0  0  0  0
  -25.4116  -36.3066   24.0324 C   0  0  1  0  0  0
  -20.5899  -28.3710   23.1251 C   0  0  2  0  0  0
  -20.6779  -26.9423   22.5405 C   0  0  0  0  0  0
  -19.5756  -26.6384   21.5207 C   0  0  0  0  0  0
  -18.1935  -26.7927   22.1616 C   0  0  0  0  0  0
  -19.1548  -28.8865   23.2855 C   0  0  0  0  0  0
  -18.9467  -30.1462   23.8881 C   0  0  0  0  0  0
  -17.6468  -30.6588   24.0560 C   0  0  0  0  0  0
  -25.9056  -34.9434   23.5093 C   0  0  0  0  0  0
  -16.5358  -29.9086   23.6328 C   0  0  0  0  0  0
  -16.7278  -28.6503   23.0345 C   0  0  0  0  0  0
  -26.4515  -31.6576   25.0735 C   0  0  0  0  0  0
  -25.3738  -31.3732   26.1458 C   0  0  0  0  0  0
  -27.0371  -30.2987   24.6245 C   0  0  0  0  0  0
  -27.6062  -32.4328   25.7507 C   0  0  0  0  0  0
  -27.5575  -37.1801   24.8466 C   0  0  0  0  0  0
  -21.4225  -29.3054   22.3645 N   0  0  0  0  0  0
  -26.4287  -37.3767   23.9406 N   0  0  0  0  0  0
  -24.7003  -31.0507   22.0957 N   0  0  0  0  0  0
  -23.4208  -28.8142   23.3008 O   0  0  0  0  0  0
  -28.2783  -26.3197   20.1648 O   0  0  0  0  0  0
  -26.5630  -34.8912   22.4663 O   0  0  0  0  0  0
  -23.5475  -32.1366   23.7266 O   0  0  0  0  0  0
  -28.3832  -19.3352   21.3764 C   0  0  0  0  0  0
  -28.5930  -17.9225   21.4246 C   0  0  0  0  0  0
  -30.4603  -18.1557   19.9838 C   0  0  0  0  0  0
  -29.1740  -20.2691   20.6432 C   0  0  0  0  0  0
  -29.6440  -17.2601   20.7404 C   0  0  0  0  0  0
  -30.2273  -19.5868   19.9342 C   0  0  0  0  0  0
  -28.4019  -23.7625   20.7169 C   0  0  0  0  0  0
  -28.0797  -22.6614   21.4424 C   0  0  0  0  0  0
  -27.2832  -22.5340   22.5148 C   0  0  0  0  0  0
  -28.0037  -25.0971   20.8416 C   0  0  0  0  0  0
  -29.2897  -22.8468   19.8355 C   0  0  0  0  0  0
  -28.8433  -21.7298   20.7210 N   0  0  0  0  0  0
  -29.7105  -15.7742   20.8508 N   0  0  0  0  0  0
  -31.0672  -20.3332   19.1756 F   0  0  0  0  0  0
  -31.4885  -12.6085   19.1618 H   0  0  0  0  0  0
  -30.4152  -11.4687   19.9254 H   0  0  0  0  0  0
  -29.8009  -11.7612   17.5054 H   0  0  0  0  0  0
  -29.6407  -13.4833   17.7310 H   0  0  0  0  0  0
  -27.8945  -11.2880   18.8888 H   0  0  0  0  0  0
  -27.3868  -12.5523   17.7983 H   0  0  0  0  0  0
  -27.6585  -14.2509   19.5036 H   0  0  0  0  0  0
  -28.7350  -12.0868   21.3802 H   0  0  0  0  0  0
  -28.4241  -13.7345   21.8417 H   0  0  0  0  0  0
  -25.2763   -9.5675   22.4746 H   0  0  0  0  0  0
  -23.9989   -7.4639   22.7484 H   0  0  0  0  0  0
  -21.0828   -8.8776   19.8969 H   0  0  0  0  0  0
  -22.3694  -10.9662   19.6158 H   0  0  0  0  0  0
  -21.2018   -7.6140   23.9703 H   0  0  0  0  0  0
  -21.1486   -6.0516   25.9070 H   0  0  0  0  0  0
  -22.0603   -2.7598   23.2841 H   0  0  0  0  0  0
  -22.4105  -11.9892   22.4791 H   0  0  0  0  0  0
  -21.1129  -13.1282   22.2622 H   0  0  0  0  0  0
  -24.6517  -15.8367   20.4959 H   0  0  0  0  0  0
  -26.2644  -15.6235   20.0434 H   0  0  0  0  0  0
  -26.7224  -32.5403   23.1086 H   0  0  0  0  0  0
  -25.0095  -33.9689   25.0413 H   0  0  0  0  0  0
  -22.7291  -31.2984   21.3927 H   0  0  0  0  0  0
  -23.3745  -35.9623   23.3314 H   0  0  0  0  0  0
  -24.3580  -36.8896   22.2056 H   0  0  0  0  0  0
  -23.7257  -37.6491   23.6660 H   0  0  0  0  0  0
  -26.1206  -31.5286   20.6121 H   0  0  0  0  0  0
  -26.8538  -30.8154   22.0158 H   0  0  0  0  0  0
  -28.1302  -28.9221   21.2132 H   0  0  0  0  0  0
  -25.9935  -25.8936   19.0169 H   0  0  0  0  0  0
  -23.9826  -27.3033   18.9984 H   0  0  0  0  0  0
  -23.7805  -30.5879   19.4026 H   0  0  0  0  0  0
  -22.7720  -29.2456   19.8486 H   0  0  0  0  0  0
  -25.1299  -36.1914   25.0816 H   0  0  0  0  0  0
  -20.9983  -28.3293   24.1375 H   0  0  0  0  0  0
  -20.5674  -26.2325   23.3616 H   0  0  0  0  0  0
  -21.6647  -26.7443   22.1207 H   0  0  0  0  0  0
  -19.6928  -25.6293   21.1245 H   0  0  0  0  0  0
  -19.6690  -27.3185   20.6727 H   0  0  0  0  0  0
  -17.4206  -26.6660   21.4020 H   0  0  0  0  0  0
  -18.0341  -26.0076   22.9020 H   0  0  0  0  0  0
  -19.7947  -30.7275   24.2243 H   0  0  0  0  0  0
  -17.5025  -31.6264   24.5171 H   0  0  0  0  0  0
  -15.5360  -30.2983   23.7664 H   0  0  0  0  0  0
  -15.8673  -28.0825   22.7061 H   0  0  0  0  0  0
  -24.5895  -30.7102   25.7788 H   0  0  0  0  0  0
  -24.8956  -32.2903   26.4902 H   0  0  0  0  0  0
  -25.8055  -30.8892   27.0227 H   0  0  0  0  0  0
  -26.2966  -29.6720   24.1260 H   0  0  0  0  0  0
  -27.4027  -29.7266   25.4786 H   0  0  0  0  0  0
  -27.8855  -30.4250   23.9516 H   0  0  0  0  0  0
  -27.2660  -33.3623   26.2084 H   0  0  0  0  0  0
  -28.3868  -32.6900   25.0336 H   0  0  0  0  0  0
  -28.0740  -31.8464   26.5427 H   0  0  0  0  0  0
  -28.2599  -38.0091   24.7494 H   0  0  0  0  0  0
  -28.1057  -36.2618   24.6303 H   0  0  0  0  0  0
  -27.2291  -37.1473   25.8870 H   0  0  0  0  0  0
  -20.9418  -29.8772   21.6842 H   0  0  0  0  0  0
  -26.0163  -38.2841   24.1392 H   0  0  0  0  0  0
  -27.5449  -19.7128   21.9404 H   0  0  0  0  0  0
  -27.9034  -17.3377   22.0180 H   0  0  0  0  0  0
  -31.2821  -17.7525   19.4109 H   0  0  0  0  0  0
  -26.7707  -23.3856   22.9393 H   0  0  0  0  0  0
  -27.1326  -21.5824   23.0004 H   0  0  0  0  0  0
  -27.3218  -25.3121   21.6538 H   0  0  0  0  0  0
  -30.3693  -22.9948   19.8829 H   0  0  0  0  0  0
  -28.9735  -22.6916   18.8027 H   0  0  0  0  0  0
  -28.8666  -15.3801   21.2383 H   0  0  0  0  0  0
  1 25  1  0  0  0
  1 30  2  0  0  0
  1 83  1  0  0  0
  2  3  1  0  0  0
  2 25  1  0  0  0
  2 85  1  0  0  0
  2 86  1  0  0  0
  3  4  1  0  0  0
  3 87  1  0  0  0
  3 88  1  0  0  0
  4  5  1  0  0  0
  4 89  1  0  0  0
  4 90  1  0  0  0
  5  6  1  0  0  0
  5 26  1  0  0  0
  5 91  1  0  0  0
  6 25  1  0  0  0
  6 92  1  0  0  0
  6 93  1  0  0  0
  7  8  2  0  0  0
  7 26  1  0  0  0
  7 29  1  0  0  0
  8  9  1  0  0  0
  8 22  1  0  0  0
  9 10  1  0  0  0
  9 27  2  0  0  0
 10 11  2  0  0  0
 10 15  1  0  0  0
 11 12  1  0  0  0
 11 94  1  0  0  0
 12 13  2  0  0  0
 12 95  1  0  0  0
 13 14  1  0  0  0
 13 31  1  0  0  0
 14 15  2  0  0  0
 14 96  1  0  0  0
 15 97  1  0  0  0
 16 17  2  0  0  0
 16 21  1  0  0  0
 16 31  1  0  0  0
 17 18  1  0  0  0
 17 98  1  0  0  0
 18 19  2  0  0  0
 18 99  1  0  0  0
 19 20  1  0  0  0
 19 24  1  0  0  0
 20 21  2  0  0  0
 20100  1  0  0  0
 21 23  1  0  0  0
 22 28  1  0  0  0
 22 32  2  0  0  0
 26 27  1  0  0  0
 28101  1  0  0  0
 28102  1  0  0  0
 29103  1  0  0  0
 29104  1  0  0  0
 33 34  1  0  0  0
 33 66  1  0  0  0
 33 70  2  0  0  0
 34 36  1  0  0  0
 34 59  1  0  0  0
 34105  1  0  0  0
 35 44  2  0  0  0
 35 45  1  0  0  0
 35 68  1  0  0  0
 36 56  1  0  0  0
 36106  1  0  0  0
 37 39  1  0  0  0
 37 47  1  0  0  0
 37 66  1  0  0  0
 37107  1  0  0  0
 38 43  2  0  0  0
 38 46  1  0  0  0
 38 47  1  0  0  0
 39 64  1  0  0  0
 39 67  2  0  0  0
 40 52  1  0  0  0
 40 53  2  0  0  0
 40 58  1  0  0  0
 41108  1  0  0  0
 41109  1  0  0  0
 41110  1  0  0  0
 41 48  1  0  0  0
 42 43  1  0  0  0
 42 66  1  0  0  0
 42111  1  0  0  0
 42112  1  0  0  0
 43 44  1  0  0  0
 44113  1  0  0  0
 45 46  2  0  0  0
 45114  1  0  0  0
 46115  1  0  0  0
 47116  1  0  0  0
 47117  1  0  0  0
 48 56  1  0  0  0
 48 65  1  0  0  0
 48118  1  0  0  0
 49 50  1  0  0  0
 49 53  1  0  0  0
 49 64  1  0  0  0
 49119  1  0  0  0
 50 51  1  0  0  0
 50120  1  0  0  0
 50121  1  0  0  0
 51 52  1  0  0  0
 51122  1  0  0  0
 51123  1  0  0  0
 52124  1  0  0  0
 52125  1  0  0  0
 53 54  1  0  0  0
 54 55  2  0  0  0
 54126  1  0  0  0
 55 57  1  0  0  0
 55127  1  0  0  0
 56 69  2  0  0  0
 57 58  2  0  0  0
 57128  1  0  0  0
 58129  1  0  0  0
 59 60  1  0  0  0
 59 61  1  0  0  0
 59 62  1  0  0  0
 60130  1  0  0  0
 60131  1  0  0  0
 60132  1  0  0  0
 61133  1  0  0  0
 61134  1  0  0  0
 61135  1  0  0  0
 62136  1  0  0  0
 62137  1  0  0  0
 62138  1  0  0  0
 63 65  1  0  0  0
 63139  1  0  0  0
 63140  1  0  0  0
 63141  1  0  0  0
 64142  1  0  0  0
 65143  1  0  0  0
 68 80  1  0  0  0
 71 72  2  0  0  0
 71 74  1  0  0  0
 71144  1  0  0  0
 72 75  1  0  0  0
 72145  1  0  0  0
 73 75  2  0  0  0
 73 76  1  0  0  0
 73146  1  0  0  0
 74 76  2  0  0  0
 74 82  1  0  0  0
 75 83  1  0  0  0
 76 84  1  0  0  0
 77 78  1  0  0  0
 77 80  2  0  0  0
 77 81  1  0  0  0
 78 79  2  0  0  0
 78 82  1  0  0  0
 79147  1  0  0  0
 79148  1  0  0  0
 80149  1  0  0  0
 81 82  1  0  0  0
 81150  1  0  0  0
 81151  1  0  0  0
 83152  1  0  0  0
M  ISO  4   1 100  68 101  80 101  83 100
M  END
> <chiral flag>
0

> <version>
0

> <s_m_source_file>
/data/baiqing/PycharmProjects/Reinvent-master-3.2/result/LINK_invent/BTK/process_docking_weight1_custom_product_contain_oxygen_bond_distance_aromatic_linkinvent_7_9_3/rearranged_h_0084.sdf

> <i_m_source_file_index>
66

> <r_mmod_Potential_Energy-OPLS-2005>
252.761566162109

> <r_mmod_Stretch_Energy-OPLS-2005>
109.736061096191

> <r_mmod_Bend_Energy-OPLS-2005>
252.677490234375

> <r_mmod_Torsional_Energy-OPLS-2005>
226.674621582031

> <r_mmod_Improper_Torsional_Energy-OPLS-2005>
3.57740569114685

> <r_mmod_Van_der_Waal_Energy-OPLS-2005>
133.070419311523

> <r_mmod_Electrostatic_Energy-OPLS-2005>
-359.393310546875

> <r_mmod_Solvation_Energy-OPLS-2005>
-203.195617675781

> <b_mmod_Minimization_Converged-OPLS-2005>
0

> <r_mmod_RMS_Derivative-OPLS-2005>
1.10564982891083

$$$$
66
                    3D
 Structure written by MMmdl.
137144  0  0  1  0            999 V2000
  -29.9347  -16.7496   20.2458 C   0  0  0  0  0  0
  -30.3000  -13.8846   19.5592 C   0  0  0  0  0  0
  -29.5846  -12.9983   18.4499 C   0  0  0  0  0  0
  -28.2592  -12.4094   18.9357 C   0  0  0  0  0  0
  -27.5599  -13.4561   19.8147 C   0  0  2  0  0  0
  -28.4531  -14.2309   20.8584 C   0  0  0  0  0  0
  -25.2062  -13.8527   20.5920 C   0  0  0  0  0  0
  -24.1621  -13.0470   20.9338 C   0  0  0  0  0  0
  -24.6538  -11.7052   20.8727 C   0  0  0  0  0  0
  -23.9271  -10.4326   21.0329 C   0  0  0  0  0  0
  -24.3752   -9.4235   21.9141 C   0  0  0  0  0  0
  -23.6374   -8.2291   22.0745 C   0  0  0  0  0  0
  -22.4348   -8.0327   21.3544 C   0  0  0  0  0  0
  -22.0023   -9.0306   20.4632 C   0  0  0  0  0  0
  -22.7407  -10.2158   20.3010 C   0  0  0  0  0  0
  -21.6882   -6.0768   22.5278 C   0  0  0  0  0  0
  -21.4037   -6.5659   23.8215 C   0  0  0  0  0  0
  -21.3666   -5.6803   24.9171 C   0  0  0  0  0  0
  -21.6043   -4.3065   24.7217 C   0  0  0  0  0  0
  -21.8816   -3.8164   23.4335 C   0  0  0  0  0  0
  -21.9201   -4.6989   22.3395 C   0  0  0  0  0  0
  -22.7596  -13.5069   21.1949 C   0  0  0  0  0  0
  -22.1664   -4.2172   21.0973 F   0  0  0  0  0  0
  -21.5623   -3.4544   25.7726 F   0  0  0  0  0  0
  -29.4773  -15.1312   20.1631 N   0  0  0  0  0  0
  -26.2722  -13.0175   20.3424 N   0  0  0  0  0  0
  -25.9546  -11.7070   20.5623 N   0  0  0  0  0  0
  -22.0320  -12.8008   22.0510 N   0  0  0  0  0  0
  -25.3366  -15.2297   20.4331 N   0  0  0  0  0  0
  -31.1836  -16.5111   20.1683 O   0  0  0  0  0  0
  -21.6683   -6.8933   21.4250 O   0  0  0  0  0  0
  -22.3217  -14.5349   20.6789 O   0  0  0  0  0  0
  -24.7548  -31.7068   23.0895 C   0  0  0  0  0  0
  -25.9754  -32.4022   23.7723 C   0  0  1  0  0  0
  -27.2697  -25.9460   20.2808 C   0  0  0  0  0  0
  -25.6014  -33.7892   24.1518 N   0  0  0  0  0  0
  -23.6142  -30.2709   21.4623 C   0  0  2  0  0  0
  -25.0775  -28.4454   20.1458 C   0  0  0  0  0  0
  -22.8075  -29.3812   22.4530 C   0  0  0  0  0  0
  -18.0380  -28.1459   22.8415 C   0  0  0  0  0  0
  -24.1496  -36.6964   23.2674 C   0  0  0  0  0  0
  -26.2153  -30.1865   21.4701 C   0  0  0  0  0  0
  -26.2727  -28.6642   20.8380 C   0  0  0  0  0  0
  -27.3102  -27.4712   20.8534 C   0  0  0  0  0  0
  -26.0411  -26.1320   19.5170 C   0  0  0  0  0  0
  -25.0449  -27.2082   19.4599 C   0  0  0  0  0  0
  -23.9078  -29.4908   20.1337 C   0  0  0  0  0  0
  -25.4173  -36.2639   24.0229 C   0  0  1  0  0  0
  -20.6046  -28.3840   23.1015 C   0  0  2  0  0  0
  -20.6802  -26.9431   22.5424 C   0  0  0  0  0  0
  -19.5796  -26.6342   21.5226 C   0  0  0  0  0  0
  -18.1977  -26.7971   22.1603 C   0  0  0  0  0  0
  -19.1663  -28.8992   23.2672 C   0  0  0  0  0  0
  -18.9559  -30.1557   23.8748 C   0  0  0  0  0  0
  -17.6542  -30.6621   24.0534 C   0  0  0  0  0  0
  -25.9194  -34.9047   23.4773 C   0  0  0  0  0  0
  -16.5426  -29.9091   23.6369 C   0  0  0  0  0  0
  -16.7356  -28.6519   23.0377 C   0  0  0  0  0  0
  -26.4707  -31.6394   25.0652 C   0  0  0  0  0  0
  -25.3584  -31.3910   26.1129 C   0  0  0  0  0  0
  -27.0767  -30.2670   24.7081 C   0  0  0  0  0  0
  -27.6007  -32.4445   25.7504 C   0  0  0  0  0  0
  -27.5537  -37.1633   24.8467 C   0  0  0  0  0  0
  -21.4661  -29.2929   22.3254 N   0  0  0  0  0  0
  -26.4237  -37.3481   23.9407 N   0  0  0  0  0  0
  -24.8952  -30.7737   22.0590 N   0  0  0  0  0  0
  -23.4160  -28.7557   23.3232 O   0  0  0  0  0  0
  -28.1906  -24.4200   20.2945 O   0  0  0  0  0  0
  -26.5952  -34.8776   22.4472 O   0  0  0  0  0  0
  -23.6414  -32.0495   23.5364 O   0  0  0  0  0  0
  -28.2884  -22.5118   20.2813 C   0  0  0  0  0  0
  -29.0433  -20.8873   20.2776 C   0  0  0  0  0  0
  -30.5670  -20.9862   20.2612 C   0  0  0  0  0  0
  -28.9329  -18.9918   20.2869 O   0  0  0  0  0  0
  -31.2037  -14.2809   19.0955 H   0  0  0  0  0  0
  -30.6809  -13.2479   20.3602 H   0  0  0  0  0  0
  -30.2481  -12.2025   18.1086 H   0  0  0  0  0  0
  -29.3928  -13.6272   17.5795 H   0  0  0  0  0  0
  -28.4658  -11.5183   19.5299 H   0  0  0  0  0  0
  -27.6319  -12.0982   18.0993 H   0  0  0  0  0  0
  -27.2930  -14.2207   19.0828 H   0  0  0  0  0  0
  -28.9040  -13.5488   21.5813 H   0  0  0  0  0  0
  -27.8279  -14.8909   21.4594 H   0  0  0  0  0  0
  -25.2883   -9.5700   22.4741 H   0  0  0  0  0  0
  -24.0056   -7.4693   22.7491 H   0  0  0  0  0  0
  -21.0946   -8.8853   19.8945 H   0  0  0  0  0  0
  -22.3864  -10.9694   19.6118 H   0  0  0  0  0  0
  -21.2040   -7.6168   23.9727 H   0  0  0  0  0  0
  -21.1487   -6.0529   25.9075 H   0  0  0  0  0  0
  -22.0585   -2.7626   23.2828 H   0  0  0  0  0  0
  -22.4026  -11.9716   22.4910 H   0  0  0  0  0  0
  -21.0904  -13.0935   22.2707 H   0  0  0  0  0  0
  -24.5535  -15.8645   20.5457 H   0  0  0  0  0  0
  -26.1813  -15.6908   20.1197 H   0  0  0  0  0  0
  -26.7937  -32.4365   23.0516 H   0  0  0  0  0  0
  -24.9934  -33.8801   24.9523 H   0  0  0  0  0  0
  -22.9848  -31.1253   21.2049 H   0  0  0  0  0  0
  -23.3791  -35.9255   23.3224 H   0  0  0  0  0  0
  -24.3536  -36.8785   22.2112 H   0  0  0  0  0  0
  -23.7232  -37.6072   23.6889 H   0  0  0  0  0  0
  -26.4925  -30.8568   20.6555 H   0  0  0  0  0  0
  -27.0425  -30.2772   22.1595 H   0  0  0  0  0  0
  -28.1988  -27.6850   21.4302 H   0  0  0  0  0  0
  -25.7683  -25.2638   18.9339 H   0  0  0  0  0  0
  -24.1711  -27.0130   18.8534 H   0  0  0  0  0  0
  -24.1417  -30.2152   19.3528 H   0  0  0  0  0  0
  -22.9987  -28.9918   19.7942 H   0  0  0  0  0  0
  -25.1420  -36.1294   25.0715 H   0  0  0  0  0  0
  -21.0094  -28.3519   24.1157 H   0  0  0  0  0  0
  -20.5589  -26.2485   23.3751 H   0  0  0  0  0  0
  -21.6659  -26.7253   22.1294 H   0  0  0  0  0  0
  -19.6937  -25.6214   21.1349 H   0  0  0  0  0  0
  -19.6769  -27.3073   20.6697 H   0  0  0  0  0  0
  -17.4254  -26.6722   21.3998 H   0  0  0  0  0  0
  -18.0332  -26.0148   22.9027 H   0  0  0  0  0  0
  -19.8038  -30.7404   24.2057 H   0  0  0  0  0  0
  -17.5092  -31.6285   24.5168 H   0  0  0  0  0  0
  -15.5421  -30.2950   23.7779 H   0  0  0  0  0  0
  -15.8755  -28.0792   22.7175 H   0  0  0  0  0  0
  -24.5846  -30.7187   25.7401 H   0  0  0  0  0  0
  -24.8699  -32.3189   26.4112 H   0  0  0  0  0  0
  -25.7594  -30.9357   27.0193 H   0  0  0  0  0  0
  -26.3604  -29.6029   24.2243 H   0  0  0  0  0  0
  -27.4073  -29.7446   25.6069 H   0  0  0  0  0  0
  -27.9620  -30.3654   24.0800 H   0  0  0  0  0  0
  -27.2449  -33.3907   26.1594 H   0  0  0  0  0  0
  -28.4051  -32.6751   25.0506 H   0  0  0  0  0  0
  -28.0419  -31.8921   26.5811 H   0  0  0  0  0  0
  -28.2480  -37.9992   24.7509 H   0  0  0  0  0  0
  -28.1104  -36.2502   24.6302 H   0  0  0  0  0  0
  -27.2248  -37.1260   25.8867 H   0  0  0  0  0  0
  -21.0150  -29.8454   21.6095 H   0  0  0  0  0  0
  -25.9997  -38.2495   24.1430 H   0  0  0  0  0  0
  -29.3197  -22.8034   20.2574 H   0  0  0  0  0  0
  -30.9123  -21.5071   19.3671 H   0  0  0  0  0  0
  -31.0332  -20.0011   20.2640 H   0  0  0  0  0  0
  -30.9301  -21.5205   21.1402 H   0  0  0  0  0  0
  1 25  1  0  0  0
  1 30  2  0  0  0
  1 74  1  0  0  0
  2  3  1  0  0  0
  2 25  1  0  0  0
  2 75  1  0  0  0
  2 76  1  0  0  0
  3  4  1  0  0  0
  3 77  1  0  0  0
  3 78  1  0  0  0
  4  5  1  0  0  0
  4 79  1  0  0  0
  4 80  1  0  0  0
  5  6  1  0  0  0
  5 26  1  0  0  0
  5 81  1  0  0  0
  6 25  1  0  0  0
  6 82  1  0  0  0
  6 83  1  0  0  0
  7  8  2  0  0  0
  7 26  1  0  0  0
  7 29  1  0  0  0
  8  9  1  0  0  0
  8 22  1  0  0  0
  9 10  1  0  0  0
  9 27  2  0  0  0
 10 11  2  0  0  0
 10 15  1  0  0  0
 11 12  1  0  0  0
 11 84  1  0  0  0
 12 13  2  0  0  0
 12 85  1  0  0  0
 13 14  1  0  0  0
 13 31  1  0  0  0
 14 15  2  0  0  0
 14 86  1  0  0  0
 15 87  1  0  0  0
 16 17  2  0  0  0
 16 21  1  0  0  0
 16 31  1  0  0  0
 17 18  1  0  0  0
 17 88  1  0  0  0
 18 19  2  0  0  0
 18 89  1  0  0  0
 19 20  1  0  0  0
 19 24  1  0  0  0
 20 21  2  0  0  0
 20 90  1  0  0  0
 21 23  1  0  0  0
 22 28  1  0  0  0
 22 32  2  0  0  0
 26 27  1  0  0  0
 28 91  1  0  0  0
 28 92  1  0  0  0
 29 93  1  0  0  0
 29 94  1  0  0  0
 33 34  1  0  0  0
 33 66  1  0  0  0
 33 70  2  0  0  0
 34 36  1  0  0  0
 34 59  1  0  0  0
 34 95  1  0  0  0
 35 44  2  0  0  0
 35 45  1  0  0  0
 35 68  1  0  0  0
 36 56  1  0  0  0
 36 96  1  0  0  0
 37 39  1  0  0  0
 37 47  1  0  0  0
 37 66  1  0  0  0
 37 97  1  0  0  0
 38 43  2  0  0  0
 38 46  1  0  0  0
 38 47  1  0  0  0
 39 64  1  0  0  0
 39 67  2  0  0  0
 40 52  1  0  0  0
 40 53  2  0  0  0
 40 58  1  0  0  0
 41 98  1  0  0  0
 41 99  1  0  0  0
 41100  1  0  0  0
 41 48  1  0  0  0
 42 43  1  0  0  0
 42 66  1  0  0  0
 42101  1  0  0  0
 42102  1  0  0  0
 43 44  1  0  0  0
 44103  1  0  0  0
 45 46  2  0  0  0
 45104  1  0  0  0
 46105  1  0  0  0
 47106  1  0  0  0
 47107  1  0  0  0
 48 56  1  0  0  0
 48 65  1  0  0  0
 48108  1  0  0  0
 49 50  1  0  0  0
 49 53  1  0  0  0
 49 64  1  0  0  0
 49109  1  0  0  0
 50 51  1  0  0  0
 50110  1  0  0  0
 50111  1  0  0  0
 51 52  1  0  0  0
 51112  1  0  0  0
 51113  1  0  0  0
 52114  1  0  0  0
 52115  1  0  0  0
 53 54  1  0  0  0
 54 55  2  0  0  0
 54116  1  0  0  0
 55 57  1  0  0  0
 55117  1  0  0  0
 56 69  2  0  0  0
 57 58  2  0  0  0
 57118  1  0  0  0
 58119  1  0  0  0
 59 60  1  0  0  0
 59 61  1  0  0  0
 59 62  1  0  0  0
 60120  1  0  0  0
 60121  1  0  0  0
 60122  1  0  0  0
 61123  1  0  0  0
 61124  1  0  0  0
 61125  1  0  0  0
 62126  1  0  0  0
 62127  1  0  0  0
 62128  1  0  0  0
 63 65  1  0  0  0
 63129  1  0  0  0
 63130  1  0  0  0
 63131  1  0  0  0
 64132  1  0  0  0
 65133  1  0  0  0
 68 71  1  0  0  0
 71 72  2  0  0  0
 71134  1  0  0  0
 72 73  1  0  0  0
 72 74  1  0  0  0
 73135  1  0  0  0
 73136  1  0  0  0
 73137  1  0  0  0
M  ISO  4   1 100  68 101  71 101  74 100
M  END
> <chiral flag>
0

> <version>
0

> <s_m_source_file>
/data/baiqing/PycharmProjects/Reinvent-master-3.2/result/LINK_invent/BTK/process_docking_weight1_custom_product_contain_oxygen_bond_distance_aromatic_linkinvent_7_9_3/rearranged_h_0084.sdf

> <i_m_source_file_index>
67

> <r_mmod_Potential_Energy-OPLS-2005>
7988.634765625

> <r_mmod_Stretch_Energy-OPLS-2005>
3526.09643554688

> <r_mmod_Bend_Energy-OPLS-2005>
1356.5703125

> <r_mmod_Torsional_Energy-OPLS-2005>
189.652374267578

> <r_mmod_Improper_Torsional_Energy-OPLS-2005>
3.83672451972961

> <r_mmod_Van_der_Waal_Energy-OPLS-2005>
130.638305664062

> <r_mmod_Electrostatic_Energy-OPLS-2005>
-279.347076416016

> <r_mmod_Solvation_Energy-OPLS-2005>
-190.71989440918

> <b_mmod_Minimization_Converged-OPLS-2005>
0

> <r_mmod_RMS_Derivative-OPLS-2005>
0.0603982545435429

$$$$
67
                    3D
 Structure written by MMmdl.
154163  0  0  1  0            999 V2000
  -30.5795  -14.7531   20.4917 C   0  0  0  0  0  0
  -30.4500  -12.4618   19.4711 C   0  0  0  0  0  0
  -29.5158  -12.5169   18.2393 C   0  0  0  0  0  0
  -28.0428  -12.3301   18.6549 C   0  0  0  0  0  0
  -27.6511  -13.2227   19.8610 C   0  0  2  0  0  0
  -28.6967  -13.1217   20.9943 C   0  0  0  0  0  0
  -25.2555  -13.8185   20.5707 C   0  0  0  0  0  0
  -24.1826  -13.0437   20.9195 C   0  0  0  0  0  0
  -24.6405  -11.6911   20.8742 C   0  0  0  0  0  0
  -23.9075  -10.4291   21.0410 C   0  0  0  0  0  0
  -24.3626   -9.4206   21.9188 C   0  0  0  0  0  0
  -23.6295   -8.2244   22.0757 C   0  0  0  0  0  0
  -22.4274   -8.0288   21.3552 C   0  0  0  0  0  0
  -21.9914   -9.0260   20.4652 C   0  0  0  0  0  0
  -22.7247  -10.2133   20.3060 C   0  0  0  0  0  0
  -21.6849   -6.0738   22.5285 C   0  0  0  0  0  0
  -21.4010   -6.5644   23.8218 C   0  0  0  0  0  0
  -21.3656   -5.6803   24.9179 C   0  0  0  0  0  0
  -21.6050   -4.3063   24.7230 C   0  0  0  0  0  0
  -21.8819   -3.8150   23.4349 C   0  0  0  0  0  0
  -21.9193   -4.6965   22.3404 C   0  0  0  0  0  0
  -22.7844  -13.5223   21.1862 C   0  0  0  0  0  0
  -22.1664   -4.2151   21.0976 F   0  0  0  0  0  0
  -21.5626   -3.4547   25.7740 F   0  0  0  0  0  0
  -30.0019  -13.5005   20.4287 N   0  0  0  0  0  0
  -26.2985  -12.9374   20.3324 N   0  0  0  0  0  0
  -25.9340  -11.6525   20.5772 N   0  0  0  0  0  0
  -22.0487  -12.8216   22.0417 N   0  0  0  0  0  0
  -25.4260  -15.1911   20.4142 N   0  0  0  0  0  0
  -31.7414  -14.9180   20.1079 O   0  0  0  0  0  0
  -21.6641   -6.8874   21.4242 O   0  0  0  0  0  0
  -22.3527  -14.5528   20.6710 O   0  0  0  0  0  0
  -24.6329  -31.8556   23.1972 C   0  0  0  0  0  0
  -25.9153  -32.4762   23.8323 C   0  0  1  0  0  0
  -27.2345  -27.2710   20.1334 C   0  0  0  0  0  0
  -25.5939  -33.8559   24.2262 N   0  0  0  0  0  0
  -23.4312  -30.4779   21.5394 C   0  0  2  0  0  0
  -24.8841  -28.9222   20.1128 C   0  0  0  0  0  0
  -22.7518  -29.4618   22.4894 C   0  0  0  0  0  0
  -18.0302  -28.1413   22.8494 C   0  0  0  0  0  0
  -24.1477  -36.7274   23.2627 C   0  0  0  0  0  0
  -25.9769  -30.7719   21.3769 C   0  0  0  0  0  0
  -26.0549  -29.3923   20.7246 C   0  0  0  0  0  0
  -27.2354  -28.5791   20.7254 C   0  0  0  0  0  0
  -26.0432  -26.8668   19.4945 C   0  0  0  0  0  0
  -24.8827  -27.6659   19.4876 C   0  0  0  0  0  0
  -23.6534  -29.8084   20.1567 C   0  0  0  0  0  0
  -25.4106  -36.3067   24.0317 C   0  0  1  0  0  0
  -20.5913  -28.3741   23.1265 C   0  0  2  0  0  0
  -20.6785  -26.9456   22.5406 C   0  0  0  0  0  0
  -19.5755  -26.6410   21.5222 C   0  0  0  0  0  0
  -18.1939  -26.7957   22.1636 C   0  0  0  0  0  0
  -19.1554  -28.8896   23.2875 C   0  0  0  0  0  0
  -18.9476  -30.1495   23.8903 C   0  0  0  0  0  0
  -17.6468  -30.6608   24.0588 C   0  0  0  0  0  0
  -25.9060  -34.9441   23.5096 C   0  0  0  0  0  0
  -16.5364  -29.9112   23.6334 C   0  0  0  0  0  0
  -16.7285  -28.6530   23.0355 C   0  0  0  0  0  0
  -26.4521  -31.6578   25.0709 C   0  0  0  0  0  0
  -25.3743  -31.3737   26.1430 C   0  0  0  0  0  0
  -27.0362  -30.2987   24.6197 C   0  0  0  0  0  0
  -27.6073  -32.4306   25.7498 C   0  0  0  0  0  0
  -27.5587  -37.1773   24.8452 C   0  0  0  0  0  0
  -21.4227  -29.3074   22.3636 N   0  0  0  0  0  0
  -26.4271  -37.3779   23.9429 N   0  0  0  0  0  0
  -24.6992  -31.0526   22.0944 N   0  0  0  0  0  0
  -23.4205  -28.8160   23.3000 O   0  0  0  0  0  0
  -28.2956  -26.3362   20.1683 O   0  0  0  0  0  0
  -26.5640  -34.8926   22.4667 O   0  0  0  0  0  0
  -23.5473  -32.1364   23.7272 O   0  0  0  0  0  0
  -28.7372  -19.4205   21.6937 C   0  0  0  0  0  0
  -30.1357  -19.5460   19.8161 C   0  0  0  0  0  0
  -28.9301  -17.9987   21.7910 C   0  0  0  0  0  0
  -29.2983  -20.2909   20.7126 C   0  0  0  0  0  0
  -29.7358  -17.2799   20.8509 C   0  0  0  0  0  0
  -30.3439  -18.1146   19.8620 C   0  0  0  0  0  0
  -28.4964  -23.7764   20.6554 C   0  0  0  0  0  0
  -28.0772  -22.6052   21.4194 C   0  0  0  0  0  0
  -27.1892  -17.6785   23.5965 C   0  0  0  0  0  0
  -28.2389  -17.2548   22.8700 C   0  0  0  0  0  0
  -28.0186  -25.0827   20.7876 C   0  0  0  0  0  0
  -29.4877  -22.8628   19.8711 C   0  0  0  0  0  0
  -28.9647  -21.7525   20.7258 N   0  0  0  0  0  0
  -29.7539  -15.7862   20.9044 N   0  0  0  0  0  0
  -27.2493  -22.4887   22.2980 O   0  0  0  0  0  0
  -31.1070  -17.5457   18.8989 F   0  0  0  0  0  0
  -31.4867  -12.6091   19.1635 H   0  0  0  0  0  0
  -30.4141  -11.4765   19.9387 H   0  0  0  0  0  0
  -29.7998  -11.7502   17.5167 H   0  0  0  0  0  0
  -29.6343  -13.4735   17.7287 H   0  0  0  0  0  0
  -27.9061  -11.2803   18.9171 H   0  0  0  0  0  0
  -27.3828  -12.5220   17.8078 H   0  0  0  0  0  0
  -27.6557  -14.2490   19.4940 H   0  0  0  0  0  0
  -28.7364  -12.1079   21.3936 H   0  0  0  0  0  0
  -28.4216  -13.7584   21.8362 H   0  0  0  0  0  0
  -25.2757   -9.5688   22.4776 H   0  0  0  0  0  0
  -24.0008   -7.4632   22.7476 H   0  0  0  0  0  0
  -21.0849   -8.8778   19.8954 H   0  0  0  0  0  0
  -22.3705  -10.9676   19.6181 H   0  0  0  0  0  0
  -21.1999   -7.6151   23.9720 H   0  0  0  0  0  0
  -21.1482   -6.0528   25.9084 H   0  0  0  0  0  0
  -22.0599   -2.7607   23.2854 H   0  0  0  0  0  0
  -22.4085  -11.9861   22.4787 H   0  0  0  0  0  0
  -21.1119  -13.1270   22.2643 H   0  0  0  0  0  0
  -24.6615  -15.8455   20.5390 H   0  0  0  0  0  0
  -26.2787  -15.6365   20.1010 H   0  0  0  0  0  0
  -26.7222  -32.5433   23.1072 H   0  0  0  0  0  0
  -25.0084  -33.9680   25.0411 H   0  0  0  0  0  0
  -22.7277  -31.3001   21.3894 H   0  0  0  0  0  0
  -23.3744  -35.9598   23.3279 H   0  0  0  0  0  0
  -24.3565  -36.8911   22.2042 H   0  0  0  0  0  0
  -23.7223  -37.6468   23.6661 H   0  0  0  0  0  0
  -26.1085  -31.5281   20.6017 H   0  0  0  0  0  0
  -26.8557  -30.8297   22.0069 H   0  0  0  0  0  0
  -28.1291  -28.9339   21.2184 H   0  0  0  0  0  0
  -26.0020  -25.8958   19.0213 H   0  0  0  0  0  0
  -23.9874  -27.3006   19.0048 H   0  0  0  0  0  0
  -23.7796  -30.5834   19.3992 H   0  0  0  0  0  0
  -22.7752  -29.2388   19.8490 H   0  0  0  0  0  0
  -25.1268  -36.1893   25.0799 H   0  0  0  0  0  0
  -21.0019  -28.3330   24.1380 H   0  0  0  0  0  0
  -20.5708  -26.2354   23.3613 H   0  0  0  0  0  0
  -21.6650  -26.7463   22.1202 H   0  0  0  0  0  0
  -19.6905  -25.6317   21.1258 H   0  0  0  0  0  0
  -19.6682  -27.3229   20.6759 H   0  0  0  0  0  0
  -17.4204  -26.6723   21.4045 H   0  0  0  0  0  0
  -18.0333  -26.0094   22.9029 H   0  0  0  0  0  0
  -19.7949  -30.7330   24.2253 H   0  0  0  0  0  0
  -17.5019  -31.6279   24.5213 H   0  0  0  0  0  0
  -15.5377  -30.3019   23.7651 H   0  0  0  0  0  0
  -15.8680  -28.0855   22.7059 H   0  0  0  0  0  0
  -24.5939  -30.7056   25.7778 H   0  0  0  0  0  0
  -24.8923  -32.2916   26.4800 H   0  0  0  0  0  0
  -25.8064  -30.8965   27.0236 H   0  0  0  0  0  0
  -26.2944  -29.6743   24.1212 H   0  0  0  0  0  0
  -27.4031  -29.7234   25.4710 H   0  0  0  0  0  0
  -27.8829  -30.4238   23.9443 H   0  0  0  0  0  0
  -27.2668  -33.3594   26.2077 H   0  0  0  0  0  0
  -28.3905  -32.6874   25.0357 H   0  0  0  0  0  0
  -28.0724  -31.8433   26.5425 H   0  0  0  0  0  0
  -28.2553  -38.0127   24.7590 H   0  0  0  0  0  0
  -28.1136  -36.2665   24.6143 H   0  0  0  0  0  0
  -27.2321  -37.1267   25.8857 H   0  0  0  0  0  0
  -20.9408  -29.8772   21.6814 H   0  0  0  0  0  0
  -26.0139  -38.2828   24.1509 H   0  0  0  0  0  0
  -28.1146  -19.8924   22.4371 H   0  0  0  0  0  0
  -30.6313  -20.0877   19.0247 H   0  0  0  0  0  0
  -26.7795  -17.0508   24.3762 H   0  0  0  0  0  0
  -26.7093  -18.6348   23.4470 H   0  0  0  0  0  0
  -28.6359  -16.2808   23.1207 H   0  0  0  0  0  0
  -27.2610  -25.2354   21.5451 H   0  0  0  0  0  0
  -30.5531  -23.0279   20.0345 H   0  0  0  0  0  0
  -29.2868  -22.6850   18.8137 H   0  0  0  0  0  0
  -28.9097  -15.4146   21.3090 H   0  0  0  0  0  0
  1 25  1  0  0  0
  1 30  2  0  0  0
  1 84  1  0  0  0
  2  3  1  0  0  0
  2 25  1  0  0  0
  2 87  1  0  0  0
  2 88  1  0  0  0
  3  4  1  0  0  0
  3 89  1  0  0  0
  3 90  1  0  0  0
  4  5  1  0  0  0
  4 91  1  0  0  0
  4 92  1  0  0  0
  5  6  1  0  0  0
  5 26  1  0  0  0
  5 93  1  0  0  0
  6 25  1  0  0  0
  6 94  1  0  0  0
  6 95  1  0  0  0
  7  8  2  0  0  0
  7 26  1  0  0  0
  7 29  1  0  0  0
  8  9  1  0  0  0
  8 22  1  0  0  0
  9 10  1  0  0  0
  9 27  2  0  0  0
 10 11  2  0  0  0
 10 15  1  0  0  0
 11 12  1  0  0  0
 11 96  1  0  0  0
 12 13  2  0  0  0
 12 97  1  0  0  0
 13 14  1  0  0  0
 13 31  1  0  0  0
 14 15  2  0  0  0
 14 98  1  0  0  0
 15 99  1  0  0  0
 16 17  2  0  0  0
 16 21  1  0  0  0
 16 31  1  0  0  0
 17 18  1  0  0  0
 17100  1  0  0  0
 18 19  2  0  0  0
 18101  1  0  0  0
 19 20  1  0  0  0
 19 24  1  0  0  0
 20 21  2  0  0  0
 20102  1  0  0  0
 21 23  1  0  0  0
 22 28  1  0  0  0
 22 32  2  0  0  0
 26 27  1  0  0  0
 28103  1  0  0  0
 28104  1  0  0  0
 29105  1  0  0  0
 29106  1  0  0  0
 33 34  1  0  0  0
 33 66  1  0  0  0
 33 70  2  0  0  0
 34 36  1  0  0  0
 34 59  1  0  0  0
 34107  1  0  0  0
 35 44  2  0  0  0
 35 45  1  0  0  0
 35 68  1  0  0  0
 36 56  1  0  0  0
 36108  1  0  0  0
 37 39  1  0  0  0
 37 47  1  0  0  0
 37 66  1  0  0  0
 37109  1  0  0  0
 38 43  2  0  0  0
 38 46  1  0  0  0
 38 47  1  0  0  0
 39 64  1  0  0  0
 39 67  2  0  0  0
 40 52  1  0  0  0
 40 53  2  0  0  0
 40 58  1  0  0  0
 41110  1  0  0  0
 41111  1  0  0  0
 41112  1  0  0  0
 41 48  1  0  0  0
 42 43  1  0  0  0
 42 66  1  0  0  0
 42113  1  0  0  0
 42114  1  0  0  0
 43 44  1  0  0  0
 44115  1  0  0  0
 45 46  2  0  0  0
 45116  1  0  0  0
 46117  1  0  0  0
 47118  1  0  0  0
 47119  1  0  0  0
 48 56  1  0  0  0
 48 65  1  0  0  0
 48120  1  0  0  0
 49 50  1  0  0  0
 49 53  1  0  0  0
 49 64  1  0  0  0
 49121  1  0  0  0
 50 51  1  0  0  0
 50122  1  0  0  0
 50123  1  0  0  0
 51 52  1  0  0  0
 51124  1  0  0  0
 51125  1  0  0  0
 52126  1  0  0  0
 52127  1  0  0  0
 53 54  1  0  0  0
 54 55  2  0  0  0
 54128  1  0  0  0
 55 57  1  0  0  0
 55129  1  0  0  0
 56 69  2  0  0  0
 57 58  2  0  0  0
 57130  1  0  0  0
 58131  1  0  0  0
 59 60  1  0  0  0
 59 61  1  0  0  0
 59 62  1  0  0  0
 60132  1  0  0  0
 60133  1  0  0  0
 60134  1  0  0  0
 61135  1  0  0  0
 61136  1  0  0  0
 61137  1  0  0  0
 62138  1  0  0  0
 62139  1  0  0  0
 62140  1  0  0  0
 63 65  1  0  0  0
 63141  1  0  0  0
 63142  1  0  0  0
 63143  1  0  0  0
 64144  1  0  0  0
 65145  1  0  0  0
 68 81  1  0  0  0
 71 73  2  0  0  0
 71 74  1  0  0  0
 71146  1  0  0  0
 72 74  2  0  0  0
 72 76  1  0  0  0
 72147  1  0  0  0
 73 75  1  0  0  0
 73 80  1  0  0  0
 74 83  1  0  0  0
 75 76  2  0  0  0
 75 84  1  0  0  0
 76 86  1  0  0  0
 77 78  1  0  0  0
 77 81  2  0  0  0
 77 82  1  0  0  0
 78 83  1  0  0  0
 78 85  2  0  0  0
 79 80  2  0  0  0
 79148  1  0  0  0
 79149  1  0  0  0
 80150  1  0  0  0
 81151  1  0  0  0
 82 83  1  0  0  0
 82152  1  0  0  0
 82153  1  0  0  0
 84154  1  0  0  0
M  ISO  4   1 100  68 101  81 101  84 100
M  END
> <chiral flag>
0

> <version>
0

> <s_m_source_file>
/data/baiqing/PycharmProjects/Reinvent-master-3.2/result/LINK_invent/BTK/process_docking_weight1_custom_product_contain_oxygen_bond_distance_aromatic_linkinvent_7_9_3/rearranged_h_0084.sdf

> <i_m_source_file_index>
68

> <r_mmod_Potential_Energy-OPLS-2005>
215.415512084961

> <r_mmod_Stretch_Energy-OPLS-2005>
112.964630126953

> <r_mmod_Bend_Energy-OPLS-2005>
269.633514404297

> <r_mmod_Torsional_Energy-OPLS-2005>
232.069580078125

> <r_mmod_Improper_Torsional_Energy-OPLS-2005>
3.30153942108154

> <r_mmod_Van_der_Waal_Energy-OPLS-2005>
137.15478515625

> <r_mmod_Electrostatic_Energy-OPLS-2005>
-408.367309570312

> <r_mmod_Solvation_Energy-OPLS-2005>
-218.716415405273

> <b_mmod_Minimization_Converged-OPLS-2005>
0

> <r_mmod_RMS_Derivative-OPLS-2005>
2.13758158683777

$$$$
68
                    3D
 Structure written by MMmdl.
136143  0  0  1  0            999 V2000
  -29.8953  -16.6773   20.2456 C   0  0  0  0  0  0
  -30.3113  -13.8622   19.5589 C   0  0  0  0  0  0
  -29.5849  -12.9926   18.4428 C   0  0  0  0  0  0
  -28.2561  -12.4065   18.9222 C   0  0  0  0  0  0
  -27.5718  -13.4496   19.8145 C   0  0  2  0  0  0
  -28.4893  -14.1918   20.8599 C   0  0  0  0  0  0
  -25.2139  -13.8521   20.5929 C   0  0  0  0  0  0
  -24.1672  -13.0477   20.9334 C   0  0  0  0  0  0
  -24.6570  -11.7053   20.8722 C   0  0  0  0  0  0
  -23.9287  -10.4331   21.0326 C   0  0  0  0  0  0
  -24.3760   -9.4237   21.9140 C   0  0  0  0  0  0
  -23.6378   -8.2296   22.0745 C   0  0  0  0  0  0
  -22.4351   -8.0333   21.3544 C   0  0  0  0  0  0
  -22.0031   -9.0315   20.4633 C   0  0  0  0  0  0
  -22.7419  -10.2165   20.3010 C   0  0  0  0  0  0
  -21.6884   -6.0771   22.5277 C   0  0  0  0  0  0
  -21.4038   -6.5660   23.8215 C   0  0  0  0  0  0
  -21.3666   -5.6804   24.9170 C   0  0  0  0  0  0
  -21.6043   -4.3066   24.7215 C   0  0  0  0  0  0
  -21.8816   -3.8166   23.4333 C   0  0  0  0  0  0
  -21.9202   -4.6992   22.3394 C   0  0  0  0  0  0
  -22.7643  -13.5082   21.1942 C   0  0  0  0  0  0
  -22.1664   -4.2175   21.0972 F   0  0  0  0  0  0
  -21.5623   -3.4544   25.7724 F   0  0  0  0  0  0
  -29.5103  -15.1183   20.1817 N   0  0  0  0  0  0
  -26.2799  -13.0158   20.3430 N   0  0  0  0  0  0
  -25.9583  -11.7060   20.5625 N   0  0  0  0  0  0
  -22.0356  -12.8021   22.0496 N   0  0  0  0  0  0
  -25.3467  -15.2289   20.4358 N   0  0  0  0  0  0
  -31.1417  -16.4277   20.1639 O   0  0  0  0  0  0
  -21.6686   -6.8938   21.4250 O   0  0  0  0  0  0
  -22.3263  -14.5362   20.6781 O   0  0  0  0  0  0
  -24.7525  -31.7112   23.0915 C   0  0  0  0  0  0
  -25.9745  -32.4044   23.7734 C   0  0  1  0  0  0
  -27.2696  -25.9825   20.2736 C   0  0  0  0  0  0
  -25.6017  -33.7911   24.1536 N   0  0  0  0  0  0
  -23.6106  -30.2775   21.4637 C   0  0  2  0  0  0
  -25.0745  -28.4616   20.1426 C   0  0  0  0  0  0
  -22.8068  -29.3838   22.4533 C   0  0  0  0  0  0
  -18.0380  -28.1458   22.8417 C   0  0  0  0  0  0
  -24.1496  -36.6973   23.2673 C   0  0  0  0  0  0
  -26.2123  -30.2047   21.4645 C   0  0  0  0  0  0
  -26.2723  -28.6874   20.8284 C   0  0  0  0  0  0
  -27.3154  -27.5042   20.8402 C   0  0  0  0  0  0
  -26.0339  -26.1500   19.5225 C   0  0  0  0  0  0
  -25.0371  -27.2221   19.4632 C   0  0  0  0  0  0
  -23.9025  -29.5020   20.1331 C   0  0  0  0  0  0
  -25.4172  -36.2650   24.0232 C   0  0  1  0  0  0
  -20.6046  -28.3841   23.1018 C   0  0  2  0  0  0
  -20.6806  -26.9434   22.5422 C   0  0  0  0  0  0
  -19.5798  -26.6344   21.5226 C   0  0  0  0  0  0
  -18.1979  -26.7971   22.1605 C   0  0  0  0  0  0
  -19.1663  -28.8991   23.2675 C   0  0  0  0  0  0
  -18.9559  -30.1557   23.8751 C   0  0  0  0  0  0
  -17.6541  -30.6621   24.0535 C   0  0  0  0  0  0
  -25.9193  -34.9059   23.4780 C   0  0  0  0  0  0
  -16.5426  -29.9091   23.6368 C   0  0  0  0  0  0
  -16.7356  -28.6519   23.0377 C   0  0  0  0  0  0
  -26.4704  -31.6397   25.0649 C   0  0  0  0  0  0
  -25.3589  -31.3904   26.1132 C   0  0  0  0  0  0
  -27.0756  -30.2675   24.7050 C   0  0  0  0  0  0
  -27.6012  -32.4436   25.7501 C   0  0  0  0  0  0
  -27.5540  -37.1637   24.8466 C   0  0  0  0  0  0
  -21.4655  -29.2937   22.3260 N   0  0  0  0  0  0
  -26.4238  -37.3491   23.9409 N   0  0  0  0  0  0
  -24.8917  -30.7821   22.0584 N   0  0  0  0  0  0
  -23.4169  -28.7574   23.3218 O   0  0  0  0  0  0
  -28.1618  -24.4511   20.3213 O   0  0  0  0  0  0
  -26.5943  -34.8782   22.4475 O   0  0  0  0  0  0
  -23.6396  -32.0520   23.5407 O   0  0  0  0  0  0
  -29.0674  -18.5149   20.2707 C   0  0  0  0  0  0
  -29.0964  -20.2798   20.2545 C   0  0  0  0  0  0
  -28.1360  -22.3129   20.2194 C   0  0  0  0  0  0
  -31.2164  -14.2461   19.0880 H   0  0  0  0  0  0
  -30.6971  -13.2144   20.3487 H   0  0  0  0  0  0
  -30.2420  -12.1965   18.0905 H   0  0  0  0  0  0
  -29.3959  -13.6332   17.5802 H   0  0  0  0  0  0
  -28.4561  -11.5063   19.5047 H   0  0  0  0  0  0
  -27.6240  -12.1123   18.0833 H   0  0  0  0  0  0
  -27.3114  -14.2288   19.0960 H   0  0  0  0  0  0
  -28.9385  -13.4929   21.5678 H   0  0  0  0  0  0
  -27.8706  -14.8396   21.4808 H   0  0  0  0  0  0
  -25.2892   -9.5698   22.4740 H   0  0  0  0  0  0
  -24.0058   -7.4697   22.7492 H   0  0  0  0  0  0
  -21.0953   -8.8865   19.8945 H   0  0  0  0  0  0
  -22.3878  -10.9702   19.6117 H   0  0  0  0  0  0
  -21.2041   -7.6169   23.9727 H   0  0  0  0  0  0
  -21.1487   -6.0530   25.9074 H   0  0  0  0  0  0
  -22.0584   -2.7628   23.2826 H   0  0  0  0  0  0
  -22.4055  -11.9726   22.4898 H   0  0  0  0  0  0
  -21.0940  -13.0951   22.2687 H   0  0  0  0  0  0
  -24.5625  -15.8625   20.5475 H   0  0  0  0  0  0
  -26.1882  -15.6908   20.1161 H   0  0  0  0  0  0
  -26.7923  -32.4391   23.0523 H   0  0  0  0  0  0
  -24.9945  -33.8824   24.9547 H   0  0  0  0  0  0
  -22.9790  -31.1312   21.2095 H   0  0  0  0  0  0
  -23.3793  -35.9262   23.3218 H   0  0  0  0  0  0
  -24.3540  -36.8797   22.2111 H   0  0  0  0  0  0
  -23.7229  -37.6079   23.6887 H   0  0  0  0  0  0
  -26.4857  -30.8794   20.6522 H   0  0  0  0  0  0
  -27.0402  -30.2942   22.1535 H   0  0  0  0  0  0
  -28.2030  -27.7204   21.4179 H   0  0  0  0  0  0
  -25.7554  -25.2734   18.9547 H   0  0  0  0  0  0
  -24.1579  -27.0205   18.8666 H   0  0  0  0  0  0
  -24.1332  -30.2286   19.3533 H   0  0  0  0  0  0
  -22.9942  -29.0013   19.7943 H   0  0  0  0  0  0
  -25.1417  -36.1309   25.0717 H   0  0  0  0  0  0
  -21.0097  -28.3518   24.1158 H   0  0  0  0  0  0
  -20.5599  -26.2485   23.3746 H   0  0  0  0  0  0
  -21.6662  -26.7262   22.1288 H   0  0  0  0  0  0
  -19.6940  -25.6217   21.1348 H   0  0  0  0  0  0
  -19.6768  -27.3077   20.6697 H   0  0  0  0  0  0
  -17.4255  -26.6721   21.4000 H   0  0  0  0  0  0
  -18.0336  -26.0147   22.9029 H   0  0  0  0  0  0
  -19.8037  -30.7404   24.2061 H   0  0  0  0  0  0
  -17.5092  -31.6285   24.5168 H   0  0  0  0  0  0
  -15.5421  -30.2950   23.7776 H   0  0  0  0  0  0
  -15.8756  -28.0792   22.7174 H   0  0  0  0  0  0
  -24.5842  -30.7194   25.7402 H   0  0  0  0  0  0
  -24.8716  -32.3182   26.4137 H   0  0  0  0  0  0
  -25.7604  -30.9332   27.0185 H   0  0  0  0  0  0
  -26.3588  -29.6050   24.2195 H   0  0  0  0  0  0
  -27.4061  -29.7429   25.6026 H   0  0  0  0  0  0
  -27.9605  -30.3664   24.0765 H   0  0  0  0  0  0
  -27.2459  -33.3893   26.1607 H   0  0  0  0  0  0
  -28.4049  -32.6750   25.0498 H   0  0  0  0  0  0
  -28.0432  -31.8899   26.5795 H   0  0  0  0  0  0
  -28.2479  -38.0001   24.7516 H   0  0  0  0  0  0
  -28.1112  -36.2512   24.6288 H   0  0  0  0  0  0
  -27.2254  -37.1248   25.8866 H   0  0  0  0  0  0
  -21.0136  -29.8471   21.6113 H   0  0  0  0  0  0
  -26.0000  -38.2504   24.1437 H   0  0  0  0  0  0
  -28.0123  -18.2840   20.2921 H   0  0  0  0  0  0
  -30.1454  -20.5360   20.2138 H   0  0  0  0  0  0
  -27.3177  -22.1210   20.9132 H   0  0  0  0  0  0
  -27.6600  -22.2257   19.2428 H   0  0  0  0  0  0
  1 25  1  0  0  0
  1 30  2  0  0  0
  1 71  1  0  0  0
  2  3  1  0  0  0
  2 25  1  0  0  0
  2 74  1  0  0  0
  2 75  1  0  0  0
  3  4  1  0  0  0
  3 76  1  0  0  0
  3 77  1  0  0  0
  4  5  1  0  0  0
  4 78  1  0  0  0
  4 79  1  0  0  0
  5  6  1  0  0  0
  5 26  1  0  0  0
  5 80  1  0  0  0
  6 25  1  0  0  0
  6 81  1  0  0  0
  6 82  1  0  0  0
  7  8  2  0  0  0
  7 26  1  0  0  0
  7 29  1  0  0  0
  8  9  1  0  0  0
  8 22  1  0  0  0
  9 10  1  0  0  0
  9 27  2  0  0  0
 10 11  2  0  0  0
 10 15  1  0  0  0
 11 12  1  0  0  0
 11 83  1  0  0  0
 12 13  2  0  0  0
 12 84  1  0  0  0
 13 14  1  0  0  0
 13 31  1  0  0  0
 14 15  2  0  0  0
 14 85  1  0  0  0
 15 86  1  0  0  0
 16 17  2  0  0  0
 16 21  1  0  0  0
 16 31  1  0  0  0
 17 18  1  0  0  0
 17 87  1  0  0  0
 18 19  2  0  0  0
 18 88  1  0  0  0
 19 20  1  0  0  0
 19 24  1  0  0  0
 20 21  2  0  0  0
 20 89  1  0  0  0
 21 23  1  0  0  0
 22 28  1  0  0  0
 22 32  2  0  0  0
 26 27  1  0  0  0
 28 90  1  0  0  0
 28 91  1  0  0  0
 29 92  1  0  0  0
 29 93  1  0  0  0
 33 34  1  0  0  0
 33 66  1  0  0  0
 33 70  2  0  0  0
 34 36  1  0  0  0
 34 59  1  0  0  0
 34 94  1  0  0  0
 35 44  2  0  0  0
 35 45  1  0  0  0
 35 68  1  0  0  0
 36 56  1  0  0  0
 36 95  1  0  0  0
 37 39  1  0  0  0
 37 47  1  0  0  0
 37 66  1  0  0  0
 37 96  1  0  0  0
 38 43  2  0  0  0
 38 46  1  0  0  0
 38 47  1  0  0  0
 39 64  1  0  0  0
 39 67  2  0  0  0
 40 52  1  0  0  0
 40 53  2  0  0  0
 40 58  1  0  0  0
 41 97  1  0  0  0
 41 98  1  0  0  0
 41 99  1  0  0  0
 41 48  1  0  0  0
 42 43  1  0  0  0
 42 66  1  0  0  0
 42100  1  0  0  0
 42101  1  0  0  0
 43 44  1  0  0  0
 44102  1  0  0  0
 45 46  2  0  0  0
 45103  1  0  0  0
 46104  1  0  0  0
 47105  1  0  0  0
 47106  1  0  0  0
 48 56  1  0  0  0
 48 65  1  0  0  0
 48107  1  0  0  0
 49 50  1  0  0  0
 49 53  1  0  0  0
 49 64  1  0  0  0
 49108  1  0  0  0
 50 51  1  0  0  0
 50109  1  0  0  0
 50110  1  0  0  0
 51 52  1  0  0  0
 51111  1  0  0  0
 51112  1  0  0  0
 52113  1  0  0  0
 52114  1  0  0  0
 53 54  1  0  0  0
 54 55  2  0  0  0
 54115  1  0  0  0
 55 57  1  0  0  0
 55116  1  0  0  0
 56 69  2  0  0  0
 57 58  2  0  0  0
 57117  1  0  0  0
 58118  1  0  0  0
 59 60  1  0  0  0
 59 61  1  0  0  0
 59 62  1  0  0  0
 60119  1  0  0  0
 60120  1  0  0  0
 60121  1  0  0  0
 61122  1  0  0  0
 61123  1  0  0  0
 61124  1  0  0  0
 62125  1  0  0  0
 62126  1  0  0  0
 62127  1  0  0  0
 63 65  1  0  0  0
 63128  1  0  0  0
 63129  1  0  0  0
 63130  1  0  0  0
 64131  1  0  0  0
 65132  1  0  0  0
 68 73  1  0  0  0
 71 72  2  0  0  0
 71133  1  0  0  0
 72 73  1  0  0  0
 72134  1  0  0  0
 73135  1  0  0  0
 73136  1  0  0  0
M  ISO  4   1 100  68 101  71 100  73 101
M  END
> <chiral flag>
0

> <version>
0

> <s_m_source_file>
/data/baiqing/PycharmProjects/Reinvent-master-3.2/result/LINK_invent/BTK/process_docking_weight1_custom_product_contain_oxygen_bond_distance_aromatic_linkinvent_7_9_3/rearranged_h_0084.sdf

> <i_m_source_file_index>
69

> <r_mmod_Potential_Energy-OPLS-2005>
7263.4912109375

> <r_mmod_Stretch_Energy-OPLS-2005>
3199.8466796875

> <r_mmod_Bend_Energy-OPLS-2005>
1129.666015625

> <r_mmod_Torsional_Energy-OPLS-2005>
204.741165161133

> <r_mmod_Improper_Torsional_Energy-OPLS-2005>
3.4680187702179

> <r_mmod_Van_der_Waal_Energy-OPLS-2005>
121.188369750977

> <r_mmod_Electrostatic_Energy-OPLS-2005>
-314.3125

> <r_mmod_Solvation_Energy-OPLS-2005>
-201.870422363281

> <b_mmod_Minimization_Converged-OPLS-2005>
1

> <r_mmod_RMS_Derivative-OPLS-2005>
0.047538124024868

$$$$
69
                    3D
 Structure written by MMmdl.
153162  0  0  1  0            999 V2000
  -30.5983  -14.6959   20.4870 C   0  0  0  0  0  0
  -30.4467  -12.4280   19.4574 C   0  0  0  0  0  0
  -29.5122  -12.5203   18.2289 C   0  0  0  0  0  0
  -28.0367  -12.3452   18.6416 C   0  0  0  0  0  0
  -27.6528  -13.2202   19.8642 C   0  0  2  0  0  0
  -28.7008  -13.0918   20.9939 C   0  0  0  0  0  0
  -25.2544  -13.8148   20.5668 C   0  0  0  0  0  0
  -24.1817  -13.0417   20.9175 C   0  0  0  0  0  0
  -24.6401  -11.6895   20.8739 C   0  0  0  0  0  0
  -23.9069  -10.4282   21.0404 C   0  0  0  0  0  0
  -24.3616   -9.4203   21.9187 C   0  0  0  0  0  0
  -23.6290   -8.2242   22.0755 C   0  0  0  0  0  0
  -22.4276   -8.0279   21.3542 C   0  0  0  0  0  0
  -21.9911   -9.0250   20.4645 C   0  0  0  0  0  0
  -22.7240  -10.2126   20.3054 C   0  0  0  0  0  0
  -21.6850   -6.0736   22.5281 C   0  0  0  0  0  0
  -21.4012   -6.5640   23.8213 C   0  0  0  0  0  0
  -21.3663   -5.6793   24.9174 C   0  0  0  0  0  0
  -21.6046   -4.3055   24.7225 C   0  0  0  0  0  0
  -21.8819   -3.8147   23.4345 C   0  0  0  0  0  0
  -21.9191   -4.6964   22.3403 C   0  0  0  0  0  0
  -22.7842  -13.5224   21.1837 C   0  0  0  0  0  0
  -22.1659   -4.2154   21.0981 F   0  0  0  0  0  0
  -21.5632   -3.4539   25.7737 F   0  0  0  0  0  0
  -30.0111  -13.4540   20.4285 N   0  0  0  0  0  0
  -26.2995  -12.9346   20.3340 N   0  0  0  0  0  0
  -25.9338  -11.6499   20.5774 N   0  0  0  0  0  0
  -22.0478  -12.8227   22.0392 N   0  0  0  0  0  0
  -25.4207  -15.1861   20.4062 N   0  0  0  0  0  0
  -31.7619  -14.8650   20.1104 O   0  0  0  0  0  0
  -21.6636   -6.8877   21.4241 O   0  0  0  0  0  0
  -22.3535  -14.5539   20.6696 O   0  0  0  0  0  0
  -24.6286  -31.8575   23.2007 C   0  0  0  0  0  0
  -25.9125  -32.4767   23.8349 C   0  0  1  0  0  0
  -27.2322  -27.3004   20.1301 C   0  0  0  0  0  0
  -25.5936  -33.8570   24.2280 N   0  0  0  0  0  0
  -23.4250  -30.4782   21.5427 C   0  0  2  0  0  0
  -24.8763  -28.9274   20.1130 C   0  0  0  0  0  0
  -22.7491  -29.4609   22.4930 C   0  0  0  0  0  0
  -18.0288  -28.1395   22.8489 C   0  0  0  0  0  0
  -24.1489  -36.7281   23.2638 C   0  0  0  0  0  0
  -25.9666  -30.7821   21.3751 C   0  0  0  0  0  0
  -26.0444  -29.4057   20.7221 C   0  0  0  0  0  0
  -27.2271  -28.6037   20.7211 C   0  0  0  0  0  0
  -26.0445  -26.8784   19.4948 C   0  0  0  0  0  0
  -24.8786  -27.6690   19.4897 C   0  0  0  0  0  0
  -23.6441  -29.8094   20.1592 C   0  0  0  0  0  0
  -25.4118  -36.3076   24.0328 C   0  0  1  0  0  0
  -20.5891  -28.3699   23.1281 C   0  0  2  0  0  0
  -20.6776  -26.9416   22.5418 C   0  0  0  0  0  0
  -19.5750  -26.6389   21.5221 C   0  0  0  0  0  0
  -18.1926  -26.7944   22.1618 C   0  0  0  0  0  0
  -19.1541  -28.8865   23.2881 C   0  0  0  0  0  0
  -18.9462  -30.1469   23.8895 C   0  0  0  0  0  0
  -17.6460  -30.6595   24.0567 C   0  0  0  0  0  0
  -25.9055  -34.9443   23.5107 C   0  0  0  0  0  0
  -16.5352  -29.9089   23.6334 C   0  0  0  0  0  0
  -16.7274  -28.6508   23.0353 C   0  0  0  0  0  0
  -26.4503  -31.6576   25.0719 C   0  0  0  0  0  0
  -25.3736  -31.3703   26.1442 C   0  0  0  0  0  0
  -27.0342  -30.2997   24.6179 C   0  0  0  0  0  0
  -27.6076  -32.4296   25.7486 C   0  0  0  0  0  0
  -27.5585  -37.1795   24.8462 C   0  0  0  0  0  0
  -21.4200  -29.3048   22.3672 N   0  0  0  0  0  0
  -26.4292  -37.3775   23.9412 N   0  0  0  0  0  0
  -24.6920  -31.0566   22.0967 N   0  0  0  0  0  0
  -23.4198  -28.8154   23.3029 O   0  0  0  0  0  0
  -28.3299  -26.4211   20.1444 O   0  0  0  0  0  0
  -26.5622  -34.8914   22.4673 O   0  0  0  0  0  0
  -23.5442  -32.1381   23.7319 O   0  0  0  0  0  0
  -30.7401  -19.4487   20.1513 C   0  0  0  0  0  0
  -30.8678  -18.0227   20.2700 C   0  0  0  0  0  0
  -29.5279  -20.1697   20.4136 C   0  0  0  0  0  0
  -29.7765  -17.2023   20.6647 C   0  0  0  0  0  0
  -28.4357  -19.3272   20.7890 C   0  0  0  0  0  0
  -28.5685  -17.9071   20.9201 C   0  0  0  0  0  0
  -28.8560  -23.9473   20.2531 C   0  0  0  0  0  0
  -28.5609  -22.5822   20.7636 C   0  0  0  0  0  0
  -28.1171  -25.0785   20.5511 C   0  0  0  0  0  0
  -30.0761  -23.8636   19.3875 C   0  0  0  0  0  0
  -30.4615  -22.3666   19.4430 C   0  0  0  0  0  0
  -29.4464  -21.6561   20.2407 N   0  0  0  0  0  0
  -29.7640  -15.7348   20.8320 N   0  0  0  0  0  0
  -27.6754  -22.3258   21.5834 O   0  0  0  0  0  0
  -27.2049  -19.8505   20.9927 F   0  0  0  0  0  0
  -27.4802  -17.1888   21.2880 F   0  0  0  0  0  0
  -31.4851  -12.5682   19.1534 H   0  0  0  0  0  0
  -30.3992  -11.4341   19.9062 H   0  0  0  0  0  0
  -29.7857  -11.7670   17.4893 H   0  0  0  0  0  0
  -29.6426  -13.4873   17.7400 H   0  0  0  0  0  0
  -27.8845  -11.2916   18.8795 H   0  0  0  0  0  0
  -27.3796  -12.5641   17.7989 H   0  0  0  0  0  0
  -27.6629  -14.2535   19.5159 H   0  0  0  0  0  0
  -28.7264  -12.0715   21.3798 H   0  0  0  0  0  0
  -28.4394  -13.7230   21.8447 H   0  0  0  0  0  0
  -25.2757   -9.5683   22.4769 H   0  0  0  0  0  0
  -23.9997   -7.4637   22.7478 H   0  0  0  0  0  0
  -21.0841   -8.8764   19.8952 H   0  0  0  0  0  0
  -22.3698  -10.9663   19.6163 H   0  0  0  0  0  0
  -21.1999   -7.6146   23.9721 H   0  0  0  0  0  0
  -21.1486   -6.0519   25.9078 H   0  0  0  0  0  0
  -22.0597   -2.7611   23.2840 H   0  0  0  0  0  0
  -22.4077  -11.9877   22.4779 H   0  0  0  0  0  0
  -21.1099  -13.1264   22.2592 H   0  0  0  0  0  0
  -24.6551  -15.8369   20.5359 H   0  0  0  0  0  0
  -26.2832  -15.6440   20.1423 H   0  0  0  0  0  0
  -26.7197  -32.5439   23.1101 H   0  0  0  0  0  0
  -25.0111  -33.9716   25.0442 H   0  0  0  0  0  0
  -22.7205  -31.2993   21.3950 H   0  0  0  0  0  0
  -23.3765  -35.9599   23.3287 H   0  0  0  0  0  0
  -24.3584  -36.8914   22.2055 H   0  0  0  0  0  0
  -23.7220  -37.6469   23.6670 H   0  0  0  0  0  0
  -26.0984  -31.5424   20.6038 H   0  0  0  0  0  0
  -26.8463  -30.8354   22.0049 H   0  0  0  0  0  0
  -28.1248  -28.9651   21.2031 H   0  0  0  0  0  0
  -26.0122  -25.9106   19.0147 H   0  0  0  0  0  0
  -23.9851  -27.2972   19.0070 H   0  0  0  0  0  0
  -23.7664  -30.5845   19.4013 H   0  0  0  0  0  0
  -22.7642  -29.2387   19.8562 H   0  0  0  0  0  0
  -25.1299  -36.1926   25.0820 H   0  0  0  0  0  0
  -20.9983  -28.3276   24.1401 H   0  0  0  0  0  0
  -20.5677  -26.2312   23.3624 H   0  0  0  0  0  0
  -21.6643  -26.7443   22.1207 H   0  0  0  0  0  0
  -19.6907  -25.6297   21.1254 H   0  0  0  0  0  0
  -19.6697  -27.3199   20.6751 H   0  0  0  0  0  0
  -17.4210  -26.6728   21.4004 H   0  0  0  0  0  0
  -18.0292  -26.0073   22.8992 H   0  0  0  0  0  0
  -19.7936  -30.7295   24.2258 H   0  0  0  0  0  0
  -17.5006  -31.6273   24.5167 H   0  0  0  0  0  0
  -15.5350  -30.2990   23.7654 H   0  0  0  0  0  0
  -15.8675  -28.0826   22.7067 H   0  0  0  0  0  0
  -24.5962  -30.6986   25.7780 H   0  0  0  0  0  0
  -24.8863  -32.2849   26.4829 H   0  0  0  0  0  0
  -25.8070  -30.8935   27.0243 H   0  0  0  0  0  0
  -26.2910  -29.6743   24.1218 H   0  0  0  0  0  0
  -27.4047  -29.7259   25.4685 H   0  0  0  0  0  0
  -27.8776  -30.4279   23.9391 H   0  0  0  0  0  0
  -27.2723  -33.3621   26.2036 H   0  0  0  0  0  0
  -28.3902  -32.6804   25.0311 H   0  0  0  0  0  0
  -28.0721  -31.8422   26.5418 H   0  0  0  0  0  0
  -28.2591  -38.0105   24.7529 H   0  0  0  0  0  0
  -28.1089  -36.2637   24.6257 H   0  0  0  0  0  0
  -27.2307  -37.1401   25.8866 H   0  0  0  0  0  0
  -20.9385  -29.8777   21.6881 H   0  0  0  0  0  0
  -26.0169  -38.2844   24.1433 H   0  0  0  0  0  0
  -31.6230  -19.9898   19.8451 H   0  0  0  0  0  0
  -31.8239  -17.5677   20.0522 H   0  0  0  0  0  0
  -27.2527  -25.0053   21.1986 H   0  0  0  0  0  0
  -30.8686  -24.5020   19.7805 H   0  0  0  0  0  0
  -29.8406  -24.1837   18.3718 H   0  0  0  0  0  0
  -31.4416  -22.2555   19.9088 H   0  0  0  0  0  0
  -30.5190  -21.9413   18.4400 H   0  0  0  0  0  0
  -28.8716  -15.3931   21.1542 H   0  0  0  0  0  0
  1 25  1  0  0  0
  1 30  2  0  0  0
  1 83  1  0  0  0
  2  3  1  0  0  0
  2 25  1  0  0  0
  2 87  1  0  0  0
  2 88  1  0  0  0
  3  4  1  0  0  0
  3 89  1  0  0  0
  3 90  1  0  0  0
  4  5  1  0  0  0
  4 91  1  0  0  0
  4 92  1  0  0  0
  5  6  1  0  0  0
  5 26  1  0  0  0
  5 93  1  0  0  0
  6 25  1  0  0  0
  6 94  1  0  0  0
  6 95  1  0  0  0
  7  8  2  0  0  0
  7 26  1  0  0  0
  7 29  1  0  0  0
  8  9  1  0  0  0
  8 22  1  0  0  0
  9 10  1  0  0  0
  9 27  2  0  0  0
 10 11  2  0  0  0
 10 15  1  0  0  0
 11 12  1  0  0  0
 11 96  1  0  0  0
 12 13  2  0  0  0
 12 97  1  0  0  0
 13 14  1  0  0  0
 13 31  1  0  0  0
 14 15  2  0  0  0
 14 98  1  0  0  0
 15 99  1  0  0  0
 16 17  2  0  0  0
 16 21  1  0  0  0
 16 31  1  0  0  0
 17 18  1  0  0  0
 17100  1  0  0  0
 18 19  2  0  0  0
 18101  1  0  0  0
 19 20  1  0  0  0
 19 24  1  0  0  0
 20 21  2  0  0  0
 20102  1  0  0  0
 21 23  1  0  0  0
 22 28  1  0  0  0
 22 32  2  0  0  0
 26 27  1  0  0  0
 28103  1  0  0  0
 28104  1  0  0  0
 29105  1  0  0  0
 29106  1  0  0  0
 33 34  1  0  0  0
 33 66  1  0  0  0
 33 70  2  0  0  0
 34 36  1  0  0  0
 34 59  1  0  0  0
 34107  1  0  0  0
 35 44  2  0  0  0
 35 45  1  0  0  0
 35 68  1  0  0  0
 36 56  1  0  0  0
 36108  1  0  0  0
 37 39  1  0  0  0
 37 47  1  0  0  0
 37 66  1  0  0  0
 37109  1  0  0  0
 38 43  2  0  0  0
 38 46  1  0  0  0
 38 47  1  0  0  0
 39 64  1  0  0  0
 39 67  2  0  0  0
 40 52  1  0  0  0
 40 53  2  0  0  0
 40 58  1  0  0  0
 41110  1  0  0  0
 41111  1  0  0  0
 41112  1  0  0  0
 41 48  1  0  0  0
 42 43  1  0  0  0
 42 66  1  0  0  0
 42113  1  0  0  0
 42114  1  0  0  0
 43 44  1  0  0  0
 44115  1  0  0  0
 45 46  2  0  0  0
 45116  1  0  0  0
 46117  1  0  0  0
 47118  1  0  0  0
 47119  1  0  0  0
 48 56  1  0  0  0
 48 65  1  0  0  0
 48120  1  0  0  0
 49 50  1  0  0  0
 49 53  1  0  0  0
 49 64  1  0  0  0
 49121  1  0  0  0
 50 51  1  0  0  0
 50122  1  0  0  0
 50123  1  0  0  0
 51 52  1  0  0  0
 51124  1  0  0  0
 51125  1  0  0  0
 52126  1  0  0  0
 52127  1  0  0  0
 53 54  1  0  0  0
 54 55  2  0  0  0
 54128  1  0  0  0
 55 57  1  0  0  0
 55129  1  0  0  0
 56 69  2  0  0  0
 57 58  2  0  0  0
 57130  1  0  0  0
 58131  1  0  0  0
 59 60  1  0  0  0
 59 61  1  0  0  0
 59 62  1  0  0  0
 60132  1  0  0  0
 60133  1  0  0  0
 60134  1  0  0  0
 61135  1  0  0  0
 61136  1  0  0  0
 61137  1  0  0  0
 62138  1  0  0  0
 62139  1  0  0  0
 62140  1  0  0  0
 63 65  1  0  0  0
 63141  1  0  0  0
 63142  1  0  0  0
 63143  1  0  0  0
 64144  1  0  0  0
 65145  1  0  0  0
 68 79  1  0  0  0
 71 72  2  0  0  0
 71 73  1  0  0  0
 71146  1  0  0  0
 72 74  1  0  0  0
 72147  1  0  0  0
 73 75  2  0  0  0
 73 82  1  0  0  0
 74 76  2  0  0  0
 74 83  1  0  0  0
 75 76  1  0  0  0
 75 85  1  0  0  0
 76 86  1  0  0  0
 77 78  1  0  0  0
 77 79  2  0  0  0
 77 80  1  0  0  0
 78 82  1  0  0  0
 78 84  2  0  0  0
 79148  1  0  0  0
 80 81  1  0  0  0
 80149  1  0  0  0
 80150  1  0  0  0
 81 82  1  0  0  0
 81151  1  0  0  0
 81152  1  0  0  0
 83153  1  0  0  0
M  ISO  4   1 100  68 101  79 101  83 100
M  END
> <chiral flag>
0

> <version>
0

> <s_m_source_file>
/data/baiqing/PycharmProjects/Reinvent-master-3.2/result/LINK_invent/BTK/process_docking_weight1_custom_product_contain_oxygen_bond_distance_aromatic_linkinvent_7_9_3/rearranged_h_0084.sdf

> <i_m_source_file_index>
70

> <r_mmod_Potential_Energy-OPLS-2005>
182.634262084961

> <r_mmod_Stretch_Energy-OPLS-2005>
95.3067245483398

> <r_mmod_Bend_Energy-OPLS-2005>
176.359664916992

> <r_mmod_Torsional_Energy-OPLS-2005>
256.672821044922

> <r_mmod_Improper_Torsional_Energy-OPLS-2005>
4.07175874710083

> <r_mmod_Van_der_Waal_Energy-OPLS-2005>
141.121719360352

> <r_mmod_Electrostatic_Energy-OPLS-2005>
-349.402191162109

> <r_mmod_Solvation_Energy-OPLS-2005>
-205.00537109375

> <b_mmod_Minimization_Converged-OPLS-2005>
0

> <r_mmod_RMS_Derivative-OPLS-2005>
1.01406478881836

$$$$
70
                    3D
 Structure written by MMmdl.
152161  0  0  1  0            999 V2000
  -30.6237  -14.6486   20.5068 C   0  0  0  0  0  0
  -30.4407  -12.4004   19.4523 C   0  0  0  0  0  0
  -29.5078  -12.5152   18.2255 C   0  0  0  0  0  0
  -28.0307  -12.3522   18.6355 C   0  0  0  0  0  0
  -27.6542  -13.2199   19.8661 C   0  0  2  0  0  0
  -28.7002  -13.0713   20.9947 C   0  0  0  0  0  0
  -25.2530  -13.8154   20.5635 C   0  0  0  0  0  0
  -24.1808  -13.0420   20.9157 C   0  0  0  0  0  0
  -24.6399  -11.6901   20.8746 C   0  0  0  0  0  0
  -23.9077  -10.4284   21.0411 C   0  0  0  0  0  0
  -24.3629   -9.4201   21.9190 C   0  0  0  0  0  0
  -23.6299   -8.2239   22.0760 C   0  0  0  0  0  0
  -22.4280   -8.0280   21.3551 C   0  0  0  0  0  0
  -21.9917   -9.0253   20.4654 C   0  0  0  0  0  0
  -22.7250  -10.2127   20.3060 C   0  0  0  0  0  0
  -21.6848   -6.0743   22.5287 C   0  0  0  0  0  0
  -21.4012   -6.5647   23.8222 C   0  0  0  0  0  0
  -21.3660   -5.6797   24.9183 C   0  0  0  0  0  0
  -21.6042   -4.3059   24.7228 C   0  0  0  0  0  0
  -21.8816   -3.8153   23.4347 C   0  0  0  0  0  0
  -21.9189   -4.6973   22.3406 C   0  0  0  0  0  0
  -22.7830  -13.5216   21.1827 C   0  0  0  0  0  0
  -22.1656   -4.2163   21.0982 F   0  0  0  0  0  0
  -21.5629   -3.4539   25.7735 F   0  0  0  0  0  0
  -30.0177  -13.4189   20.4357 N   0  0  0  0  0  0
  -26.2995  -12.9362   20.3340 N   0  0  0  0  0  0
  -25.9338  -11.6515   20.5789 N   0  0  0  0  0  0
  -22.0478  -12.8223   22.0400 N   0  0  0  0  0  0
  -25.4165  -15.1862   20.3999 N   0  0  0  0  0  0
  -31.7759  -14.8178   20.0991 O   0  0  0  0  0  0
  -21.6638   -6.8882   21.4247 O   0  0  0  0  0  0
  -22.3513  -14.5526   20.6682 O   0  0  0  0  0  0
  -24.6313  -31.8603   23.2029 C   0  0  0  0  0  0
  -25.9153  -32.4776   23.8358 C   0  0  1  0  0  0
  -27.2191  -27.2974   20.1125 C   0  0  0  0  0  0
  -25.5960  -33.8573   24.2290 N   0  0  0  0  0  0
  -23.4264  -30.4898   21.5442 C   0  0  2  0  0  0
  -24.8717  -28.9504   20.1072 C   0  0  0  0  0  0
  -22.7509  -29.4657   22.4886 C   0  0  0  0  0  0
  -18.0309  -28.1408   22.8499 C   0  0  0  0  0  0
  -24.1492  -36.7287   23.2629 C   0  0  0  0  0  0
  -25.9722  -30.7853   21.3788 C   0  0  0  0  0  0
  -26.0447  -29.4125   20.7178 C   0  0  0  0  0  0
  -27.2215  -28.5987   20.7137 C   0  0  0  0  0  0
  -26.0195  -26.9105   19.4634 C   0  0  0  0  0  0
  -24.8629  -27.7052   19.4696 C   0  0  0  0  0  0
  -23.6442  -29.8352   20.1570 C   0  0  0  0  0  0
  -25.4102  -36.3075   24.0340 C   0  0  1  0  0  0
  -20.5918  -28.3732   23.1256 C   0  0  2  0  0  0
  -20.6809  -26.9452   22.5398 C   0  0  0  0  0  0
  -19.5770  -26.6402   21.5223 C   0  0  0  0  0  0
  -18.1952  -26.7952   22.1635 C   0  0  0  0  0  0
  -19.1567  -28.8880   23.2880 C   0  0  0  0  0  0
  -18.9480  -30.1474   23.8908 C   0  0  0  0  0  0
  -17.6481  -30.6604   24.0580 C   0  0  0  0  0  0
  -25.9054  -34.9451   23.5109 C   0  0  0  0  0  0
  -16.5373  -29.9114   23.6330 C   0  0  0  0  0  0
  -16.7296  -28.6531   23.0352 C   0  0  0  0  0  0
  -26.4515  -31.6567   25.0722 C   0  0  0  0  0  0
  -25.3736  -31.3737   26.1444 C   0  0  0  0  0  0
  -27.0330  -30.2973   24.6177 C   0  0  0  0  0  0
  -27.6084  -32.4279   25.7488 C   0  0  0  0  0  0
  -27.5596  -37.1777   24.8446 C   0  0  0  0  0  0
  -21.4215  -29.3090   22.3636 N   0  0  0  0  0  0
  -26.4267  -37.3787   23.9452 N   0  0  0  0  0  0
  -24.6958  -31.0614   22.0986 N   0  0  0  0  0  0
  -23.4225  -28.8179   23.2958 O   0  0  0  0  0  0
  -28.3070  -26.3960   20.1762 O   0  0  0  0  0  0
  -26.5616  -34.8928   22.4670 O   0  0  0  0  0  0
  -23.5464  -32.1405   23.7337 O   0  0  0  0  0  0
  -30.7970  -19.3224   19.9977 C   0  0  0  0  0  0
  -30.8687  -17.8956   20.1032 C   0  0  0  0  0  0
  -28.7420  -19.3266   21.2314 C   0  0  0  0  0  0
  -29.7317  -20.0960   20.5582 C   0  0  0  0  0  0
  -29.8729  -17.1422   20.7831 C   0  0  0  0  0  0
  -28.8117  -17.9061   21.3447 C   0  0  0  0  0  0
  -30.2709  -23.7788   20.4852 C   0  0  0  0  0  0
  -28.9547  -23.7751   20.2710 C   0  0  0  0  0  0
  -30.7392  -22.4076   20.6199 C   0  0  0  0  0  0
  -28.5597  -22.3534   20.2700 C   0  0  0  0  0  0
  -27.9630  -24.9562   19.9805 C   0  0  0  0  0  0
  -29.6716  -21.5821   20.4753 N   0  0  0  0  0  0
  -29.8280  -15.6808   20.9272 N   0  0  0  0  0  0
  -31.9042  -22.0547   20.8368 O   0  0  0  0  0  0
  -27.4173  -21.9139   20.0939 O   0  0  0  0  0  0
  -27.5558  -17.0945   22.2109 Cl  0  0  0  0  0  0
  -31.4808  -12.5302   19.1478 H   0  0  0  0  0  0
  -30.3820  -11.4029   19.8903 H   0  0  0  0  0  0
  -29.7726  -11.7659   17.4784 H   0  0  0  0  0  0
  -29.6480  -13.4863   17.7474 H   0  0  0  0  0  0
  -27.8634  -11.2979   18.8594 H   0  0  0  0  0  0
  -27.3780  -12.5884   17.7945 H   0  0  0  0  0  0
  -27.6710  -14.2569   19.5304 H   0  0  0  0  0  0
  -28.7110  -12.0477   21.3719 H   0  0  0  0  0  0
  -28.4403  -13.6971   21.8498 H   0  0  0  0  0  0
  -25.2769   -9.5670   22.4770 H   0  0  0  0  0  0
  -24.0005   -7.4625   22.7474 H   0  0  0  0  0  0
  -21.0848   -8.8775   19.8956 H   0  0  0  0  0  0
  -22.3714  -10.9672   19.6172 H   0  0  0  0  0  0
  -21.2004   -7.6156   23.9730 H   0  0  0  0  0  0
  -21.1487   -6.0525   25.9087 H   0  0  0  0  0  0
  -22.0595   -2.7617   23.2837 H   0  0  0  0  0  0
  -22.4086  -11.9891   22.4799 H   0  0  0  0  0  0
  -21.1102  -13.1272   22.2615 H   0  0  0  0  0  0
  -24.6544  -15.8383   20.5454 H   0  0  0  0  0  0
  -26.2877  -15.6448   20.1679 H   0  0  0  0  0  0
  -26.7229  -32.5447   23.1110 H   0  0  0  0  0  0
  -25.0132  -33.9710   25.0453 H   0  0  0  0  0  0
  -22.7223  -31.3125   21.4028 H   0  0  0  0  0  0
  -23.3775  -35.9591   23.3209 H   0  0  0  0  0  0
  -24.3622  -36.8976   22.2062 H   0  0  0  0  0  0
  -23.7200  -37.6451   23.6688 H   0  0  0  0  0  0
  -26.1080  -31.5489   20.6116 H   0  0  0  0  0  0
  -26.8524  -30.8323   22.0083 H   0  0  0  0  0  0
  -28.1163  -28.9474   21.2106 H   0  0  0  0  0  0
  -25.9231  -25.9708   18.9435 H   0  0  0  0  0  0
  -23.9693  -27.3492   18.9747 H   0  0  0  0  0  0
  -23.7728  -30.6184   19.4087 H   0  0  0  0  0  0
  -22.7624  -29.2728   19.8446 H   0  0  0  0  0  0
  -25.1263  -36.1906   25.0826 H   0  0  0  0  0  0
  -21.0034  -28.3325   24.1366 H   0  0  0  0  0  0
  -20.5742  -26.2350   23.3613 H   0  0  0  0  0  0
  -21.6669  -26.7496   22.1162 H   0  0  0  0  0  0
  -19.6937  -25.6310   21.1257 H   0  0  0  0  0  0
  -19.6698  -27.3211   20.6753 H   0  0  0  0  0  0
  -17.4228  -26.6715   21.4032 H   0  0  0  0  0  0
  -18.0340  -26.0092   22.9025 H   0  0  0  0  0  0
  -19.7955  -30.7291   24.2279 H   0  0  0  0  0  0
  -17.5038  -31.6284   24.5186 H   0  0  0  0  0  0
  -15.5372  -30.3028   23.7634 H   0  0  0  0  0  0
  -15.8701  -28.0854   22.7049 H   0  0  0  0  0  0
  -24.5917  -30.7076   25.7783 H   0  0  0  0  0  0
  -24.8929  -32.2919   26.4827 H   0  0  0  0  0  0
  -25.8048  -30.8947   27.0242 H   0  0  0  0  0  0
  -26.2899  -29.6732   24.1203 H   0  0  0  0  0  0
  -27.4017  -29.7218   25.4676 H   0  0  0  0  0  0
  -27.8781  -30.4234   23.9406 H   0  0  0  0  0  0
  -27.2718  -33.3593   26.2049 H   0  0  0  0  0  0
  -28.3911  -32.6799   25.0321 H   0  0  0  0  0  0
  -28.0729  -31.8400   26.5414 H   0  0  0  0  0  0
  -28.2512  -38.0175   24.7627 H   0  0  0  0  0  0
  -28.1191  -36.2716   24.6070 H   0  0  0  0  0  0
  -27.2360  -37.1174   25.8854 H   0  0  0  0  0  0
  -20.9383  -29.8827   21.6865 H   0  0  0  0  0  0
  -26.0133  -38.2835   24.1540 H   0  0  0  0  0  0
  -31.5934  -19.8241   19.4655 H   0  0  0  0  0  0
  -31.7077  -17.3883   19.6484 H   0  0  0  0  0  0
  -27.9026  -19.8252   21.6946 H   0  0  0  0  0  0
  -30.9002  -24.6538   20.5186 H   0  0  0  0  0  0
  -27.0769  -24.7343   20.5790 H   0  0  0  0  0  0
  -27.6892  -24.8157   18.9349 H   0  0  0  0  0  0
  -28.9612  -15.3554   21.3287 H   0  0  0  0  0  0
  1 25  1  0  0  0
  1 30  2  0  0  0
  1 83  1  0  0  0
  2  3  1  0  0  0
  2 25  1  0  0  0
  2 87  1  0  0  0
  2 88  1  0  0  0
  3  4  1  0  0  0
  3 89  1  0  0  0
  3 90  1  0  0  0
  4  5  1  0  0  0
  4 91  1  0  0  0
  4 92  1  0  0  0
  5  6  1  0  0  0
  5 26  1  0  0  0
  5 93  1  0  0  0
  6 25  1  0  0  0
  6 94  1  0  0  0
  6 95  1  0  0  0
  7  8  2  0  0  0
  7 26  1  0  0  0
  7 29  1  0  0  0
  8  9  1  0  0  0
  8 22  1  0  0  0
  9 10  1  0  0  0
  9 27  2  0  0  0
 10 11  2  0  0  0
 10 15  1  0  0  0
 11 12  1  0  0  0
 11 96  1  0  0  0
 12 13  2  0  0  0
 12 97  1  0  0  0
 13 14  1  0  0  0
 13 31  1  0  0  0
 14 15  2  0  0  0
 14 98  1  0  0  0
 15 99  1  0  0  0
 16 17  2  0  0  0
 16 21  1  0  0  0
 16 31  1  0  0  0
 17 18  1  0  0  0
 17100  1  0  0  0
 18 19  2  0  0  0
 18101  1  0  0  0
 19 20  1  0  0  0
 19 24  1  0  0  0
 20 21  2  0  0  0
 20102  1  0  0  0
 21 23  1  0  0  0
 22 28  1  0  0  0
 22 32  2  0  0  0
 26 27  1  0  0  0
 28103  1  0  0  0
 28104  1  0  0  0
 29105  1  0  0  0
 29106  1  0  0  0
 33 34  1  0  0  0
 33 66  1  0  0  0
 33 70  2  0  0  0
 34 36  1  0  0  0
 34 59  1  0  0  0
 34107  1  0  0  0
 35 44  2  0  0  0
 35 45  1  0  0  0
 35 68  1  0  0  0
 36 56  1  0  0  0
 36108  1  0  0  0
 37 39  1  0  0  0
 37 47  1  0  0  0
 37 66  1  0  0  0
 37109  1  0  0  0
 38 43  2  0  0  0
 38 46  1  0  0  0
 38 47  1  0  0  0
 39 64  1  0  0  0
 39 67  2  0  0  0
 40 52  1  0  0  0
 40 53  2  0  0  0
 40 58  1  0  0  0
 41110  1  0  0  0
 41111  1  0  0  0
 41112  1  0  0  0
 41 48  1  0  0  0
 42 43  1  0  0  0
 42 66  1  0  0  0
 42113  1  0  0  0
 42114  1  0  0  0
 43 44  1  0  0  0
 44115  1  0  0  0
 45 46  2  0  0  0
 45116  1  0  0  0
 46117  1  0  0  0
 47118  1  0  0  0
 47119  1  0  0  0
 48 56  1  0  0  0
 48 65  1  0  0  0
 48120  1  0  0  0
 49 50  1  0  0  0
 49 53  1  0  0  0
 49 64  1  0  0  0
 49121  1  0  0  0
 50 51  1  0  0  0
 50122  1  0  0  0
 50123  1  0  0  0
 51 52  1  0  0  0
 51124  1  0  0  0
 51125  1  0  0  0
 52126  1  0  0  0
 52127  1  0  0  0
 53 54  1  0  0  0
 54 55  2  0  0  0
 54128  1  0  0  0
 55 57  1  0  0  0
 55129  1  0  0  0
 56 69  2  0  0  0
 57 58  2  0  0  0
 57130  1  0  0  0
 58131  1  0  0  0
 59 60  1  0  0  0
 59 61  1  0  0  0
 59 62  1  0  0  0
 60132  1  0  0  0
 60133  1  0  0  0
 60134  1  0  0  0
 61135  1  0  0  0
 61136  1  0  0  0
 61137  1  0  0  0
 62138  1  0  0  0
 62139  1  0  0  0
 62140  1  0  0  0
 63 65  1  0  0  0
 63141  1  0  0  0
 63142  1  0  0  0
 63143  1  0  0  0
 64144  1  0  0  0
 65145  1  0  0  0
 68 81  1  0  0  0
 71 72  2  0  0  0
 71 74  1  0  0  0
 71146  1  0  0  0
 72 75  1  0  0  0
 72147  1  0  0  0
 73 74  2  0  0  0
 73 76  1  0  0  0
 73148  1  0  0  0
 74 82  1  0  0  0
 75 76  2  0  0  0
 75 83  1  0  0  0
 76 86  1  0  0  0
 77 78  2  0  0  0
 77 79  1  0  0  0
 77149  1  0  0  0
 78 80  1  0  0  0
 78 81  1  0  0  0
 79 82  1  0  0  0
 79 84  2  0  0  0
 80 82  1  0  0  0
 80 85  2  0  0  0
 81150  1  0  0  0
 81151  1  0  0  0
 83152  1  0  0  0
M  ISO  4   1 100  68 101  81 101  83 100
M  END
> <chiral flag>
0

> <version>
0

> <s_m_source_file>
/data/baiqing/PycharmProjects/Reinvent-master-3.2/result/LINK_invent/BTK/process_docking_weight1_custom_product_contain_oxygen_bond_distance_aromatic_linkinvent_7_9_3/rearranged_h_0084.sdf

> <i_m_source_file_index>
71

> <r_mmod_Potential_Energy-OPLS-2005>
68.0298156738281

> <r_mmod_Stretch_Energy-OPLS-2005>
88.5628967285156

> <r_mmod_Bend_Energy-OPLS-2005>
190.716079711914

> <r_mmod_Torsional_Energy-OPLS-2005>
235.900314331055

> <r_mmod_Improper_Torsional_Energy-OPLS-2005>
3.40687227249146

> <r_mmod_Van_der_Waal_Energy-OPLS-2005>
146.796417236328

> <r_mmod_Electrostatic_Energy-OPLS-2005>
-426.161193847656

> <r_mmod_Solvation_Energy-OPLS-2005>
-228.800308227539

> <b_mmod_Minimization_Converged-OPLS-2005>
0

> <r_mmod_RMS_Derivative-OPLS-2005>
1.2999871969223

$$$$
71
                    3D
 Structure written by MMmdl.
144152  0  0  1  0            999 V2000
  -30.5721  -14.8704   20.4643 C   0  0  0  0  0  0
  -30.4296  -12.5506   19.4778 C   0  0  0  0  0  0
  -29.5022  -12.5120   18.2414 C   0  0  0  0  0  0
  -28.0366  -12.3091   18.6686 C   0  0  0  0  0  0
  -27.6255  -13.2388   19.8430 C   0  0  2  0  0  0
  -28.6664  -13.2471   20.9801 C   0  0  0  0  0  0
  -25.2454  -13.8188   20.5757 C   0  0  0  0  0  0
  -24.1758  -13.0416   20.9308 C   0  0  0  0  0  0
  -24.6347  -11.6910   20.8772 C   0  0  0  0  0  0
  -23.9049  -10.4275   21.0389 C   0  0  0  0  0  0
  -24.3619   -9.4202   21.9159 C   0  0  0  0  0  0
  -23.6294   -8.2230   22.0732 C   0  0  0  0  0  0
  -22.4281   -8.0249   21.3519 C   0  0  0  0  0  0
  -21.9897   -9.0241   20.4643 C   0  0  0  0  0  0
  -22.7221  -10.2125   20.3043 C   0  0  0  0  0  0
  -21.6866   -6.0721   22.5270 C   0  0  0  0  0  0
  -21.4026   -6.5629   23.8198 C   0  0  0  0  0  0
  -21.3662   -5.6791   24.9173 C   0  0  0  0  0  0
  -21.6046   -4.3058   24.7238 C   0  0  0  0  0  0
  -21.8832   -3.8139   23.4359 C   0  0  0  0  0  0
  -21.9197   -4.6939   22.3406 C   0  0  0  0  0  0
  -22.7803  -13.5204   21.1950 C   0  0  0  0  0  0
  -22.1667   -4.2118   21.0981 F   0  0  0  0  0  0
  -21.5619   -3.4544   25.7749 F   0  0  0  0  0  0
  -29.9446  -13.6352   20.3755 N   0  0  0  0  0  0
  -26.2857  -12.9403   20.3301 N   0  0  0  0  0  0
  -25.9282  -11.6551   20.5799 N   0  0  0  0  0  0
  -22.0457  -12.8152   22.0485 N   0  0  0  0  0  0
  -25.4171  -15.1908   20.4152 N   0  0  0  0  0  0
  -31.7824  -14.8870   20.2232 O   0  0  0  0  0  0
  -21.6650   -6.8855   21.4226 O   0  0  0  0  0  0
  -22.3502  -14.5506   20.6787 O   0  0  0  0  0  0
  -24.6427  -31.8480   23.1941 C   0  0  0  0  0  0
  -25.9195  -32.4733   23.8318 C   0  0  1  0  0  0
  -27.1799  -27.1580   20.1362 C   0  0  0  0  0  0
  -25.5941  -33.8547   24.2229 N   0  0  0  0  0  0
  -23.4455  -30.4731   21.5398 C   0  0  2  0  0  0
  -24.8905  -28.9215   20.0929 C   0  0  0  0  0  0
  -22.7572  -29.4553   22.4840 C   0  0  0  0  0  0
  -18.0303  -28.1419   22.8498 C   0  0  0  0  0  0
  -24.1500  -36.7282   23.2640 C   0  0  0  0  0  0
  -26.0007  -30.7264   21.3929 C   0  0  0  0  0  0
  -26.0647  -29.3422   20.7308 C   0  0  0  0  0  0
  -27.2152  -28.4686   20.7504 C   0  0  0  0  0  0
  -25.9951  -26.8478   19.4333 C   0  0  0  0  0  0
  -24.8694  -27.6933   19.4192 C   0  0  0  0  0  0
  -23.6687  -29.8219   20.1497 C   0  0  0  0  0  0
  -25.4130  -36.3073   24.0329 C   0  0  1  0  0  0
  -20.5917  -28.3747   23.1245 C   0  0  2  0  0  0
  -20.6799  -26.9438   22.5422 C   0  0  0  0  0  0
  -19.5766  -26.6405   21.5235 C   0  0  0  0  0  0
  -18.1948  -26.7955   22.1641 C   0  0  0  0  0  0
  -19.1561  -28.8897   23.2870 C   0  0  0  0  0  0
  -18.9457  -30.1496   23.8906 C   0  0  0  0  0  0
  -17.6451  -30.6607   24.0570 C   0  0  0  0  0  0
  -25.9067  -34.9436   23.5066 C   0  0  0  0  0  0
  -16.5352  -29.9109   23.6328 C   0  0  0  0  0  0
  -16.7281  -28.6528   23.0346 C   0  0  0  0  0  0
  -26.4508  -31.6585   25.0744 C   0  0  0  0  0  0
  -25.3700  -31.3743   26.1438 C   0  0  0  0  0  0
  -27.0343  -30.2992   24.6268 C   0  0  0  0  0  0
  -27.6046  -32.4358   25.7509 C   0  0  0  0  0  0
  -27.5577  -37.1820   24.8467 C   0  0  0  0  0  0
  -21.4256  -29.3061   22.3595 N   0  0  0  0  0  0
  -26.4302  -37.3782   23.9409 N   0  0  0  0  0  0
  -24.7173  -31.0350   22.0990 N   0  0  0  0  0  0
  -23.4231  -28.8034   23.2928 O   0  0  0  0  0  0
  -28.1358  -26.0910   20.2305 O   0  0  0  0  0  0
  -26.5619  -34.8900   22.4640 O   0  0  0  0  0  0
  -23.5547  -32.1328   23.7158 O   0  0  0  0  0  0
  -28.3679  -23.7501   20.4852 C   0  0  0  0  0  0
  -29.7917  -20.1301   20.4930 C   0  0  0  0  0  0
  -27.9595  -18.7294   20.5963 C   0  0  0  0  0  0
  -29.3352  -18.7095   20.5770 C   0  0  0  0  0  0
  -28.8390  -21.1837   20.4360 C   0  0  0  0  0  0
  -27.5814  -24.8594   20.7478 C   0  0  0  0  0  0
  -30.2570  -17.3973   20.6880 C   0  0  0  0  0  0
  -28.9735  -22.6368   20.4160 N   0  0  0  0  0  0
  -29.8147  -16.0623   20.5874 N   0  0  0  0  0  0
  -31.4578  -17.6247   20.8793 O   0  0  0  0  0  0
  -27.2771  -20.3692   20.4594 S   0  0  0  0  0  0
  -31.4566  -12.7160   19.1403 H   0  0  0  0  0  0
  -30.4280  -11.5956   20.0063 H   0  0  0  0  0  0
  -29.8132  -11.7187   17.5587 H   0  0  0  0  0  0
  -29.5976  -13.4473   17.6836 H   0  0  0  0  0  0
  -27.9185  -11.2684   18.9708 H   0  0  0  0  0  0
  -27.3681  -12.4453   17.8190 H   0  0  0  0  0  0
  -27.5967  -14.2478   19.4309 H   0  0  0  0  0  0
  -28.7358  -12.2716   21.4621 H   0  0  0  0  0  0
  -28.3760  -13.9590   21.7551 H   0  0  0  0  0  0
  -25.2752   -9.5697   22.4771 H   0  0  0  0  0  0
  -23.9996   -7.4631   22.7445 H   0  0  0  0  0  0
  -21.0842   -8.8805   19.8935 H   0  0  0  0  0  0
  -22.3671  -10.9708   19.6198 H   0  0  0  0  0  0
  -21.2002   -7.6138   23.9709 H   0  0  0  0  0  0
  -21.1483   -6.0508   25.9078 H   0  0  0  0  0  0
  -22.0593   -2.7589   23.2883 H   0  0  0  0  0  0
  -22.4096  -11.9830   22.4862 H   0  0  0  0  0  0
  -21.1055  -13.1162   22.2664 H   0  0  0  0  0  0
  -24.6445  -15.8399   20.5171 H   0  0  0  0  0  0
  -26.2269  -15.6104   19.9778 H   0  0  0  0  0  0
  -26.7249  -32.5309   23.1039 H   0  0  0  0  0  0
  -25.0143  -33.9705   25.0396 H   0  0  0  0  0  0
  -22.7497  -31.3032   21.3983 H   0  0  0  0  0  0
  -23.3765  -35.9608   23.3309 H   0  0  0  0  0  0
  -24.3570  -36.8892   22.2044 H   0  0  0  0  0  0
  -23.7242  -37.6490   23.6652 H   0  0  0  0  0  0
  -26.1512  -31.4848   20.6236 H   0  0  0  0  0  0
  -26.8782  -30.7767   22.0269 H   0  0  0  0  0  0
  -28.0991  -28.7689   21.2953 H   0  0  0  0  0  0
  -25.9113  -25.9044   18.9117 H   0  0  0  0  0  0
  -23.9780  -27.3908   18.8847 H   0  0  0  0  0  0
  -23.7959  -30.6096   19.4049 H   0  0  0  0  0  0
  -22.7852  -29.2673   19.8328 H   0  0  0  0  0  0
  -25.1317  -36.1934   25.0828 H   0  0  0  0  0  0
  -21.0026  -28.3335   24.1364 H   0  0  0  0  0  0
  -20.5744  -26.2325   23.3639 H   0  0  0  0  0  0
  -21.6645  -26.7490   22.1162 H   0  0  0  0  0  0
  -19.6914  -25.6317   21.1268 H   0  0  0  0  0  0
  -19.6681  -27.3214   20.6766 H   0  0  0  0  0  0
  -17.4204  -26.6714   21.4052 H   0  0  0  0  0  0
  -18.0318  -26.0119   22.9057 H   0  0  0  0  0  0
  -19.7925  -30.7326   24.2266 H   0  0  0  0  0  0
  -17.4993  -31.6276   24.5191 H   0  0  0  0  0  0
  -15.5344  -30.3001   23.7670 H   0  0  0  0  0  0
  -15.8683  -28.0865   22.7042 H   0  0  0  0  0  0
  -24.5912  -30.7052   25.7755 H   0  0  0  0  0  0
  -24.8835  -32.2905   26.4816 H   0  0  0  0  0  0
  -25.8008  -30.8960   27.0245 H   0  0  0  0  0  0
  -26.2922  -29.6765   24.1266 H   0  0  0  0  0  0
  -27.3956  -29.7254   25.4808 H   0  0  0  0  0  0
  -27.8838  -30.4249   23.9553 H   0  0  0  0  0  0
  -27.2647  -33.3691   26.2022 H   0  0  0  0  0  0
  -28.3874  -32.6891   25.0341 H   0  0  0  0  0  0
  -28.0688  -31.8530   26.5475 H   0  0  0  0  0  0
  -28.2625  -38.0091   24.7493 H   0  0  0  0  0  0
  -28.1056  -36.2626   24.6348 H   0  0  0  0  0  0
  -27.2275  -37.1512   25.8864 H   0  0  0  0  0  0
  -20.9458  -29.8801   21.6807 H   0  0  0  0  0  0
  -26.0175  -38.2867   24.1400 H   0  0  0  0  0  0
  -30.8545  -20.3317   20.5026 H   0  0  0  0  0  0
  -27.2842  -17.8844   20.6858 H   0  0  0  0  0  0
  -27.3436  -23.8588   21.0553 H   0  0  0  0  0  0
  -28.8172  -15.9386   20.5532 H   0  0  0  0  0  0
  1 25  1  0  0  0
  1 30  2  0  0  0
  1 79  1  0  0  0
  2  3  1  0  0  0
  2 25  1  0  0  0
  2 82  1  0  0  0
  2 83  1  0  0  0
  3  4  1  0  0  0
  3 84  1  0  0  0
  3 85  1  0  0  0
  4  5  1  0  0  0
  4 86  1  0  0  0
  4 87  1  0  0  0
  5  6  1  0  0  0
  5 26  1  0  0  0
  5 88  1  0  0  0
  6 25  1  0  0  0
  6 89  1  0  0  0
  6 90  1  0  0  0
  7  8  2  0  0  0
  7 26  1  0  0  0
  7 29  1  0  0  0
  8  9  1  0  0  0
  8 22  1  0  0  0
  9 10  1  0  0  0
  9 27  2  0  0  0
 10 11  2  0  0  0
 10 15  1  0  0  0
 11 12  1  0  0  0
 11 91  1  0  0  0
 12 13  2  0  0  0
 12 92  1  0  0  0
 13 14  1  0  0  0
 13 31  1  0  0  0
 14 15  2  0  0  0
 14 93  1  0  0  0
 15 94  1  0  0  0
 16 17  2  0  0  0
 16 21  1  0  0  0
 16 31  1  0  0  0
 17 18  1  0  0  0
 17 95  1  0  0  0
 18 19  2  0  0  0
 18 96  1  0  0  0
 19 20  1  0  0  0
 19 24  1  0  0  0
 20 21  2  0  0  0
 20 97  1  0  0  0
 21 23  1  0  0  0
 22 28  1  0  0  0
 22 32  2  0  0  0
 26 27  1  0  0  0
 28 98  1  0  0  0
 28 99  1  0  0  0
 29100  1  0  0  0
 29101  1  0  0  0
 33 34  1  0  0  0
 33 66  1  0  0  0
 33 70  2  0  0  0
 34 36  1  0  0  0
 34 59  1  0  0  0
 34102  1  0  0  0
 35 44  2  0  0  0
 35 45  1  0  0  0
 35 68  1  0  0  0
 36 56  1  0  0  0
 36103  1  0  0  0
 37 39  1  0  0  0
 37 47  1  0  0  0
 37 66  1  0  0  0
 37104  1  0  0  0
 38 43  2  0  0  0
 38 46  1  0  0  0
 38 47  1  0  0  0
 39 64  1  0  0  0
 39 67  2  0  0  0
 40 52  1  0  0  0
 40 53  2  0  0  0
 40 58  1  0  0  0
 41105  1  0  0  0
 41106  1  0  0  0
 41107  1  0  0  0
 41 48  1  0  0  0
 42 43  1  0  0  0
 42 66  1  0  0  0
 42108  1  0  0  0
 42109  1  0  0  0
 43 44  1  0  0  0
 44110  1  0  0  0
 45 46  2  0  0  0
 45111  1  0  0  0
 46112  1  0  0  0
 47113  1  0  0  0
 47114  1  0  0  0
 48 56  1  0  0  0
 48 65  1  0  0  0
 48115  1  0  0  0
 49 50  1  0  0  0
 49 53  1  0  0  0
 49 64  1  0  0  0
 49116  1  0  0  0
 50 51  1  0  0  0
 50117  1  0  0  0
 50118  1  0  0  0
 51 52  1  0  0  0
 51119  1  0  0  0
 51120  1  0  0  0
 52121  1  0  0  0
 52122  1  0  0  0
 53 54  1  0  0  0
 54 55  2  0  0  0
 54123  1  0  0  0
 55 57  1  0  0  0
 55124  1  0  0  0
 56 69  2  0  0  0
 57 58  2  0  0  0
 57125  1  0  0  0
 58126  1  0  0  0
 59 60  1  0  0  0
 59 61  1  0  0  0
 59 62  1  0  0  0
 60127  1  0  0  0
 60128  1  0  0  0
 60129  1  0  0  0
 61130  1  0  0  0
 61131  1  0  0  0
 61132  1  0  0  0
 62133  1  0  0  0
 62134  1  0  0  0
 62135  1  0  0  0
 63 65  1  0  0  0
 63136  1  0  0  0
 63137  1  0  0  0
 63138  1  0  0  0
 64139  1  0  0  0
 65140  1  0  0  0
 68 76  1  0  0  0
 71 76  2  0  0  0
 71 78  2  0  0  0
 72 74  1  0  0  0
 72 75  2  0  0  0
 72141  1  0  0  0
 73 74  2  0  0  0
 73 81  1  0  0  0
 73142  1  0  0  0
 74 77  1  0  0  0
 75 78  1  0  0  0
 75 81  1  0  0  0
 76143  1  0  0  0
 77 79  1  0  0  0
 77 80  2  0  0  0
 79144  1  0  0  0
M  ISO  4   1 100  68 101  76 101  79 100
M  END
> <chiral flag>
0

> <version>
0

> <s_m_source_file>
/data/baiqing/PycharmProjects/Reinvent-master-3.2/result/LINK_invent/BTK/process_docking_weight1_custom_product_contain_oxygen_bond_distance_aromatic_linkinvent_7_9_3/rearranged_h_0084.sdf

> <i_m_source_file_index>
72

> <r_mmod_Potential_Energy-OPLS-2005>
683.877563476562

> <r_mmod_Stretch_Energy-OPLS-2005>
174.443206787109

> <r_mmod_Bend_Energy-OPLS-2005>
652.418762207031

> <r_mmod_Torsional_Energy-OPLS-2005>
216.919281005859

> <r_mmod_Improper_Torsional_Energy-OPLS-2005>
5.98125123977661

> <r_mmod_Van_der_Waal_Energy-OPLS-2005>
132.269973754883

> <r_mmod_Electrostatic_Energy-OPLS-2005>
-441.121734619141

> <r_mmod_Solvation_Energy-OPLS-2005>
-232.977142333984

> <b_mmod_Minimization_Converged-OPLS-2005>
0

> <r_mmod_RMS_Derivative-OPLS-2005>
7.27782821655273

$$$$
72
                    3D
 Structure written by MMmdl.
156165  0  0  1  0            999 V2000
  -30.5644  -14.7405   20.4914 C   0  0  0  0  0  0
  -30.4522  -12.4556   19.4659 C   0  0  0  0  0  0
  -29.5178  -12.5243   18.2348 C   0  0  0  0  0  0
  -28.0419  -12.3439   18.6447 C   0  0  0  0  0  0
  -27.6532  -13.2207   19.8641 C   0  0  2  0  0  0
  -28.6982  -13.0955   20.9957 C   0  0  0  0  0  0
  -25.2564  -13.8172   20.5657 C   0  0  0  0  0  0
  -24.1844  -13.0443   20.9214 C   0  0  0  0  0  0
  -24.6413  -11.6915   20.8758 C   0  0  0  0  0  0
  -23.9074  -10.4296   21.0416 C   0  0  0  0  0  0
  -24.3623   -9.4207   21.9190 C   0  0  0  0  0  0
  -23.6296   -8.2242   22.0756 C   0  0  0  0  0  0
  -22.4277   -8.0284   21.3546 C   0  0  0  0  0  0
  -21.9916   -9.0260   20.4648 C   0  0  0  0  0  0
  -22.7246  -10.2141   20.3062 C   0  0  0  0  0  0
  -21.6854   -6.0737   22.5278 C   0  0  0  0  0  0
  -21.4013   -6.5641   23.8212 C   0  0  0  0  0  0
  -21.3659   -5.6794   24.9174 C   0  0  0  0  0  0
  -21.6044   -4.3057   24.7225 C   0  0  0  0  0  0
  -21.8820   -3.8148   23.4347 C   0  0  0  0  0  0
  -21.9192   -4.6964   22.3402 C   0  0  0  0  0  0
  -22.7867  -13.5242   21.1864 C   0  0  0  0  0  0
  -22.1662   -4.2150   21.0980 F   0  0  0  0  0  0
  -21.5628   -3.4540   25.7738 F   0  0  0  0  0  0
  -30.0044  -13.4813   20.4355 N   0  0  0  0  0  0
  -26.2996  -12.9356   20.3313 N   0  0  0  0  0  0
  -25.9343  -11.6511   20.5766 N   0  0  0  0  0  0
  -22.0503  -12.8231   22.0416 N   0  0  0  0  0  0
  -25.4250  -15.1875   20.3933 N   0  0  0  0  0  0
  -31.7143  -14.9327   20.0820 O   0  0  0  0  0  0
  -21.6641   -6.8881   21.4241 O   0  0  0  0  0  0
  -22.3552  -14.5542   20.6702 O   0  0  0  0  0  0
  -24.6319  -31.8550   23.1980 C   0  0  0  0  0  0
  -25.9139  -32.4755   23.8334 C   0  0  1  0  0  0
  -27.2271  -27.2658   20.1322 C   0  0  0  0  0  0
  -25.5929  -33.8555   24.2258 N   0  0  0  0  0  0
  -23.4305  -30.4758   21.5412 C   0  0  2  0  0  0
  -24.8820  -28.9232   20.1104 C   0  0  0  0  0  0
  -22.7514  -29.4594   22.4909 C   0  0  0  0  0  0
  -18.0293  -28.1384   22.8487 C   0  0  0  0  0  0
  -24.1488  -36.7284   23.2637 C   0  0  0  0  0  0
  -25.9764  -30.7683   21.3794 C   0  0  0  0  0  0
  -26.0536  -29.3904   20.7223 C   0  0  0  0  0  0
  -27.2320  -28.5736   20.7247 C   0  0  0  0  0  0
  -26.0369  -26.8679   19.4875 C   0  0  0  0  0  0
  -24.8782  -27.6685   19.4815 C   0  0  0  0  0  0
  -23.6513  -29.8090   20.1578 C   0  0  0  0  0  0
  -25.4112  -36.3069   24.0328 C   0  0  1  0  0  0
  -20.5900  -28.3699   23.1263 C   0  0  2  0  0  0
  -20.6781  -26.9416   22.5404 C   0  0  0  0  0  0
  -19.5752  -26.6383   21.5213 C   0  0  0  0  0  0
  -18.1937  -26.7924   22.1634 C   0  0  0  0  0  0
  -19.1547  -28.8858   23.2871 C   0  0  0  0  0  0
  -18.9466  -30.1459   23.8890 C   0  0  0  0  0  0
  -17.6464  -30.6586   24.0561 C   0  0  0  0  0  0
  -25.9056  -34.9440   23.5099 C   0  0  0  0  0  0
  -16.5356  -29.9082   23.6330 C   0  0  0  0  0  0
  -16.7280  -28.6500   23.0355 C   0  0  0  0  0  0
  -26.4501  -31.6574   25.0722 C   0  0  0  0  0  0
  -25.3719  -31.3721   26.1439 C   0  0  0  0  0  0
  -27.0347  -30.2986   24.6213 C   0  0  0  0  0  0
  -27.6054  -32.4314   25.7500 C   0  0  0  0  0  0
  -27.5582  -37.1790   24.8460 C   0  0  0  0  0  0
  -21.4218  -29.3043   22.3654 N   0  0  0  0  0  0
  -26.4284  -37.3773   23.9420 N   0  0  0  0  0  0
  -24.6984  -31.0510   22.0960 N   0  0  0  0  0  0
  -23.4207  -28.8144   23.3023 O   0  0  0  0  0  0
  -28.2804  -26.3223   20.1764 O   0  0  0  0  0  0
  -26.5637  -34.8919   22.4673 O   0  0  0  0  0  0
  -23.5466  -32.1368   23.7270 O   0  0  0  0  0  0
  -30.1926  -19.5375   19.9453 C   0  0  0  0  0  0
  -30.4048  -18.1090   20.0188 C   0  0  0  0  0  0
  -28.4658  -19.3697   21.5210 C   0  0  0  0  0  0
  -28.6293  -17.9428   21.6167 C   0  0  0  0  0  0
  -29.2048  -20.2615   20.6908 C   0  0  0  0  0  0
  -29.6305  -17.2455   20.8525 C   0  0  0  0  0  0
  -28.4464  -23.7536   20.6410 C   0  0  0  0  0  0
  -27.9837  -22.5775   21.3700 C   0  0  0  0  0  0
  -25.4884  -17.2538   23.6445 C   0  0  0  0  0  0
  -27.9757  -25.0623   20.7720 C   0  0  0  0  0  0
  -26.3223  -17.7236   22.6990 C   0  0  0  0  0  0
  -27.7002  -17.2075   22.5460 C   0  0  0  0  0  0
  -29.4538  -22.8362   19.8792 C   0  0  0  0  0  0
  -28.8889  -21.7239   20.7040 N   0  0  0  0  0  0
  -29.7233  -15.7541   20.9170 N   0  0  0  0  0  0
  -27.1206  -22.4580   22.2156 O   0  0  0  0  0  0
  -28.0588  -16.1868   23.1440 O   0  0  0  0  0  0
  -31.4887  -12.6098   19.1611 H   0  0  0  0  0  0
  -30.4198  -11.4640   19.9200 H   0  0  0  0  0  0
  -29.7984  -11.7638   17.5049 H   0  0  0  0  0  0
  -29.6420  -13.4864   17.7353 H   0  0  0  0  0  0
  -27.8924  -11.2909   18.8854 H   0  0  0  0  0  0
  -27.3857  -12.5573   17.7998 H   0  0  0  0  0  0
  -27.6638  -14.2529   19.5138 H   0  0  0  0  0  0
  -28.7352  -12.0719   21.3715 H   0  0  0  0  0  0
  -28.4233  -13.7122   21.8526 H   0  0  0  0  0  0
  -25.2769   -9.5679   22.4765 H   0  0  0  0  0  0
  -24.0002   -7.4634   22.7475 H   0  0  0  0  0  0
  -21.0846   -8.8784   19.8955 H   0  0  0  0  0  0
  -22.3708  -10.9683   19.6172 H   0  0  0  0  0  0
  -21.2006   -7.6149   23.9716 H   0  0  0  0  0  0
  -21.1480   -6.0524   25.9078 H   0  0  0  0  0  0
  -22.0599   -2.7609   23.2848 H   0  0  0  0  0  0
  -22.4118  -11.9896   22.4810 H   0  0  0  0  0  0
  -21.1118  -13.1253   22.2607 H   0  0  0  0  0  0
  -24.6435  -15.8282   20.4713 H   0  0  0  0  0  0
  -26.2408  -15.6059   19.9672 H   0  0  0  0  0  0
  -26.7212  -32.5411   23.1086 H   0  0  0  0  0  0
  -25.0052  -33.9692   25.0386 H   0  0  0  0  0  0
  -22.7266  -31.2976   21.3933 H   0  0  0  0  0  0
  -23.3757  -35.9609   23.3283 H   0  0  0  0  0  0
  -24.3584  -36.8922   22.2055 H   0  0  0  0  0  0
  -23.7235  -37.6478   23.6670 H   0  0  0  0  0  0
  -26.1141  -31.5283   20.6090 H   0  0  0  0  0  0
  -26.8538  -30.8191   22.0126 H   0  0  0  0  0  0
  -28.1268  -28.9213   21.2218 H   0  0  0  0  0  0
  -25.9940  -25.8990   19.0102 H   0  0  0  0  0  0
  -23.9825  -27.3029   18.9977 H   0  0  0  0  0  0
  -23.7757  -30.5851   19.4016 H   0  0  0  0  0  0
  -22.7705  -29.2413   19.8532 H   0  0  0  0  0  0
  -25.1290  -36.1912   25.0819 H   0  0  0  0  0  0
  -20.9989  -28.3278   24.1387 H   0  0  0  0  0  0
  -20.5678  -26.2313   23.3613 H   0  0  0  0  0  0
  -21.6647  -26.7439   22.1198 H   0  0  0  0  0  0
  -19.6915  -25.6294   21.1243 H   0  0  0  0  0  0
  -19.6680  -27.3193   20.6743 H   0  0  0  0  0  0
  -17.4200  -26.6663   21.4045 H   0  0  0  0  0  0
  -18.0349  -26.0067   22.9035 H   0  0  0  0  0  0
  -19.7941  -30.7278   24.2259 H   0  0  0  0  0  0
  -17.5017  -31.6263   24.5165 H   0  0  0  0  0  0
  -15.5356  -30.2981   23.7651 H   0  0  0  0  0  0
  -15.8683  -28.0812   22.7076 H   0  0  0  0  0  0
  -24.5894  -30.7077   25.7758 H   0  0  0  0  0  0
  -24.8912  -32.2886   26.4864 H   0  0  0  0  0  0
  -25.8026  -30.8889   27.0216 H   0  0  0  0  0  0
  -26.2933  -29.6735   24.1222 H   0  0  0  0  0  0
  -27.4006  -29.7249   25.4739 H   0  0  0  0  0  0
  -27.8823  -30.4258   23.9474 H   0  0  0  0  0  0
  -27.2661  -33.3620   26.2064 H   0  0  0  0  0  0
  -28.3869  -32.6863   25.0330 H   0  0  0  0  0  0
  -28.0714  -31.8444   26.5425 H   0  0  0  0  0  0
  -28.2569  -38.0118   24.7550 H   0  0  0  0  0  0
  -28.1109  -36.2651   24.6228 H   0  0  0  0  0  0
  -27.2310  -37.1366   25.8864 H   0  0  0  0  0  0
  -20.9410  -29.8760   21.6849 H   0  0  0  0  0  0
  -26.0159  -38.2841   24.1443 H   0  0  0  0  0  0
  -30.8275  -20.0982   19.2741 H   0  0  0  0  0  0
  -31.1741  -17.6758   19.3951 H   0  0  0  0  0  0
  -27.7174  -19.8312   22.1482 H   0  0  0  0  0  0
  -24.4848  -17.6421   23.7368 H   0  0  0  0  0  0
  -25.7875  -16.4793   24.3373 H   0  0  0  0  0  0
  -27.1899  -25.2085   21.5026 H   0  0  0  0  0  0
  -25.9784  -18.4936   22.0250 H   0  0  0  0  0  0
  -30.5173  -22.9832   20.0728 H   0  0  0  0  0  0
  -29.2807  -22.6766   18.8135 H   0  0  0  0  0  0
  -28.9227  -15.3453   21.3788 H   0  0  0  0  0  0
  1 25  1  0  0  0
  1 30  2  0  0  0
  1 85  1  0  0  0
  2  3  1  0  0  0
  2 25  1  0  0  0
  2 88  1  0  0  0
  2 89  1  0  0  0
  3  4  1  0  0  0
  3 90  1  0  0  0
  3 91  1  0  0  0
  4  5  1  0  0  0
  4 92  1  0  0  0
  4 93  1  0  0  0
  5  6  1  0  0  0
  5 26  1  0  0  0
  5 94  1  0  0  0
  6 25  1  0  0  0
  6 95  1  0  0  0
  6 96  1  0  0  0
  7  8  2  0  0  0
  7 26  1  0  0  0
  7 29  1  0  0  0
  8  9  1  0  0  0
  8 22  1  0  0  0
  9 10  1  0  0  0
  9 27  2  0  0  0
 10 11  2  0  0  0
 10 15  1  0  0  0
 11 12  1  0  0  0
 11 97  1  0  0  0
 12 13  2  0  0  0
 12 98  1  0  0  0
 13 14  1  0  0  0
 13 31  1  0  0  0
 14 15  2  0  0  0
 14 99  1  0  0  0
 15100  1  0  0  0
 16 17  2  0  0  0
 16 21  1  0  0  0
 16 31  1  0  0  0
 17 18  1  0  0  0
 17101  1  0  0  0
 18 19  2  0  0  0
 18102  1  0  0  0
 19 20  1  0  0  0
 19 24  1  0  0  0
 20 21  2  0  0  0
 20103  1  0  0  0
 21 23  1  0  0  0
 22 28  1  0  0  0
 22 32  2  0  0  0
 26 27  1  0  0  0
 28104  1  0  0  0
 28105  1  0  0  0
 29106  1  0  0  0
 29107  1  0  0  0
 33 34  1  0  0  0
 33 66  1  0  0  0
 33 70  2  0  0  0
 34 36  1  0  0  0
 34 59  1  0  0  0
 34108  1  0  0  0
 35 44  2  0  0  0
 35 45  1  0  0  0
 35 68  1  0  0  0
 36 56  1  0  0  0
 36109  1  0  0  0
 37 39  1  0  0  0
 37 47  1  0  0  0
 37 66  1  0  0  0
 37110  1  0  0  0
 38 43  2  0  0  0
 38 46  1  0  0  0
 38 47  1  0  0  0
 39 64  1  0  0  0
 39 67  2  0  0  0
 40 52  1  0  0  0
 40 53  2  0  0  0
 40 58  1  0  0  0
 41111  1  0  0  0
 41112  1  0  0  0
 41113  1  0  0  0
 41 48  1  0  0  0
 42 43  1  0  0  0
 42 66  1  0  0  0
 42114  1  0  0  0
 42115  1  0  0  0
 43 44  1  0  0  0
 44116  1  0  0  0
 45 46  2  0  0  0
 45117  1  0  0  0
 46118  1  0  0  0
 47119  1  0  0  0
 47120  1  0  0  0
 48 56  1  0  0  0
 48 65  1  0  0  0
 48121  1  0  0  0
 49 50  1  0  0  0
 49 53  1  0  0  0
 49 64  1  0  0  0
 49122  1  0  0  0
 50 51  1  0  0  0
 50123  1  0  0  0
 50124  1  0  0  0
 51 52  1  0  0  0
 51125  1  0  0  0
 51126  1  0  0  0
 52127  1  0  0  0
 52128  1  0  0  0
 53 54  1  0  0  0
 54 55  2  0  0  0
 54129  1  0  0  0
 55 57  1  0  0  0
 55130  1  0  0  0
 56 69  2  0  0  0
 57 58  2  0  0  0
 57131  1  0  0  0
 58132  1  0  0  0
 59 60  1  0  0  0
 59 61  1  0  0  0
 59 62  1  0  0  0
 60133  1  0  0  0
 60134  1  0  0  0
 60135  1  0  0  0
 61136  1  0  0  0
 61137  1  0  0  0
 61138  1  0  0  0
 62139  1  0  0  0
 62140  1  0  0  0
 62141  1  0  0  0
 63 65  1  0  0  0
 63142  1  0  0  0
 63143  1  0  0  0
 63144  1  0  0  0
 64145  1  0  0  0
 65146  1  0  0  0
 68 80  1  0  0  0
 71 72  2  0  0  0
 71 75  1  0  0  0
 71147  1  0  0  0
 72 76  1  0  0  0
 72148  1  0  0  0
 73 74  1  0  0  0
 73 75  2  0  0  0
 73149  1  0  0  0
 74 76  2  0  0  0
 74 82  1  0  0  0
 75 84  1  0  0  0
 76 85  1  0  0  0
 77 78  1  0  0  0
 77 80  2  0  0  0
 77 83  1  0  0  0
 78 84  1  0  0  0
 78 86  2  0  0  0
 79 81  2  0  0  0
 79150  1  0  0  0
 79151  1  0  0  0
 80152  1  0  0  0
 81 82  1  0  0  0
 81153  1  0  0  0
 82 87  2  0  0  0
 83 84  1  0  0  0
 83154  1  0  0  0
 83155  1  0  0  0
 85156  1  0  0  0
M  ISO  4   1 100  68 101  80 101  85 100
M  END
> <chiral flag>
0

> <version>
0

> <s_m_source_file>
/data/baiqing/PycharmProjects/Reinvent-master-3.2/result/LINK_invent/BTK/process_docking_weight1_custom_product_contain_oxygen_bond_distance_aromatic_linkinvent_7_9_3/rearranged_h_0084.sdf

> <i_m_source_file_index>
73

> <r_mmod_Potential_Energy-OPLS-2005>
265.190551757812

> <r_mmod_Stretch_Energy-OPLS-2005>
114.074729919434

> <r_mmod_Bend_Energy-OPLS-2005>
273.861480712891

> <r_mmod_Torsional_Energy-OPLS-2005>
228.75114440918

> <r_mmod_Improper_Torsional_Energy-OPLS-2005>
3.81935048103333

> <r_mmod_Van_der_Waal_Energy-OPLS-2005>
139.669036865234

> <r_mmod_Electrostatic_Energy-OPLS-2005>
-366.335327148438

> <r_mmod_Solvation_Energy-OPLS-2005>
-216.136505126953

> <b_mmod_Minimization_Converged-OPLS-2005>
0

> <r_mmod_RMS_Derivative-OPLS-2005>
0.713640809059143

$$$$
73
                    3D
 Structure written by MMmdl.
155164  0  0  1  0            999 V2000
  -30.6188  -14.6877   20.4703 C   0  0  0  0  0  0
  -30.4365  -12.4155   19.4645 C   0  0  0  0  0  0
  -29.5104  -12.5025   18.2310 C   0  0  0  0  0  0
  -28.0348  -12.3332   18.6437 C   0  0  0  0  0  0
  -27.6488  -13.2216   19.8569 C   0  0  2  0  0  0
  -28.6939  -13.1179   20.9908 C   0  0  0  0  0  0
  -25.2537  -13.8177   20.5673 C   0  0  0  0  0  0
  -24.1811  -13.0437   20.9183 C   0  0  0  0  0  0
  -24.6390  -11.6913   20.8731 C   0  0  0  0  0  0
  -23.9063  -10.4290   21.0400 C   0  0  0  0  0  0
  -24.3617   -9.4209   21.9182 C   0  0  0  0  0  0
  -23.6291   -8.2249   22.0760 C   0  0  0  0  0  0
  -22.4278   -8.0279   21.3547 C   0  0  0  0  0  0
  -21.9909   -9.0252   20.4653 C   0  0  0  0  0  0
  -22.7234  -10.2129   20.3055 C   0  0  0  0  0  0
  -21.6852   -6.0733   22.5278 C   0  0  0  0  0  0
  -21.4017   -6.5637   23.8211 C   0  0  0  0  0  0
  -21.3658   -5.6791   24.9170 C   0  0  0  0  0  0
  -21.6045   -4.3055   24.7223 C   0  0  0  0  0  0
  -21.8817   -3.8144   23.4345 C   0  0  0  0  0  0
  -21.9195   -4.6960   22.3399 C   0  0  0  0  0  0
  -22.7834  -13.5224   21.1846 C   0  0  0  0  0  0
  -22.1659   -4.2145   21.0978 F   0  0  0  0  0  0
  -21.5631   -3.4538   25.7735 F   0  0  0  0  0  0
  -30.0048  -13.4595   20.4186 N   0  0  0  0  0  0
  -26.2968  -12.9368   20.3297 N   0  0  0  0  0  0
  -25.9321  -11.6520   20.5755 N   0  0  0  0  0  0
  -22.0484  -12.8217   22.0409 N   0  0  0  0  0  0
  -25.4244  -15.1895   20.4063 N   0  0  0  0  0  0
  -31.7969  -14.8092   20.1226 O   0  0  0  0  0  0
  -21.6645   -6.8875   21.4242 O   0  0  0  0  0  0
  -22.3524  -14.5536   20.6703 O   0  0  0  0  0  0
  -24.6274  -31.8592   23.2021 C   0  0  0  0  0  0
  -25.9115  -32.4777   23.8349 C   0  0  1  0  0  0
  -27.2229  -27.3032   20.1121 C   0  0  0  0  0  0
  -25.5929  -33.8580   24.2289 N   0  0  0  0  0  0
  -23.4219  -30.4846   21.5446 C   0  0  2  0  0  0
  -24.8683  -28.9410   20.1116 C   0  0  0  0  0  0
  -22.7479  -29.4622   22.4915 C   0  0  0  0  0  0
  -18.0290  -28.1387   22.8493 C   0  0  0  0  0  0
  -24.1489  -36.7281   23.2641 C   0  0  0  0  0  0
  -25.9663  -30.7855   21.3759 C   0  0  0  0  0  0
  -26.0405  -29.4123   20.7162 C   0  0  0  0  0  0
  -27.2208  -28.6071   20.7050 C   0  0  0  0  0  0
  -26.0213  -26.8906   19.4864 C   0  0  0  0  0  0
  -24.8627  -27.6857   19.4878 C   0  0  0  0  0  0
  -23.6382  -29.8233   20.1590 C   0  0  0  0  0  0
  -25.4117  -36.3084   24.0330 C   0  0  1  0  0  0
  -20.5888  -28.3684   23.1285 C   0  0  2  0  0  0
  -20.6785  -26.9402   22.5413 C   0  0  0  0  0  0
  -19.5756  -26.6385   21.5215 C   0  0  0  0  0  0
  -18.1932  -26.7937   22.1620 C   0  0  0  0  0  0
  -19.1544  -28.8852   23.2893 C   0  0  0  0  0  0
  -18.9469  -30.1458   23.8897 C   0  0  0  0  0  0
  -17.6470  -30.6597   24.0563 C   0  0  0  0  0  0
  -25.9052  -34.9453   23.5108 C   0  0  0  0  0  0
  -16.5361  -29.9099   23.6327 C   0  0  0  0  0  0
  -16.7275  -28.6514   23.0355 C   0  0  0  0  0  0
  -26.4501  -31.6592   25.0717 C   0  0  0  0  0  0
  -25.3732  -31.3739   26.1439 C   0  0  0  0  0  0
  -27.0339  -30.3018   24.6159 C   0  0  0  0  0  0
  -27.6058  -32.4328   25.7493 C   0  0  0  0  0  0
  -27.5583  -37.1802   24.8471 C   0  0  0  0  0  0
  -21.4187  -29.3055   22.3681 N   0  0  0  0  0  0
  -26.4297  -37.3779   23.9411 N   0  0  0  0  0  0
  -24.6910  -31.0591   22.0980 N   0  0  0  0  0  0
  -23.4216  -28.8146   23.2969 O   0  0  0  0  0  0
  -28.3323  -26.4350   20.1546 O   0  0  0  0  0  0
  -26.5610  -34.8927   22.4673 O   0  0  0  0  0  0
  -23.5430  -32.1392   23.7342 O   0  0  0  0  0  0
  -31.3020  -19.2784   20.0583 C   0  0  0  0  0  0
  -31.1936  -17.8619   20.1812 C   0  0  0  0  0  0
  -28.8955  -18.1292   20.8469 C   0  0  0  0  0  0
  -30.2158  -20.1526   20.3266 C   0  0  0  0  0  0
  -29.0033  -19.5578   20.7172 C   0  0  0  0  0  0
  -29.9854  -17.2329   20.5861 C   0  0  0  0  0  0
  -29.2916  -23.9855   20.2641 C   0  0  0  0  0  0
  -27.8494  -20.5086   21.0333 C   0  0  0  0  0  0
  -30.3722  -21.7059   20.2333 C   0  0  0  0  0  0
  -27.8739  -21.8701   20.2608 C   0  0  0  0  0  0
  -28.0696  -24.9691   20.0300 C   0  0  0  0  0  0
  -29.1623  -22.5979   20.2942 N   0  0  0  0  0  0
  -29.8113  -15.7733   20.7403 N   0  0  0  0  0  0
  -30.4087  -24.5053   20.3682 O   0  0  0  0  0  0
  -31.4780  -12.5366   19.1621 H   0  0  0  0  0  0
  -30.3739  -11.4298   19.9283 H   0  0  0  0  0  0
  -29.7833  -11.7410   17.4991 H   0  0  0  0  0  0
  -29.6450  -13.4661   17.7365 H   0  0  0  0  0  0
  -27.8825  -11.2820   18.8926 H   0  0  0  0  0  0
  -27.3791  -12.5406   17.7973 H   0  0  0  0  0  0
  -27.6541  -14.2496   19.4935 H   0  0  0  0  0  0
  -28.7134  -12.1100   21.4068 H   0  0  0  0  0  0
  -28.4344  -13.7788   21.8195 H   0  0  0  0  0  0
  -25.2763   -9.5679   22.4758 H   0  0  0  0  0  0
  -23.9993   -7.4638   22.7479 H   0  0  0  0  0  0
  -21.0843   -8.8763   19.8957 H   0  0  0  0  0  0
  -22.3690  -10.9665   19.6161 H   0  0  0  0  0  0
  -21.2011   -7.6149   23.9707 H   0  0  0  0  0  0
  -21.1483   -6.0528   25.9072 H   0  0  0  0  0  0
  -22.0600   -2.7609   23.2845 H   0  0  0  0  0  0
  -22.4109  -11.9868   22.4773 H   0  0  0  0  0  0
  -21.1109  -13.1252   22.2641 H   0  0  0  0  0  0
  -24.6529  -15.8401   20.5056 H   0  0  0  0  0  0
  -26.2629  -15.6246   20.0450 H   0  0  0  0  0  0
  -26.7171  -32.5440   23.1082 H   0  0  0  0  0  0
  -25.0092  -33.9733   25.0449 H   0  0  0  0  0  0
  -22.7183  -31.3069   21.4020 H   0  0  0  0  0  0
  -23.3758  -35.9604   23.3301 H   0  0  0  0  0  0
  -24.3583  -36.8899   22.2057 H   0  0  0  0  0  0
  -23.7241  -37.6486   23.6658 H   0  0  0  0  0  0
  -26.0998  -31.5485   20.6080 H   0  0  0  0  0  0
  -26.8479  -30.8345   22.0038 H   0  0  0  0  0  0
  -28.1209  -28.9644   21.1862 H   0  0  0  0  0  0
  -25.9390  -25.9343   18.9931 H   0  0  0  0  0  0
  -23.9632  -27.3201   19.0117 H   0  0  0  0  0  0
  -23.7629  -30.6027   19.4058 H   0  0  0  0  0  0
  -22.7567  -29.2576   19.8518 H   0  0  0  0  0  0
  -25.1307  -36.1924   25.0821 H   0  0  0  0  0  0
  -20.9989  -28.3247   24.1399 H   0  0  0  0  0  0
  -20.5687  -26.2285   23.3609 H   0  0  0  0  0  0
  -21.6653  -26.7448   22.1196 H   0  0  0  0  0  0
  -19.6914  -25.6298   21.1241 H   0  0  0  0  0  0
  -19.6695  -27.3201   20.6748 H   0  0  0  0  0  0
  -17.4211  -26.6684   21.4014 H   0  0  0  0  0  0
  -18.0322  -26.0096   22.9022 H   0  0  0  0  0  0
  -19.7951  -30.7280   24.2265 H   0  0  0  0  0  0
  -17.5031  -31.6276   24.5166 H   0  0  0  0  0  0
  -15.5363  -30.3007   23.7667 H   0  0  0  0  0  0
  -15.8669  -28.0842   22.7063 H   0  0  0  0  0  0
  -24.5912  -30.7078   25.7774 H   0  0  0  0  0  0
  -24.8917  -32.2914   26.4836 H   0  0  0  0  0  0
  -25.8057  -30.8944   27.0231 H   0  0  0  0  0  0
  -26.2906  -29.6770   24.1186 H   0  0  0  0  0  0
  -27.4067  -29.7265   25.4648 H   0  0  0  0  0  0
  -27.8768  -30.4322   23.9361 H   0  0  0  0  0  0
  -27.2666  -33.3641   26.2047 H   0  0  0  0  0  0
  -28.3887  -32.6865   25.0327 H   0  0  0  0  0  0
  -28.0697  -31.8458   26.5434 H   0  0  0  0  0  0
  -28.2606  -38.0096   24.7524 H   0  0  0  0  0  0
  -28.1076  -36.2631   24.6290 H   0  0  0  0  0  0
  -27.2303  -37.1450   25.8877 H   0  0  0  0  0  0
  -20.9345  -29.8797   21.6918 H   0  0  0  0  0  0
  -26.0165  -38.2848   24.1419 H   0  0  0  0  0  0
  -32.2515  -19.6997   19.7579 H   0  0  0  0  0  0
  -32.0703  -17.2697   19.9603 H   0  0  0  0  0  0
  -27.9473  -17.7159   21.1626 H   0  0  0  0  0  0
  -27.8760  -20.7113   22.1046 H   0  0  0  0  0  0
  -26.9031  -19.9990   20.8453 H   0  0  0  0  0  0
  -30.8957  -21.9237   19.3003 H   0  0  0  0  0  0
  -31.0534  -22.0029   21.0333 H   0  0  0  0  0  0
  -27.0663  -22.4885   20.6517 H   0  0  0  0  0  0
  -27.6314  -21.6873   19.2130 H   0  0  0  0  0  0
  -27.2683  -24.7013   20.7188 H   0  0  0  0  0  0
  -27.7248  -24.7575   19.0183 H   0  0  0  0  0  0
  -28.8826  -15.4951   21.0156 H   0  0  0  0  0  0
  1 25  1  0  0  0
  1 30  2  0  0  0
  1 83  1  0  0  0
  2  3  1  0  0  0
  2 25  1  0  0  0
  2 85  1  0  0  0
  2 86  1  0  0  0
  3  4  1  0  0  0
  3 87  1  0  0  0
  3 88  1  0  0  0
  4  5  1  0  0  0
  4 89  1  0  0  0
  4 90  1  0  0  0
  5  6  1  0  0  0
  5 26  1  0  0  0
  5 91  1  0  0  0
  6 25  1  0  0  0
  6 92  1  0  0  0
  6 93  1  0  0  0
  7  8  2  0  0  0
  7 26  1  0  0  0
  7 29  1  0  0  0
  8  9  1  0  0  0
  8 22  1  0  0  0
  9 10  1  0  0  0
  9 27  2  0  0  0
 10 11  2  0  0  0
 10 15  1  0  0  0
 11 12  1  0  0  0
 11 94  1  0  0  0
 12 13  2  0  0  0
 12 95  1  0  0  0
 13 14  1  0  0  0
 13 31  1  0  0  0
 14 15  2  0  0  0
 14 96  1  0  0  0
 15 97  1  0  0  0
 16 17  2  0  0  0
 16 21  1  0  0  0
 16 31  1  0  0  0
 17 18  1  0  0  0
 17 98  1  0  0  0
 18 19  2  0  0  0
 18 99  1  0  0  0
 19 20  1  0  0  0
 19 24  1  0  0  0
 20 21  2  0  0  0
 20100  1  0  0  0
 21 23  1  0  0  0
 22 28  1  0  0  0
 22 32  2  0  0  0
 26 27  1  0  0  0
 28101  1  0  0  0
 28102  1  0  0  0
 29103  1  0  0  0
 29104  1  0  0  0
 33 34  1  0  0  0
 33 66  1  0  0  0
 33 70  2  0  0  0
 34 36  1  0  0  0
 34 59  1  0  0  0
 34105  1  0  0  0
 35 44  2  0  0  0
 35 45  1  0  0  0
 35 68  1  0  0  0
 36 56  1  0  0  0
 36106  1  0  0  0
 37 39  1  0  0  0
 37 47  1  0  0  0
 37 66  1  0  0  0
 37107  1  0  0  0
 38 43  2  0  0  0
 38 46  1  0  0  0
 38 47  1  0  0  0
 39 64  1  0  0  0
 39 67  2  0  0  0
 40 52  1  0  0  0
 40 53  2  0  0  0
 40 58  1  0  0  0
 41108  1  0  0  0
 41109  1  0  0  0
 41110  1  0  0  0
 41 48  1  0  0  0
 42 43  1  0  0  0
 42 66  1  0  0  0
 42111  1  0  0  0
 42112  1  0  0  0
 43 44  1  0  0  0
 44113  1  0  0  0
 45 46  2  0  0  0
 45114  1  0  0  0
 46115  1  0  0  0
 47116  1  0  0  0
 47117  1  0  0  0
 48 56  1  0  0  0
 48 65  1  0  0  0
 48118  1  0  0  0
 49 50  1  0  0  0
 49 53  1  0  0  0
 49 64  1  0  0  0
 49119  1  0  0  0
 50 51  1  0  0  0
 50120  1  0  0  0
 50121  1  0  0  0
 51 52  1  0  0  0
 51122  1  0  0  0
 51123  1  0  0  0
 52124  1  0  0  0
 52125  1  0  0  0
 53 54  1  0  0  0
 54 55  2  0  0  0
 54126  1  0  0  0
 55 57  1  0  0  0
 55127  1  0  0  0
 56 69  2  0  0  0
 57 58  2  0  0  0
 57128  1  0  0  0
 58129  1  0  0  0
 59 60  1  0  0  0
 59 61  1  0  0  0
 59 62  1  0  0  0
 60130  1  0  0  0
 60131  1  0  0  0
 60132  1  0  0  0
 61133  1  0  0  0
 61134  1  0  0  0
 61135  1  0  0  0
 62136  1  0  0  0
 62137  1  0  0  0
 62138  1  0  0  0
 63 65  1  0  0  0
 63139  1  0  0  0
 63140  1  0  0  0
 63141  1  0  0  0
 64142  1  0  0  0
 65143  1  0  0  0
 68 81  1  0  0  0
 71 72  2  0  0  0
 71 74  1  0  0  0
 71144  1  0  0  0
 72 76  1  0  0  0
 72145  1  0  0  0
 73 75  1  0  0  0
 73 76  2  0  0  0
 73146  1  0  0  0
 74 75  2  0  0  0
 74 79  1  0  0  0
 75 78  1  0  0  0
 76 83  1  0  0  0
 77 81  1  0  0  0
 77 82  1  0  0  0
 77 84  2  0  0  0
 78 80  1  0  0  0
 78147  1  0  0  0
 78148  1  0  0  0
 79 82  1  0  0  0
 79149  1  0  0  0
 79150  1  0  0  0
 80 82  1  0  0  0
 80151  1  0  0  0
 80152  1  0  0  0
 81153  1  0  0  0
 81154  1  0  0  0
 83155  1  0  0  0
M  ISO  4   1 100  68 101  81 101  83 100
M  END
> <chiral flag>
0

> <version>
0

> <s_m_source_file>
/data/baiqing/PycharmProjects/Reinvent-master-3.2/result/LINK_invent/BTK/process_docking_weight1_custom_product_contain_oxygen_bond_distance_aromatic_linkinvent_7_9_3/rearranged_h_0084.sdf

> <i_m_source_file_index>
74

> <r_mmod_Potential_Energy-OPLS-2005>
103.37141418457

> <r_mmod_Stretch_Energy-OPLS-2005>
94.1952133178711

> <r_mmod_Bend_Energy-OPLS-2005>
140.898803710938

> <r_mmod_Torsional_Energy-OPLS-2005>
243.7373046875

> <r_mmod_Improper_Torsional_Energy-OPLS-2005>
4.75913619995117

> <r_mmod_Van_der_Waal_Energy-OPLS-2005>
152.199447631836

> <r_mmod_Electrostatic_Energy-OPLS-2005>
-346.654174804688

> <r_mmod_Solvation_Energy-OPLS-2005>
-247.07112121582

> <b_mmod_Minimization_Converged-OPLS-2005>
0

> <r_mmod_RMS_Derivative-OPLS-2005>
1.63017416000366

$$$$
74
                    3D
 Structure written by MMmdl.
151160  0  0  1  0            999 V2000
  -30.4552  -15.3433   20.4015 C   0  0  0  0  0  0
  -30.4375  -12.8466   19.5930 C   0  0  0  0  0  0
  -29.5596  -12.6151   18.3333 C   0  0  0  0  0  0
  -28.1108  -12.3143   18.7449 C   0  0  0  0  0  0
  -27.6190  -13.2975   19.8326 C   0  0  2  0  0  0
  -28.6354  -13.5174   20.9837 C   0  0  0  0  0  0
  -25.2393  -13.8312   20.5745 C   0  0  0  0  0  0
  -24.1751  -13.0454   20.9222 C   0  0  0  0  0  0
  -24.6468  -11.6974   20.8738 C   0  0  0  0  0  0
  -23.9174  -10.4306   21.0375 C   0  0  0  0  0  0
  -24.3694   -9.4216   21.9148 C   0  0  0  0  0  0
  -23.6358   -8.2256   22.0733 C   0  0  0  0  0  0
  -22.4320   -8.0286   21.3555 C   0  0  0  0  0  0
  -21.9990   -9.0257   20.4640 C   0  0  0  0  0  0
  -22.7340  -10.2130   20.3036 C   0  0  0  0  0  0
  -21.6889   -6.0761   22.5278 C   0  0  0  0  0  0
  -21.4068   -6.5653   23.8228 C   0  0  0  0  0  0
  -21.3685   -5.6797   24.9186 C   0  0  0  0  0  0
  -21.6033   -4.3065   24.7219 C   0  0  0  0  0  0
  -21.8806   -3.8157   23.4339 C   0  0  0  0  0  0
  -21.9191   -4.6978   22.3404 C   0  0  0  0  0  0
  -22.7749  -13.5162   21.1851 C   0  0  0  0  0  0
  -22.1633   -4.2171   21.0972 F   0  0  0  0  0  0
  -21.5623   -3.4526   25.7713 F   0  0  0  0  0  0
  -29.8919  -14.0196   20.3976 N   0  0  0  0  0  0
  -26.2870  -12.9633   20.3217 N   0  0  0  0  0  0
  -25.9423  -11.6726   20.5726 N   0  0  0  0  0  0
  -22.0438  -12.8173   22.0456 N   0  0  0  0  0  0
  -25.3992  -15.2065   20.4252 N   0  0  0  0  0  0
  -31.6247  -15.3155   19.9918 O   0  0  0  0  0  0
  -21.6664   -6.8897   21.4228 O   0  0  0  0  0  0
  -22.3381  -14.5414   20.6636 O   0  0  0  0  0  0
  -24.6643  -31.8174   23.1651 C   0  0  0  0  0  0
  -25.9266  -32.4589   23.8116 C   0  0  1  0  0  0
  -27.2572  -26.8851   20.2201 C   0  0  0  0  0  0
  -25.5910  -33.8402   24.2033 N   0  0  0  0  0  0
  -23.4866  -30.4196   21.5143 C   0  0  2  0  0  0
  -24.9555  -28.7958   20.1104 C   0  0  0  0  0  0
  -22.7663  -29.4388   22.4758 C   0  0  0  0  0  0
  -18.0303  -28.1458   22.8528 C   0  0  0  0  0  0
  -24.1466  -36.7191   23.2657 C   0  0  0  0  0  0
  -26.0527  -30.6112   21.4039 C   0  0  0  0  0  0
  -26.1291  -29.1926   20.7584 C   0  0  0  0  0  0
  -27.2633  -28.2565   20.7962 C   0  0  0  0  0  0
  -26.0623  -26.6529   19.4978 C   0  0  0  0  0  0
  -24.9501  -27.5472   19.4584 C   0  0  0  0  0  0
  -23.7358  -29.7227   20.1448 C   0  0  0  0  0  0
  -25.4120  -36.2995   24.0318 C   0  0  1  0  0  0
  -20.5937  -28.3774   23.1248 C   0  0  2  0  0  0
  -20.6800  -26.9449   22.5455 C   0  0  0  0  0  0
  -19.5773  -26.6418   21.5278 C   0  0  0  0  0  0
  -18.1944  -26.7997   22.1659 C   0  0  0  0  0  0
  -19.1568  -28.8937   23.2882 C   0  0  0  0  0  0
  -18.9479  -30.1532   23.8921 C   0  0  0  0  0  0
  -17.6475  -30.6652   24.0595 C   0  0  0  0  0  0
  -25.9081  -34.9360   23.5007 C   0  0  0  0  0  0
  -16.5372  -29.9160   23.6378 C   0  0  0  0  0  0
  -16.7284  -28.6566   23.0435 C   0  0  0  0  0  0
  -26.4500  -31.6591   25.0666 C   0  0  0  0  0  0
  -25.3589  -31.3889   26.1316 C   0  0  0  0  0  0
  -27.0379  -30.2955   24.6431 C   0  0  0  0  0  0
  -27.6052  -32.4360   25.7437 C   0  0  0  0  0  0
  -27.5558  -37.1755   24.8466 C   0  0  0  0  0  0
  -21.4320  -29.3030   22.3528 N   0  0  0  0  0  0
  -26.4275  -37.3727   23.9415 N   0  0  0  0  0  0
  -24.7556  -30.9787   22.0816 N   0  0  0  0  0  0
  -23.4176  -28.7964   23.3039 O   0  0  0  0  0  0
  -28.2681  -25.7811   20.4193 O   0  0  0  0  0  0
  -26.5728  -34.8920   22.4627 O   0  0  0  0  0  0
  -23.5697  -32.1124   23.6712 O   0  0  0  0  0  0
  -29.3772  -18.1902   22.9483 C   0  0  0  0  0  0
  -30.1224  -20.4690   23.1803 C   0  0  0  0  0  0
  -29.4759  -16.9537   22.2514 C   0  0  0  0  0  0
  -30.8387  -21.5293   22.5881 C   0  0  0  0  0  0
  -29.8119  -18.3034   20.2778 C   0  0  0  0  0  0
  -29.5782  -19.4643   22.3513 C   0  0  0  0  0  0
  -29.5226  -19.6939   20.9443 C   0  0  0  0  0  0
  -29.8524  -16.8648   20.8928 C   0  0  0  0  0  0
  -29.5713  -21.2369   20.5306 C   0  0  0  0  0  0
  -30.6680  -21.8257   21.2161 C   0  0  0  0  0  0
  -28.5062  -22.6132   20.6378 C   0  0  0  0  0  0
  -28.4651  -24.2129   19.8578 C   0  0  0  0  0  0
  -27.5430  -22.4538   21.3928 O   0  0  0  0  0  0
  -31.3846  -22.8595   20.6708 O   0  0  0  0  0  0
  -31.4732  -12.9981   19.2892 H   0  0  0  0  0  0
  -30.4559  -11.9419   20.2060 H   0  0  0  0  0  0
  -29.9596  -11.7988   17.7291 H   0  0  0  0  0  0
  -29.5859  -13.5090   17.7091 H   0  0  0  0  0  0
  -28.0833  -11.2940   19.1354 H   0  0  0  0  0  0
  -27.4542  -12.3304   17.8733 H   0  0  0  0  0  0
  -27.5233  -14.2527   19.3153 H   0  0  0  0  0  0
  -28.7943  -12.6082   21.5618 H   0  0  0  0  0  0
  -28.2498  -14.2622   21.6770 H   0  0  0  0  0  0
  -25.2829   -9.5679   22.4726 H   0  0  0  0  0  0
  -24.0039   -7.4675   22.7491 H   0  0  0  0  0  0
  -21.0895   -8.8834   19.8968 H   0  0  0  0  0  0
  -22.3813  -10.9675   19.6142 H   0  0  0  0  0  0
  -21.2105   -7.6166   23.9751 H   0  0  0  0  0  0
  -21.1522   -6.0513   25.9089 H   0  0  0  0  0  0
  -22.0562   -2.7606   23.2822 H   0  0  0  0  0  0
  -22.4112  -11.9933   22.4964 H   0  0  0  0  0  0
  -21.1030  -13.1180   22.2601 H   0  0  0  0  0  0
  -24.6319  -15.8535   20.5723 H   0  0  0  0  0  0
  -26.2585  -15.6651   20.1510 H   0  0  0  0  0  0
  -26.7337  -32.5155   23.0833 H   0  0  0  0  0  0
  -24.9943  -33.9456   25.0112 H   0  0  0  0  0  0
  -22.8052  -31.2546   21.3337 H   0  0  0  0  0  0
  -23.3773  -35.9477   23.3309 H   0  0  0  0  0  0
  -24.3528  -36.8835   22.2072 H   0  0  0  0  0  0
  -23.7168  -37.6354   23.6702 H   0  0  0  0  0  0
  -26.2275  -31.3454   20.6174 H   0  0  0  0  0  0
  -26.9154  -30.6823   22.0542 H   0  0  0  0  0  0
  -28.1370  -28.5479   21.3611 H   0  0  0  0  0  0
  -25.9399  -25.6967   19.0071 H   0  0  0  0  0  0
  -24.0601  -27.2379   18.9305 H   0  0  0  0  0  0
  -23.8788  -30.4833   19.3781 H   0  0  0  0  0  0
  -22.8484  -29.1665   19.8348 H   0  0  0  0  0  0
  -25.1324  -36.1803   25.0813 H   0  0  0  0  0  0
  -21.0050  -28.3408   24.1367 H   0  0  0  0  0  0
  -20.5762  -26.2356   23.3670 H   0  0  0  0  0  0
  -21.6655  -26.7491   22.1214 H   0  0  0  0  0  0
  -19.6928  -25.6324   21.1324 H   0  0  0  0  0  0
  -19.6764  -27.3230   20.6815 H   0  0  0  0  0  0
  -17.4228  -26.6806   21.4046 H   0  0  0  0  0  0
  -18.0296  -26.0148   22.9050 H   0  0  0  0  0  0
  -19.7956  -30.7337   24.2327 H   0  0  0  0  0  0
  -17.5045  -31.6353   24.5159 H   0  0  0  0  0  0
  -15.5392  -30.3088   23.7698 H   0  0  0  0  0  0
  -15.8673  -28.0870   22.7229 H   0  0  0  0  0  0
  -24.5810  -30.7204   25.7580 H   0  0  0  0  0  0
  -24.8723  -32.3100   26.4518 H   0  0  0  0  0  0
  -25.7764  -30.9175   27.0223 H   0  0  0  0  0  0
  -26.3019  -29.6661   24.1420 H   0  0  0  0  0  0
  -27.3849  -29.7323   25.5099 H   0  0  0  0  0  0
  -27.8979  -30.4120   23.9853 H   0  0  0  0  0  0
  -27.2698  -33.3726   26.1898 H   0  0  0  0  0  0
  -28.3900  -32.6822   25.0271 H   0  0  0  0  0  0
  -28.0662  -31.8546   26.5434 H   0  0  0  0  0  0
  -28.2620  -38.0023   24.7519 H   0  0  0  0  0  0
  -28.1030  -36.2560   24.6297 H   0  0  0  0  0  0
  -27.2270  -37.1376   25.8873 H   0  0  0  0  0  0
  -20.9545  -29.8587   21.6558 H   0  0  0  0  0  0
  -26.0136  -38.2784   24.1488 H   0  0  0  0  0  0
  -29.3340  -18.1239   24.0291 H   0  0  0  0  0  0
  -30.2524  -20.2992   24.2428 H   0  0  0  0  0  0
  -29.4398  -16.0461   22.8391 H   0  0  0  0  0  0
  -31.4965  -22.1271   23.2087 H   0  0  0  0  0  0
  -30.0713  -18.3453   19.2311 H   0  0  0  0  0  0
  -27.6988  -24.0957   19.0913 H   0  0  0  0  0  0
  -29.4009  -24.2510   19.2976 H   0  0  0  0  0  0
  -32.1266  -23.1387   21.2048 H   0  0  0  0  0  0
  1 25  1  0  0  0
  1 30  2  0  0  0
  1 78  1  0  0  0
  2  3  1  0  0  0
  2 25  1  0  0  0
  2 85  1  0  0  0
  2 86  1  0  0  0
  3  4  1  0  0  0
  3 87  1  0  0  0
  3 88  1  0  0  0
  4  5  1  0  0  0
  4 89  1  0  0  0
  4 90  1  0  0  0
  5  6  1  0  0  0
  5 26  1  0  0  0
  5 91  1  0  0  0
  6 25  1  0  0  0
  6 92  1  0  0  0
  6 93  1  0  0  0
  7  8  2  0  0  0
  7 26  1  0  0  0
  7 29  1  0  0  0
  8  9  1  0  0  0
  8 22  1  0  0  0
  9 10  1  0  0  0
  9 27  2  0  0  0
 10 11  2  0  0  0
 10 15  1  0  0  0
 11 12  1  0  0  0
 11 94  1  0  0  0
 12 13  2  0  0  0
 12 95  1  0  0  0
 13 14  1  0  0  0
 13 31  1  0  0  0
 14 15  2  0  0  0
 14 96  1  0  0  0
 15 97  1  0  0  0
 16 17  2  0  0  0
 16 21  1  0  0  0
 16 31  1  0  0  0
 17 18  1  0  0  0
 17 98  1  0  0  0
 18 19  2  0  0  0
 18 99  1  0  0  0
 19 20  1  0  0  0
 19 24  1  0  0  0
 20 21  2  0  0  0
 20100  1  0  0  0
 21 23  1  0  0  0
 22 28  1  0  0  0
 22 32  2  0  0  0
 26 27  1  0  0  0
 28101  1  0  0  0
 28102  1  0  0  0
 29103  1  0  0  0
 29104  1  0  0  0
 33 34  1  0  0  0
 33 66  1  0  0  0
 33 70  2  0  0  0
 34 36  1  0  0  0
 34 59  1  0  0  0
 34105  1  0  0  0
 35 44  2  0  0  0
 35 45  1  0  0  0
 35 68  1  0  0  0
 36 56  1  0  0  0
 36106  1  0  0  0
 37 39  1  0  0  0
 37 47  1  0  0  0
 37 66  1  0  0  0
 37107  1  0  0  0
 38 43  2  0  0  0
 38 46  1  0  0  0
 38 47  1  0  0  0
 39 64  1  0  0  0
 39 67  2  0  0  0
 40 52  1  0  0  0
 40 53  2  0  0  0
 40 58  1  0  0  0
 41108  1  0  0  0
 41109  1  0  0  0
 41110  1  0  0  0
 41 48  1  0  0  0
 42 43  1  0  0  0
 42 66  1  0  0  0
 42111  1  0  0  0
 42112  1  0  0  0
 43 44  1  0  0  0
 44113  1  0  0  0
 45 46  2  0  0  0
 45114  1  0  0  0
 46115  1  0  0  0
 47116  1  0  0  0
 47117  1  0  0  0
 48 56  1  0  0  0
 48 65  1  0  0  0
 48118  1  0  0  0
 49 50  1  0  0  0
 49 53  1  0  0  0
 49 64  1  0  0  0
 49119  1  0  0  0
 50 51  1  0  0  0
 50120  1  0  0  0
 50121  1  0  0  0
 51 52  1  0  0  0
 51122  1  0  0  0
 51123  1  0  0  0
 52124  1  0  0  0
 52125  1  0  0  0
 53 54  1  0  0  0
 54 55  2  0  0  0
 54126  1  0  0  0
 55 57  1  0  0  0
 55127  1  0  0  0
 56 69  2  0  0  0
 57 58  2  0  0  0
 57128  1  0  0  0
 58129  1  0  0  0
 59 60  1  0  0  0
 59 61  1  0  0  0
 59 62  1  0  0  0
 60130  1  0  0  0
 60131  1  0  0  0
 60132  1  0  0  0
 61133  1  0  0  0
 61134  1  0  0  0
 61135  1  0  0  0
 62136  1  0  0  0
 62137  1  0  0  0
 62138  1  0  0  0
 63 65  1  0  0  0
 63139  1  0  0  0
 63140  1  0  0  0
 63141  1  0  0  0
 64142  1  0  0  0
 65143  1  0  0  0
 68 82  1  0  0  0
 71 73  2  0  0  0
 71 76  1  0  0  0
 71144  1  0  0  0
 72 74  1  0  0  0
 72 76  2  0  0  0
 72145  1  0  0  0
 73 78  1  0  0  0
 73146  1  0  0  0
 74 80  2  0  0  0
 74147  1  0  0  0
 75 77  1  0  0  0
 75 78  2  0  0  0
 75148  1  0  0  0
 76 77  1  0  0  0
 77 79  2  0  0  0
 79 80  1  0  0  0
 79 81  1  0  0  0
 80 84  1  0  0  0
 81 82  1  0  0  0
 81 83  2  0  0  0
 82149  1  0  0  0
 82150  1  0  0  0
 84151  1  0  0  0
M  ISO  4   1 100  68 101  78 100  82 101
M  END
> <chiral flag>
0

> <version>
0

> <s_m_source_file>
/data/baiqing/PycharmProjects/Reinvent-master-3.2/result/LINK_invent/BTK/process_docking_weight1_custom_product_contain_oxygen_bond_distance_aromatic_linkinvent_7_9_3/rearranged_h_0084.sdf

> <i_m_source_file_index>
75

> <r_mmod_Potential_Energy-OPLS-2005>
1914.18823242188

> <r_mmod_Stretch_Energy-OPLS-2005>
687.628967285156

> <r_mmod_Bend_Energy-OPLS-2005>
530.3984375

> <r_mmod_Torsional_Energy-OPLS-2005>
459.773773193359

> <r_mmod_Improper_Torsional_Energy-OPLS-2005>
35.951057434082

> <r_mmod_Van_der_Waal_Energy-OPLS-2005>
143.922790527344

> <r_mmod_Electrostatic_Energy-OPLS-2005>
-251.652389526367

> <r_mmod_Solvation_Energy-OPLS-2005>
-228.959350585938

> <b_mmod_Minimization_Converged-OPLS-2005>
0

> <r_mmod_RMS_Derivative-OPLS-2005>
5.93782949447632

$$$$
75
                    3D
 Structure written by MMmdl.
149157  0  0  1  0            999 V2000
  -30.6353  -14.5653   20.5831 C   0  0  0  0  0  0
  -30.4450  -12.3658   19.4336 C   0  0  0  0  0  0
  -29.5066  -12.5258   18.2162 C   0  0  0  0  0  0
  -28.0279  -12.3667   18.6247 C   0  0  0  0  0  0
  -27.6635  -13.2063   19.8767 C   0  0  2  0  0  0
  -28.7049  -12.9860   20.9975 C   0  0  0  0  0  0
  -25.2552  -13.8117   20.5579 C   0  0  0  0  0  0
  -24.1842  -13.0412   20.9198 C   0  0  0  0  0  0
  -24.6407  -11.6885   20.8762 C   0  0  0  0  0  0
  -23.9064  -10.4278   21.0420 C   0  0  0  0  0  0
  -24.3611   -9.4193   21.9194 C   0  0  0  0  0  0
  -23.6284   -8.2231   22.0757 C   0  0  0  0  0  0
  -22.4270   -8.0273   21.3540 C   0  0  0  0  0  0
  -21.9907   -9.0254   20.4649 C   0  0  0  0  0  0
  -22.7238  -10.2132   20.3064 C   0  0  0  0  0  0
  -21.6849   -6.0729   22.5277 C   0  0  0  0  0  0
  -21.4012   -6.5635   23.8210 C   0  0  0  0  0  0
  -21.3660   -5.6790   24.9173 C   0  0  0  0  0  0
  -21.6044   -4.3051   24.7224 C   0  0  0  0  0  0
  -21.8821   -3.8140   23.4346 C   0  0  0  0  0  0
  -21.9192   -4.6956   22.3401 C   0  0  0  0  0  0
  -22.7865  -13.5220   21.1852 C   0  0  0  0  0  0
  -22.1661   -4.2139   21.0980 F   0  0  0  0  0  0
  -21.5627   -3.4538   25.7737 F   0  0  0  0  0  0
  -30.0340  -13.3411   20.4607 N   0  0  0  0  0  0
  -26.3024  -12.9305   20.3332 N   0  0  0  0  0  0
  -25.9336  -11.6472   20.5784 N   0  0  0  0  0  0
  -22.0495  -12.8229   22.0411 N   0  0  0  0  0  0
  -25.4151  -15.1804   20.3726 N   0  0  0  0  0  0
  -31.7283  -14.8219   20.0654 O   0  0  0  0  0  0
  -21.6634   -6.8870   21.4237 O   0  0  0  0  0  0
  -22.3564  -14.5530   20.6696 O   0  0  0  0  0  0
  -24.6203  -31.8632   23.2047 C   0  0  0  0  0  0
  -25.9070  -32.4800   23.8367 C   0  0  1  0  0  0
  -27.2392  -27.3772   20.1162 C   0  0  0  0  0  0
  -25.5900  -33.8600   24.2296 N   0  0  0  0  0  0
  -23.4124  -30.4839   21.5459 C   0  0  2  0  0  0
  -24.8625  -28.9360   20.1205 C   0  0  0  0  0  0
  -22.7442  -29.4637   22.4966 C   0  0  0  0  0  0
  -18.0278  -28.1382   22.8492 C   0  0  0  0  0  0
  -24.1484  -36.7312   23.2640 C   0  0  0  0  0  0
  -25.9467  -30.8110   21.3667 C   0  0  0  0  0  0
  -26.0258  -29.4382   20.7191 C   0  0  0  0  0  0
  -27.2201  -28.6684   20.7093 C   0  0  0  0  0  0
  -26.0571  -26.8999   19.5150 C   0  0  0  0  0  0
  -24.8749  -27.6674   19.5143 C   0  0  0  0  0  0
  -23.6268  -29.8110   20.1636 C   0  0  0  0  0  0
  -25.4107  -36.3102   24.0334 C   0  0  1  0  0  0
  -20.5872  -28.3678   23.1302 C   0  0  2  0  0  0
  -20.6765  -26.9409   22.5414 C   0  0  0  0  0  0
  -19.5742  -26.6386   21.5214 C   0  0  0  0  0  0
  -18.1923  -26.7925   22.1629 C   0  0  0  0  0  0
  -19.1530  -28.8847   23.2892 C   0  0  0  0  0  0
  -18.9456  -30.1451   23.8907 C   0  0  0  0  0  0
  -17.6458  -30.6587   24.0567 C   0  0  0  0  0  0
  -25.9039  -34.9467   23.5116 C   0  0  0  0  0  0
  -16.5349  -29.9090   23.6330 C   0  0  0  0  0  0
  -16.7268  -28.6506   23.0351 C   0  0  0  0  0  0
  -26.4477  -31.6595   25.0717 C   0  0  0  0  0  0
  -25.3733  -31.3720   26.1462 C   0  0  0  0  0  0
  -27.0310  -30.3027   24.6128 C   0  0  0  0  0  0
  -27.6045  -32.4323   25.7483 C   0  0  0  0  0  0
  -27.5578  -37.1812   24.8466 C   0  0  0  0  0  0
  -21.4162  -29.3038   22.3704 N   0  0  0  0  0  0
  -26.4293  -37.3789   23.9406 N   0  0  0  0  0  0
  -24.6781  -31.0686   22.0970 N   0  0  0  0  0  0
  -23.4187  -28.8186   23.3036 O   0  0  0  0  0  0
  -28.3821  -26.5915   20.0595 O   0  0  0  0  0  0
  -26.5613  -34.8929   22.4686 O   0  0  0  0  0  0
  -23.5379  -32.1407   23.7405 O   0  0  0  0  0  0
  -30.4014  -18.0018   20.8445 C   0  0  0  0  0  0
  -28.2287  -17.1776   21.1186 C   0  0  0  0  0  0
  -29.5549  -16.8414   21.0326 C   0  0  0  0  0  0
  -29.6930  -19.2056   20.8080 C   0  0  0  0  0  0
  -29.1175  -24.2815   20.4118 C   0  0  0  0  0  0
  -28.4137  -25.3946   20.7701 C   0  0  0  0  0  0
  -30.1233  -20.6581   20.8289 C   0  0  0  0  0  0
  -29.3152  -23.0237   21.2978 C   0  0  0  0  0  0
  -29.9254  -15.4699   21.3046 N   0  0  0  0  0  0
  -29.2028  -21.6577   20.7021 N   0  0  0  0  0  0
  -31.3118  -20.9161   21.0267 O   0  0  0  0  0  0
  -27.9732  -18.8922   20.9213 S   0  0  0  0  0  0
  -31.4847  -12.5033   19.1313 H   0  0  0  0  0  0
  -30.3830  -11.3520   19.8330 H   0  0  0  0  0  0
  -29.7603  -11.7958   17.4467 H   0  0  0  0  0  0
  -29.6563  -13.5082   17.7652 H   0  0  0  0  0  0
  -27.8510  -11.3092   18.8250 H   0  0  0  0  0  0
  -27.3759  -12.6308   17.7916 H   0  0  0  0  0  0
  -27.7058  -14.2551   19.5819 H   0  0  0  0  0  0
  -28.7037  -11.9410   21.3119 H   0  0  0  0  0  0
  -28.4364  -13.5486   21.8922 H   0  0  0  0  0  0
  -25.2759   -9.5666   22.4768 H   0  0  0  0  0  0
  -23.9986   -7.4623   22.7480 H   0  0  0  0  0  0
  -21.0833   -8.8785   19.8958 H   0  0  0  0  0  0
  -22.3701  -10.9679   19.6174 H   0  0  0  0  0  0
  -21.2005   -7.6144   23.9711 H   0  0  0  0  0  0
  -21.1481   -6.0519   25.9076 H   0  0  0  0  0  0
  -22.0598   -2.7599   23.2853 H   0  0  0  0  0  0
  -22.4100  -11.9891   22.4813 H   0  0  0  0  0  0
  -21.1122  -13.1281   22.2616 H   0  0  0  0  0  0
  -24.6018  -15.7868   20.3844 H   0  0  0  0  0  0
  -26.1719  -15.5547   19.8148 H   0  0  0  0  0  0
  -26.7143  -32.5499   23.1131 H   0  0  0  0  0  0
  -25.0029  -33.9751   25.0426 H   0  0  0  0  0  0
  -22.7034  -31.3016   21.4005 H   0  0  0  0  0  0
  -23.3738  -35.9655   23.3318 H   0  0  0  0  0  0
  -24.3573  -36.8913   22.2051 H   0  0  0  0  0  0
  -23.7248  -37.6525   23.6648 H   0  0  0  0  0  0
  -26.0642  -31.5715   20.5936 H   0  0  0  0  0  0
  -26.8323  -30.8684   21.9877 H   0  0  0  0  0  0
  -28.1217  -29.0551   21.1633 H   0  0  0  0  0  0
  -26.0561  -25.9275   19.0432 H   0  0  0  0  0  0
  -23.9822  -27.2736   19.0479 H   0  0  0  0  0  0
  -23.7428  -30.5842   19.4031 H   0  0  0  0  0  0
  -22.7493  -29.2348   19.8645 H   0  0  0  0  0  0
  -25.1286  -36.1962   25.0827 H   0  0  0  0  0  0
  -20.9963  -28.3250   24.1424 H   0  0  0  0  0  0
  -20.5661  -26.2293   23.3609 H   0  0  0  0  0  0
  -21.6635  -26.7440   22.1212 H   0  0  0  0  0  0
  -19.6903  -25.6299   21.1236 H   0  0  0  0  0  0
  -19.6678  -27.3203   20.6749 H   0  0  0  0  0  0
  -17.4189  -26.6675   21.4034 H   0  0  0  0  0  0
  -18.0328  -26.0066   22.9026 H   0  0  0  0  0  0
  -19.7932  -30.7262   24.2283 H   0  0  0  0  0  0
  -17.5013  -31.6267   24.5167 H   0  0  0  0  0  0
  -15.5350  -30.2995   23.7642 H   0  0  0  0  0  0
  -15.8669  -28.0828   22.7058 H   0  0  0  0  0  0
  -24.5890  -30.7088   25.7797 H   0  0  0  0  0  0
  -24.8948  -32.2886   26.4922 H   0  0  0  0  0  0
  -25.8075  -30.8872   27.0215 H   0  0  0  0  0  0
  -26.2865  -29.6789   24.1166 H   0  0  0  0  0  0
  -27.4042  -29.7268   25.4607 H   0  0  0  0  0  0
  -27.8719  -30.4329   23.9312 H   0  0  0  0  0  0
  -27.2654  -33.3612   26.2082 H   0  0  0  0  0  0
  -28.3843  -32.6902   25.0304 H   0  0  0  0  0  0
  -28.0729  -31.8437   26.5382 H   0  0  0  0  0  0
  -28.2611  -38.0094   24.7495 H   0  0  0  0  0  0
  -28.1057  -36.2626   24.6311 H   0  0  0  0  0  0
  -27.2298  -37.1485   25.8871 H   0  0  0  0  0  0
  -20.9331  -29.8763   21.6923 H   0  0  0  0  0  0
  -26.0181  -38.2870   24.1392 H   0  0  0  0  0  0
  -31.4799  -17.9344   20.8208 H   0  0  0  0  0  0
  -27.3752  -16.5439   21.3178 H   0  0  0  0  0  0
  -29.6462  -24.2816   19.4690 H   0  0  0  0  0  0
  -27.8494  -25.4580   21.6914 H   0  0  0  0  0  0
  -28.6006  -23.0763   22.1205 H   0  0  0  0  0  0
  -30.2943  -23.1353   21.7667 H   0  0  0  0  0  0
  -29.2059  -14.9756   21.8091 H   0  0  0  0  0  0
  -28.2648  -21.3571   20.4699 H   0  0  0  0  0  0
  1 25  1  0  0  0
  1 30  2  0  0  0
  1 79  1  0  0  0
  2  3  1  0  0  0
  2 25  1  0  0  0
  2 83  1  0  0  0
  2 84  1  0  0  0
  3  4  1  0  0  0
  3 85  1  0  0  0
  3 86  1  0  0  0
  4  5  1  0  0  0
  4 87  1  0  0  0
  4 88  1  0  0  0
  5  6  1  0  0  0
  5 26  1  0  0  0
  5 89  1  0  0  0
  6 25  1  0  0  0
  6 90  1  0  0  0
  6 91  1  0  0  0
  7  8  2  0  0  0
  7 26  1  0  0  0
  7 29  1  0  0  0
  8  9  1  0  0  0
  8 22  1  0  0  0
  9 10  1  0  0  0
  9 27  2  0  0  0
 10 11  2  0  0  0
 10 15  1  0  0  0
 11 12  1  0  0  0
 11 92  1  0  0  0
 12 13  2  0  0  0
 12 93  1  0  0  0
 13 14  1  0  0  0
 13 31  1  0  0  0
 14 15  2  0  0  0
 14 94  1  0  0  0
 15 95  1  0  0  0
 16 17  2  0  0  0
 16 21  1  0  0  0
 16 31  1  0  0  0
 17 18  1  0  0  0
 17 96  1  0  0  0
 18 19  2  0  0  0
 18 97  1  0  0  0
 19 20  1  0  0  0
 19 24  1  0  0  0
 20 21  2  0  0  0
 20 98  1  0  0  0
 21 23  1  0  0  0
 22 28  1  0  0  0
 22 32  2  0  0  0
 26 27  1  0  0  0
 28 99  1  0  0  0
 28100  1  0  0  0
 29101  1  0  0  0
 29102  1  0  0  0
 33 34  1  0  0  0
 33 66  1  0  0  0
 33 70  2  0  0  0
 34 36  1  0  0  0
 34 59  1  0  0  0
 34103  1  0  0  0
 35 44  2  0  0  0
 35 45  1  0  0  0
 35 68  1  0  0  0
 36 56  1  0  0  0
 36104  1  0  0  0
 37 39  1  0  0  0
 37 47  1  0  0  0
 37 66  1  0  0  0
 37105  1  0  0  0
 38 43  2  0  0  0
 38 46  1  0  0  0
 38 47  1  0  0  0
 39 64  1  0  0  0
 39 67  2  0  0  0
 40 52  1  0  0  0
 40 53  2  0  0  0
 40 58  1  0  0  0
 41106  1  0  0  0
 41107  1  0  0  0
 41108  1  0  0  0
 41 48  1  0  0  0
 42 43  1  0  0  0
 42 66  1  0  0  0
 42109  1  0  0  0
 42110  1  0  0  0
 43 44  1  0  0  0
 44111  1  0  0  0
 45 46  2  0  0  0
 45112  1  0  0  0
 46113  1  0  0  0
 47114  1  0  0  0
 47115  1  0  0  0
 48 56  1  0  0  0
 48 65  1  0  0  0
 48116  1  0  0  0
 49 50  1  0  0  0
 49 53  1  0  0  0
 49 64  1  0  0  0
 49117  1  0  0  0
 50 51  1  0  0  0
 50118  1  0  0  0
 50119  1  0  0  0
 51 52  1  0  0  0
 51120  1  0  0  0
 51121  1  0  0  0
 52122  1  0  0  0
 52123  1  0  0  0
 53 54  1  0  0  0
 54 55  2  0  0  0
 54124  1  0  0  0
 55 57  1  0  0  0
 55125  1  0  0  0
 56 69  2  0  0  0
 57 58  2  0  0  0
 57126  1  0  0  0
 58127  1  0  0  0
 59 60  1  0  0  0
 59 61  1  0  0  0
 59 62  1  0  0  0
 60128  1  0  0  0
 60129  1  0  0  0
 60130  1  0  0  0
 61131  1  0  0  0
 61132  1  0  0  0
 61133  1  0  0  0
 62134  1  0  0  0
 62135  1  0  0  0
 62136  1  0  0  0
 63 65  1  0  0  0
 63137  1  0  0  0
 63138  1  0  0  0
 63139  1  0  0  0
 64140  1  0  0  0
 65141  1  0  0  0
 68 76  1  0  0  0
 71 73  1  0  0  0
 71 74  2  0  0  0
 71142  1  0  0  0
 72 73  2  0  0  0
 72 82  1  0  0  0
 72143  1  0  0  0
 73 79  1  0  0  0
 74 77  1  0  0  0
 74 82  1  0  0  0
 75 76  2  0  0  0
 75 78  1  0  0  0
 75144  1  0  0  0
 76145  1  0  0  0
 77 80  1  0  0  0
 77 81  2  0  0  0
 78 80  1  0  0  0
 78146  1  0  0  0
 78147  1  0  0  0
 79148  1  0  0  0
 80149  1  0  0  0
M  ISO  4   1 100  68 101  76 101  79 100
M  END
> <chiral flag>
0

> <version>
0

> <s_m_source_file>
/data/baiqing/PycharmProjects/Reinvent-master-3.2/result/LINK_invent/BTK/process_docking_weight1_custom_product_contain_oxygen_bond_distance_aromatic_linkinvent_7_9_3/rearranged_h_0084.sdf

> <i_m_source_file_index>
76

> <r_mmod_Potential_Energy-OPLS-2005>
-22.2377624511719

> <r_mmod_Stretch_Energy-OPLS-2005>
53.5804290771484

> <r_mmod_Bend_Energy-OPLS-2005>
124.672668457031

> <r_mmod_Torsional_Energy-OPLS-2005>
268.252044677734

> <r_mmod_Improper_Torsional_Energy-OPLS-2005>
10.7350053787231

> <r_mmod_Van_der_Waal_Energy-OPLS-2005>
120.842216491699

> <r_mmod_Electrostatic_Energy-OPLS-2005>
-389.215148925781

> <r_mmod_Solvation_Energy-OPLS-2005>
-236.807998657227

> <b_mmod_Minimization_Converged-OPLS-2005>
0

> <r_mmod_RMS_Derivative-OPLS-2005>
0.628650844097137

$$$$
76
                    3D
 Structure written by MMmdl.
155164  0  0  1  0            999 V2000
  -30.6107  -14.7330   20.5091 C   0  0  0  0  0  0
  -30.4452  -12.4579   19.4786 C   0  0  0  0  0  0
  -29.5225  -12.5378   18.2420 C   0  0  0  0  0  0
  -28.0425  -12.3635   18.6399 C   0  0  0  0  0  0
  -27.6532  -13.2373   19.8619 C   0  0  2  0  0  0
  -28.6957  -13.1304   20.9979 C   0  0  0  0  0  0
  -25.2511  -13.8180   20.5646 C   0  0  0  0  0  0
  -24.1824  -13.0417   20.9171 C   0  0  0  0  0  0
  -24.6446  -11.6898   20.8731 C   0  0  0  0  0  0
  -23.9131  -10.4273   21.0391 C   0  0  0  0  0  0
  -24.3675   -9.4184   21.9168 C   0  0  0  0  0  0
  -23.6314   -8.2243   22.0762 C   0  0  0  0  0  0
  -22.4287   -8.0299   21.3550 C   0  0  0  0  0  0
  -21.9934   -9.0284   20.4673 C   0  0  0  0  0  0
  -22.7295  -10.2134   20.3050 C   0  0  0  0  0  0
  -21.6869   -6.0738   22.5281 C   0  0  0  0  0  0
  -21.4034   -6.5639   23.8215 C   0  0  0  0  0  0
  -21.3647   -5.6779   24.9173 C   0  0  0  0  0  0
  -21.6043   -4.3049   24.7211 C   0  0  0  0  0  0
  -21.8831   -3.8147   23.4335 C   0  0  0  0  0  0
  -21.9208   -4.6966   22.3394 C   0  0  0  0  0  0
  -22.7858  -13.5195   21.1848 C   0  0  0  0  0  0
  -22.1677   -4.2157   21.0963 F   0  0  0  0  0  0
  -21.5610   -3.4521   25.7713 F   0  0  0  0  0  0
  -30.0077  -13.4960   20.4393 N   0  0  0  0  0  0
  -26.3000  -12.9435   20.3295 N   0  0  0  0  0  0
  -25.9389  -11.6563   20.5760 N   0  0  0  0  0  0
  -22.0527  -12.8149   22.0410 N   0  0  0  0  0  0
  -25.4111  -15.1901   20.4058 N   0  0  0  0  0  0
  -31.7669  -14.8858   20.0994 O   0  0  0  0  0  0
  -21.6648   -6.8888   21.4242 O   0  0  0  0  0  0
  -22.3514  -14.5493   20.6724 O   0  0  0  0  0  0
  -24.6264  -31.8608   23.2097 C   0  0  0  0  0  0
  -25.9109  -32.4779   23.8409 C   0  0  1  0  0  0
  -27.2390  -27.3181   20.0996 C   0  0  0  0  0  0
  -25.5924  -33.8585   24.2335 N   0  0  0  0  0  0
  -23.4260  -30.4838   21.5464 C   0  0  2  0  0  0
  -24.8769  -28.9324   20.1172 C   0  0  0  0  0  0
  -22.7513  -29.4613   22.4948 C   0  0  0  0  0  0
  -18.0302  -28.1397   22.8505 C   0  0  0  0  0  0
  -24.1463  -36.7278   23.2599 C   0  0  0  0  0  0
  -25.9702  -30.7822   21.3891 C   0  0  0  0  0  0
  -26.0463  -29.4079   20.7278 C   0  0  0  0  0  0
  -27.2290  -28.6068   20.7191 C   0  0  0  0  0  0
  -26.0517  -26.8986   19.4640 C   0  0  0  0  0  0
  -24.8803  -27.6810   19.4814 C   0  0  0  0  0  0
  -23.6497  -29.8225   20.1606 C   0  0  0  0  0  0
  -25.4044  -36.3096   24.0362 C   0  0  1  0  0  0
  -20.5918  -28.3697   23.1306 C   0  0  2  0  0  0
  -20.6800  -26.9434   22.5423 C   0  0  0  0  0  0
  -19.5775  -26.6424   21.5231 C   0  0  0  0  0  0
  -18.1951  -26.7942   22.1652 C   0  0  0  0  0  0
  -19.1558  -28.8862   23.2893 C   0  0  0  0  0  0
  -18.9464  -30.1449   23.8946 C   0  0  0  0  0  0
  -17.6445  -30.6581   24.0595 C   0  0  0  0  0  0
  -25.9046  -34.9472   23.5161 C   0  0  0  0  0  0
  -16.5354  -29.9101   23.6300 C   0  0  0  0  0  0
  -16.7272  -28.6520   23.0344 C   0  0  0  0  0  0
  -26.4485  -31.6589   25.0774 C   0  0  0  0  0  0
  -25.3723  -31.3734   26.1519 C   0  0  0  0  0  0
  -27.0301  -30.3003   24.6236 C   0  0  0  0  0  0
  -27.6101  -32.4307   25.7480 C   0  0  0  0  0  0
  -27.5669  -37.1636   24.8332 C   0  0  0  0  0  0
  -21.4218  -29.3035   22.3675 N   0  0  0  0  0  0
  -26.4156  -37.3880   23.9638 N   0  0  0  0  0  0
  -24.6929  -31.0587   22.1050 N   0  0  0  0  0  0
  -23.4223  -28.8161   23.3035 O   0  0  0  0  0  0
  -28.3502  -26.4558   20.0801 O   0  0  0  0  0  0
  -26.5630  -34.8965   22.4737 O   0  0  0  0  0  0
  -23.5428  -32.1419   23.7383 O   0  0  0  0  0  0
  -30.7624  -19.4518   19.9620 C   0  0  0  0  0  0
  -30.8673  -18.0341   20.1664 C   0  0  0  0  0  0
  -28.6111  -19.4498   20.9886 C   0  0  0  0  0  0
  -28.6998  -18.0377   21.2091 C   0  0  0  0  0  0
  -29.6214  -20.2241   20.3472 C   0  0  0  0  0  0
  -29.8278  -17.2630   20.7698 C   0  0  0  0  0  0
  -28.8635  -23.9639   20.0875 C   0  0  0  0  0  0
  -30.0334  -23.8685   19.2442 C   0  0  0  0  0  0
  -28.5650  -22.5936   20.5564 C   0  0  0  0  0  0
  -28.1425  -25.0978   20.4211 C   0  0  0  0  0  0
  -30.4812  -22.4031   19.2278 C   0  0  0  0  0  0
  -27.5161  -17.4107   21.9484 C   0  0  0  0  0  0
  -29.5057  -21.6920   20.0865 N   0  0  0  0  0  0
  -29.8272  -15.7853   20.9469 N   0  0  0  0  0  0
  -30.6060  -24.7745   18.6296 O   0  0  0  0  0  0
  -27.6072  -22.3013   21.2775 O   0  0  0  0  0  0
  -31.4867  -12.5862   19.1786 H   0  0  0  0  0  0
  -30.3874  -11.4726   19.9417 H   0  0  0  0  0  0
  -29.8033  -11.7793   17.5098 H   0  0  0  0  0  0
  -29.6601  -13.5032   17.7492 H   0  0  0  0  0  0
  -27.8822  -11.3120   18.8739 H   0  0  0  0  0  0
  -27.3961  -12.5951   17.7923 H   0  0  0  0  0  0
  -27.6566  -14.2694   19.5074 H   0  0  0  0  0  0
  -28.7251  -12.1197   21.4055 H   0  0  0  0  0  0
  -28.4209  -13.7789   21.8319 H   0  0  0  0  0  0
  -25.2841   -9.5646   22.4697 H   0  0  0  0  0  0
  -24.0042   -7.4629   22.7455 H   0  0  0  0  0  0
  -21.0873   -8.8831   19.8958 H   0  0  0  0  0  0
  -22.3798  -10.9672   19.6140 H   0  0  0  0  0  0
  -21.2043   -7.6142   23.9724 H   0  0  0  0  0  0
  -21.1438   -6.0494   25.9066 H   0  0  0  0  0  0
  -22.0612   -2.7609   23.2826 H   0  0  0  0  0  0
  -22.4191  -11.9807   22.4760 H   0  0  0  0  0  0
  -21.1141  -13.1150   22.2637 H   0  0  0  0  0  0
  -24.6397  -15.8333   20.5451 H   0  0  0  0  0  0
  -26.2550  -15.6462   20.0840 H   0  0  0  0  0  0
  -26.7178  -32.5447   23.1168 H   0  0  0  0  0  0
  -25.0050  -33.9730   25.0468 H   0  0  0  0  0  0
  -22.7198  -31.3050   21.4039 H   0  0  0  0  0  0
  -23.3914  -35.9402   23.2827 H   0  0  0  0  0  0
  -24.3709  -36.9336   22.2124 H   0  0  0  0  0  0
  -23.6910  -37.6213   23.6868 H   0  0  0  0  0  0
  -26.1133  -31.5465   20.6249 H   0  0  0  0  0  0
  -26.8480  -30.8294   22.0210 H   0  0  0  0  0  0
  -28.1242  -28.9657   21.2059 H   0  0  0  0  0  0
  -26.0278  -25.9465   18.9522 H   0  0  0  0  0  0
  -23.9858  -27.3186   18.9922 H   0  0  0  0  0  0
  -23.7966  -30.6095   19.4201 H   0  0  0  0  0  0
  -22.7665  -29.2687   19.8329 H   0  0  0  0  0  0
  -25.1132  -36.1865   25.0818 H   0  0  0  0  0  0
  -20.9997  -28.3280   24.1436 H   0  0  0  0  0  0
  -20.5762  -26.2298   23.3605 H   0  0  0  0  0  0
  -21.6653  -26.7492   22.1185 H   0  0  0  0  0  0
  -19.6945  -25.6348   21.1239 H   0  0  0  0  0  0
  -19.6710  -27.3254   20.6774 H   0  0  0  0  0  0
  -17.4217  -26.6685   21.4055 H   0  0  0  0  0  0
  -18.0355  -26.0068   22.9044 H   0  0  0  0  0  0
  -19.7926  -30.7246   24.2397 H   0  0  0  0  0  0
  -17.4997  -31.6255   24.5223 H   0  0  0  0  0  0
  -15.5359  -30.3021   23.7582 H   0  0  0  0  0  0
  -15.8683  -28.0826   22.7064 H   0  0  0  0  0  0
  -24.5767  -30.7262   25.7809 H   0  0  0  0  0  0
  -24.9040  -32.2898   26.5115 H   0  0  0  0  0  0
  -25.8018  -30.8714   27.0196 H   0  0  0  0  0  0
  -26.2845  -29.6780   24.1262 H   0  0  0  0  0  0
  -27.3980  -29.7259   25.4751 H   0  0  0  0  0  0
  -27.8753  -30.4306   23.9480 H   0  0  0  0  0  0
  -27.2781  -33.3641   26.2051 H   0  0  0  0  0  0
  -28.3852  -32.6815   25.0223 H   0  0  0  0  0  0
  -28.0811  -31.8396   26.5352 H   0  0  0  0  0  0
  -28.2116  -38.0436   24.8290 H   0  0  0  0  0  0
  -28.1700  -36.3165   24.5000 H   0  0  0  0  0  0
  -27.2624  -36.9841   25.8661 H   0  0  0  0  0  0
  -20.9427  -29.8664   21.6787 H   0  0  0  0  0  0
  -26.0004  -38.2806   24.2186 H   0  0  0  0  0  0
  -31.6012  -19.9451   19.4900 H   0  0  0  0  0  0
  -31.7738  -17.5474   19.8377 H   0  0  0  0  0  0
  -27.7062  -19.9286   21.3279 H   0  0  0  0  0  0
  -27.2882  -25.0007   21.0785 H   0  0  0  0  0  0
  -31.4959  -22.3306   19.6182 H   0  0  0  0  0  0
  -30.4677  -22.0196   18.2072 H   0  0  0  0  0  0
  -27.3218  -17.9489   22.8819 H   0  0  0  0  0  0
  -27.6747  -16.3642   22.2029 H   0  0  0  0  0  0
  -26.6001  -17.4773   21.3576 H   0  0  0  0  0  0
  -28.9744  -15.4453   21.3606 H   0  0  0  0  0  0
  1 25  1  0  0  0
  1 30  2  0  0  0
  1 84  1  0  0  0
  2  3  1  0  0  0
  2 25  1  0  0  0
  2 87  1  0  0  0
  2 88  1  0  0  0
  3  4  1  0  0  0
  3 89  1  0  0  0
  3 90  1  0  0  0
  4  5  1  0  0  0
  4 91  1  0  0  0
  4 92  1  0  0  0
  5  6  1  0  0  0
  5 26  1  0  0  0
  5 93  1  0  0  0
  6 25  1  0  0  0
  6 94  1  0  0  0
  6 95  1  0  0  0
  7  8  2  0  0  0
  7 26  1  0  0  0
  7 29  1  0  0  0
  8  9  1  0  0  0
  8 22  1  0  0  0
  9 10  1  0  0  0
  9 27  2  0  0  0
 10 11  2  0  0  0
 10 15  1  0  0  0
 11 12  1  0  0  0
 11 96  1  0  0  0
 12 13  2  0  0  0
 12 97  1  0  0  0
 13 14  1  0  0  0
 13 31  1  0  0  0
 14 15  2  0  0  0
 14 98  1  0  0  0
 15 99  1  0  0  0
 16 17  2  0  0  0
 16 21  1  0  0  0
 16 31  1  0  0  0
 17 18  1  0  0  0
 17100  1  0  0  0
 18 19  2  0  0  0
 18101  1  0  0  0
 19 20  1  0  0  0
 19 24  1  0  0  0
 20 21  2  0  0  0
 20102  1  0  0  0
 21 23  1  0  0  0
 22 28  1  0  0  0
 22 32  2  0  0  0
 26 27  1  0  0  0
 28103  1  0  0  0
 28104  1  0  0  0
 29105  1  0  0  0
 29106  1  0  0  0
 33 34  1  0  0  0
 33 66  1  0  0  0
 33 70  2  0  0  0
 34 36  1  0  0  0
 34 59  1  0  0  0
 34107  1  0  0  0
 35 44  2  0  0  0
 35 45  1  0  0  0
 35 68  1  0  0  0
 36 56  1  0  0  0
 36108  1  0  0  0
 37 39  1  0  0  0
 37 47  1  0  0  0
 37 66  1  0  0  0
 37109  1  0  0  0
 38 43  2  0  0  0
 38 46  1  0  0  0
 38 47  1  0  0  0
 39 64  1  0  0  0
 39 67  2  0  0  0
 40 52  1  0  0  0
 40 53  2  0  0  0
 40 58  1  0  0  0
 41110  1  0  0  0
 41111  1  0  0  0
 41112  1  0  0  0
 41 48  1  0  0  0
 42 43  1  0  0  0
 42 66  1  0  0  0
 42113  1  0  0  0
 42114  1  0  0  0
 43 44  1  0  0  0
 44115  1  0  0  0
 45 46  2  0  0  0
 45116  1  0  0  0
 46117  1  0  0  0
 47118  1  0  0  0
 47119  1  0  0  0
 48 56  1  0  0  0
 48 65  1  0  0  0
 48120  1  0  0  0
 49 50  1  0  0  0
 49 53  1  0  0  0
 49 64  1  0  0  0
 49121  1  0  0  0
 50 51  1  0  0  0
 50122  1  0  0  0
 50123  1  0  0  0
 51 52  1  0  0  0
 51124  1  0  0  0
 51125  1  0  0  0
 52126  1  0  0  0
 52127  1  0  0  0
 53 54  1  0  0  0
 54 55  2  0  0  0
 54128  1  0  0  0
 55 57  1  0  0  0
 55129  1  0  0  0
 56 69  2  0  0  0
 57 58  2  0  0  0
 57130  1  0  0  0
 58131  1  0  0  0
 59 60  1  0  0  0
 59 61  1  0  0  0
 59 62  1  0  0  0
 60132  1  0  0  0
 60133  1  0  0  0
 60134  1  0  0  0
 61135  1  0  0  0
 61136  1  0  0  0
 61137  1  0  0  0
 62138  1  0  0  0
 62139  1  0  0  0
 62140  1  0  0  0
 63 65  1  0  0  0
 63141  1  0  0  0
 63142  1  0  0  0
 63143  1  0  0  0
 64144  1  0  0  0
 65145  1  0  0  0
 68 80  1  0  0  0
 71 72  2  0  0  0
 71 75  1  0  0  0
 71146  1  0  0  0
 72 76  1  0  0  0
 72147  1  0  0  0
 73 74  1  0  0  0
 73 75  2  0  0  0
 73148  1  0  0  0
 74 76  2  0  0  0
 74 82  1  0  0  0
 75 83  1  0  0  0
 76 84  1  0  0  0
 77 78  1  0  0  0
 77 79  1  0  0  0
 77 80  2  0  0  0
 78 81  1  0  0  0
 78 85  2  0  0  0
 79 83  1  0  0  0
 79 86  2  0  0  0
 80149  1  0  0  0
 81 83  1  0  0  0
 81150  1  0  0  0
 81151  1  0  0  0
 82152  1  0  0  0
 82153  1  0  0  0
 82154  1  0  0  0
 84155  1  0  0  0
M  ISO  4   1 100  68 101  80 101  84 100
M  END
> <chiral flag>
0

> <version>
0

> <s_m_source_file>
/data/baiqing/PycharmProjects/Reinvent-master-3.2/result/LINK_invent/BTK/process_docking_weight1_custom_product_contain_oxygen_bond_distance_aromatic_linkinvent_7_9_3/rearranged_h_0084.sdf

> <i_m_source_file_index>
77

> <r_mmod_Potential_Energy-OPLS-2005>
134.752685546875

> <r_mmod_Stretch_Energy-OPLS-2005>
100.538421630859

> <r_mmod_Bend_Energy-OPLS-2005>
200.417922973633

> <r_mmod_Torsional_Energy-OPLS-2005>
242.693771362305

> <r_mmod_Improper_Torsional_Energy-OPLS-2005>
2.9683256149292

> <r_mmod_Van_der_Waal_Energy-OPLS-2005>
139.249526977539

> <r_mmod_Electrostatic_Energy-OPLS-2005>
-386.196136474609

> <r_mmod_Solvation_Energy-OPLS-2005>
-232.073669433594

> <b_mmod_Minimization_Converged-OPLS-2005>
0

> <r_mmod_RMS_Derivative-OPLS-2005>
6.01310300827026

$$$$
77
                    3D
 Structure written by MMmdl.
153162  0  0  1  0            999 V2000
  -30.5945  -14.6901   20.4919 C   0  0  0  0  0  0
  -30.4449  -12.4230   19.4601 C   0  0  0  0  0  0
  -29.5125  -12.5147   18.2302 C   0  0  0  0  0  0
  -28.0361  -12.3425   18.6414 C   0  0  0  0  0  0
  -27.6526  -13.2183   19.8634 C   0  0  2  0  0  0
  -28.6975  -13.0866   20.9946 C   0  0  0  0  0  0
  -25.2560  -13.8171   20.5688 C   0  0  0  0  0  0
  -24.1829  -13.0435   20.9194 C   0  0  0  0  0  0
  -24.6398  -11.6906   20.8740 C   0  0  0  0  0  0
  -23.9065  -10.4290   21.0406 C   0  0  0  0  0  0
  -24.3617   -9.4206   21.9184 C   0  0  0  0  0  0
  -23.6291   -8.2241   22.0754 C   0  0  0  0  0  0
  -22.4274   -8.0281   21.3544 C   0  0  0  0  0  0
  -21.9909   -9.0255   20.4646 C   0  0  0  0  0  0
  -22.7238  -10.2133   20.3055 C   0  0  0  0  0  0
  -21.6852   -6.0736   22.5279 C   0  0  0  0  0  0
  -21.4014   -6.5640   23.8212 C   0  0  0  0  0  0
  -21.3660   -5.6794   24.9175 C   0  0  0  0  0  0
  -21.6045   -4.3056   24.7225 C   0  0  0  0  0  0
  -21.8819   -3.8147   23.4347 C   0  0  0  0  0  0
  -21.9192   -4.6964   22.3403 C   0  0  0  0  0  0
  -22.7851  -13.5229   21.1856 C   0  0  0  0  0  0
  -22.1661   -4.2149   21.0980 F   0  0  0  0  0  0
  -21.5630   -3.4539   25.7738 F   0  0  0  0  0  0
  -30.0087  -13.4480   20.4322 N   0  0  0  0  0  0
  -26.2987  -12.9352   20.3317 N   0  0  0  0  0  0
  -25.9327  -11.6505   20.5755 N   0  0  0  0  0  0
  -22.0493  -12.8219   22.0411 N   0  0  0  0  0  0
  -25.4271  -15.1893   20.4098 N   0  0  0  0  0  0
  -31.7550  -14.8613   20.1051 O   0  0  0  0  0  0
  -21.6638   -6.8879   21.4242 O   0  0  0  0  0  0
  -22.3538  -14.5537   20.6706 O   0  0  0  0  0  0
  -24.6279  -31.8578   23.2009 C   0  0  0  0  0  0
  -25.9118  -32.4770   23.8347 C   0  0  1  0  0  0
  -27.2264  -27.2987   20.1273 C   0  0  0  0  0  0
  -25.5927  -33.8572   24.2274 N   0  0  0  0  0  0
  -23.4239  -30.4798   21.5432 C   0  0  2  0  0  0
  -24.8734  -28.9303   20.1121 C   0  0  0  0  0  0
  -22.7487  -29.4611   22.4925 C   0  0  0  0  0  0
  -18.0289  -28.1387   22.8487 C   0  0  0  0  0  0
  -24.1489  -36.7289   23.2639 C   0  0  0  0  0  0
  -25.9664  -30.7817   21.3766 C   0  0  0  0  0  0
  -26.0423  -29.4057   20.7220 C   0  0  0  0  0  0
  -27.2230  -28.6004   20.7223 C   0  0  0  0  0  0
  -26.0392  -26.8837   19.4857 C   0  0  0  0  0  0
  -24.8741  -27.6746   19.4847 C   0  0  0  0  0  0
  -23.6417  -29.8127   20.1595 C   0  0  0  0  0  0
  -25.4115  -36.3079   24.0329 C   0  0  1  0  0  0
  -20.5891  -28.3694   23.1278 C   0  0  2  0  0  0
  -20.6777  -26.9414   22.5411 C   0  0  0  0  0  0
  -19.5753  -26.6385   21.5213 C   0  0  0  0  0  0
  -18.1933  -26.7929   22.1624 C   0  0  0  0  0  0
  -19.1542  -28.8857   23.2877 C   0  0  0  0  0  0
  -18.9464  -30.1458   23.8894 C   0  0  0  0  0  0
  -17.6463  -30.6588   24.0563 C   0  0  0  0  0  0
  -25.9052  -34.9448   23.5102 C   0  0  0  0  0  0
  -16.5354  -29.9086   23.6331 C   0  0  0  0  0  0
  -16.7276  -28.6504   23.0352 C   0  0  0  0  0  0
  -26.4499  -31.6585   25.0723 C   0  0  0  0  0  0
  -25.3729  -31.3724   26.1447 C   0  0  0  0  0  0
  -27.0346  -30.3007   24.6188 C   0  0  0  0  0  0
  -27.6055  -32.4322   25.7497 C   0  0  0  0  0  0
  -27.5579  -37.1803   24.8466 C   0  0  0  0  0  0
  -21.4198  -29.3042   22.3668 N   0  0  0  0  0  0
  -26.4293  -37.3774   23.9406 N   0  0  0  0  0  0
  -24.6915  -31.0570   22.0971 N   0  0  0  0  0  0
  -23.4197  -28.8154   23.3018 O   0  0  0  0  0  0
  -28.3198  -26.4135   20.1506 O   0  0  0  0  0  0
  -26.5621  -34.8917   22.4669 O   0  0  0  0  0  0
  -23.5437  -32.1385   23.7322 O   0  0  0  0  0  0
  -28.5905  -19.3803   21.0203 C   0  0  0  0  0  0
  -28.6827  -17.9598   21.1609 C   0  0  0  0  0  0
  -30.8073  -17.9700   20.0774 C   0  0  0  0  0  0
  -29.6000  -20.1731   20.3961 C   0  0  0  0  0  0
  -29.7882  -17.1965   20.6945 C   0  0  0  0  0  0
  -30.7194  -19.3960   19.9330 C   0  0  0  0  0  0
  -28.8643  -23.9436   20.2331 C   0  0  0  0  0  0
  -28.5291  -22.5520   20.6384 C   0  0  0  0  0  0
  -28.0831  -25.0550   20.4896 C   0  0  0  0  0  0
  -30.1714  -23.9152   19.5072 C   0  0  0  0  0  0
  -30.5658  -22.4233   19.5345 C   0  0  0  0  0  0
  -29.5082  -21.6643   20.2292 N   0  0  0  0  0  0
  -29.7664  -15.7280   20.8618 N   0  0  0  0  0  0
  -27.5107  -22.2347   21.2600 O   0  0  0  0  0  0
  -31.7643  -20.0014   19.3207 F   0  0  0  0  0  0
  -31.4839  -12.5620   19.1563 H   0  0  0  0  0  0
  -30.3954  -11.4299   19.9093 H   0  0  0  0  0  0
  -29.7852  -11.7590   17.4923 H   0  0  0  0  0  0
  -29.6448  -13.4809   17.7406 H   0  0  0  0  0  0
  -27.8808  -11.2897   18.8798 H   0  0  0  0  0  0
  -27.3804  -12.5622   17.7980 H   0  0  0  0  0  0
  -27.6656  -14.2510   19.5150 H   0  0  0  0  0  0
  -28.7208  -12.0653   21.3780 H   0  0  0  0  0  0
  -28.4339  -13.7158   21.8460 H   0  0  0  0  0  0
  -25.2763   -9.5681   22.4755 H   0  0  0  0  0  0
  -24.0002   -7.4633   22.7474 H   0  0  0  0  0  0
  -21.0841   -8.8773   19.8952 H   0  0  0  0  0  0
  -22.3698  -10.9672   19.6164 H   0  0  0  0  0  0
  -21.2006   -7.6148   23.9715 H   0  0  0  0  0  0
  -21.1483   -6.0524   25.9078 H   0  0  0  0  0  0
  -22.0598   -2.7609   23.2847 H   0  0  0  0  0  0
  -22.4109  -11.9879   22.4795 H   0  0  0  0  0  0
  -21.1112  -13.1247   22.2620 H   0  0  0  0  0  0
  -24.6557  -15.8402   20.5101 H   0  0  0  0  0  0
  -26.2671  -15.6256   20.0520 H   0  0  0  0  0  0
  -26.7185  -32.5439   23.1095 H   0  0  0  0  0  0
  -25.0078  -33.9715   25.0421 H   0  0  0  0  0  0
  -22.7188  -31.3007   21.3976 H   0  0  0  0  0  0
  -23.3751  -35.9623   23.3310 H   0  0  0  0  0  0
  -24.3577  -36.8901   22.2052 H   0  0  0  0  0  0
  -23.7244  -37.6494   23.6656 H   0  0  0  0  0  0
  -26.0992  -31.5427   20.6063 H   0  0  0  0  0  0
  -26.8461  -30.8331   22.0065 H   0  0  0  0  0  0
  -28.1197  -28.9574   21.2091 H   0  0  0  0  0  0
  -26.0035  -25.9200   18.9976 H   0  0  0  0  0  0
  -23.9800  -27.3054   19.0013 H   0  0  0  0  0  0
  -23.7629  -30.5884   19.4025 H   0  0  0  0  0  0
  -22.7618  -29.2426   19.8561 H   0  0  0  0  0  0
  -25.1298  -36.1932   25.0822 H   0  0  0  0  0  0
  -20.9983  -28.3270   24.1399 H   0  0  0  0  0  0
  -20.5680  -26.2302   23.3612 H   0  0  0  0  0  0
  -21.6645  -26.7440   22.1205 H   0  0  0  0  0  0
  -19.6914  -25.6295   21.1244 H   0  0  0  0  0  0
  -19.6692  -27.3194   20.6742 H   0  0  0  0  0  0
  -17.4203  -26.6678   21.4026 H   0  0  0  0  0  0
  -18.0332  -26.0071   22.9021 H   0  0  0  0  0  0
  -19.7939  -30.7276   24.2261 H   0  0  0  0  0  0
  -17.5017  -31.6268   24.5166 H   0  0  0  0  0  0
  -15.5355  -30.2987   23.7657 H   0  0  0  0  0  0
  -15.8676  -28.0822   22.7069 H   0  0  0  0  0  0
  -24.5911  -30.7065   25.7776 H   0  0  0  0  0  0
  -24.8913  -32.2889   26.4863 H   0  0  0  0  0  0
  -25.8054  -30.8911   27.0227 H   0  0  0  0  0  0
  -26.2924  -29.6754   24.1210 H   0  0  0  0  0  0
  -27.4037  -29.7266   25.4697 H   0  0  0  0  0  0
  -27.8796  -30.4290   23.9420 H   0  0  0  0  0  0
  -27.2664  -33.3625   26.2067 H   0  0  0  0  0  0
  -28.3872  -32.6875   25.0331 H   0  0  0  0  0  0
  -28.0715  -31.8450   26.5421 H   0  0  0  0  0  0
  -28.2602  -38.0094   24.7506 H   0  0  0  0  0  0
  -28.1070  -36.2625   24.6306 H   0  0  0  0  0  0
  -27.2294  -37.1468   25.8869 H   0  0  0  0  0  0
  -20.9379  -29.8761   21.6873 H   0  0  0  0  0  0
  -26.0175  -38.2851   24.1402 H   0  0  0  0  0  0
  -27.6986  -19.8446   21.4103 H   0  0  0  0  0  0
  -27.8606  -17.4497   21.6438 H   0  0  0  0  0  0
  -31.6859  -17.4757   19.6904 H   0  0  0  0  0  0
  -27.1538  -24.9464   21.0344 H   0  0  0  0  0  0
  -30.9057  -24.5398   20.0174 H   0  0  0  0  0  0
  -30.0467  -24.2830   18.4881 H   0  0  0  0  0  0
  -31.5150  -22.3012   20.0578 H   0  0  0  0  0  0
  -30.6882  -22.0501   18.5169 H   0  0  0  0  0  0
  -28.8941  -15.3781   21.2276 H   0  0  0  0  0  0
  1 25  1  0  0  0
  1 30  2  0  0  0
  1 83  1  0  0  0
  2  3  1  0  0  0
  2 25  1  0  0  0
  2 86  1  0  0  0
  2 87  1  0  0  0
  3  4  1  0  0  0
  3 88  1  0  0  0
  3 89  1  0  0  0
  4  5  1  0  0  0
  4 90  1  0  0  0
  4 91  1  0  0  0
  5  6  1  0  0  0
  5 26  1  0  0  0
  5 92  1  0  0  0
  6 25  1  0  0  0
  6 93  1  0  0  0
  6 94  1  0  0  0
  7  8  2  0  0  0
  7 26  1  0  0  0
  7 29  1  0  0  0
  8  9  1  0  0  0
  8 22  1  0  0  0
  9 10  1  0  0  0
  9 27  2  0  0  0
 10 11  2  0  0  0
 10 15  1  0  0  0
 11 12  1  0  0  0
 11 95  1  0  0  0
 12 13  2  0  0  0
 12 96  1  0  0  0
 13 14  1  0  0  0
 13 31  1  0  0  0
 14 15  2  0  0  0
 14 97  1  0  0  0
 15 98  1  0  0  0
 16 17  2  0  0  0
 16 21  1  0  0  0
 16 31  1  0  0  0
 17 18  1  0  0  0
 17 99  1  0  0  0
 18 19  2  0  0  0
 18100  1  0  0  0
 19 20  1  0  0  0
 19 24  1  0  0  0
 20 21  2  0  0  0
 20101  1  0  0  0
 21 23  1  0  0  0
 22 28  1  0  0  0
 22 32  2  0  0  0
 26 27  1  0  0  0
 28102  1  0  0  0
 28103  1  0  0  0
 29104  1  0  0  0
 29105  1  0  0  0
 33 34  1  0  0  0
 33 66  1  0  0  0
 33 70  2  0  0  0
 34 36  1  0  0  0
 34 59  1  0  0  0
 34106  1  0  0  0
 35 44  2  0  0  0
 35 45  1  0  0  0
 35 68  1  0  0  0
 36 56  1  0  0  0
 36107  1  0  0  0
 37 39  1  0  0  0
 37 47  1  0  0  0
 37 66  1  0  0  0
 37108  1  0  0  0
 38 43  2  0  0  0
 38 46  1  0  0  0
 38 47  1  0  0  0
 39 64  1  0  0  0
 39 67  2  0  0  0
 40 52  1  0  0  0
 40 53  2  0  0  0
 40 58  1  0  0  0
 41109  1  0  0  0
 41110  1  0  0  0
 41111  1  0  0  0
 41 48  1  0  0  0
 42 43  1  0  0  0
 42 66  1  0  0  0
 42112  1  0  0  0
 42113  1  0  0  0
 43 44  1  0  0  0
 44114  1  0  0  0
 45 46  2  0  0  0
 45115  1  0  0  0
 46116  1  0  0  0
 47117  1  0  0  0
 47118  1  0  0  0
 48 56  1  0  0  0
 48 65  1  0  0  0
 48119  1  0  0  0
 49 50  1  0  0  0
 49 53  1  0  0  0
 49 64  1  0  0  0
 49120  1  0  0  0
 50 51  1  0  0  0
 50121  1  0  0  0
 50122  1  0  0  0
 51 52  1  0  0  0
 51123  1  0  0  0
 51124  1  0  0  0
 52125  1  0  0  0
 52126  1  0  0  0
 53 54  1  0  0  0
 54 55  2  0  0  0
 54127  1  0  0  0
 55 57  1  0  0  0
 55128  1  0  0  0
 56 69  2  0  0  0
 57 58  2  0  0  0
 57129  1  0  0  0
 58130  1  0  0  0
 59 60  1  0  0  0
 59 61  1  0  0  0
 59 62  1  0  0  0
 60131  1  0  0  0
 60132  1  0  0  0
 60133  1  0  0  0
 61134  1  0  0  0
 61135  1  0  0  0
 61136  1  0  0  0
 62137  1  0  0  0
 62138  1  0  0  0
 62139  1  0  0  0
 63 65  1  0  0  0
 63140  1  0  0  0
 63141  1  0  0  0
 63142  1  0  0  0
 64143  1  0  0  0
 65144  1  0  0  0
 68 79  1  0  0  0
 71 72  2  0  0  0
 71 74  1  0  0  0
 71145  1  0  0  0
 72 75  1  0  0  0
 72146  1  0  0  0
 73 75  2  0  0  0
 73 76  1  0  0  0
 73147  1  0  0  0
 74 76  2  0  0  0
 74 82  1  0  0  0
 75 83  1  0  0  0
 76 85  1  0  0  0
 77 78  1  0  0  0
 77 79  2  0  0  0
 77 80  1  0  0  0
 78 82  1  0  0  0
 78 84  2  0  0  0
 79148  1  0  0  0
 80 81  1  0  0  0
 80149  1  0  0  0
 80150  1  0  0  0
 81 82  1  0  0  0
 81151  1  0  0  0
 81152  1  0  0  0
 83153  1  0  0  0
M  ISO  4   1 100  68 101  79 101  83 100
M  END
> <chiral flag>
0

> <version>
0

> <s_m_source_file>
/data/baiqing/PycharmProjects/Reinvent-master-3.2/result/LINK_invent/BTK/process_docking_weight1_custom_product_contain_oxygen_bond_distance_aromatic_linkinvent_7_9_3/rearranged_h_0084.sdf

> <i_m_source_file_index>
78

> <r_mmod_Potential_Energy-OPLS-2005>
178.937393188477

> <r_mmod_Stretch_Energy-OPLS-2005>
97.4976806640625

> <r_mmod_Bend_Energy-OPLS-2005>
173.273834228516

> <r_mmod_Torsional_Energy-OPLS-2005>
249.628494262695

> <r_mmod_Improper_Torsional_Energy-OPLS-2005>
3.72030401229858

> <r_mmod_Van_der_Waal_Energy-OPLS-2005>
146.315933227539

> <r_mmod_Electrostatic_Energy-OPLS-2005>
-347.910522460938

> <r_mmod_Solvation_Energy-OPLS-2005>
-206.900238037109

> <b_mmod_Minimization_Converged-OPLS-2005>
0

> <r_mmod_RMS_Derivative-OPLS-2005>
0.183930769562721

$$$$
78
                    3D
 Structure written by MMmdl.
151160  0  0  1  0            999 V2000
  -30.6035  -14.7189   20.5675 C   0  0  0  0  0  0
  -30.4519  -12.4657   19.4654 C   0  0  0  0  0  0
  -29.5183  -12.5482   18.2330 C   0  0  0  0  0  0
  -28.0388  -12.3622   18.6301 C   0  0  0  0  0  0
  -27.6541  -13.2153   19.8657 C   0  0  2  0  0  0
  -28.6928  -13.0266   20.9867 C   0  0  0  0  0  0
  -25.2560  -13.8154   20.5664 C   0  0  0  0  0  0
  -24.1824  -13.0425   20.9163 C   0  0  0  0  0  0
  -24.6392  -11.6895   20.8710 C   0  0  0  0  0  0
  -23.9060  -10.4285   21.0393 C   0  0  0  0  0  0
  -24.3612   -9.4206   21.9177 C   0  0  0  0  0  0
  -23.6288   -8.2243   22.0753 C   0  0  0  0  0  0
  -22.4270   -8.0278   21.3544 C   0  0  0  0  0  0
  -21.9902   -9.0249   20.4646 C   0  0  0  0  0  0
  -22.7229  -10.2127   20.3049 C   0  0  0  0  0  0
  -21.6851   -6.0732   22.5280 C   0  0  0  0  0  0
  -21.4014   -6.5638   23.8213 C   0  0  0  0  0  0
  -21.3660   -5.6792   24.9175 C   0  0  0  0  0  0
  -21.6045   -4.3055   24.7226 C   0  0  0  0  0  0
  -21.8820   -3.8145   23.4348 C   0  0  0  0  0  0
  -21.9193   -4.6961   22.3404 C   0  0  0  0  0  0
  -22.7851  -13.5223   21.1847 C   0  0  0  0  0  0
  -22.1661   -4.2147   21.0981 F   0  0  0  0  0  0
  -21.5629   -3.4538   25.7739 F   0  0  0  0  0  0
  -30.0026  -13.4692   20.4652 N   0  0  0  0  0  0
  -26.2984  -12.9329   20.3285 N   0  0  0  0  0  0
  -25.9314  -11.6483   20.5698 N   0  0  0  0  0  0
  -22.0498  -12.8219   22.0408 N   0  0  0  0  0  0
  -25.4280  -15.1878   20.4109 N   0  0  0  0  0  0
  -31.7014  -14.9146   20.0313 O   0  0  0  0  0  0
  -21.6637   -6.8874   21.4241 O   0  0  0  0  0  0
  -22.3535  -14.5534   20.6703 O   0  0  0  0  0  0
  -24.6300  -31.8563   23.1984 C   0  0  0  0  0  0
  -25.9130  -32.4760   23.8330 C   0  0  1  0  0  0
  -27.2316  -27.2862   20.1268 C   0  0  0  0  0  0
  -25.5931  -33.8561   24.2260 N   0  0  0  0  0  0
  -23.4275  -30.4764   21.5416 C   0  0  2  0  0  0
  -24.8784  -28.9214   20.1152 C   0  0  0  0  0  0
  -22.7498  -29.4603   22.4923 C   0  0  0  0  0  0
  -18.0292  -28.1388   22.8482 C   0  0  0  0  0  0
  -24.1491  -36.7286   23.2638 C   0  0  0  0  0  0
  -25.9711  -30.7755   21.3759 C   0  0  0  0  0  0
  -26.0491  -29.3977   20.7219 C   0  0  0  0  0  0
  -27.2322  -28.5919   20.7179 C   0  0  0  0  0  0
  -26.0399  -26.8653   19.5037 C   0  0  0  0  0  0
  -24.8766  -27.6606   19.4965 C   0  0  0  0  0  0
  -23.6466  -29.8056   20.1597 C   0  0  0  0  0  0
  -25.4117  -36.3071   24.0325 C   0  0  1  0  0  0
  -20.5894  -28.3699   23.1273 C   0  0  2  0  0  0
  -20.6782  -26.9418   22.5408 C   0  0  0  0  0  0
  -19.5758  -26.6386   21.5212 C   0  0  0  0  0  0
  -18.1937  -26.7930   22.1624 C   0  0  0  0  0  0
  -19.1545  -28.8861   23.2871 C   0  0  0  0  0  0
  -18.9465  -30.1462   23.8890 C   0  0  0  0  0  0
  -17.6465  -30.6589   24.0563 C   0  0  0  0  0  0
  -25.9055  -34.9442   23.5096 C   0  0  0  0  0  0
  -16.5356  -29.9085   23.6332 C   0  0  0  0  0  0
  -16.7278  -28.6503   23.0351 C   0  0  0  0  0  0
  -26.4503  -31.6579   25.0716 C   0  0  0  0  0  0
  -25.3725  -31.3725   26.1435 C   0  0  0  0  0  0
  -27.0351  -30.2995   24.6194 C   0  0  0  0  0  0
  -27.6053  -32.4322   25.7495 C   0  0  0  0  0  0
  -27.5579  -37.1797   24.8464 C   0  0  0  0  0  0
  -21.4206  -29.3044   22.3660 N   0  0  0  0  0  0
  -26.4291  -37.3769   23.9407 N   0  0  0  0  0  0
  -24.6950  -31.0534   22.0957 N   0  0  0  0  0  0
  -23.4197  -28.8152   23.3030 O   0  0  0  0  0  0
  -28.3125  -26.3840   20.1153 O   0  0  0  0  0  0
  -26.5629  -34.8917   22.4665 O   0  0  0  0  0  0
  -23.5453  -32.1380   23.7284 O   0  0  0  0  0  0
  -29.7254  -18.0647   19.7948 C   0  0  0  0  0  0
  -29.8644  -18.3642   22.1352 C   0  0  0  0  0  0
  -29.4905  -19.4875   19.6508 C   0  0  0  0  0  0
  -29.6090  -19.7591   21.9805 C   0  0  0  0  0  0
  -29.8906  -17.4246   21.0618 C   0  0  0  0  0  0
  -29.3686  -20.4145   20.7415 C   0  0  0  0  0  0
  -28.5725  -23.8790   20.7015 C   0  0  0  0  0  0
  -28.4533  -22.7790   21.6492 C   0  0  0  0  0  0
  -28.1946  -25.2056   20.8930 C   0  0  0  0  0  0
  -29.9007  -15.8897   21.4104 C   0  0  0  0  0  0
  -29.2083  -22.8898   19.6801 C   0  0  0  0  0  0
  -29.3538  -15.5968   22.5172 N   0  0  0  0  0  0
  -28.9877  -21.8531   20.7310 N   0  0  0  0  0  0
  -28.0550  -22.7563   22.7955 O   0  0  0  0  0  0
  -31.4870  -12.6229   19.1589 H   0  0  0  0  0  0
  -30.4307  -11.4629   19.8948 H   0  0  0  0  0  0
  -29.8039  -11.7999   17.4925 H   0  0  0  0  0  0
  -29.6442  -13.5186   17.7502 H   0  0  0  0  0  0
  -27.8828  -11.3052   18.8492 H   0  0  0  0  0  0
  -27.3872  -12.5982   17.7880 H   0  0  0  0  0  0
  -27.6830  -14.2598   19.5545 H   0  0  0  0  0  0
  -28.7418  -11.9746   21.2717 H   0  0  0  0  0  0
  -28.3631  -13.5184   21.8945 H   0  0  0  0  0  0
  -25.2759   -9.5684   22.4747 H   0  0  0  0  0  0
  -23.9999   -7.4635   22.7472 H   0  0  0  0  0  0
  -21.0833   -8.8766   19.8951 H   0  0  0  0  0  0
  -22.3689  -10.9663   19.6155 H   0  0  0  0  0  0
  -21.2006   -7.6146   23.9715 H   0  0  0  0  0  0
  -21.1481   -6.0522   25.9078 H   0  0  0  0  0  0
  -22.0599   -2.7608   23.2849 H   0  0  0  0  0  0
  -22.4115  -11.9879   22.4793 H   0  0  0  0  0  0
  -21.1119  -13.1249   22.2623 H   0  0  0  0  0  0
  -24.6685  -15.8479   20.5372 H   0  0  0  0  0  0
  -26.2949  -15.6296   20.1318 H   0  0  0  0  0  0
  -26.7200  -32.5422   23.1077 H   0  0  0  0  0  0
  -25.0069  -33.9701   25.0399 H   0  0  0  0  0  0
  -22.7236  -31.2978   21.3928 H   0  0  0  0  0  0
  -23.3753  -35.9619   23.3301 H   0  0  0  0  0  0
  -24.3578  -36.8910   22.2053 H   0  0  0  0  0  0
  -23.7248  -37.6488   23.6664 H   0  0  0  0  0  0
  -26.1054  -31.5357   20.6050 H   0  0  0  0  0  0
  -26.8499  -30.8276   22.0071 H   0  0  0  0  0  0
  -28.1322  -28.9523   21.1958 H   0  0  0  0  0  0
  -26.0074  -25.8925   19.0336 H   0  0  0  0  0  0
  -23.9802  -27.2881   19.0201 H   0  0  0  0  0  0
  -23.7688  -30.5797   19.4013 H   0  0  0  0  0  0
  -22.7665  -29.2354   19.8569 H   0  0  0  0  0  0
  -25.1298  -36.1916   25.0818 H   0  0  0  0  0  0
  -20.9984  -28.3277   24.1395 H   0  0  0  0  0  0
  -20.5687  -26.2309   23.3611 H   0  0  0  0  0  0
  -21.6649  -26.7446   22.1200 H   0  0  0  0  0  0
  -19.6924  -25.6295   21.1245 H   0  0  0  0  0  0
  -19.6697  -27.3193   20.6740 H   0  0  0  0  0  0
  -17.4206  -26.6673   21.4027 H   0  0  0  0  0  0
  -18.0343  -26.0072   22.9024 H   0  0  0  0  0  0
  -19.7941  -30.7281   24.2255 H   0  0  0  0  0  0
  -17.5018  -31.6268   24.5167 H   0  0  0  0  0  0
  -15.5356  -30.2987   23.7661 H   0  0  0  0  0  0
  -15.8677  -28.0824   22.7069 H   0  0  0  0  0  0
  -24.5906  -30.7070   25.7759 H   0  0  0  0  0  0
  -24.8912  -32.2894   26.4845 H   0  0  0  0  0  0
  -25.8042  -30.8911   27.0217 H   0  0  0  0  0  0
  -26.2935  -29.6739   24.1213 H   0  0  0  0  0  0
  -27.4031  -29.7260   25.4711 H   0  0  0  0  0  0
  -27.8812  -30.4271   23.9438 H   0  0  0  0  0  0
  -27.2652  -33.3621   26.2064 H   0  0  0  0  0  0
  -28.3869  -32.6883   25.0331 H   0  0  0  0  0  0
  -28.0713  -31.8454   26.5420 H   0  0  0  0  0  0
  -28.2591  -38.0099   24.7510 H   0  0  0  0  0  0
  -28.1080  -36.2628   24.6291 H   0  0  0  0  0  0
  -27.2295  -37.1444   25.8867 H   0  0  0  0  0  0
  -20.9398  -29.8752   21.6848 H   0  0  0  0  0  0
  -26.0170  -38.2842   24.1409 H   0  0  0  0  0  0
  -29.7179  -17.4511   18.9050 H   0  0  0  0  0  0
  -29.9949  -18.0105   23.1482 H   0  0  0  0  0  0
  -29.3341  -19.8655   18.6503 H   0  0  0  0  0  0
  -29.5676  -20.3474   22.8864 H   0  0  0  0  0  0
  -27.7446  -25.4607   21.8436 H   0  0  0  0  0  0
  -30.2678  -23.0158   19.4520 H   0  0  0  0  0  0
  -28.6459  -22.6715   18.7710 H   0  0  0  0  0  0
  -28.9663  -16.4232   22.9550 H   0  0  0  0  0  0
  1 25  1  0  0  0
  1 30  2  0  0  0
  1 80  1  0  0  0
  2  3  1  0  0  0
  2 25  1  0  0  0
  2 85  1  0  0  0
  2 86  1  0  0  0
  3  4  1  0  0  0
  3 87  1  0  0  0
  3 88  1  0  0  0
  4  5  1  0  0  0
  4 89  1  0  0  0
  4 90  1  0  0  0
  5  6  1  0  0  0
  5 26  1  0  0  0
  5 91  1  0  0  0
  6 25  1  0  0  0
  6 92  1  0  0  0
  6 93  1  0  0  0
  7  8  2  0  0  0
  7 26  1  0  0  0
  7 29  1  0  0  0
  8  9  1  0  0  0
  8 22  1  0  0  0
  9 10  1  0  0  0
  9 27  2  0  0  0
 10 11  2  0  0  0
 10 15  1  0  0  0
 11 12  1  0  0  0
 11 94  1  0  0  0
 12 13  2  0  0  0
 12 95  1  0  0  0
 13 14  1  0  0  0
 13 31  1  0  0  0
 14 15  2  0  0  0
 14 96  1  0  0  0
 15 97  1  0  0  0
 16 17  2  0  0  0
 16 21  1  0  0  0
 16 31  1  0  0  0
 17 18  1  0  0  0
 17 98  1  0  0  0
 18 19  2  0  0  0
 18 99  1  0  0  0
 19 20  1  0  0  0
 19 24  1  0  0  0
 20 21  2  0  0  0
 20100  1  0  0  0
 21 23  1  0  0  0
 22 28  1  0  0  0
 22 32  2  0  0  0
 26 27  1  0  0  0
 28101  1  0  0  0
 28102  1  0  0  0
 29103  1  0  0  0
 29104  1  0  0  0
 33 34  1  0  0  0
 33 66  1  0  0  0
 33 70  2  0  0  0
 34 36  1  0  0  0
 34 59  1  0  0  0
 34105  1  0  0  0
 35 44  2  0  0  0
 35 45  1  0  0  0
 35 68  1  0  0  0
 36 56  1  0  0  0
 36106  1  0  0  0
 37 39  1  0  0  0
 37 47  1  0  0  0
 37 66  1  0  0  0
 37107  1  0  0  0
 38 43  2  0  0  0
 38 46  1  0  0  0
 38 47  1  0  0  0
 39 64  1  0  0  0
 39 67  2  0  0  0
 40 52  1  0  0  0
 40 53  2  0  0  0
 40 58  1  0  0  0
 41108  1  0  0  0
 41109  1  0  0  0
 41110  1  0  0  0
 41 48  1  0  0  0
 42 43  1  0  0  0
 42 66  1  0  0  0
 42111  1  0  0  0
 42112  1  0  0  0
 43 44  1  0  0  0
 44113  1  0  0  0
 45 46  2  0  0  0
 45114  1  0  0  0
 46115  1  0  0  0
 47116  1  0  0  0
 47117  1  0  0  0
 48 56  1  0  0  0
 48 65  1  0  0  0
 48118  1  0  0  0
 49 50  1  0  0  0
 49 53  1  0  0  0
 49 64  1  0  0  0
 49119  1  0  0  0
 50 51  1  0  0  0
 50120  1  0  0  0
 50121  1  0  0  0
 51 52  1  0  0  0
 51122  1  0  0  0
 51123  1  0  0  0
 52124  1  0  0  0
 52125  1  0  0  0
 53 54  1  0  0  0
 54 55  2  0  0  0
 54126  1  0  0  0
 55 57  1  0  0  0
 55127  1  0  0  0
 56 69  2  0  0  0
 57 58  2  0  0  0
 57128  1  0  0  0
 58129  1  0  0  0
 59 60  1  0  0  0
 59 61  1  0  0  0
 59 62  1  0  0  0
 60130  1  0  0  0
 60131  1  0  0  0
 60132  1  0  0  0
 61133  1  0  0  0
 61134  1  0  0  0
 61135  1  0  0  0
 62136  1  0  0  0
 62137  1  0  0  0
 62138  1  0  0  0
 63 65  1  0  0  0
 63139  1  0  0  0
 63140  1  0  0  0
 63141  1  0  0  0
 64142  1  0  0  0
 65143  1  0  0  0
 68 79  1  0  0  0
 71 73  2  0  0  0
 71 75  1  0  0  0
 71144  1  0  0  0
 72 74  1  0  0  0
 72 75  2  0  0  0
 72145  1  0  0  0
 73 76  1  0  0  0
 73146  1  0  0  0
 74 76  2  0  0  0
 74147  1  0  0  0
 75 80  1  0  0  0
 76 83  1  0  0  0
 77 78  1  0  0  0
 77 79  2  0  0  0
 77 81  1  0  0  0
 78 83  1  0  0  0
 78 84  2  0  0  0
 79148  1  0  0  0
 80 82  2  0  0  0
 81 83  1  0  0  0
 81149  1  0  0  0
 81150  1  0  0  0
 82151  1  0  0  0
M  ISO  4   1 100  68 101  79 101  80 100
M  END
> <chiral flag>
0

> <version>
0

> <s_m_source_file>
/data/baiqing/PycharmProjects/Reinvent-master-3.2/result/LINK_invent/BTK/process_docking_weight1_custom_product_contain_oxygen_bond_distance_aromatic_linkinvent_7_9_3/rearranged_h_0084.sdf

> <i_m_source_file_index>
79

> <r_mmod_Potential_Energy-OPLS-2005>
386.96826171875

> <r_mmod_Stretch_Energy-OPLS-2005>
117.16967010498

> <r_mmod_Bend_Energy-OPLS-2005>
273.03662109375

> <r_mmod_Torsional_Energy-OPLS-2005>
217.920120239258

> <r_mmod_Improper_Torsional_Energy-OPLS-2005>
3.64537286758423

> <r_mmod_Van_der_Waal_Energy-OPLS-2005>
145.576065063477

> <r_mmod_Electrostatic_Energy-OPLS-2005>
-232.5322265625

> <r_mmod_Solvation_Energy-OPLS-2005>
-208.222808837891

> <b_mmod_Minimization_Converged-OPLS-2005>
0

> <r_mmod_RMS_Derivative-OPLS-2005>
0.563038647174835

$$$$
79
                    3D
 Structure written by MMmdl.
158167  0  0  1  0            999 V2000
  -30.7452  -14.4394   20.5012 C   0  0  0  0  0  0
  -30.3861  -12.2671   19.4530 C   0  0  0  0  0  0
  -29.4887  -12.4765   18.2177 C   0  0  0  0  0  0
  -28.0076  -12.3575   18.6193 C   0  0  0  0  0  0
  -27.6511  -13.2149   19.8660 C   0  0  2  0  0  0
  -28.6878  -13.0530   21.0027 C   0  0  0  0  0  0
  -25.2535  -13.8194   20.5697 C   0  0  0  0  0  0
  -24.1812  -13.0458   20.9199 C   0  0  0  0  0  0
  -24.6372  -11.6921   20.8743 C   0  0  0  0  0  0
  -23.9060  -10.4296   21.0394 C   0  0  0  0  0  0
  -24.3619   -9.4214   21.9175 C   0  0  0  0  0  0
  -23.6297   -8.2253   22.0749 C   0  0  0  0  0  0
  -22.4287   -8.0290   21.3541 C   0  0  0  0  0  0
  -21.9924   -9.0260   20.4640 C   0  0  0  0  0  0
  -22.7238  -10.2138   20.3044 C   0  0  0  0  0  0
  -21.6863   -6.0743   22.5280 C   0  0  0  0  0  0
  -21.4015   -6.5644   23.8210 C   0  0  0  0  0  0
  -21.3664   -5.6790   24.9168 C   0  0  0  0  0  0
  -21.6044   -4.3051   24.7228 C   0  0  0  0  0  0
  -21.8815   -3.8155   23.4348 C   0  0  0  0  0  0
  -21.9198   -4.6970   22.3409 C   0  0  0  0  0  0
  -22.7838  -13.5257   21.1865 C   0  0  0  0  0  0
  -22.1662   -4.2161   21.0986 F   0  0  0  0  0  0
  -21.5640   -3.4533   25.7745 F   0  0  0  0  0  0
  -30.0202  -13.2927   20.4428 N   0  0  0  0  0  0
  -26.2963  -12.9373   20.3332 N   0  0  0  0  0  0
  -25.9308  -11.6529   20.5769 N   0  0  0  0  0  0
  -22.0490  -12.8231   22.0402 N   0  0  0  0  0  0
  -25.4247  -15.1921   20.4082 N   0  0  0  0  0  0
  -31.9168  -14.5013   20.1138 O   0  0  0  0  0  0
  -21.6658   -6.8887   21.4241 O   0  0  0  0  0  0
  -22.3535  -14.5577   20.6708 O   0  0  0  0  0  0
  -24.6096  -31.8716   23.2119 C   0  0  0  0  0  0
  -25.9005  -32.4845   23.8417 C   0  0  1  0  0  0
  -27.2398  -27.4729   20.1017 C   0  0  0  0  0  0
  -25.5867  -33.8639   24.2354 N   0  0  0  0  0  0
  -23.3973  -30.4920   21.5518 C   0  0  2  0  0  0
  -24.8462  -28.9632   20.1153 C   0  0  0  0  0  0
  -22.7392  -29.4657   22.5019 C   0  0  0  0  0  0
  -18.0257  -28.1394   22.8513 C   0  0  0  0  0  0
  -24.1487  -36.7309   23.2645 C   0  0  0  0  0  0
  -25.9223  -30.8488   21.3630 C   0  0  0  0  0  0
  -26.0023  -29.4855   20.7094 C   0  0  0  0  0  0
  -27.2038  -28.7469   20.7009 C   0  0  0  0  0  0
  -26.0734  -26.9551   19.4969 C   0  0  0  0  0  0
  -24.8741  -27.6947   19.5067 C   0  0  0  0  0  0
  -23.6036  -29.8219   20.1665 C   0  0  0  0  0  0
  -25.4114  -36.3128   24.0350 C   0  0  1  0  0  0
  -20.5841  -28.3643   23.1346 C   0  0  2  0  0  0
  -20.6748  -26.9388   22.5435 C   0  0  0  0  0  0
  -19.5710  -26.6404   21.5239 C   0  0  0  0  0  0
  -18.1887  -26.7943   22.1650 C   0  0  0  0  0  0
  -19.1512  -28.8830   23.2933 C   0  0  0  0  0  0
  -18.9447  -30.1430   23.8948 C   0  0  0  0  0  0
  -17.6455  -30.6600   24.0566 C   0  0  0  0  0  0
  -25.9040  -34.9483   23.5155 C   0  0  0  0  0  0
  -16.5341  -29.9105   23.6337 C   0  0  0  0  0  0
  -16.7255  -28.6524   23.0366 C   0  0  0  0  0  0
  -26.4452  -31.6596   25.0723 C   0  0  0  0  0  0
  -25.3733  -31.3663   26.1471 C   0  0  0  0  0  0
  -27.0277  -30.3044   24.6080 C   0  0  0  0  0  0
  -27.6045  -32.4281   25.7487 C   0  0  0  0  0  0
  -27.5592  -37.1793   24.8468 C   0  0  0  0  0  0
  -21.4122  -29.3003   22.3754 N   0  0  0  0  0  0
  -26.4307  -37.3806   23.9409 N   0  0  0  0  0  0
  -24.6605  -31.0849   22.1009 N   0  0  0  0  0  0
  -23.4166  -28.8233   23.3089 O   0  0  0  0  0  0
  -28.3973  -26.7386   20.1194 O   0  0  0  0  0  0
  -26.5629  -34.8928   22.4736 O   0  0  0  0  0  0
  -23.5295  -32.1441   23.7530 O   0  0  0  0  0  0
  -29.0224  -18.7914   20.7679 C   0  0  0  0  0  0
  -28.9950  -20.1941   20.9618 C   0  0  0  0  0  0
  -31.4043  -18.9362   20.3154 C   0  0  0  0  0  0
  -30.2265  -18.1650   20.3864 C   0  0  0  0  0  0
  -30.1624  -20.9982   20.7956 C   0  0  0  0  0  0
  -31.3832  -20.3219   20.5280 C   0  0  0  0  0  0
  -29.2829  -24.5605   20.6504 C   0  0  0  0  0  0
  -30.5505  -24.5905   19.9830 C   0  0  0  0  0  0
  -29.0987  -23.2323   21.2154 C   0  0  0  0  0  0
  -31.1243  -25.6326   19.3553 C   0  0  0  0  0  0
  -28.3243  -25.5071   20.7215 C   0  0  0  0  0  0
  -30.3238  -16.7766   19.9193 C   0  0  0  0  0  0
  -31.1627  -23.2332   20.1060 C   0  0  0  0  0  0
  -30.1215  -22.4444   20.7896 N   0  0  0  0  0  0
  -30.0470  -15.6856   20.6810 N   0  0  0  0  0  0
  -30.7570  -16.6657   18.6518 N   0  3  0  0  0  0
  -28.1799  -22.8851   21.9640 O   0  0  0  0  0  0
  -32.5655  -20.9802   20.4287 F   0  0  0  0  0  0
  -31.4380  -12.3021   19.1654 H   0  0  0  0  0  0
  -30.2296  -11.2710   19.8714 H   0  0  0  0  0  0
  -29.7322  -11.7428   17.4488 H   0  0  0  0  0  0
  -29.6780  -13.4569   17.7758 H   0  0  0  0  0  0
  -27.8060  -11.3039   18.8197 H   0  0  0  0  0  0
  -27.3665  -12.6319   17.7808 H   0  0  0  0  0  0
  -27.6820  -14.2559   19.5463 H   0  0  0  0  0  0
  -28.6449  -12.0458   21.4194 H   0  0  0  0  0  0
  -28.4674  -13.7324   21.8278 H   0  0  0  0  0  0
  -25.2759   -9.5700   22.4760 H   0  0  0  0  0  0
  -24.0011   -7.4652   22.7462 H   0  0  0  0  0  0
  -21.0870   -8.8756   19.8941 H   0  0  0  0  0  0
  -22.3685  -10.9674   19.6164 H   0  0  0  0  0  0
  -21.1989   -7.6141   23.9731 H   0  0  0  0  0  0
  -21.1492   -6.0510   25.9076 H   0  0  0  0  0  0
  -22.0589   -2.7627   23.2850 H   0  0  0  0  0  0
  -22.4098  -11.9870   22.4753 H   0  0  0  0  0  0
  -21.1099  -13.1228   22.2615 H   0  0  0  0  0  0
  -24.6476  -15.8389   20.4942 H   0  0  0  0  0  0
  -26.2575  -15.6246   20.0323 H   0  0  0  0  0  0
  -26.7093  -32.5577   23.1200 H   0  0  0  0  0  0
  -24.9944  -33.9842   25.0449 H   0  0  0  0  0  0
  -22.6833  -31.3063   21.4122 H   0  0  0  0  0  0
  -23.3775  -35.9616   23.3306 H   0  0  0  0  0  0
  -24.3592  -36.8923   22.2062 H   0  0  0  0  0  0
  -23.7194  -37.6492   23.6660 H   0  0  0  0  0  0
  -26.0367  -31.6206   20.5992 H   0  0  0  0  0  0
  -26.8077  -30.8976   21.9860 H   0  0  0  0  0  0
  -28.0963  -29.1421   21.1658 H   0  0  0  0  0  0
  -26.0938  -25.9810   19.0279 H   0  0  0  0  0  0
  -23.9849  -27.2820   19.0491 H   0  0  0  0  0  0
  -23.6997  -30.5926   19.4011 H   0  0  0  0  0  0
  -22.7330  -29.2290   19.8816 H   0  0  0  0  0  0
  -25.1299  -36.2006   25.0847 H   0  0  0  0  0  0
  -20.9926  -28.3208   24.1467 H   0  0  0  0  0  0
  -20.5650  -26.2268   23.3633 H   0  0  0  0  0  0
  -21.6623  -26.7441   22.1222 H   0  0  0  0  0  0
  -19.6854  -25.6323   21.1247 H   0  0  0  0  0  0
  -19.6649  -27.3244   20.6794 H   0  0  0  0  0  0
  -17.4165  -26.6690   21.4045 H   0  0  0  0  0  0
  -18.0267  -26.0095   22.9053 H   0  0  0  0  0  0
  -19.7930  -30.7221   24.2359 H   0  0  0  0  0  0
  -17.5018  -31.6297   24.5123 H   0  0  0  0  0  0
  -15.5326  -30.3010   23.7656 H   0  0  0  0  0  0
  -15.8663  -28.0844   22.7066 H   0  0  0  0  0  0
  -24.5922  -30.7015   25.7781 H   0  0  0  0  0  0
  -24.8930  -32.2799   26.4962 H   0  0  0  0  0  0
  -25.8092  -30.8784   27.0192 H   0  0  0  0  0  0
  -26.2803  -29.6802   24.1176 H   0  0  0  0  0  0
  -27.4088  -29.7280   25.4520 H   0  0  0  0  0  0
  -27.8616  -30.4385   23.9192 H   0  0  0  0  0  0
  -27.2692  -33.3560   26.2126 H   0  0  0  0  0  0
  -28.3818  -32.6848   25.0282 H   0  0  0  0  0  0
  -28.0748  -31.8358   26.5346 H   0  0  0  0  0  0
  -28.2593  -38.0111   24.7561 H   0  0  0  0  0  0
  -28.1094  -36.2637   24.6236 H   0  0  0  0  0  0
  -27.2307  -37.1370   25.8870 H   0  0  0  0  0  0
  -20.9280  -29.8712   21.6979 H   0  0  0  0  0  0
  -26.0204  -38.2878   24.1442 H   0  0  0  0  0  0
  -28.1007  -18.2282   20.8325 H   0  0  0  0  0  0
  -28.0360  -20.6372   21.1749 H   0  0  0  0  0  0
  -32.3445  -18.4745   20.0462 H   0  0  0  0  0  0
  -30.6555  -26.6019   19.2894 H   0  0  0  0  0  0
  -32.0944  -25.5302   18.8889 H   0  0  0  0  0  0
  -27.3909  -25.3476   21.2458 H   0  0  0  0  0  0
  -32.0698  -23.2997   20.7091 H   0  0  0  0  0  0
  -31.4050  -22.8298   19.1224 H   0  0  0  0  0  0
  -29.2316  -15.7781   21.2612 H   0  0  0  0  0  0
  -30.9057  -17.5021   18.1077 H   0  0  0  0  0  0
  -30.9949  -15.7761   18.2442 H   0  0  0  0  0  0
  1 25  1  0  0  0
  1 30  2  0  0  0
  1 85  1  0  0  0
  2  3  1  0  0  0
  2 25  1  0  0  0
  2 89  1  0  0  0
  2 90  1  0  0  0
  3  4  1  0  0  0
  3 91  1  0  0  0
  3 92  1  0  0  0
  4  5  1  0  0  0
  4 93  1  0  0  0
  4 94  1  0  0  0
  5  6  1  0  0  0
  5 26  1  0  0  0
  5 95  1  0  0  0
  6 25  1  0  0  0
  6 96  1  0  0  0
  6 97  1  0  0  0
  7  8  2  0  0  0
  7 26  1  0  0  0
  7 29  1  0  0  0
  8  9  1  0  0  0
  8 22  1  0  0  0
  9 10  1  0  0  0
  9 27  2  0  0  0
 10 11  2  0  0  0
 10 15  1  0  0  0
 11 12  1  0  0  0
 11 98  1  0  0  0
 12 13  2  0  0  0
 12 99  1  0  0  0
 13 14  1  0  0  0
 13 31  1  0  0  0
 14 15  2  0  0  0
 14100  1  0  0  0
 15101  1  0  0  0
 16 17  2  0  0  0
 16 21  1  0  0  0
 16 31  1  0  0  0
 17 18  1  0  0  0
 17102  1  0  0  0
 18 19  2  0  0  0
 18103  1  0  0  0
 19 20  1  0  0  0
 19 24  1  0  0  0
 20 21  2  0  0  0
 20104  1  0  0  0
 21 23  1  0  0  0
 22 28  1  0  0  0
 22 32  2  0  0  0
 26 27  1  0  0  0
 28105  1  0  0  0
 28106  1  0  0  0
 29107  1  0  0  0
 29108  1  0  0  0
 33 34  1  0  0  0
 33 66  1  0  0  0
 33 70  2  0  0  0
 34 36  1  0  0  0
 34 59  1  0  0  0
 34109  1  0  0  0
 35 44  2  0  0  0
 35 45  1  0  0  0
 35 68  1  0  0  0
 36 56  1  0  0  0
 36110  1  0  0  0
 37 39  1  0  0  0
 37 47  1  0  0  0
 37 66  1  0  0  0
 37111  1  0  0  0
 38 43  2  0  0  0
 38 46  1  0  0  0
 38 47  1  0  0  0
 39 64  1  0  0  0
 39 67  2  0  0  0
 40 52  1  0  0  0
 40 53  2  0  0  0
 40 58  1  0  0  0
 41112  1  0  0  0
 41113  1  0  0  0
 41114  1  0  0  0
 41 48  1  0  0  0
 42 43  1  0  0  0
 42 66  1  0  0  0
 42115  1  0  0  0
 42116  1  0  0  0
 43 44  1  0  0  0
 44117  1  0  0  0
 45 46  2  0  0  0
 45118  1  0  0  0
 46119  1  0  0  0
 47120  1  0  0  0
 47121  1  0  0  0
 48 56  1  0  0  0
 48 65  1  0  0  0
 48122  1  0  0  0
 49 50  1  0  0  0
 49 53  1  0  0  0
 49 64  1  0  0  0
 49123  1  0  0  0
 50 51  1  0  0  0
 50124  1  0  0  0
 50125  1  0  0  0
 51 52  1  0  0  0
 51126  1  0  0  0
 51127  1  0  0  0
 52128  1  0  0  0
 52129  1  0  0  0
 53 54  1  0  0  0
 54 55  2  0  0  0
 54130  1  0  0  0
 55 57  1  0  0  0
 55131  1  0  0  0
 56 69  2  0  0  0
 57 58  2  0  0  0
 57132  1  0  0  0
 58133  1  0  0  0
 59 60  1  0  0  0
 59 61  1  0  0  0
 59 62  1  0  0  0
 60134  1  0  0  0
 60135  1  0  0  0
 60136  1  0  0  0
 61137  1  0  0  0
 61138  1  0  0  0
 61139  1  0  0  0
 62140  1  0  0  0
 62141  1  0  0  0
 62142  1  0  0  0
 63 65  1  0  0  0
 63143  1  0  0  0
 63144  1  0  0  0
 63145  1  0  0  0
 64146  1  0  0  0
 65147  1  0  0  0
 68 81  1  0  0  0
 71 72  2  0  0  0
 71 74  1  0  0  0
 71148  1  0  0  0
 72 75  1  0  0  0
 72149  1  0  0  0
 73 74  2  0  0  0
 73 76  1  0  0  0
 73150  1  0  0  0
 74 82  1  0  0  0
 75 76  2  0  0  0
 75 84  1  0  0  0
 76 88  1  0  0  0
 77 78  1  0  0  0
 77 79  1  0  0  0
 77 81  2  0  0  0
 78 80  2  0  0  0
 78 83  1  0  0  0
 79 84  1  0  0  0
 79 87  2  0  0  0
 80151  1  0  0  0
 80152  1  0  0  0
 81153  1  0  0  0
 82 85  1  0  0  0
 82 86  2  0  0  0
 83 84  1  0  0  0
 83154  1  0  0  0
 83155  1  0  0  0
 85156  1  0  0  0
 86157  1  0  0  0
 86158  1  0  0  0
M  CHG  1  86   1
M  ISO  4   1 100  68 101  81 101  85 100
M  END
> <chiral flag>
0

> <version>
0

> <s_m_source_file>
/data/baiqing/PycharmProjects/Reinvent-master-3.2/result/LINK_invent/BTK/process_docking_weight1_custom_product_contain_oxygen_bond_distance_aromatic_linkinvent_7_9_3/rearranged_h_0084.sdf

> <i_m_source_file_index>
80

> <r_mmod_Potential_Energy-OPLS-2005>
-126.72184753418

> <r_mmod_Stretch_Energy-OPLS-2005>
38.9880790710449

> <r_mmod_Bend_Energy-OPLS-2005>
157.949981689453

> <r_mmod_Torsional_Energy-OPLS-2005>
319.914733886719

> <r_mmod_Improper_Torsional_Energy-OPLS-2005>
10.1882486343384

> <r_mmod_Van_der_Waal_Energy-OPLS-2005>
176.948211669922

> <r_mmod_Electrostatic_Energy-OPLS-2005>
-405.289703369141

> <r_mmod_Solvation_Energy-OPLS-2005>
-443.446319580078

> <b_mmod_Minimization_Converged-OPLS-2005>
0

> <r_mmod_RMS_Derivative-OPLS-2005>
2.92769145965576

$$$$
80
                    3D
 Structure written by MMmdl.
160169  0  0  1  0            999 V2000
  -30.7691  -14.4141   20.6233 C   0  0  0  0  0  0
  -30.4059  -12.2902   19.4275 C   0  0  0  0  0  0
  -29.4916  -12.5149   18.2100 C   0  0  0  0  0  0
  -28.0150  -12.3762   18.6203 C   0  0  0  0  0  0
  -27.6630  -13.2153   19.8770 C   0  0  2  0  0  0
  -28.7008  -13.0094   21.0045 C   0  0  0  0  0  0
  -25.2586  -13.8184   20.5699 C   0  0  0  0  0  0
  -24.1840  -13.0442   20.9159 C   0  0  0  0  0  0
  -24.6407  -11.6914   20.8709 C   0  0  0  0  0  0
  -23.9077  -10.4302   21.0376 C   0  0  0  0  0  0
  -24.3635   -9.4219   21.9153 C   0  0  0  0  0  0
  -23.6315   -8.2248   22.0735 C   0  0  0  0  0  0
  -22.4290   -8.0284   21.3532 C   0  0  0  0  0  0
  -21.9928   -9.0251   20.4626 C   0  0  0  0  0  0
  -22.7248  -10.2136   20.3026 C   0  0  0  0  0  0
  -21.6864   -6.0730   22.5271 C   0  0  0  0  0  0
  -21.4022   -6.5634   23.8207 C   0  0  0  0  0  0
  -21.3666   -5.6777   24.9166 C   0  0  0  0  0  0
  -21.6053   -4.3040   24.7214 C   0  0  0  0  0  0
  -21.8828   -3.8138   23.4331 C   0  0  0  0  0  0
  -21.9203   -4.6960   22.3392 C   0  0  0  0  0  0
  -22.7856  -13.5219   21.1817 C   0  0  0  0  0  0
  -22.1664   -4.2149   21.0969 F   0  0  0  0  0  0
  -21.5645   -3.4525   25.7726 F   0  0  0  0  0  0
  -30.0409  -13.2768   20.4560 N   0  0  0  0  0  0
  -26.3037  -12.9379   20.3375 N   0  0  0  0  0  0
  -25.9342  -11.6524   20.5753 N   0  0  0  0  0  0
  -22.0510  -12.8209   22.0380 N   0  0  0  0  0  0
  -25.4280  -15.1906   20.4158 N   0  0  0  0  0  0
  -31.8363  -14.6066   20.0309 O   0  0  0  0  0  0
  -21.6647   -6.8883   21.4238 O   0  0  0  0  0  0
  -22.3524  -14.5508   20.6648 O   0  0  0  0  0  0
  -24.6105  -31.8703   23.2128 C   0  0  0  0  0  0
  -25.9019  -32.4825   23.8413 C   0  0  1  0  0  0
  -27.2354  -27.4705   20.0993 C   0  0  0  0  0  0
  -25.5891  -33.8627   24.2349 N   0  0  0  0  0  0
  -23.3976  -30.4916   21.5517 C   0  0  2  0  0  0
  -24.8470  -28.9655   20.1101 C   0  0  0  0  0  0
  -22.7388  -29.4650   22.4999 C   0  0  0  0  0  0
  -18.0258  -28.1371   22.8491 C   0  0  0  0  0  0
  -24.1486  -36.7326   23.2638 C   0  0  0  0  0  0
  -25.9203  -30.8509   21.3569 C   0  0  0  0  0  0
  -26.0021  -29.4896   20.7037 C   0  0  0  0  0  0
  -27.2028  -28.7502   20.6948 C   0  0  0  0  0  0
  -26.0719  -26.9543   19.4970 C   0  0  0  0  0  0
  -24.8748  -27.6968   19.5021 C   0  0  0  0  0  0
  -23.6035  -29.8245   20.1646 C   0  0  0  0  0  0
  -25.4103  -36.3118   24.0342 C   0  0  1  0  0  0
  -20.5845  -28.3652   23.1325 C   0  0  2  0  0  0
  -20.6749  -26.9392   22.5430 C   0  0  0  0  0  0
  -19.5736  -26.6388   21.5213 C   0  0  0  0  0  0
  -18.1912  -26.7917   22.1625 C   0  0  0  0  0  0
  -19.1509  -28.8828   23.2907 C   0  0  0  0  0  0
  -18.9441  -30.1435   23.8916 C   0  0  0  0  0  0
  -17.6447  -30.6583   24.0564 C   0  0  0  0  0  0
  -25.9030  -34.9478   23.5143 C   0  0  0  0  0  0
  -16.5336  -29.9084   23.6325 C   0  0  0  0  0  0
  -16.7251  -28.6499   23.0348 C   0  0  0  0  0  0
  -26.4475  -31.6586   25.0715 C   0  0  0  0  0  0
  -25.3757  -31.3681   26.1471 C   0  0  0  0  0  0
  -27.0300  -30.3034   24.6057 C   0  0  0  0  0  0
  -27.6066  -32.4298   25.7458 C   0  0  0  0  0  0
  -27.5579  -37.1808   24.8464 C   0  0  0  0  0  0
  -21.4120  -29.3021   22.3732 N   0  0  0  0  0  0
  -26.4291  -37.3799   23.9409 N   0  0  0  0  0  0
  -24.6608  -31.0833   22.1004 N   0  0  0  0  0  0
  -23.4172  -28.8201   23.3039 O   0  0  0  0  0  0
  -28.3619  -26.6898   20.1374 O   0  0  0  0  0  0
  -26.5594  -34.8927   22.4703 O   0  0  0  0  0  0
  -23.5306  -32.1432   23.7547 O   0  0  0  0  0  0
  -31.0351  -19.9789   19.5179 C   0  0  0  0  0  0
  -30.5707  -21.2641   19.8719 C   0  0  0  0  0  0
  -28.9915  -20.2771   21.4715 C   0  0  0  0  0  0
  -30.4739  -18.8625   20.1611 C   0  0  0  0  0  0
  -29.4561  -19.0015   21.0962 C   0  0  0  0  0  0
  -29.5602  -21.4238   20.8592 C   0  0  0  0  0  0
  -31.1018  -14.5148   23.5622 C   0  0  0  0  0  0
  -29.0517  -24.9732   21.6983 C   0  0  0  0  0  0
  -30.8277  -15.5190   22.7085 C   0  0  0  0  0  0
  -28.6822  -26.2322   21.3903 C   0  0  0  0  0  0
  -29.2167  -23.8995   20.7313 C   0  0  0  0  0  0
  -30.8877  -17.4270   19.9970 C   0  0  0  0  0  0
  -29.0057  -17.6598   21.6334 C   0  0  0  0  0  0
  -29.7927  -16.6241   20.7601 C   0  0  2  0  0  0
  -29.1758  -22.7039   21.3470 N   0  0  0  0  0  0
  -30.2569  -15.3774   21.4301 N   0  0  0  0  0  0
  -29.3633  -24.0418   19.5137 O   0  0  0  0  0  0
  -31.4548  -12.3573   19.1323 H   0  0  0  0  0  0
  -30.2760  -11.2812   19.8212 H   0  0  0  0  0  0
  -29.7295  -11.7984   17.4226 H   0  0  0  0  0  0
  -29.6706  -13.5063   17.7908 H   0  0  0  0  0  0
  -27.8232  -11.3208   18.8149 H   0  0  0  0  0  0
  -27.3636  -12.6561   17.7910 H   0  0  0  0  0  0
  -27.7048  -14.2620   19.5757 H   0  0  0  0  0  0
  -28.6624  -11.9853   21.3780 H   0  0  0  0  0  0
  -28.4622  -13.6435   21.8589 H   0  0  0  0  0  0
  -25.2791   -9.5699   22.4716 H   0  0  0  0  0  0
  -24.0022   -7.4648   22.7464 H   0  0  0  0  0  0
  -21.0852   -8.8771   19.8944 H   0  0  0  0  0  0
  -22.3698  -10.9671   19.6133 H   0  0  0  0  0  0
  -21.2008   -7.6135   23.9716 H   0  0  0  0  0  0
  -21.1486   -6.0498   25.9070 H   0  0  0  0  0  0
  -22.0613   -2.7603   23.2822 H   0  0  0  0  0  0
  -22.4155  -11.9899   22.4798 H   0  0  0  0  0  0
  -21.1122  -13.1219   22.2576 H   0  0  0  0  0  0
  -24.6601  -15.8437   20.5286 H   0  0  0  0  0  0
  -26.2877  -15.6372   20.1239 H   0  0  0  0  0  0
  -26.7083  -32.5556   23.1178 H   0  0  0  0  0  0
  -25.0032  -33.9793   25.0483 H   0  0  0  0  0  0
  -22.6841  -31.3065   21.4145 H   0  0  0  0  0  0
  -23.3729  -35.9679   23.3328 H   0  0  0  0  0  0
  -24.3570  -36.8909   22.2046 H   0  0  0  0  0  0
  -23.7260  -37.6550   23.6630 H   0  0  0  0  0  0
  -26.0220  -31.6192   20.5886 H   0  0  0  0  0  0
  -26.8122  -30.9081   21.9688 H   0  0  0  0  0  0
  -28.0952  -29.1503   21.1555 H   0  0  0  0  0  0
  -26.0908  -25.9715   19.0473 H   0  0  0  0  0  0
  -23.9847  -27.2859   19.0473 H   0  0  0  0  0  0
  -23.7007  -30.6015   19.4047 H   0  0  0  0  0  0
  -22.7303  -29.2376   19.8736 H   0  0  0  0  0  0
  -25.1274  -36.1991   25.0835 H   0  0  0  0  0  0
  -20.9935  -28.3217   24.1451 H   0  0  0  0  0  0
  -20.5668  -26.2258   23.3607 H   0  0  0  0  0  0
  -21.6623  -26.7442   22.1214 H   0  0  0  0  0  0
  -19.6910  -25.6314   21.1218 H   0  0  0  0  0  0
  -19.6684  -27.3216   20.6759 H   0  0  0  0  0  0
  -17.4190  -26.6666   21.4023 H   0  0  0  0  0  0
  -18.0313  -26.0050   22.9012 H   0  0  0  0  0  0
  -19.7921  -30.7238   24.2306 H   0  0  0  0  0  0
  -17.5005  -31.6268   24.5160 H   0  0  0  0  0  0
  -15.5339  -30.2999   23.7644 H   0  0  0  0  0  0
  -15.8645  -28.0830   22.7056 H   0  0  0  0  0  0
  -24.5899  -30.7072   25.7802 H   0  0  0  0  0  0
  -24.8987  -32.2838   26.4976 H   0  0  0  0  0  0
  -25.8116  -30.8793   27.0194 H   0  0  0  0  0  0
  -26.2835  -29.6778   24.1154 H   0  0  0  0  0  0
  -27.4128  -29.7278   25.4499 H   0  0  0  0  0  0
  -27.8645  -30.4360   23.9160 H   0  0  0  0  0  0
  -27.2688  -33.3561   26.2116 H   0  0  0  0  0  0
  -28.3821  -32.6922   25.0249 H   0  0  0  0  0  0
  -28.0802  -31.8379   26.5293 H   0  0  0  0  0  0
  -28.2608  -38.0095   24.7487 H   0  0  0  0  0  0
  -28.1057  -36.2620   24.6310 H   0  0  0  0  0  0
  -27.2295  -37.1492   25.8868 H   0  0  0  0  0  0
  -20.9273  -29.8723   21.6941 H   0  0  0  0  0  0
  -26.0182  -38.2880   24.1407 H   0  0  0  0  0  0
  -31.8255  -19.8615   18.7887 H   0  0  0  0  0  0
  -31.0351  -22.1229   19.4075 H   0  0  0  0  0  0
  -28.2284  -20.3714   22.2325 H   0  0  0  0  0  0
  -31.5547  -14.7225   24.5214 H   0  0  0  0  0  0
  -30.8833  -13.4811   23.3351 H   0  0  0  0  0  0
  -29.2473  -24.7625   22.7405 H   0  0  0  0  0  0
  -31.0602  -16.5400   22.9767 H   0  0  0  0  0  0
  -28.5935  -26.9980   22.1497 H   0  0  0  0  0  0
  -31.8761  -17.3025   20.4422 H   0  0  0  0  0  0
  -30.9467  -17.1498   18.9436 H   0  0  0  0  0  0
  -27.9269  -17.5402   21.5200 H   0  0  0  0  0  0
  -29.2257  -17.6177   22.6990 H   0  0  0  0  0  0
  -29.0806  -16.3173   19.9910 H   0  0  0  0  0  0
  -28.8723  -22.7293   22.3100 H   0  0  0  0  0  0
  1 25  1  0  0  0
  1 30  2  0  0  0
  1 86  1  0  0  0
  2  3  1  0  0  0
  2 25  1  0  0  0
  2 88  1  0  0  0
  2 89  1  0  0  0
  3  4  1  0  0  0
  3 90  1  0  0  0
  3 91  1  0  0  0
  4  5  1  0  0  0
  4 92  1  0  0  0
  4 93  1  0  0  0
  5  6  1  0  0  0
  5 26  1  0  0  0
  5 94  1  0  0  0
  6 25  1  0  0  0
  6 95  1  0  0  0
  6 96  1  0  0  0
  7  8  2  0  0  0
  7 26  1  0  0  0
  7 29  1  0  0  0
  8  9  1  0  0  0
  8 22  1  0  0  0
  9 10  1  0  0  0
  9 27  2  0  0  0
 10 11  2  0  0  0
 10 15  1  0  0  0
 11 12  1  0  0  0
 11 97  1  0  0  0
 12 13  2  0  0  0
 12 98  1  0  0  0
 13 14  1  0  0  0
 13 31  1  0  0  0
 14 15  2  0  0  0
 14 99  1  0  0  0
 15100  1  0  0  0
 16 17  2  0  0  0
 16 21  1  0  0  0
 16 31  1  0  0  0
 17 18  1  0  0  0
 17101  1  0  0  0
 18 19  2  0  0  0
 18102  1  0  0  0
 19 20  1  0  0  0
 19 24  1  0  0  0
 20 21  2  0  0  0
 20103  1  0  0  0
 21 23  1  0  0  0
 22 28  1  0  0  0
 22 32  2  0  0  0
 26 27  1  0  0  0
 28104  1  0  0  0
 28105  1  0  0  0
 29106  1  0  0  0
 29107  1  0  0  0
 33 34  1  0  0  0
 33 66  1  0  0  0
 33 70  2  0  0  0
 34 36  1  0  0  0
 34 59  1  0  0  0
 34108  1  0  0  0
 35 44  2  0  0  0
 35 45  1  0  0  0
 35 68  1  0  0  0
 36 56  1  0  0  0
 36109  1  0  0  0
 37 39  1  0  0  0
 37 47  1  0  0  0
 37 66  1  0  0  0
 37110  1  0  0  0
 38 43  2  0  0  0
 38 46  1  0  0  0
 38 47  1  0  0  0
 39 64  1  0  0  0
 39 67  2  0  0  0
 40 52  1  0  0  0
 40 53  2  0  0  0
 40 58  1  0  0  0
 41111  1  0  0  0
 41112  1  0  0  0
 41113  1  0  0  0
 41 48  1  0  0  0
 42 43  1  0  0  0
 42 66  1  0  0  0
 42114  1  0  0  0
 42115  1  0  0  0
 43 44  1  0  0  0
 44116  1  0  0  0
 45 46  2  0  0  0
 45117  1  0  0  0
 46118  1  0  0  0
 47119  1  0  0  0
 47120  1  0  0  0
 48 56  1  0  0  0
 48 65  1  0  0  0
 48121  1  0  0  0
 49 50  1  0  0  0
 49 53  1  0  0  0
 49 64  1  0  0  0
 49122  1  0  0  0
 50 51  1  0  0  0
 50123  1  0  0  0
 50124  1  0  0  0
 51 52  1  0  0  0
 51125  1  0  0  0
 51126  1  0  0  0
 52127  1  0  0  0
 52128  1  0  0  0
 53 54  1  0  0  0
 54 55  2  0  0  0
 54129  1  0  0  0
 55 57  1  0  0  0
 55130  1  0  0  0
 56 69  2  0  0  0
 57 58  2  0  0  0
 57131  1  0  0  0
 58132  1  0  0  0
 59 60  1  0  0  0
 59 61  1  0  0  0
 59 62  1  0  0  0
 60133  1  0  0  0
 60134  1  0  0  0
 60135  1  0  0  0
 61136  1  0  0  0
 61137  1  0  0  0
 61138  1  0  0  0
 62139  1  0  0  0
 62140  1  0  0  0
 62141  1  0  0  0
 63 65  1  0  0  0
 63142  1  0  0  0
 63143  1  0  0  0
 63144  1  0  0  0
 64145  1  0  0  0
 65146  1  0  0  0
 68 80  1  0  0  0
 71 72  2  0  0  0
 71 74  1  0  0  0
 71147  1  0  0  0
 72 76  1  0  0  0
 72148  1  0  0  0
 73 75  1  0  0  0
 73 76  2  0  0  0
 73149  1  0  0  0
 74 75  2  0  0  0
 74 82  1  0  0  0
 75 83  1  0  0  0
 76 85  1  0  0  0
 77 79  2  0  0  0
 77150  1  0  0  0
 77151  1  0  0  0
 78 80  2  0  0  0
 78 81  1  0  0  0
 78152  1  0  0  0
 79 86  1  0  0  0
 79153  1  0  0  0
 80154  1  0  0  0
 81 85  1  0  0  0
 81 87  2  0  0  0
 82 84  1  0  0  0
 82155  1  0  0  0
 82156  1  0  0  0
 83 84  1  0  0  0
 83157  1  0  0  0
 83158  1  0  0  0
 84 86  1  0  0  0
 84159  1  0  0  0
 85160  1  0  0  0
M  ISO  4   1 100  68 101  80 101  86 100
M  END
> <chiral flag>
0

> <version>
0

> <s_m_source_file>
/data/baiqing/PycharmProjects/Reinvent-master-3.2/result/LINK_invent/BTK/process_docking_weight1_custom_product_contain_oxygen_bond_distance_aromatic_linkinvent_7_9_3/rearranged_h_0084.sdf

> <i_m_source_file_index>
81

> <r_mmod_Potential_Energy-OPLS-2005>
145.582489013672

> <r_mmod_Stretch_Energy-OPLS-2005>
39.2528038024902

> <r_mmod_Bend_Energy-OPLS-2005>
149.439926147461

> <r_mmod_Torsional_Energy-OPLS-2005>
317.694915771484

> <r_mmod_Improper_Torsional_Energy-OPLS-2005>
5.18223094940186

> <r_mmod_Van_der_Waal_Energy-OPLS-2005>
155.326812744141

> <r_mmod_Electrostatic_Energy-OPLS-2005>
-313.658660888672

> <r_mmod_Solvation_Energy-OPLS-2005>
-217.677993774414

> <b_mmod_Minimization_Converged-OPLS-2005>
0

> <r_mmod_RMS_Derivative-OPLS-2005>
2.00711679458618

$$$$
81
                    3D
 Structure written by MMmdl.
154163  0  0  1  0            999 V2000
  -30.5614  -14.7692   20.4729 C   0  0  0  0  0  0
  -30.4475  -12.4709   19.4752 C   0  0  0  0  0  0
  -29.5171  -12.5231   18.2404 C   0  0  0  0  0  0
  -28.0425  -12.3398   18.6512 C   0  0  0  0  0  0
  -27.6480  -13.2281   19.8611 C   0  0  2  0  0  0
  -28.6931  -13.1300   20.9951 C   0  0  0  0  0  0
  -25.2528  -13.8183   20.5656 C   0  0  0  0  0  0
  -24.1821  -13.0434   20.9184 C   0  0  0  0  0  0
  -24.6416  -11.6918   20.8755 C   0  0  0  0  0  0
  -23.9085  -10.4296   21.0413 C   0  0  0  0  0  0
  -24.3635   -9.4199   21.9184 C   0  0  0  0  0  0
  -23.6300   -8.2235   22.0753 C   0  0  0  0  0  0
  -22.4280   -8.0280   21.3537 C   0  0  0  0  0  0
  -21.9917   -9.0270   20.4647 C   0  0  0  0  0  0
  -22.7255  -10.2143   20.3060 C   0  0  0  0  0  0
  -21.6855   -6.0738   22.5280 C   0  0  0  0  0  0
  -21.4020   -6.5646   23.8213 C   0  0  0  0  0  0
  -21.3659   -5.6796   24.9172 C   0  0  0  0  0  0
  -21.6039   -4.3058   24.7220 C   0  0  0  0  0  0
  -21.8824   -3.8147   23.4343 C   0  0  0  0  0  0
  -21.9191   -4.6966   22.3402 C   0  0  0  0  0  0
  -22.7841  -13.5218   21.1848 C   0  0  0  0  0  0
  -22.1660   -4.2154   21.0980 F   0  0  0  0  0  0
  -21.5617   -3.4543   25.7725 F   0  0  0  0  0  0
  -29.9945  -13.5116   20.4273 N   0  0  0  0  0  0
  -26.2976  -12.9388   20.3320 N   0  0  0  0  0  0
  -25.9356  -11.6534   20.5793 N   0  0  0  0  0  0
  -22.0506  -12.8220   22.0422 N   0  0  0  0  0  0
  -25.4180  -15.1895   20.4014 N   0  0  0  0  0  0
  -31.7256  -14.9334   20.0937 O   0  0  0  0  0  0
  -21.6638   -6.8879   21.4239 O   0  0  0  0  0  0
  -22.3532  -14.5535   20.6701 O   0  0  0  0  0  0
  -24.6316  -31.8526   23.1957 C   0  0  0  0  0  0
  -25.9143  -32.4731   23.8311 C   0  0  1  0  0  0
  -27.2245  -27.2483   20.1276 C   0  0  0  0  0  0
  -25.5937  -33.8537   24.2233 N   0  0  0  0  0  0
  -23.4306  -30.4724   21.5382 C   0  0  2  0  0  0
  -24.8797  -28.9187   20.1032 C   0  0  0  0  0  0
  -22.7517  -29.4576   22.4896 C   0  0  0  0  0  0
  -18.0302  -28.1377   22.8474 C   0  0  0  0  0  0
  -24.1493  -36.7277   23.2641 C   0  0  0  0  0  0
  -25.9775  -30.7587   21.3809 C   0  0  0  0  0  0
  -26.0496  -29.3819   20.7186 C   0  0  0  0  0  0
  -27.2207  -28.5566   20.7242 C   0  0  0  0  0  0
  -26.0303  -26.8544   19.4826 C   0  0  0  0  0  0
  -24.8764  -27.6646   19.4728 C   0  0  0  0  0  0
  -23.6491  -29.8045   20.1541 C   0  0  0  0  0  0
  -25.4122  -36.3049   24.0318 C   0  0  1  0  0  0
  -20.5907  -28.3689   23.1255 C   0  0  2  0  0  0
  -20.6784  -26.9402   22.5406 C   0  0  0  0  0  0
  -19.5764  -26.6364   21.5207 C   0  0  0  0  0  0
  -18.1944  -26.7915   22.1622 C   0  0  0  0  0  0
  -19.1556  -28.8857   23.2855 C   0  0  0  0  0  0
  -18.9473  -30.1457   23.8863 C   0  0  0  0  0  0
  -17.6471  -30.6584   24.0553 C   0  0  0  0  0  0
  -25.9062  -34.9422   23.5082 C   0  0  0  0  0  0
  -16.5362  -29.9071   23.6330 C   0  0  0  0  0  0
  -16.7286  -28.6494   23.0341 C   0  0  0  0  0  0
  -26.4505  -31.6582   25.0721 C   0  0  0  0  0  0
  -25.3731  -31.3744   26.1445 C   0  0  0  0  0  0
  -27.0383  -30.3001   24.6248 C   0  0  0  0  0  0
  -27.6043  -32.4352   25.7489 C   0  0  0  0  0  0
  -27.5583  -37.1785   24.8453 C   0  0  0  0  0  0
  -21.4228  -29.3029   22.3645 N   0  0  0  0  0  0
  -26.4287  -37.3762   23.9414 N   0  0  0  0  0  0
  -24.6987  -31.0469   22.0940 N   0  0  0  0  0  0
  -23.4216  -28.8130   23.3009 O   0  0  0  0  0  0
  -28.2956  -26.3291   20.2584 O   0  0  0  0  0  0
  -26.5631  -34.8902   22.4646 O   0  0  0  0  0  0
  -23.5464  -32.1347   23.7245 O   0  0  0  0  0  0
  -30.4083  -19.5447   19.8016 C   0  0  0  0  0  0
  -30.6012  -18.1236   19.9513 C   0  0  0  0  0  0
  -28.4487  -19.4537   21.0972 C   0  0  0  0  0  0
  -29.3244  -20.3047   20.3529 C   0  0  0  0  0  0
  -29.6903  -17.3007   20.6695 C   0  0  0  0  0  0
  -28.5969  -18.0196   21.2426 C   0  0  0  0  0  0
  -28.6164  -23.7752   19.8955 C   0  0  0  0  0  0
  -28.7651  -22.6033   19.0310 C   0  0  0  0  0  0
  -28.3547  -25.1014   19.5335 C   0  0  0  0  0  0
  -28.8601  -22.8431   21.1195 C   0  0  0  0  0  0
  -26.5114  -17.8464   22.4395 C   0  0  0  0  0  0
  -29.1291  -21.7696   20.1130 N   0  0  0  0  0  0
  -29.7246  -15.8173   20.8316 N   0  0  0  0  0  0
  -28.5707  -22.4638   17.8408 O   0  0  0  0  0  0
  -27.6897  -17.2358   21.9282 O   0  0  0  0  0  0
  -31.4841  -12.6212   19.1700 H   0  0  0  0  0  0
  -30.4133  -11.4869   19.9454 H   0  0  0  0  0  0
  -29.8027  -11.7565   17.5178 H   0  0  0  0  0  0
  -29.6356  -13.4812   17.7324 H   0  0  0  0  0  0
  -27.9019  -11.2883   18.9035 H   0  0  0  0  0  0
  -27.3851  -12.5385   17.8045 H   0  0  0  0  0  0
  -27.6480  -14.2566   19.4987 H   0  0  0  0  0  0
  -28.7385  -12.1150   21.3938 H   0  0  0  0  0  0
  -28.4210  -13.7701   21.8363 H   0  0  0  0  0  0
  -25.2792   -9.5662   22.4752 H   0  0  0  0  0  0
  -24.0003   -7.4632   22.7481 H   0  0  0  0  0  0
  -21.0838   -8.8805   19.8972 H   0  0  0  0  0  0
  -22.3723  -10.9691   19.6167 H   0  0  0  0  0  0
  -21.2031   -7.6158   23.9721 H   0  0  0  0  0  0
  -21.1470   -6.0522   25.9073 H   0  0  0  0  0  0
  -22.0603   -2.7611   23.2841 H   0  0  0  0  0  0
  -22.4129  -11.9871   22.4786 H   0  0  0  0  0  0
  -21.1131  -13.1239   22.2659 H   0  0  0  0  0  0
  -24.6437  -15.8365   20.4988 H   0  0  0  0  0  0
  -26.2704  -15.6360   20.0862 H   0  0  0  0  0  0
  -26.7210  -32.5365   23.1052 H   0  0  0  0  0  0
  -25.0093  -33.9671   25.0378 H   0  0  0  0  0  0
  -22.7274  -31.2944   21.3902 H   0  0  0  0  0  0
  -23.3744  -35.9620   23.3292 H   0  0  0  0  0  0
  -24.3584  -36.8910   22.2056 H   0  0  0  0  0  0
  -23.7254  -37.6480   23.6673 H   0  0  0  0  0  0
  -26.1260  -31.5212   20.6150 H   0  0  0  0  0  0
  -26.8510  -30.8006   22.0199 H   0  0  0  0  0  0
  -28.1093  -28.8962   21.2376 H   0  0  0  0  0  0
  -25.9551  -25.8828   19.0178 H   0  0  0  0  0  0
  -23.9796  -27.3014   18.9906 H   0  0  0  0  0  0
  -23.7694  -30.5795   19.3964 H   0  0  0  0  0  0
  -22.7681  -29.2363   19.8509 H   0  0  0  0  0  0
  -25.1302  -36.1885   25.0809 H   0  0  0  0  0  0
  -20.9990  -28.3261   24.1378 H   0  0  0  0  0  0
  -20.5673  -26.2296   23.3611 H   0  0  0  0  0  0
  -21.6649  -26.7422   22.1203 H   0  0  0  0  0  0
  -19.6926  -25.6270   21.1239 H   0  0  0  0  0  0
  -19.6702  -27.3164   20.6730 H   0  0  0  0  0  0
  -17.4213  -26.6648   21.4025 H   0  0  0  0  0  0
  -18.0359  -26.0065   22.9031 H   0  0  0  0  0  0
  -19.7950  -30.7284   24.2206 H   0  0  0  0  0  0
  -17.5024  -31.6243   24.5185 H   0  0  0  0  0  0
  -15.5361  -30.2962   23.7674 H   0  0  0  0  0  0
  -15.8684  -28.0808   22.7057 H   0  0  0  0  0  0
  -24.5881  -30.7124   25.7771 H   0  0  0  0  0  0
  -24.8958  -32.2925   26.4882 H   0  0  0  0  0  0
  -25.8044  -30.8899   27.0213 H   0  0  0  0  0  0
  -26.2998  -29.6718   24.1261 H   0  0  0  0  0  0
  -27.4046  -29.7296   25.4791 H   0  0  0  0  0  0
  -27.8870  -30.4276   23.9526 H   0  0  0  0  0  0
  -27.2628  -33.3643   26.2065 H   0  0  0  0  0  0
  -28.3850  -32.6943   25.0324 H   0  0  0  0  0  0
  -28.0726  -31.8498   26.5409 H   0  0  0  0  0  0
  -28.2565  -38.0114   24.7543 H   0  0  0  0  0  0
  -28.1111  -36.2650   24.6223 H   0  0  0  0  0  0
  -27.2304  -37.1354   25.8851 H   0  0  0  0  0  0
  -20.9421  -29.8741   21.6834 H   0  0  0  0  0  0
  -26.0147  -38.2821   24.1447 H   0  0  0  0  0  0
  -31.1446  -20.0811   19.2193 H   0  0  0  0  0  0
  -31.4583  -17.6668   19.4769 H   0  0  0  0  0  0
  -27.5980  -19.9452   21.5413 H   0  0  0  0  0  0
  -28.2398  -25.3159   18.4806 H   0  0  0  0  0  0
  -27.9919  -22.6068   21.7372 H   0  0  0  0  0  0
  -29.7283  -23.0462   21.7487 H   0  0  0  0  0  0
  -25.8902  -17.0878   22.9159 H   0  0  0  0  0  0
  -25.9176  -18.3011   21.6453 H   0  0  0  0  0  0
  -26.7449  -18.5980   23.1942 H   0  0  0  0  0  0
  -28.8632  -15.4717   21.2291 H   0  0  0  0  0  0
  1 25  1  0  0  0
  1 30  2  0  0  0
  1 83  1  0  0  0
  2  3  1  0  0  0
  2 25  1  0  0  0
  2 86  1  0  0  0
  2 87  1  0  0  0
  3  4  1  0  0  0
  3 88  1  0  0  0
  3 89  1  0  0  0
  4  5  1  0  0  0
  4 90  1  0  0  0
  4 91  1  0  0  0
  5  6  1  0  0  0
  5 26  1  0  0  0
  5 92  1  0  0  0
  6 25  1  0  0  0
  6 93  1  0  0  0
  6 94  1  0  0  0
  7  8  2  0  0  0
  7 26  1  0  0  0
  7 29  1  0  0  0
  8  9  1  0  0  0
  8 22  1  0  0  0
  9 10  1  0  0  0
  9 27  2  0  0  0
 10 11  2  0  0  0
 10 15  1  0  0  0
 11 12  1  0  0  0
 11 95  1  0  0  0
 12 13  2  0  0  0
 12 96  1  0  0  0
 13 14  1  0  0  0
 13 31  1  0  0  0
 14 15  2  0  0  0
 14 97  1  0  0  0
 15 98  1  0  0  0
 16 17  2  0  0  0
 16 21  1  0  0  0
 16 31  1  0  0  0
 17 18  1  0  0  0
 17 99  1  0  0  0
 18 19  2  0  0  0
 18100  1  0  0  0
 19 20  1  0  0  0
 19 24  1  0  0  0
 20 21  2  0  0  0
 20101  1  0  0  0
 21 23  1  0  0  0
 22 28  1  0  0  0
 22 32  2  0  0  0
 26 27  1  0  0  0
 28102  1  0  0  0
 28103  1  0  0  0
 29104  1  0  0  0
 29105  1  0  0  0
 33 34  1  0  0  0
 33 66  1  0  0  0
 33 70  2  0  0  0
 34 36  1  0  0  0
 34 59  1  0  0  0
 34106  1  0  0  0
 35 44  2  0  0  0
 35 45  1  0  0  0
 35 68  1  0  0  0
 36 56  1  0  0  0
 36107  1  0  0  0
 37 39  1  0  0  0
 37 47  1  0  0  0
 37 66  1  0  0  0
 37108  1  0  0  0
 38 43  2  0  0  0
 38 46  1  0  0  0
 38 47  1  0  0  0
 39 64  1  0  0  0
 39 67  2  0  0  0
 40 52  1  0  0  0
 40 53  2  0  0  0
 40 58  1  0  0  0
 41109  1  0  0  0
 41110  1  0  0  0
 41111  1  0  0  0
 41 48  1  0  0  0
 42 43  1  0  0  0
 42 66  1  0  0  0
 42112  1  0  0  0
 42113  1  0  0  0
 43 44  1  0  0  0
 44114  1  0  0  0
 45 46  2  0  0  0
 45115  1  0  0  0
 46116  1  0  0  0
 47117  1  0  0  0
 47118  1  0  0  0
 48 56  1  0  0  0
 48 65  1  0  0  0
 48119  1  0  0  0
 49 50  1  0  0  0
 49 53  1  0  0  0
 49 64  1  0  0  0
 49120  1  0  0  0
 50 51  1  0  0  0
 50121  1  0  0  0
 50122  1  0  0  0
 51 52  1  0  0  0
 51123  1  0  0  0
 51124  1  0  0  0
 52125  1  0  0  0
 52126  1  0  0  0
 53 54  1  0  0  0
 54 55  2  0  0  0
 54127  1  0  0  0
 55 57  1  0  0  0
 55128  1  0  0  0
 56 69  2  0  0  0
 57 58  2  0  0  0
 57129  1  0  0  0
 58130  1  0  0  0
 59 60  1  0  0  0
 59 61  1  0  0  0
 59 62  1  0  0  0
 60131  1  0  0  0
 60132  1  0  0  0
 60133  1  0  0  0
 61134  1  0  0  0
 61135  1  0  0  0
 61136  1  0  0  0
 62137  1  0  0  0
 62138  1  0  0  0
 62139  1  0  0  0
 63 65  1  0  0  0
 63140  1  0  0  0
 63141  1  0  0  0
 63142  1  0  0  0
 64143  1  0  0  0
 65144  1  0  0  0
 68 79  1  0  0  0
 71 72  2  0  0  0
 71 74  1  0  0  0
 71145  1  0  0  0
 72 75  1  0  0  0
 72146  1  0  0  0
 73 74  2  0  0  0
 73 76  1  0  0  0
 73147  1  0  0  0
 74 82  1  0  0  0
 75 76  2  0  0  0
 75 83  1  0  0  0
 76 85  1  0  0  0
 77 78  1  0  0  0
 77 79  2  0  0  0
 77 80  1  0  0  0
 78 82  1  0  0  0
 78 84  2  0  0  0
 79148  1  0  0  0
 80 82  1  0  0  0
 80149  1  0  0  0
 80150  1  0  0  0
 81 85  1  0  0  0
 81151  1  0  0  0
 81152  1  0  0  0
 81153  1  0  0  0
 83154  1  0  0  0
M  ISO  4   1 100  68 101  79 101  83 100
M  END
> <chiral flag>
0

> <version>
0

> <s_m_source_file>
/data/baiqing/PycharmProjects/Reinvent-master-3.2/result/LINK_invent/BTK/process_docking_weight1_custom_product_contain_oxygen_bond_distance_aromatic_linkinvent_7_9_3/rearranged_h_0084.sdf

> <i_m_source_file_index>
82

> <r_mmod_Potential_Energy-OPLS-2005>
225.648254394531

> <r_mmod_Stretch_Energy-OPLS-2005>
114.527809143066

> <r_mmod_Bend_Energy-OPLS-2005>
265.770904541016

> <r_mmod_Torsional_Energy-OPLS-2005>
244.882293701172

> <r_mmod_Improper_Torsional_Energy-OPLS-2005>
4.77471446990967

> <r_mmod_Van_der_Waal_Energy-OPLS-2005>
135.355651855469

> <r_mmod_Electrostatic_Energy-OPLS-2005>
-421.474884033203

> <r_mmod_Solvation_Energy-OPLS-2005>
-217.851089477539

> <b_mmod_Minimization_Converged-OPLS-2005>
0

> <r_mmod_RMS_Derivative-OPLS-2005>
2.02037358283997

$$$$
82
                    3D
 Structure written by MMmdl.
150159  0  0  1  0            999 V2000
  -30.4784  -15.0195   20.4170 C   0  0  0  0  0  0
  -30.4555  -12.6337   19.5026 C   0  0  0  0  0  0
  -29.5293  -12.5490   18.2636 C   0  0  0  0  0  0
  -28.0632  -12.3211   18.6807 C   0  0  0  0  0  0
  -27.6326  -13.2500   19.8451 C   0  0  2  0  0  0
  -28.6775  -13.2746   20.9820 C   0  0  0  0  0  0
  -25.2445  -13.8189   20.5707 C   0  0  0  0  0  0
  -24.1761  -13.0407   20.9185 C   0  0  0  0  0  0
  -24.6399  -11.6904   20.8731 C   0  0  0  0  0  0
  -23.9083  -10.4278   21.0393 C   0  0  0  0  0  0
  -24.3628   -9.4200   21.9179 C   0  0  0  0  0  0
  -23.6296   -8.2240   22.0754 C   0  0  0  0  0  0
  -22.4278   -8.0278   21.3543 C   0  0  0  0  0  0
  -21.9915   -9.0251   20.4643 C   0  0  0  0  0  0
  -22.7252  -10.2124   20.3047 C   0  0  0  0  0  0
  -21.6853   -6.0733   22.5280 C   0  0  0  0  0  0
  -21.4015   -6.5638   23.8212 C   0  0  0  0  0  0
  -21.3661   -5.6792   24.9175 C   0  0  0  0  0  0
  -21.6045   -4.3054   24.7226 C   0  0  0  0  0  0
  -21.8819   -3.8146   23.4347 C   0  0  0  0  0  0
  -21.9193   -4.6961   22.3402 C   0  0  0  0  0  0
  -22.7785  -13.5183   21.1862 C   0  0  0  0  0  0
  -22.1661   -4.2147   21.0979 F   0  0  0  0  0  0
  -21.5629   -3.4540   25.7739 F   0  0  0  0  0  0
  -29.9493  -13.7221   20.3911 N   0  0  0  0  0  0
  -26.2906  -12.9443   20.3290 N   0  0  0  0  0  0
  -25.9343  -11.6566   20.5751 N   0  0  0  0  0  0
  -22.0449  -12.8171   22.0431 N   0  0  0  0  0  0
  -25.4048  -15.1918   20.4200 N   0  0  0  0  0  0
  -31.6696  -15.1451   20.1076 O   0  0  0  0  0  0
  -21.6639   -6.8878   21.4243 O   0  0  0  0  0  0
  -22.3456  -14.5493   20.6727 O   0  0  0  0  0  0
  -24.6485  -31.8393   23.1851 C   0  0  0  0  0  0
  -25.9233  -32.4673   23.8260 C   0  0  1  0  0  0
  -27.2215  -27.0824   20.1614 C   0  0  0  0  0  0
  -25.5958  -33.8482   24.2168 N   0  0  0  0  0  0
  -23.4566  -30.4565   21.5311 C   0  0  2  0  0  0
  -24.9104  -28.8756   20.1110 C   0  0  0  0  0  0
  -22.7599  -29.4520   22.4838 C   0  0  0  0  0  0
  -18.0309  -28.1401   22.8479 C   0  0  0  0  0  0
  -24.1492  -36.7247   23.2642 C   0  0  0  0  0  0
  -26.0168  -30.6932   21.3968 C   0  0  0  0  0  0
  -26.0883  -29.2983   20.7414 C   0  0  0  0  0  0
  -27.2427  -28.4169   20.7542 C   0  0  0  0  0  0
  -26.0233  -26.7865   19.4729 C   0  0  0  0  0  0
  -24.8934  -27.6336   19.4605 C   0  0  0  0  0  0
  -23.6889  -29.7840   20.1520 C   0  0  0  0  0  0
  -25.4126  -36.3020   24.0311 C   0  0  1  0  0  0
  -20.5927  -28.3736   23.1219 C   0  0  2  0  0  0
  -20.6790  -26.9432   22.5402 C   0  0  0  0  0  0
  -19.5762  -26.6383   21.5214 C   0  0  0  0  0  0
  -18.1946  -26.7938   22.1630 C   0  0  0  0  0  0
  -19.1567  -28.8888   23.2840 C   0  0  0  0  0  0
  -18.9482  -30.1481   23.8870 C   0  0  0  0  0  0
  -17.6476  -30.6596   24.0559 C   0  0  0  0  0  0
  -25.9080  -34.9396   23.5052 C   0  0  0  0  0  0
  -16.5368  -29.9088   23.6337 C   0  0  0  0  0  0
  -16.7292  -28.6506   23.0361 C   0  0  0  0  0  0
  -26.4533  -31.6561   25.0726 C   0  0  0  0  0  0
  -25.3700  -31.3770   26.1409 C   0  0  0  0  0  0
  -27.0408  -30.2945   24.6359 C   0  0  0  0  0  0
  -27.6052  -32.4337   25.7518 C   0  0  0  0  0  0
  -27.5574  -37.1781   24.8464 C   0  0  0  0  0  0
  -21.4284  -29.3052   22.3585 N   0  0  0  0  0  0
  -26.4286  -37.3738   23.9406 N   0  0  0  0  0  0
  -24.7271  -31.0190   22.0921 N   0  0  0  0  0  0
  -23.4210  -28.8069   23.3015 O   0  0  0  0  0  0
  -28.2382  -26.0374   20.2083 O   0  0  0  0  0  0
  -26.5674  -34.8899   22.4636 O   0  0  0  0  0  0
  -23.5587  -32.1299   23.7025 O   0  0  0  0  0  0
  -27.6221  -19.3920   21.2126 C   0  0  0  0  0  0
  -30.1194  -18.8563   20.1493 C   0  0  0  0  0  0
  -28.3288  -20.5329   20.7403 C   0  0  0  0  0  0
  -29.3860  -17.6634   20.6240 C   0  0  0  0  0  0
  -29.6095  -20.2634   20.2165 C   0  0  0  0  0  0
  -28.1215  -18.0485   21.1585 C   0  0  0  0  0  0
  -28.4885  -23.3035   20.3837 C   0  0  0  0  0  0
  -27.8758  -24.6098   20.3915 C   0  0  0  0  0  0
  -27.6799  -21.9912   20.7364 C   0  0  0  0  0  0
  -29.9622  -22.8267   20.1531 C   0  0  0  0  0  0
  -29.5900  -16.1152   20.6478 N   0  0  0  0  0  0
  -30.2574  -21.4119   19.7122 O   0  0  0  0  0  0
  -27.3241  -17.0610   21.6320 F   0  0  0  0  0  0
  -31.4824  -12.8215   19.1853 H   0  0  0  0  0  0
  -30.4781  -11.6819   20.0356 H   0  0  0  0  0  0
  -29.8577  -11.7497   17.5978 H   0  0  0  0  0  0
  -29.6042  -13.4743   17.6901 H   0  0  0  0  0  0
  -27.9661  -11.2790   18.9877 H   0  0  0  0  0  0
  -27.3993  -12.4496   17.8247 H   0  0  0  0  0  0
  -27.5915  -14.2528   19.4187 H   0  0  0  0  0  0
  -28.7801  -12.2903   21.4412 H   0  0  0  0  0  0
  -28.3631  -13.9508   21.7786 H   0  0  0  0  0  0
  -25.2769   -9.5679   22.4757 H   0  0  0  0  0  0
  -24.0002   -7.4632   22.7477 H   0  0  0  0  0  0
  -21.0845   -8.8773   19.8948 H   0  0  0  0  0  0
  -22.3711  -10.9664   19.6157 H   0  0  0  0  0  0
  -21.2006   -7.6146   23.9715 H   0  0  0  0  0  0
  -21.1484   -6.0521   25.9078 H   0  0  0  0  0  0
  -22.0596   -2.7607   23.2849 H   0  0  0  0  0  0
  -22.4079  -11.9834   22.4811 H   0  0  0  0  0  0
  -21.1071  -13.1192   22.2655 H   0  0  0  0  0  0
  -24.6454  -15.8375   20.6018 H   0  0  0  0  0  0
  -26.2857  -15.6641   20.2650 H   0  0  0  0  0  0
  -26.7302  -32.5266   23.0987 H   0  0  0  0  0  0
  -25.0067  -33.9590   25.0291 H   0  0  0  0  0  0
  -22.7621  -31.2840   21.3721 H   0  0  0  0  0  0
  -23.3760  -35.9572   23.3290 H   0  0  0  0  0  0
  -24.3572  -36.8895   22.2058 H   0  0  0  0  0  0
  -23.7242  -37.6435   23.6692 H   0  0  0  0  0  0
  -26.1800  -31.4431   20.6214 H   0  0  0  0  0  0
  -26.8835  -30.7462   22.0438 H   0  0  0  0  0  0
  -28.1364  -28.7331   21.2738 H   0  0  0  0  0  0
  -25.9345  -25.8398   18.9592 H   0  0  0  0  0  0
  -23.9998  -27.3075   18.9463 H   0  0  0  0  0  0
  -23.8320  -30.5580   19.3971 H   0  0  0  0  0  0
  -22.8030  -29.2296   19.8376 H   0  0  0  0  0  0
  -25.1314  -36.1844   25.0804 H   0  0  0  0  0  0
  -21.0017  -28.3332   24.1341 H   0  0  0  0  0  0
  -20.5681  -26.2352   23.3629 H   0  0  0  0  0  0
  -21.6655  -26.7428   22.1201 H   0  0  0  0  0  0
  -19.6920  -25.6286   21.1265 H   0  0  0  0  0  0
  -19.6691  -27.3175   20.6728 H   0  0  0  0  0  0
  -17.4209  -26.6675   21.4041 H   0  0  0  0  0  0
  -18.0350  -26.0090   22.9037 H   0  0  0  0  0  0
  -19.7956  -30.7307   24.2229 H   0  0  0  0  0  0
  -17.5027  -31.6273   24.5165 H   0  0  0  0  0  0
  -15.5367  -30.2980   23.7676 H   0  0  0  0  0  0
  -15.8694  -28.0811   22.7096 H   0  0  0  0  0  0
  -24.5883  -30.7114   25.7723 H   0  0  0  0  0  0
  -24.8887  -32.2960   26.4764 H   0  0  0  0  0  0
  -25.7965  -30.8985   27.0233 H   0  0  0  0  0  0
  -26.3043  -29.6656   24.1343 H   0  0  0  0  0  0
  -27.3961  -29.7261   25.4965 H   0  0  0  0  0  0
  -27.8978  -30.4154   23.9731 H   0  0  0  0  0  0
  -27.2636  -33.3659   26.2028 H   0  0  0  0  0  0
  -28.3903  -32.6862   25.0378 H   0  0  0  0  0  0
  -28.0679  -31.8510   26.5493 H   0  0  0  0  0  0
  -28.2582  -38.0086   24.7513 H   0  0  0  0  0  0
  -28.1081  -36.2615   24.6292 H   0  0  0  0  0  0
  -27.2289  -37.1425   25.8866 H   0  0  0  0  0  0
  -20.9506  -29.8761   21.6751 H   0  0  0  0  0  0
  -26.0150  -38.2804   24.1409 H   0  0  0  0  0  0
  -26.6327  -19.5375   21.6206 H   0  0  0  0  0  0
  -31.0909  -18.6989   19.7039 H   0  0  0  0  0  0
  -26.8255  -24.5804   20.6445 H   0  0  0  0  0  0
  -27.2495  -22.1471   21.7260 H   0  0  0  0  0  0
  -26.8294  -21.9545   20.0551 H   0  0  0  0  0  0
  -30.4815  -22.9647   21.1019 H   0  0  0  0  0  0
  -30.4377  -23.5142   19.4536 H   0  0  0  0  0  0
  -28.7169  -15.7038   20.9446 H   0  0  0  0  0  0
  1 25  1  0  0  0
  1 30  2  0  0  0
  1 81  1  0  0  0
  2  3  1  0  0  0
  2 25  1  0  0  0
  2 84  1  0  0  0
  2 85  1  0  0  0
  3  4  1  0  0  0
  3 86  1  0  0  0
  3 87  1  0  0  0
  4  5  1  0  0  0
  4 88  1  0  0  0
  4 89  1  0  0  0
  5  6  1  0  0  0
  5 26  1  0  0  0
  5 90  1  0  0  0
  6 25  1  0  0  0
  6 91  1  0  0  0
  6 92  1  0  0  0
  7  8  2  0  0  0
  7 26  1  0  0  0
  7 29  1  0  0  0
  8  9  1  0  0  0
  8 22  1  0  0  0
  9 10  1  0  0  0
  9 27  2  0  0  0
 10 11  2  0  0  0
 10 15  1  0  0  0
 11 12  1  0  0  0
 11 93  1  0  0  0
 12 13  2  0  0  0
 12 94  1  0  0  0
 13 14  1  0  0  0
 13 31  1  0  0  0
 14 15  2  0  0  0
 14 95  1  0  0  0
 15 96  1  0  0  0
 16 17  2  0  0  0
 16 21  1  0  0  0
 16 31  1  0  0  0
 17 18  1  0  0  0
 17 97  1  0  0  0
 18 19  2  0  0  0
 18 98  1  0  0  0
 19 20  1  0  0  0
 19 24  1  0  0  0
 20 21  2  0  0  0
 20 99  1  0  0  0
 21 23  1  0  0  0
 22 28  1  0  0  0
 22 32  2  0  0  0
 26 27  1  0  0  0
 28100  1  0  0  0
 28101  1  0  0  0
 29102  1  0  0  0
 29103  1  0  0  0
 33 34  1  0  0  0
 33 66  1  0  0  0
 33 70  2  0  0  0
 34 36  1  0  0  0
 34 59  1  0  0  0
 34104  1  0  0  0
 35 44  2  0  0  0
 35 45  1  0  0  0
 35 68  1  0  0  0
 36 56  1  0  0  0
 36105  1  0  0  0
 37 39  1  0  0  0
 37 47  1  0  0  0
 37 66  1  0  0  0
 37106  1  0  0  0
 38 43  2  0  0  0
 38 46  1  0  0  0
 38 47  1  0  0  0
 39 64  1  0  0  0
 39 67  2  0  0  0
 40 52  1  0  0  0
 40 53  2  0  0  0
 40 58  1  0  0  0
 41107  1  0  0  0
 41108  1  0  0  0
 41109  1  0  0  0
 41 48  1  0  0  0
 42 43  1  0  0  0
 42 66  1  0  0  0
 42110  1  0  0  0
 42111  1  0  0  0
 43 44  1  0  0  0
 44112  1  0  0  0
 45 46  2  0  0  0
 45113  1  0  0  0
 46114  1  0  0  0
 47115  1  0  0  0
 47116  1  0  0  0
 48 56  1  0  0  0
 48 65  1  0  0  0
 48117  1  0  0  0
 49 50  1  0  0  0
 49 53  1  0  0  0
 49 64  1  0  0  0
 49118  1  0  0  0
 50 51  1  0  0  0
 50119  1  0  0  0
 50120  1  0  0  0
 51 52  1  0  0  0
 51121  1  0  0  0
 51122  1  0  0  0
 52123  1  0  0  0
 52124  1  0  0  0
 53 54  1  0  0  0
 54 55  2  0  0  0
 54125  1  0  0  0
 55 57  1  0  0  0
 55126  1  0  0  0
 56 69  2  0  0  0
 57 58  2  0  0  0
 57127  1  0  0  0
 58128  1  0  0  0
 59 60  1  0  0  0
 59 61  1  0  0  0
 59 62  1  0  0  0
 60129  1  0  0  0
 60130  1  0  0  0
 60131  1  0  0  0
 61132  1  0  0  0
 61133  1  0  0  0
 61134  1  0  0  0
 62135  1  0  0  0
 62136  1  0  0  0
 62137  1  0  0  0
 63 65  1  0  0  0
 63138  1  0  0  0
 63139  1  0  0  0
 63140  1  0  0  0
 64141  1  0  0  0
 65142  1  0  0  0
 68 78  1  0  0  0
 71 73  2  0  0  0
 71 76  1  0  0  0
 71143  1  0  0  0
 72 74  1  0  0  0
 72 75  2  0  0  0
 72144  1  0  0  0
 73 75  1  0  0  0
 73 79  1  0  0  0
 74 76  2  0  0  0
 74 81  1  0  0  0
 75 82  1  0  0  0
 76 83  1  0  0  0
 77 78  2  0  0  0
 77 79  1  0  0  0
 77 80  1  0  0  0
 78145  1  0  0  0
 79146  1  0  0  0
 79147  1  0  0  0
 80 82  1  0  0  0
 80148  1  0  0  0
 80149  1  0  0  0
 81150  1  0  0  0
M  ISO  4   1 100  68 101  78 101  81 100
M  END
> <chiral flag>
0

> <version>
0

> <s_m_source_file>
/data/baiqing/PycharmProjects/Reinvent-master-3.2/result/LINK_invent/BTK/process_docking_weight1_custom_product_contain_oxygen_bond_distance_aromatic_linkinvent_7_9_3/rearranged_h_0084.sdf

> <i_m_source_file_index>
83

> <r_mmod_Potential_Energy-OPLS-2005>
591.777709960938

> <r_mmod_Stretch_Energy-OPLS-2005>
256.15087890625

> <r_mmod_Bend_Energy-OPLS-2005>
345.209320068359

> <r_mmod_Torsional_Energy-OPLS-2005>
214.029235839844

> <r_mmod_Improper_Torsional_Energy-OPLS-2005>
3.74673867225647

> <r_mmod_Van_der_Waal_Energy-OPLS-2005>
133.027740478516

> <r_mmod_Electrostatic_Energy-OPLS-2005>
-407.182159423828

> <r_mmod_Solvation_Energy-OPLS-2005>
-203.755615234375

> <b_mmod_Minimization_Converged-OPLS-2005>
0

> <r_mmod_RMS_Derivative-OPLS-2005>
0.448804438114166

$$$$
83
                    3D
 Structure written by MMmdl.
150159  0  0  1  0            999 V2000
  -30.5685  -14.7424   20.4852 C   0  0  0  0  0  0
  -30.4511  -12.4558   19.4667 C   0  0  0  0  0  0
  -29.5165  -12.5188   18.2354 C   0  0  0  0  0  0
  -28.0413  -12.3378   18.6472 C   0  0  0  0  0  0
  -27.6514  -13.2208   19.8617 C   0  0  2  0  0  0
  -28.6967  -13.1050   20.9940 C   0  0  0  0  0  0
  -25.2558  -13.8172   20.5689 C   0  0  0  0  0  0
  -24.1828  -13.0436   20.9197 C   0  0  0  0  0  0
  -24.6402  -11.6908   20.8741 C   0  0  0  0  0  0
  -23.9069  -10.4291   21.0407 C   0  0  0  0  0  0
  -24.3619   -9.4205   21.9183 C   0  0  0  0  0  0
  -23.6293   -8.2242   22.0753 C   0  0  0  0  0  0
  -22.4275   -8.0281   21.3544 C   0  0  0  0  0  0
  -21.9911   -9.0256   20.4648 C   0  0  0  0  0  0
  -22.7240  -10.2135   20.3057 C   0  0  0  0  0  0
  -21.6852   -6.0735   22.5279 C   0  0  0  0  0  0
  -21.4013   -6.5638   23.8212 C   0  0  0  0  0  0
  -21.3661   -5.6792   24.9175 C   0  0  0  0  0  0
  -21.6044   -4.3055   24.7226 C   0  0  0  0  0  0
  -21.8820   -3.8146   23.4348 C   0  0  0  0  0  0
  -21.9194   -4.6962   22.3403 C   0  0  0  0  0  0
  -22.7850  -13.5228   21.1859 C   0  0  0  0  0  0
  -22.1662   -4.2147   21.0981 F   0  0  0  0  0  0
  -21.5631   -3.4540   25.7739 F   0  0  0  0  0  0
  -30.0024  -13.4862   20.4306 N   0  0  0  0  0  0
  -26.2984  -12.9356   20.3312 N   0  0  0  0  0  0
  -25.9332  -11.6510   20.5754 N   0  0  0  0  0  0
  -22.0494  -12.8220   22.0416 N   0  0  0  0  0  0
  -25.4273  -15.1895   20.4100 N   0  0  0  0  0  0
  -31.7262  -14.9243   20.0934 O   0  0  0  0  0  0
  -21.6641   -6.8877   21.4240 O   0  0  0  0  0  0
  -22.3535  -14.5535   20.6705 O   0  0  0  0  0  0
  -24.6313  -31.8551   23.1983 C   0  0  0  0  0  0
  -25.9135  -32.4756   23.8333 C   0  0  1  0  0  0
  -27.2249  -27.2672   20.1291 C   0  0  0  0  0  0
  -25.5927  -33.8559   24.2254 N   0  0  0  0  0  0
  -23.4298  -30.4767   21.5413 C   0  0  2  0  0  0
  -24.8811  -28.9258   20.1087 C   0  0  0  0  0  0
  -22.7509  -29.4597   22.4906 C   0  0  0  0  0  0
  -18.0294  -28.1384   22.8486 C   0  0  0  0  0  0
  -24.1490  -36.7287   23.2640 C   0  0  0  0  0  0
  -25.9760  -30.7685   21.3802 C   0  0  0  0  0  0
  -26.0525  -29.3914   20.7220 C   0  0  0  0  0  0
  -27.2300  -28.5734   20.7249 C   0  0  0  0  0  0
  -26.0355  -26.8731   19.4795 C   0  0  0  0  0  0
  -24.8770  -27.6736   19.4759 C   0  0  0  0  0  0
  -23.6498  -29.8106   20.1575 C   0  0  0  0  0  0
  -25.4117  -36.3072   24.0325 C   0  0  1  0  0  0
  -20.5900  -28.3699   23.1264 C   0  0  2  0  0  0
  -20.6780  -26.9416   22.5406 C   0  0  0  0  0  0
  -19.5754  -26.6381   21.5212 C   0  0  0  0  0  0
  -18.1937  -26.7924   22.1630 C   0  0  0  0  0  0
  -19.1549  -28.8859   23.2870 C   0  0  0  0  0  0
  -18.9469  -30.1459   23.8888 C   0  0  0  0  0  0
  -17.6468  -30.6587   24.0562 C   0  0  0  0  0  0
  -25.9054  -34.9442   23.5094 C   0  0  0  0  0  0
  -16.5359  -29.9084   23.6331 C   0  0  0  0  0  0
  -16.7280  -28.6501   23.0354 C   0  0  0  0  0  0
  -26.4500  -31.6581   25.0723 C   0  0  0  0  0  0
  -25.3721  -31.3739   26.1442 C   0  0  0  0  0  0
  -27.0350  -30.2994   24.6218 C   0  0  0  0  0  0
  -27.6046  -32.4328   25.7500 C   0  0  0  0  0  0
  -27.5578  -37.1801   24.8467 C   0  0  0  0  0  0
  -21.4214  -29.3046   22.3651 N   0  0  0  0  0  0
  -26.4293  -37.3769   23.9405 N   0  0  0  0  0  0
  -24.6978  -31.0511   22.0963 N   0  0  0  0  0  0
  -23.4203  -28.8138   23.3011 O   0  0  0  0  0  0
  -28.2747  -26.3196   20.1796 O   0  0  0  0  0  0
  -26.5633  -34.8915   22.4667 O   0  0  0  0  0  0
  -23.5460  -32.1373   23.7272 O   0  0  0  0  0  0
  -28.4029  -19.3345   21.3720 C   0  0  0  0  0  0
  -30.2787  -19.5677   19.9757 C   0  0  0  0  0  0
  -28.6085  -17.9214   21.4327 C   0  0  0  0  0  0
  -30.5100  -18.1383   20.0304 C   0  0  0  0  0  0
  -29.2087  -20.2590   20.6419 C   0  0  0  0  0  0
  -29.6683  -17.2520   20.7675 C   0  0  0  0  0  0
  -28.4293  -23.7432   20.6065 C   0  0  0  0  0  0
  -27.9214  -22.5499   21.2755 C   0  0  0  0  0  0
  -27.9438  -25.0462   20.7318 C   0  0  0  0  0  0
  -29.4924  -22.8480   19.8987 C   0  0  0  0  0  0
  -28.8783  -21.7167   20.6595 N   0  0  0  0  0  0
  -29.7251  -15.7689   20.8757 N   0  0  0  0  0  0
  -27.0000  -22.4088   22.0534 O   0  0  0  0  0  0
  -31.4873  -12.6094   19.1601 H   0  0  0  0  0  0
  -30.4196  -11.4667   19.9265 H   0  0  0  0  0  0
  -29.7978  -11.7551   17.5089 H   0  0  0  0  0  0
  -29.6389  -13.4788   17.7316 H   0  0  0  0  0  0
  -27.8959  -11.2860   18.8961 H   0  0  0  0  0  0
  -27.3834  -12.5432   17.8020 H   0  0  0  0  0  0
  -27.6590  -14.2507   19.5044 H   0  0  0  0  0  0
  -28.7336  -12.0849   21.3792 H   0  0  0  0  0  0
  -28.4235  -13.7320   21.8440 H   0  0  0  0  0  0
  -25.2765   -9.5679   22.4756 H   0  0  0  0  0  0
  -24.0002   -7.4632   22.7472 H   0  0  0  0  0  0
  -21.0841   -8.8775   19.8954 H   0  0  0  0  0  0
  -22.3699  -10.9675   19.6168 H   0  0  0  0  0  0
  -21.2003   -7.6146   23.9714 H   0  0  0  0  0  0
  -21.1482   -6.0523   25.9077 H   0  0  0  0  0  0
  -22.0598   -2.7608   23.2849 H   0  0  0  0  0  0
  -22.4112  -11.9883   22.4805 H   0  0  0  0  0  0
  -21.1112  -13.1244   22.2625 H   0  0  0  0  0  0
  -24.6575  -15.8417   20.5130 H   0  0  0  0  0  0
  -26.2695  -15.6261   20.0572 H   0  0  0  0  0  0
  -26.7203  -32.5413   23.1078 H   0  0  0  0  0  0
  -25.0056  -33.9694   25.0388 H   0  0  0  0  0  0
  -22.7267  -31.2991   21.3942 H   0  0  0  0  0  0
  -23.3748  -35.9624   23.3310 H   0  0  0  0  0  0
  -24.3576  -36.8903   22.2053 H   0  0  0  0  0  0
  -23.7250  -37.6493   23.6660 H   0  0  0  0  0  0
  -26.1151  -31.5291   20.6108 H   0  0  0  0  0  0
  -26.8527  -30.8178   22.0143 H   0  0  0  0  0  0
  -28.1239  -28.9182   21.2254 H   0  0  0  0  0  0
  -25.9908  -25.9067   18.9974 H   0  0  0  0  0  0
  -23.9817  -27.3114   18.9890 H   0  0  0  0  0  0
  -23.7723  -30.5871   19.4016 H   0  0  0  0  0  0
  -22.7691  -29.2423   19.8529 H   0  0  0  0  0  0
  -25.1300  -36.1921   25.0818 H   0  0  0  0  0  0
  -20.9994  -28.3279   24.1384 H   0  0  0  0  0  0
  -20.5679  -26.2312   23.3613 H   0  0  0  0  0  0
  -21.6647  -26.7435   22.1201 H   0  0  0  0  0  0
  -19.6917  -25.6289   21.1246 H   0  0  0  0  0  0
  -19.6687  -27.3188   20.6739 H   0  0  0  0  0  0
  -17.4203  -26.6666   21.4037 H   0  0  0  0  0  0
  -18.0347  -26.0068   22.9029 H   0  0  0  0  0  0
  -19.7945  -30.7279   24.2251 H   0  0  0  0  0  0
  -17.5022  -31.6265   24.5167 H   0  0  0  0  0  0
  -15.5359  -30.2985   23.7655 H   0  0  0  0  0  0
  -15.8682  -28.0815   22.7074 H   0  0  0  0  0  0
  -24.5878  -30.7113   25.7763 H   0  0  0  0  0  0
  -24.8937  -32.2916   26.4871 H   0  0  0  0  0  0
  -25.8026  -30.8900   27.0217 H   0  0  0  0  0  0
  -26.2939  -29.6739   24.1226 H   0  0  0  0  0  0
  -27.4008  -29.7259   25.4745 H   0  0  0  0  0  0
  -27.8828  -30.4263   23.9482 H   0  0  0  0  0  0
  -27.2638  -33.3623   26.2072 H   0  0  0  0  0  0
  -28.3859  -32.6897   25.0335 H   0  0  0  0  0  0
  -28.0713  -31.8462   26.5425 H   0  0  0  0  0  0
  -28.2602  -38.0091   24.7498 H   0  0  0  0  0  0
  -28.1067  -36.2621   24.6314 H   0  0  0  0  0  0
  -27.2292  -37.1474   25.8869 H   0  0  0  0  0  0
  -20.9401  -29.8772   21.6857 H   0  0  0  0  0  0
  -26.0174  -38.2846   24.1392 H   0  0  0  0  0  0
  -27.5585  -19.7204   21.9252 H   0  0  0  0  0  0
  -30.9661  -20.1570   19.3856 H   0  0  0  0  0  0
  -27.9079  -17.3412   22.0169 H   0  0  0  0  0  0
  -31.3442  -17.7292   19.4781 H   0  0  0  0  0  0
  -27.1101  -25.1709   21.4114 H   0  0  0  0  0  0
  -30.5386  -22.9973   20.1702 H   0  0  0  0  0  0
  -29.3951  -22.7088   18.8208 H   0  0  0  0  0  0
  -28.8810  -15.3792   21.2665 H   0  0  0  0  0  0
  1 25  1  0  0  0
  1 30  2  0  0  0
  1 82  1  0  0  0
  2  3  1  0  0  0
  2 25  1  0  0  0
  2 84  1  0  0  0
  2 85  1  0  0  0
  3  4  1  0  0  0
  3 86  1  0  0  0
  3 87  1  0  0  0
  4  5  1  0  0  0
  4 88  1  0  0  0
  4 89  1  0  0  0
  5  6  1  0  0  0
  5 26  1  0  0  0
  5 90  1  0  0  0
  6 25  1  0  0  0
  6 91  1  0  0  0
  6 92  1  0  0  0
  7  8  2  0  0  0
  7 26  1  0  0  0
  7 29  1  0  0  0
  8  9  1  0  0  0
  8 22  1  0  0  0
  9 10  1  0  0  0
  9 27  2  0  0  0
 10 11  2  0  0  0
 10 15  1  0  0  0
 11 12  1  0  0  0
 11 93  1  0  0  0
 12 13  2  0  0  0
 12 94  1  0  0  0
 13 14  1  0  0  0
 13 31  1  0  0  0
 14 15  2  0  0  0
 14 95  1  0  0  0
 15 96  1  0  0  0
 16 17  2  0  0  0
 16 21  1  0  0  0
 16 31  1  0  0  0
 17 18  1  0  0  0
 17 97  1  0  0  0
 18 19  2  0  0  0
 18 98  1  0  0  0
 19 20  1  0  0  0
 19 24  1  0  0  0
 20 21  2  0  0  0
 20 99  1  0  0  0
 21 23  1  0  0  0
 22 28  1  0  0  0
 22 32  2  0  0  0
 26 27  1  0  0  0
 28100  1  0  0  0
 28101  1  0  0  0
 29102  1  0  0  0
 29103  1  0  0  0
 33 34  1  0  0  0
 33 66  1  0  0  0
 33 70  2  0  0  0
 34 36  1  0  0  0
 34 59  1  0  0  0
 34104  1  0  0  0
 35 44  2  0  0  0
 35 45  1  0  0  0
 35 68  1  0  0  0
 36 56  1  0  0  0
 36105  1  0  0  0
 37 39  1  0  0  0
 37 47  1  0  0  0
 37 66  1  0  0  0
 37106  1  0  0  0
 38 43  2  0  0  0
 38 46  1  0  0  0
 38 47  1  0  0  0
 39 64  1  0  0  0
 39 67  2  0  0  0
 40 52  1  0  0  0
 40 53  2  0  0  0
 40 58  1  0  0  0
 41107  1  0  0  0
 41108  1  0  0  0
 41109  1  0  0  0
 41 48  1  0  0  0
 42 43  1  0  0  0
 42 66  1  0  0  0
 42110  1  0  0  0
 42111  1  0  0  0
 43 44  1  0  0  0
 44112  1  0  0  0
 45 46  2  0  0  0
 45113  1  0  0  0
 46114  1  0  0  0
 47115  1  0  0  0
 47116  1  0  0  0
 48 56  1  0  0  0
 48 65  1  0  0  0
 48117  1  0  0  0
 49 50  1  0  0  0
 49 53  1  0  0  0
 49 64  1  0  0  0
 49118  1  0  0  0
 50 51  1  0  0  0
 50119  1  0  0  0
 50120  1  0  0  0
 51 52  1  0  0  0
 51121  1  0  0  0
 51122  1  0  0  0
 52123  1  0  0  0
 52124  1  0  0  0
 53 54  1  0  0  0
 54 55  2  0  0  0
 54125  1  0  0  0
 55 57  1  0  0  0
 55126  1  0  0  0
 56 69  2  0  0  0
 57 58  2  0  0  0
 57127  1  0  0  0
 58128  1  0  0  0
 59 60  1  0  0  0
 59 61  1  0  0  0
 59 62  1  0  0  0
 60129  1  0  0  0
 60130  1  0  0  0
 60131  1  0  0  0
 61132  1  0  0  0
 61133  1  0  0  0
 61134  1  0  0  0
 62135  1  0  0  0
 62136  1  0  0  0
 62137  1  0  0  0
 63 65  1  0  0  0
 63138  1  0  0  0
 63139  1  0  0  0
 63140  1  0  0  0
 64141  1  0  0  0
 65142  1  0  0  0
 68 79  1  0  0  0
 71 73  2  0  0  0
 71 75  1  0  0  0
 71143  1  0  0  0
 72 74  1  0  0  0
 72 75  2  0  0  0
 72144  1  0  0  0
 73 76  1  0  0  0
 73145  1  0  0  0
 74 76  2  0  0  0
 74146  1  0  0  0
 75 81  1  0  0  0
 76 82  1  0  0  0
 77 78  1  0  0  0
 77 79  2  0  0  0
 77 80  1  0  0  0
 78 81  1  0  0  0
 78 83  2  0  0  0
 79147  1  0  0  0
 80 81  1  0  0  0
 80148  1  0  0  0
 80149  1  0  0  0
 82150  1  0  0  0
M  ISO  4   1 100  68 101  79 101  82 100
M  END
> <chiral flag>
0

> <version>
0

> <s_m_source_file>
/data/baiqing/PycharmProjects/Reinvent-master-3.2/result/LINK_invent/BTK/process_docking_weight1_custom_product_contain_oxygen_bond_distance_aromatic_linkinvent_7_9_3/rearranged_h_0084.sdf

> <i_m_source_file_index>
84

> <r_mmod_Potential_Energy-OPLS-2005>
216.110015869141

> <r_mmod_Stretch_Energy-OPLS-2005>
106.537666320801

> <r_mmod_Bend_Energy-OPLS-2005>
270.702850341797

> <r_mmod_Torsional_Energy-OPLS-2005>
219.89909362793

> <r_mmod_Improper_Torsional_Energy-OPLS-2005>
3.45828318595886

> <r_mmod_Van_der_Waal_Energy-OPLS-2005>
134.482055664062

> <r_mmod_Electrostatic_Energy-OPLS-2005>
-389.401977539062

> <r_mmod_Solvation_Energy-OPLS-2005>
-217.736526489258

> <b_mmod_Minimization_Converged-OPLS-2005>
0

> <r_mmod_RMS_Derivative-OPLS-2005>
0.385791778564453

$$$$
84
                    3D
 Structure written by MMmdl.
147155  0  0  1  0            999 V2000
  -30.5851  -14.7164   20.4633 C   0  0  0  0  0  0
  -30.4460  -12.4361   19.4556 C   0  0  0  0  0  0
  -29.5094  -12.5078   18.2273 C   0  0  0  0  0  0
  -28.0334  -12.3381   18.6440 C   0  0  0  0  0  0
  -27.6484  -13.2220   19.8599 C   0  0  2  0  0  0
  -28.6979  -13.1067   20.9880 C   0  0  0  0  0  0
  -25.2531  -13.8179   20.5727 C   0  0  0  0  0  0
  -24.1800  -13.0420   20.9170 C   0  0  0  0  0  0
  -24.6397  -11.6903   20.8725 C   0  0  0  0  0  0
  -23.9076  -10.4285   21.0397 C   0  0  0  0  0  0
  -24.3631   -9.4206   21.9178 C   0  0  0  0  0  0
  -23.6304   -8.2240   22.0749 C   0  0  0  0  0  0
  -22.4282   -8.0287   21.3543 C   0  0  0  0  0  0
  -21.9917   -9.0257   20.4639 C   0  0  0  0  0  0
  -22.7247  -10.2132   20.3047 C   0  0  0  0  0  0
  -21.6844   -6.0750   22.5285 C   0  0  0  0  0  0
  -21.4013   -6.5654   23.8223 C   0  0  0  0  0  0
  -21.3655   -5.6802   24.9180 C   0  0  0  0  0  0
  -21.6040   -4.3065   24.7224 C   0  0  0  0  0  0
  -21.8819   -3.8159   23.4348 C   0  0  0  0  0  0
  -21.9194   -4.6979   22.3405 C   0  0  0  0  0  0
  -22.7827  -13.5207   21.1850 C   0  0  0  0  0  0
  -22.1663   -4.2168   21.0982 F   0  0  0  0  0  0
  -21.5618   -3.4547   25.7737 F   0  0  0  0  0  0
  -30.0032  -13.4710   20.4135 N   0  0  0  0  0  0
  -26.2970  -12.9378   20.3334 N   0  0  0  0  0  0
  -25.9331  -11.6522   20.5767 N   0  0  0  0  0  0
  -22.0490  -12.8184   22.0418 N   0  0  0  0  0  0
  -25.4158  -15.1920   20.4287 N   0  0  0  0  0  0
  -31.7633  -14.8762   20.1293 O   0  0  0  0  0  0
  -21.6639   -6.8890   21.4249 O   0  0  0  0  0  0
  -22.3498  -14.5514   20.6713 O   0  0  0  0  0  0
  -24.6270  -31.8577   23.1993 C   0  0  0  0  0  0
  -25.9104  -32.4773   23.8330 C   0  0  1  0  0  0
  -27.2210  -27.2848   20.1255 C   0  0  0  0  0  0
  -25.5904  -33.8576   24.2251 N   0  0  0  0  0  0
  -23.4237  -30.4789   21.5437 C   0  0  2  0  0  0
  -24.8732  -28.9286   20.1117 C   0  0  0  0  0  0
  -22.7474  -29.4612   22.4937 C   0  0  0  0  0  0
  -18.0281  -28.1382   22.8493 C   0  0  0  0  0  0
  -24.1495  -36.7297   23.2641 C   0  0  0  0  0  0
  -25.9679  -30.7754   21.3789 C   0  0  0  0  0  0
  -26.0436  -29.3990   20.7228 C   0  0  0  0  0  0
  -27.2226  -28.5875   20.7231 C   0  0  0  0  0  0
  -26.0324  -26.8797   19.4820 C   0  0  0  0  0  0
  -24.8707  -27.6753   19.4812 C   0  0  0  0  0  0
  -23.6412  -29.8107   20.1604 C   0  0  0  0  0  0
  -25.4125  -36.3085   24.0320 C   0  0  1  0  0  0
  -20.5886  -28.3694   23.1287 C   0  0  2  0  0  0
  -20.6787  -26.9423   22.5406 C   0  0  0  0  0  0
  -19.5753  -26.6388   21.5222 C   0  0  0  0  0  0
  -18.1935  -26.7915   22.1647 C   0  0  0  0  0  0
  -19.1535  -28.8853   23.2880 C   0  0  0  0  0  0
  -18.9461  -30.1455   23.8897 C   0  0  0  0  0  0
  -17.6466  -30.6595   24.0561 C   0  0  0  0  0  0
  -25.9059  -34.9452   23.5095 C   0  0  0  0  0  0
  -16.5355  -29.9094   23.6336 C   0  0  0  0  0  0
  -16.7268  -28.6506   23.0361 C   0  0  0  0  0  0
  -26.4476  -31.6591   25.0711 C   0  0  0  0  0  0
  -25.3703  -31.3745   26.1433 C   0  0  0  0  0  0
  -27.0314  -30.3010   24.6174 C   0  0  0  0  0  0
  -27.6024  -32.4329   25.7486 C   0  0  0  0  0  0
  -27.5574  -37.1809   24.8465 C   0  0  0  0  0  0
  -21.4185  -29.3041   22.3672 N   0  0  0  0  0  0
  -26.4299  -37.3779   23.9390 N   0  0  0  0  0  0
  -24.6918  -31.0549   22.0971 N   0  0  0  0  0  0
  -23.4179  -28.8156   23.3035 O   0  0  0  0  0  0
  -28.2983  -26.3752   20.1498 O   0  0  0  0  0  0
  -26.5648  -34.8916   22.4673 O   0  0  0  0  0  0
  -23.5424  -32.1394   23.7297 O   0  0  0  0  0  0
  -28.5350  -23.8190   20.2791 C   0  0  0  0  0  0
  -30.8510  -19.4859   20.3801 C   0  0  0  0  0  0
  -30.9294  -18.0504   20.3934 C   0  0  0  0  0  0
  -28.4807  -19.3915   20.7022 C   0  0  0  0  0  0
  -29.6309  -20.2123   20.5527 C   0  0  0  0  0  0
  -29.7779  -17.2391   20.5897 C   0  0  0  0  0  0
  -28.5558  -17.9610   20.7193 C   0  0  0  0  0  0
  -28.0276  -25.0386   20.5581 C   0  0  0  0  0  0
  -29.6140  -21.7600   20.7478 C   0  0  0  0  0  0
  -28.6955  -22.5993   20.0582 N   0  0  0  0  0  0
  -29.7248  -15.7656   20.7077 N   0  0  0  0  0  0
  -30.4837  -22.2017   21.5028 O   0  0  0  0  0  0
  -27.4141  -17.2527   20.8899 F   0  0  0  0  0  0
  -31.4828  -12.5813   19.1458 H   0  0  0  0  0  0
  -30.4054  -11.4481   19.9166 H   0  0  0  0  0  0
  -29.7810  -11.7395   17.5014 H   0  0  0  0  0  0
  -29.6388  -13.4658   17.7196 H   0  0  0  0  0  0
  -27.8779  -11.2871   18.8905 H   0  0  0  0  0  0
  -27.3764  -12.5526   17.8009 H   0  0  0  0  0  0
  -27.6514  -14.2514   19.5006 H   0  0  0  0  0  0
  -28.7282  -12.0905   21.3835 H   0  0  0  0  0  0
  -28.4375  -13.7484   21.8314 H   0  0  0  0  0  0
  -25.2780   -9.5690   22.4748 H   0  0  0  0  0  0
  -24.0022   -7.4629   22.7463 H   0  0  0  0  0  0
  -21.0850   -8.8770   19.8947 H   0  0  0  0  0  0
  -22.3700  -10.9670   19.6157 H   0  0  0  0  0  0
  -21.2006   -7.6163   23.9731 H   0  0  0  0  0  0
  -21.1469   -6.0530   25.9082 H   0  0  0  0  0  0
  -22.0600   -2.7624   23.2842 H   0  0  0  0  0  0
  -22.4142  -11.9860   22.4797 H   0  0  0  0  0  0
  -21.1106  -13.1182   22.2634 H   0  0  0  0  0  0
  -24.6517  -15.8353   20.6002 H   0  0  0  0  0  0
  -26.2917  -15.6739   20.2612 H   0  0  0  0  0  0
  -26.7163  -32.5436   23.1065 H   0  0  0  0  0  0
  -24.9978  -33.9715   25.0342 H   0  0  0  0  0  0
  -22.7191  -31.3009   21.3978 H   0  0  0  0  0  0
  -23.3749  -35.9641   23.3328 H   0  0  0  0  0  0
  -24.3575  -36.8893   22.2050 H   0  0  0  0  0  0
  -23.7257  -37.6508   23.6651 H   0  0  0  0  0  0
  -26.1040  -31.5371   20.6101 H   0  0  0  0  0  0
  -26.8459  -30.8250   22.0106 H   0  0  0  0  0  0
  -28.1186  -28.9387   21.2147 H   0  0  0  0  0  0
  -25.9908  -25.9160   18.9939 H   0  0  0  0  0  0
  -23.9755  -27.3107   18.9957 H   0  0  0  0  0  0
  -23.7594  -30.5848   19.4014 H   0  0  0  0  0  0
  -22.7609  -29.2384   19.8616 H   0  0  0  0  0  0
  -25.1318  -36.1940   25.0817 H   0  0  0  0  0  0
  -20.9969  -28.3266   24.1414 H   0  0  0  0  0  0
  -20.5722  -26.2299   23.3599 H   0  0  0  0  0  0
  -21.6650  -26.7480   22.1176 H   0  0  0  0  0  0
  -19.6924  -25.6299   21.1249 H   0  0  0  0  0  0
  -19.6675  -27.3207   20.6757 H   0  0  0  0  0  0
  -17.4194  -26.6626   21.4066 H   0  0  0  0  0  0
  -18.0368  -26.0070   22.9062 H   0  0  0  0  0  0
  -19.7938  -30.7261   24.2272 H   0  0  0  0  0  0
  -17.5030  -31.6279   24.5149 H   0  0  0  0  0  0
  -15.5356  -30.3004   23.7661 H   0  0  0  0  0  0
  -15.8659  -28.0826   22.7096 H   0  0  0  0  0  0
  -24.5739  -30.7294   25.7706 H   0  0  0  0  0  0
  -24.9082  -32.2949   26.5017 H   0  0  0  0  0  0
  -25.7982  -30.8709   27.0109 H   0  0  0  0  0  0
  -26.2895  -29.6769   24.1176 H   0  0  0  0  0  0
  -27.3984  -29.7254   25.4680 H   0  0  0  0  0  0
  -27.8780  -30.4295   23.9423 H   0  0  0  0  0  0
  -27.2608  -33.3594   26.2113 H   0  0  0  0  0  0
  -28.3806  -32.6950   25.0308 H   0  0  0  0  0  0
  -28.0723  -31.8429   26.5361 H   0  0  0  0  0  0
  -28.2610  -38.0091   24.7500 H   0  0  0  0  0  0
  -28.1051  -36.2615   24.6328 H   0  0  0  0  0  0
  -27.2272  -37.1503   25.8864 H   0  0  0  0  0  0
  -20.9372  -29.8749   21.6863 H   0  0  0  0  0  0
  -26.0180  -38.2856   24.1379 H   0  0  0  0  0  0
  -31.7728  -20.0420   20.2784 H   0  0  0  0  0  0
  -31.8976  -17.5824   20.2827 H   0  0  0  0  0  0
  -27.5182  -19.8594   20.8510 H   0  0  0  0  0  0
  -27.2067  -25.0697   21.2622 H   0  0  0  0  0  0
  -28.7989  -15.4388   20.9390 H   0  0  0  0  0  0
  1 25  1  0  0  0
  1 30  2  0  0  0
  1 81  1  0  0  0
  2  3  1  0  0  0
  2 25  1  0  0  0
  2 84  1  0  0  0
  2 85  1  0  0  0
  3  4  1  0  0  0
  3 86  1  0  0  0
  3 87  1  0  0  0
  4  5  1  0  0  0
  4 88  1  0  0  0
  4 89  1  0  0  0
  5  6  1  0  0  0
  5 26  1  0  0  0
  5 90  1  0  0  0
  6 25  1  0  0  0
  6 91  1  0  0  0
  6 92  1  0  0  0
  7  8  2  0  0  0
  7 26  1  0  0  0
  7 29  1  0  0  0
  8  9  1  0  0  0
  8 22  1  0  0  0
  9 10  1  0  0  0
  9 27  2  0  0  0
 10 11  2  0  0  0
 10 15  1  0  0  0
 11 12  1  0  0  0
 11 93  1  0  0  0
 12 13  2  0  0  0
 12 94  1  0  0  0
 13 14  1  0  0  0
 13 31  1  0  0  0
 14 15  2  0  0  0
 14 95  1  0  0  0
 15 96  1  0  0  0
 16 17  2  0  0  0
 16 21  1  0  0  0
 16 31  1  0  0  0
 17 18  1  0  0  0
 17 97  1  0  0  0
 18 19  2  0  0  0
 18 98  1  0  0  0
 19 20  1  0  0  0
 19 24  1  0  0  0
 20 21  2  0  0  0
 20 99  1  0  0  0
 21 23  1  0  0  0
 22 28  1  0  0  0
 22 32  2  0  0  0
 26 27  1  0  0  0
 28100  1  0  0  0
 28101  1  0  0  0
 29102  1  0  0  0
 29103  1  0  0  0
 33 34  1  0  0  0
 33 66  1  0  0  0
 33 70  2  0  0  0
 34 36  1  0  0  0
 34 59  1  0  0  0
 34104  1  0  0  0
 35 44  2  0  0  0
 35 45  1  0  0  0
 35 68  1  0  0  0
 36 56  1  0  0  0
 36105  1  0  0  0
 37 39  1  0  0  0
 37 47  1  0  0  0
 37 66  1  0  0  0
 37106  1  0  0  0
 38 43  2  0  0  0
 38 46  1  0  0  0
 38 47  1  0  0  0
 39 64  1  0  0  0
 39 67  2  0  0  0
 40 52  1  0  0  0
 40 53  2  0  0  0
 40 58  1  0  0  0
 41107  1  0  0  0
 41108  1  0  0  0
 41109  1  0  0  0
 41 48  1  0  0  0
 42 43  1  0  0  0
 42 66  1  0  0  0
 42110  1  0  0  0
 42111  1  0  0  0
 43 44  1  0  0  0
 44112  1  0  0  0
 45 46  2  0  0  0
 45113  1  0  0  0
 46114  1  0  0  0
 47115  1  0  0  0
 47116  1  0  0  0
 48 56  1  0  0  0
 48 65  1  0  0  0
 48117  1  0  0  0
 49 50  1  0  0  0
 49 53  1  0  0  0
 49 64  1  0  0  0
 49118  1  0  0  0
 50 51  1  0  0  0
 50119  1  0  0  0
 50120  1  0  0  0
 51 52  1  0  0  0
 51121  1  0  0  0
 51122  1  0  0  0
 52123  1  0  0  0
 52124  1  0  0  0
 53 54  1  0  0  0
 54 55  2  0  0  0
 54125  1  0  0  0
 55 57  1  0  0  0
 55126  1  0  0  0
 56 69  2  0  0  0
 57 58  2  0  0  0
 57127  1  0  0  0
 58128  1  0  0  0
 59 60  1  0  0  0
 59 61  1  0  0  0
 59 62  1  0  0  0
 60129  1  0  0  0
 60130  1  0  0  0
 60131  1  0  0  0
 61132  1  0  0  0
 61133  1  0  0  0
 61134  1  0  0  0
 62135  1  0  0  0
 62136  1  0  0  0
 62137  1  0  0  0
 63 65  1  0  0  0
 63138  1  0  0  0
 63139  1  0  0  0
 63140  1  0  0  0
 64141  1  0  0  0
 65142  1  0  0  0
 68 78  1  0  0  0
 71 78  2  0  0  0
 71 80  2  0  0  0
 72 73  2  0  0  0
 72 75  1  0  0  0
 72143  1  0  0  0
 73 76  1  0  0  0
 73144  1  0  0  0
 74 75  2  0  0  0
 74 77  1  0  0  0
 74145  1  0  0  0
 75 79  1  0  0  0
 76 77  2  0  0  0
 76 81  1  0  0  0
 77 83  1  0  0  0
 78146  1  0  0  0
 79 80  1  0  0  0
 79 82  2  0  0  0
 81147  1  0  0  0
M  ISO  4   1 100  68 101  78 101  81 100
M  END
> <chiral flag>
0

> <version>
0

> <s_m_source_file>
/data/baiqing/PycharmProjects/Reinvent-master-3.2/result/LINK_invent/BTK/process_docking_weight1_custom_product_contain_oxygen_bond_distance_aromatic_linkinvent_7_9_3/rearranged_h_0084.sdf

> <i_m_source_file_index>
85

> <r_mmod_Potential_Energy-OPLS-2005>
27.2748832702637

> <r_mmod_Stretch_Energy-OPLS-2005>
91.4946975708008

> <r_mmod_Bend_Energy-OPLS-2005>
155.52815246582

> <r_mmod_Torsional_Energy-OPLS-2005>
175.812789916992

> <r_mmod_Improper_Torsional_Energy-OPLS-2005>
5.5267162322998

> <r_mmod_Van_der_Waal_Energy-OPLS-2005>
142.131851196289

> <r_mmod_Electrostatic_Energy-OPLS-2005>
-427.94677734375

> <r_mmod_Solvation_Energy-OPLS-2005>
-189.689865112305

> <b_mmod_Minimization_Converged-OPLS-2005>
0

> <r_mmod_RMS_Derivative-OPLS-2005>
1.46427750587463

$$$$
85
                    3D
 Structure written by MMmdl.
158166  0  0  1  0            999 V2000
  -30.6981  -14.4523   20.5976 C   0  0  0  0  0  0
  -30.4327  -12.3012   19.4131 C   0  0  0  0  0  0
  -29.4989  -12.5125   18.2022 C   0  0  0  0  0  0
  -28.0183  -12.3716   18.6112 C   0  0  0  0  0  0
  -27.6663  -13.2009   19.8755 C   0  0  2  0  0  0
  -28.7059  -12.9521   20.9928 C   0  0  0  0  0  0
  -25.2588  -13.8129   20.5628 C   0  0  0  0  0  0
  -24.1846  -13.0415   20.9177 C   0  0  0  0  0  0
  -24.6405  -11.6892   20.8727 C   0  0  0  0  0  0
  -23.9056  -10.4286   21.0405 C   0  0  0  0  0  0
  -24.3616   -9.4204   21.9181 C   0  0  0  0  0  0
  -23.6293   -8.2236   22.0750 C   0  0  0  0  0  0
  -22.4270   -8.0279   21.3544 C   0  0  0  0  0  0
  -21.9903   -9.0247   20.4640 C   0  0  0  0  0  0
  -22.7225  -10.2131   20.3054 C   0  0  0  0  0  0
  -21.6853   -6.0738   22.5285 C   0  0  0  0  0  0
  -21.4004   -6.5638   23.8219 C   0  0  0  0  0  0
  -21.3659   -5.6791   24.9179 C   0  0  0  0  0  0
  -21.6044   -4.3053   24.7228 C   0  0  0  0  0  0
  -21.8820   -3.8143   23.4352 C   0  0  0  0  0  0
  -21.9189   -4.6963   22.3407 C   0  0  0  0  0  0
  -22.7876  -13.5232   21.1845 C   0  0  0  0  0  0
  -22.1660   -4.2159   21.0983 F   0  0  0  0  0  0
  -21.5634   -3.4533   25.7739 F   0  0  0  0  0  0
  -30.0464  -13.2654   20.4558 N   0  0  0  0  0  0
  -26.3042  -12.9306   20.3333 N   0  0  0  0  0  0
  -25.9329  -11.6474   20.5748 N   0  0  0  0  0  0
  -22.0498  -12.8233   22.0412 N   0  0  0  0  0  0
  -25.4226  -15.1831   20.3940 N   0  0  0  0  0  0
  -31.8025  -14.6814   20.0924 O   0  0  0  0  0  0
  -21.6623   -6.8881   21.4249 O   0  0  0  0  0  0
  -22.3559  -14.5534   20.6691 O   0  0  0  0  0  0
  -24.6164  -31.8680   23.2089 C   0  0  0  0  0  0
  -25.9067  -32.4834   23.8361 C   0  0  1  0  0  0
  -27.2531  -27.4436   20.0929 C   0  0  0  0  0  0
  -25.5936  -33.8624   24.2327 N   0  0  0  0  0  0
  -23.4038  -30.4858   21.5501 C   0  0  2  0  0  0
  -24.8523  -28.9478   20.1181 C   0  0  0  0  0  0
  -22.7414  -29.4649   22.5022 C   0  0  0  0  0  0
  -18.0267  -28.1384   22.8502 C   0  0  0  0  0  0
  -24.1483  -36.7286   23.2615 C   0  0  0  0  0  0
  -25.9314  -30.8340   21.3592 C   0  0  0  0  0  0
  -26.0087  -29.4679   20.7101 C   0  0  0  0  0  0
  -27.2065  -28.7209   20.6979 C   0  0  0  0  0  0
  -26.0717  -26.9272   19.5122 C   0  0  0  0  0  0
  -24.8781  -27.6754   19.5204 C   0  0  0  0  0  0
  -23.6106  -29.8098   20.1673 C   0  0  0  0  0  0
  -25.4106  -36.3119   24.0339 C   0  0  1  0  0  0
  -20.5862  -28.3666   23.1329 C   0  0  2  0  0  0
  -20.6780  -26.9396   22.5433 C   0  0  0  0  0  0
  -19.5755  -26.6393   21.5230 C   0  0  0  0  0  0
  -18.1923  -26.7937   22.1620 C   0  0  0  0  0  0
  -19.1516  -28.8841   23.2915 C   0  0  0  0  0  0
  -18.9450  -30.1462   23.8904 C   0  0  0  0  0  0
  -17.6446  -30.6594   24.0561 C   0  0  0  0  0  0
  -25.9060  -34.9486   23.5135 C   0  0  0  0  0  0
  -16.5341  -29.9088   23.6326 C   0  0  0  0  0  0
  -16.7257  -28.6510   23.0339 C   0  0  0  0  0  0
  -26.4463  -31.6616   25.0694 C   0  0  0  0  0  0
  -25.3728  -31.3764   26.1459 C   0  0  0  0  0  0
  -27.0258  -30.3046   24.6088 C   0  0  0  0  0  0
  -27.6098  -32.4283   25.7411 C   0  0  0  0  0  0
  -27.5622  -37.1743   24.8422 C   0  0  0  0  0  0
  -21.4146  -29.3020   22.3738 N   0  0  0  0  0  0
  -26.4273  -37.3834   23.9468 N   0  0  0  0  0  0
  -24.6685  -31.0772   22.0983 N   0  0  0  0  0  0
  -23.4182  -28.8198   23.3073 O   0  0  0  0  0  0
  -28.4529  -26.7589   20.1305 O   0  0  0  0  0  0
  -26.5612  -34.8937   22.4693 O   0  0  0  0  0  0
  -23.5361  -32.1414   23.7512 O   0  0  0  0  0  0
  -28.3804  -18.5506   20.1461 C   0  0  0  0  0  0
  -28.5847  -17.2250   20.5754 C   0  0  0  0  0  0
  -30.9613  -17.6677   20.8114 C   0  0  0  0  0  0
  -29.4565  -19.4634   20.0499 C   0  0  0  0  0  0
  -29.8780  -16.7578   20.8773 C   0  0  0  0  0  0
  -30.7544  -19.0101   20.4018 C   0  0  0  0  0  0
  -29.1974  -20.8281   19.4489 C   0  0  0  0  0  0
  -31.2756  -23.6859   19.4203 C   0  0  0  0  0  0
  -28.8736  -24.3149   20.0259 C   0  0  0  0  0  0
  -31.8812  -24.2643   18.1444 C   0  0  0  0  0  0
  -28.7038  -25.6487   19.2550 C   0  0  0  0  0  0
  -29.8034  -23.2472   19.3846 C   0  0  2  0  0  0
  -30.0100  -15.3932   21.2691 N   0  0  0  0  0  0
  -29.7140  -21.9187   20.0365 N   0  0  0  0  0  0
  -28.4842  -20.9177   18.4469 O   0  0  0  0  0  0
  -31.9815  -23.5748   20.4279 O   0  0  0  0  0  0
  -28.2485  -24.1212   21.0768 O   0  0  0  0  0  0
  -31.8199  -19.8442   20.3208 F   0  0  0  0  0  0
  -31.4756  -12.4133   19.1084 H   0  0  0  0  0  0
  -30.3464  -11.2815   19.7931 H   0  0  0  0  0  0
  -29.7392  -11.7982   17.4139 H   0  0  0  0  0  0
  -29.6692  -13.5027   17.7774 H   0  0  0  0  0  0
  -27.8207  -11.3143   18.7918 H   0  0  0  0  0  0
  -27.3713  -12.6599   17.7812 H   0  0  0  0  0  0
  -27.7193  -14.2523   19.5931 H   0  0  0  0  0  0
  -28.6780  -11.9054   21.3008 H   0  0  0  0  0  0
  -28.4612  -13.5215   21.8903 H   0  0  0  0  0  0
  -25.2779   -9.5667   22.4741 H   0  0  0  0  0  0
  -24.0007   -7.4623   22.7461 H   0  0  0  0  0  0
  -21.0831   -8.8753   19.8948 H   0  0  0  0  0  0
  -22.3686  -10.9662   19.6154 H   0  0  0  0  0  0
  -21.1985   -7.6144   23.9728 H   0  0  0  0  0  0
  -21.1486   -6.0517   25.9087 H   0  0  0  0  0  0
  -22.0597   -2.7613   23.2847 H   0  0  0  0  0  0
  -22.4101  -11.9899   22.4815 H   0  0  0  0  0  0
  -21.1122  -13.1282   22.2617 H   0  0  0  0  0  0
  -24.6410  -15.8256   20.4758 H   0  0  0  0  0  0
  -26.2398  -15.6057   19.9752 H   0  0  0  0  0  0
  -26.7153  -32.5546   23.1125 H   0  0  0  0  0  0
  -25.0108  -33.9765   25.0496 H   0  0  0  0  0  0
  -22.6976  -31.3073   21.4089 H   0  0  0  0  0  0
  -23.3821  -35.9530   23.3140 H   0  0  0  0  0  0
  -24.3632  -36.9064   22.2068 H   0  0  0  0  0  0
  -23.7106  -37.6386   23.6715 H   0  0  0  0  0  0
  -26.0490  -31.5985   20.5891 H   0  0  0  0  0  0
  -26.8182  -30.8842   21.9779 H   0  0  0  0  0  0
  -28.1015  -29.1255   21.1502 H   0  0  0  0  0  0
  -26.0439  -25.9422   19.0747 H   0  0  0  0  0  0
  -23.9864  -27.2586   19.0752 H   0  0  0  0  0  0
  -23.7183  -30.5806   19.4042 H   0  0  0  0  0  0
  -22.7375  -29.2252   19.8687 H   0  0  0  0  0  0
  -25.1274  -36.1949   25.0826 H   0  0  0  0  0  0
  -20.9944  -28.3238   24.1451 H   0  0  0  0  0  0
  -20.5727  -26.2246   23.3607 H   0  0  0  0  0  0
  -21.6650  -26.7481   22.1195 H   0  0  0  0  0  0
  -19.6908  -25.6309   21.1242 H   0  0  0  0  0  0
  -19.6719  -27.3222   20.6770 H   0  0  0  0  0  0
  -17.4213  -26.6703   21.4004 H   0  0  0  0  0  0
  -18.0307  -26.0075   22.9005 H   0  0  0  0  0  0
  -19.7921  -30.7301   24.2259 H   0  0  0  0  0  0
  -17.4989  -31.6273   24.5182 H   0  0  0  0  0  0
  -15.5336  -30.2987   23.7672 H   0  0  0  0  0  0
  -15.8652  -28.0853   22.7012 H   0  0  0  0  0  0
  -24.5833  -30.7201   25.7787 H   0  0  0  0  0  0
  -24.8981  -32.2942   26.4942 H   0  0  0  0  0  0
  -25.8052  -30.8869   27.0198 H   0  0  0  0  0  0
  -26.2776  -29.6804   24.1195 H   0  0  0  0  0  0
  -27.4061  -29.7304   25.4545 H   0  0  0  0  0  0
  -27.8603  -30.4333   23.9192 H   0  0  0  0  0  0
  -27.2818  -33.3641   26.1939 H   0  0  0  0  0  0
  -28.3895  -32.6754   25.0192 H   0  0  0  0  0  0
  -28.0733  -31.8402   26.5336 H   0  0  0  0  0  0
  -28.2502  -38.0180   24.7780 H   0  0  0  0  0  0
  -28.1278  -36.2770   24.5874 H   0  0  0  0  0  0
  -27.2404  -37.0928   25.8817 H   0  0  0  0  0  0
  -20.9324  -29.8694   21.6911 H   0  0  0  0  0  0
  -26.0159  -38.2871   24.1658 H   0  0  0  0  0  0
  -27.3838  -18.8642   19.8700 H   0  0  0  0  0  0
  -27.7387  -16.5574   20.6407 H   0  0  0  0  0  0
  -31.9604  -17.3435   21.0639 H   0  0  0  0  0  0
  -31.5632  -23.7021   17.2668 H   0  0  0  0  0  0
  -32.9681  -24.2239   18.1950 H   0  0  0  0  0  0
  -31.5921  -25.3047   18.0108 H   0  0  0  0  0  0
  -27.9660  -25.5373   18.4639 H   0  0  0  0  0  0
  -29.6373  -25.8809   18.7462 H   0  0  0  0  0  0
  -29.5172  -23.1687   18.3345 H   0  0  0  0  0  0
  -29.1864  -15.0000   21.7019 H   0  0  0  0  0  0
  -30.2834  -21.7954   20.8631 H   0  0  0  0  0  0
  1 25  1  0  0  0
  1 30  2  0  0  0
  1 83  1  0  0  0
  2  3  1  0  0  0
  2 25  1  0  0  0
  2 89  1  0  0  0
  2 90  1  0  0  0
  3  4  1  0  0  0
  3 91  1  0  0  0
  3 92  1  0  0  0
  4  5  1  0  0  0
  4 93  1  0  0  0
  4 94  1  0  0  0
  5  6  1  0  0  0
  5 26  1  0  0  0
  5 95  1  0  0  0
  6 25  1  0  0  0
  6 96  1  0  0  0
  6 97  1  0  0  0
  7  8  2  0  0  0
  7 26  1  0  0  0
  7 29  1  0  0  0
  8  9  1  0  0  0
  8 22  1  0  0  0
  9 10  1  0  0  0
  9 27  2  0  0  0
 10 11  2  0  0  0
 10 15  1  0  0  0
 11 12  1  0  0  0
 11 98  1  0  0  0
 12 13  2  0  0  0
 12 99  1  0  0  0
 13 14  1  0  0  0
 13 31  1  0  0  0
 14 15  2  0  0  0
 14100  1  0  0  0
 15101  1  0  0  0
 16 17  2  0  0  0
 16 21  1  0  0  0
 16 31  1  0  0  0
 17 18  1  0  0  0
 17102  1  0  0  0
 18 19  2  0  0  0
 18103  1  0  0  0
 19 20  1  0  0  0
 19 24  1  0  0  0
 20 21  2  0  0  0
 20104  1  0  0  0
 21 23  1  0  0  0
 22 28  1  0  0  0
 22 32  2  0  0  0
 26 27  1  0  0  0
 28105  1  0  0  0
 28106  1  0  0  0
 29107  1  0  0  0
 29108  1  0  0  0
 33 34  1  0  0  0
 33 66  1  0  0  0
 33 70  2  0  0  0
 34 36  1  0  0  0
 34 59  1  0  0  0
 34109  1  0  0  0
 35 44  2  0  0  0
 35 45  1  0  0  0
 35 68  1  0  0  0
 36 56  1  0  0  0
 36110  1  0  0  0
 37 39  1  0  0  0
 37 47  1  0  0  0
 37 66  1  0  0  0
 37111  1  0  0  0
 38 43  2  0  0  0
 38 46  1  0  0  0
 38 47  1  0  0  0
 39 64  1  0  0  0
 39 67  2  0  0  0
 40 52  1  0  0  0
 40 53  2  0  0  0
 40 58  1  0  0  0
 41112  1  0  0  0
 41113  1  0  0  0
 41114  1  0  0  0
 41 48  1  0  0  0
 42 43  1  0  0  0
 42 66  1  0  0  0
 42115  1  0  0  0
 42116  1  0  0  0
 43 44  1  0  0  0
 44117  1  0  0  0
 45 46  2  0  0  0
 45118  1  0  0  0
 46119  1  0  0  0
 47120  1  0  0  0
 47121  1  0  0  0
 48 56  1  0  0  0
 48 65  1  0  0  0
 48122  1  0  0  0
 49 50  1  0  0  0
 49 53  1  0  0  0
 49 64  1  0  0  0
 49123  1  0  0  0
 50 51  1  0  0  0
 50124  1  0  0  0
 50125  1  0  0  0
 51 52  1  0  0  0
 51126  1  0  0  0
 51127  1  0  0  0
 52128  1  0  0  0
 52129  1  0  0  0
 53 54  1  0  0  0
 54 55  2  0  0  0
 54130  1  0  0  0
 55 57  1  0  0  0
 55131  1  0  0  0
 56 69  2  0  0  0
 57 58  2  0  0  0
 57132  1  0  0  0
 58133  1  0  0  0
 59 60  1  0  0  0
 59 61  1  0  0  0
 59 62  1  0  0  0
 60134  1  0  0  0
 60135  1  0  0  0
 60136  1  0  0  0
 61137  1  0  0  0
 61138  1  0  0  0
 61139  1  0  0  0
 62140  1  0  0  0
 62141  1  0  0  0
 62142  1  0  0  0
 63 65  1  0  0  0
 63143  1  0  0  0
 63144  1  0  0  0
 63145  1  0  0  0
 64146  1  0  0  0
 65147  1  0  0  0
 68 81  1  0  0  0
 71 72  2  0  0  0
 71 74  1  0  0  0
 71148  1  0  0  0
 72 75  1  0  0  0
 72149  1  0  0  0
 73 75  2  0  0  0
 73 76  1  0  0  0
 73150  1  0  0  0
 74 76  2  0  0  0
 74 77  1  0  0  0
 75 83  1  0  0  0
 76 88  1  0  0  0
 77 84  1  0  0  0
 77 85  2  0  0  0
 78 80  1  0  0  0
 78 82  1  0  0  0
 78 86  2  0  0  0
 79 81  1  0  0  0
 79 82  1  0  0  0
 79 87  2  0  0  0
 80151  1  0  0  0
 80152  1  0  0  0
 80153  1  0  0  0
 81154  1  0  0  0
 81155  1  0  0  0
 82 84  1  0  0  0
 82156  1  0  0  0
 83157  1  0  0  0
 84158  1  0  0  0
M  ISO  4   1 100  68 101  81 101  83 100
M  END
> <chiral flag>
0

> <version>
0

> <s_m_source_file>
/data/baiqing/PycharmProjects/Reinvent-master-3.2/result/LINK_invent/BTK/process_docking_weight1_custom_product_contain_oxygen_bond_distance_aromatic_linkinvent_7_9_3/rearranged_h_0084.sdf

> <i_m_source_file_index>
86

> <r_mmod_Potential_Energy-OPLS-2005>
-198.330108642578

> <r_mmod_Stretch_Energy-OPLS-2005>
40.5460243225098

> <r_mmod_Bend_Energy-OPLS-2005>
106.891525268555

> <r_mmod_Torsional_Energy-OPLS-2005>
220.320205688477

> <r_mmod_Improper_Torsional_Energy-OPLS-2005>
7.12723827362061

> <r_mmod_Van_der_Waal_Energy-OPLS-2005>
148.293365478516

> <r_mmod_Electrostatic_Energy-OPLS-2005>
-476.464416503906

> <r_mmod_Solvation_Energy-OPLS-2005>
-256.576690673828

> <b_mmod_Minimization_Converged-OPLS-2005>
0

> <r_mmod_RMS_Derivative-OPLS-2005>
3.13436579704285

$$$$
86
                    3D
 Structure written by MMmdl.
155164  0  0  1  0            999 V2000
  -30.6514  -14.5497   20.5260 C   0  0  0  0  0  0
  -30.4335  -12.3402   19.4475 C   0  0  0  0  0  0
  -29.5083  -12.5037   18.2207 C   0  0  0  0  0  0
  -28.0281  -12.3624   18.6288 C   0  0  0  0  0  0
  -27.6614  -13.2138   19.8746 C   0  0  2  0  0  0
  -28.7000  -13.0236   21.0041 C   0  0  0  0  0  0
  -25.2574  -13.8178   20.5671 C   0  0  0  0  0  0
  -24.1829  -13.0454   20.9170 C   0  0  0  0  0  0
  -24.6398  -11.6924   20.8738 C   0  0  0  0  0  0
  -23.9068  -10.4306   21.0415 C   0  0  0  0  0  0
  -24.3622   -9.4215   21.9193 C   0  0  0  0  0  0
  -23.6295   -8.2254   22.0765 C   0  0  0  0  0  0
  -22.4268   -8.0298   21.3565 C   0  0  0  0  0  0
  -21.9901   -9.0266   20.4663 C   0  0  0  0  0  0
  -22.7237  -10.2145   20.3065 C   0  0  0  0  0  0
  -21.6847   -6.0742   22.5289 C   0  0  0  0  0  0
  -21.4018   -6.5641   23.8224 C   0  0  0  0  0  0
  -21.3654   -5.6788   24.9180 C   0  0  0  0  0  0
  -21.6039   -4.3053   24.7223 C   0  0  0  0  0  0
  -21.8818   -3.8151   23.4345 C   0  0  0  0  0  0
  -21.9187   -4.6972   22.3407 C   0  0  0  0  0  0
  -22.7855  -13.5258   21.1839 C   0  0  0  0  0  0
  -22.1656   -4.2171   21.0983 F   0  0  0  0  0  0
  -21.5614   -3.4532   25.7732 F   0  0  0  0  0  0
  -30.0274  -13.3380   20.4548 N   0  0  0  0  0  0
  -26.3015  -12.9363   20.3340 N   0  0  0  0  0  0
  -25.9323  -11.6521   20.5757 N   0  0  0  0  0  0
  -22.0487  -12.8256   22.0404 N   0  0  0  0  0  0
  -25.4307  -15.1897   20.4095 N   0  0  0  0  0  0
  -31.7864  -14.7306   20.0724 O   0  0  0  0  0  0
  -21.6637   -6.8889   21.4256 O   0  0  0  0  0  0
  -22.3543  -14.5567   20.6689 O   0  0  0  0  0  0
  -24.6198  -31.8638   23.2069 C   0  0  0  0  0  0
  -25.9068  -32.4805   23.8380 C   0  0  1  0  0  0
  -27.2271  -27.3882   20.1100 C   0  0  0  0  0  0
  -25.5898  -33.8606   24.2309 N   0  0  0  0  0  0
  -23.4122  -30.4887   21.5459 C   0  0  2  0  0  0
  -24.8618  -28.9556   20.1060 C   0  0  0  0  0  0
  -22.7443  -29.4641   22.4931 C   0  0  0  0  0  0
  -18.0285  -28.1380   22.8483 C   0  0  0  0  0  0
  -24.1487  -36.7318   23.2636 C   0  0  0  0  0  0
  -25.9465  -30.8170   21.3681 C   0  0  0  0  0  0
  -26.0253  -29.4501   20.7106 C   0  0  0  0  0  0
  -27.2159  -28.6755   20.7084 C   0  0  0  0  0  0
  -26.0515  -26.9315   19.4762 C   0  0  0  0  0  0
  -24.8728  -27.6990   19.4788 C   0  0  0  0  0  0
  -23.6247  -29.8260   20.1589 C   0  0  0  0  0  0
  -25.4102  -36.3101   24.0334 C   0  0  1  0  0  0
  -20.5881  -28.3679   23.1286 C   0  0  2  0  0  0
  -20.6774  -26.9406   22.5408 C   0  0  0  0  0  0
  -19.5752  -26.6385   21.5205 C   0  0  0  0  0  0
  -18.1929  -26.7924   22.1616 C   0  0  0  0  0  0
  -19.1537  -28.8843   23.2884 C   0  0  0  0  0  0
  -18.9461  -30.1443   23.8911 C   0  0  0  0  0  0
  -17.6463  -30.6580   24.0569 C   0  0  0  0  0  0
  -25.9035  -34.9468   23.5118 C   0  0  0  0  0  0
  -16.5353  -29.9087   23.6322 C   0  0  0  0  0  0
  -16.7274  -28.6502   23.0343 C   0  0  0  0  0  0
  -26.4475  -31.6597   25.0726 C   0  0  0  0  0  0
  -25.3739  -31.3724   26.1478 C   0  0  0  0  0  0
  -27.0300  -30.3027   24.6129 C   0  0  0  0  0  0
  -27.6038  -32.4322   25.7495 C   0  0  0  0  0  0
  -27.5583  -37.1807   24.8454 C   0  0  0  0  0  0
  -21.4165  -29.3041   22.3683 N   0  0  0  0  0  0
  -26.4283  -37.3792   23.9416 N   0  0  0  0  0  0
  -24.6780  -31.0714   22.0985 N   0  0  0  0  0  0
  -23.4190  -28.8170   23.2986 O   0  0  0  0  0  0
  -28.3128  -26.5270   20.1832 O   0  0  0  0  0  0
  -26.5609  -34.8928   22.4690 O   0  0  0  0  0  0
  -23.5376  -32.1396   23.7436 O   0  0  0  0  0  0
  -29.2628  -18.1432   18.3172 C   0  0  0  0  0  0
  -28.9549  -19.2907   19.0718 C   0  0  0  0  0  0
  -29.6441  -16.9469   18.9523 C   0  0  0  0  0  0
  -29.4322  -18.0521   21.1108 C   0  0  0  0  0  0
  -29.0812  -19.2923   20.4791 C   0  0  0  0  0  0
  -29.7103  -16.8666   20.3618 C   0  0  0  0  0  0
  -28.6191  -24.0950   20.6041 C   0  0  0  0  0  0
  -28.1342  -22.8903   21.2789 C   0  0  0  0  0  0
  -28.0311  -25.3094   20.8035 C   0  0  0  0  0  0
  -28.6513  -20.5112   21.2994 C   0  0  0  0  0  0
  -29.7535  -23.7420   19.6936 C   0  0  0  0  0  0
  -29.9304  -22.2288   19.9365 C   0  0  0  0  0  0
  -28.8417  -21.8025   20.8428 N   0  0  0  0  0  0
  -29.9110  -15.5856   21.0016 N   0  0  0  0  0  0
  -27.1940  -22.8739   22.0838 O   0  0  0  0  0  0
  -28.1033  -20.2585   22.3794 O   0  0  0  0  0  0
  -31.4785  -12.4472   19.1508 H   0  0  0  0  0  0
  -30.3460  -11.3359   19.8638 H   0  0  0  0  0  0
  -29.7561  -11.7598   17.4613 H   0  0  0  0  0  0
  -29.6739  -13.4779   17.7575 H   0  0  0  0  0  0
  -27.8462  -11.3064   18.8334 H   0  0  0  0  0  0
  -27.3812  -12.6279   17.7922 H   0  0  0  0  0  0
  -27.6979  -14.2590   19.5637 H   0  0  0  0  0  0
  -28.6875  -11.9937   21.3664 H   0  0  0  0  0  0
  -28.4566  -13.6419   21.8693 H   0  0  0  0  0  0
  -25.2788   -9.5669   22.4739 H   0  0  0  0  0  0
  -24.0013   -7.4628   22.7460 H   0  0  0  0  0  0
  -21.0836   -8.8781   19.8955 H   0  0  0  0  0  0
  -22.3723  -10.9670   19.6146 H   0  0  0  0  0  0
  -21.2037   -7.6153   23.9733 H   0  0  0  0  0  0
  -21.1459   -6.0521   25.9081 H   0  0  0  0  0  0
  -22.0603   -2.7615   23.2835 H   0  0  0  0  0  0
  -22.4089  -11.9931   22.4823 H   0  0  0  0  0  0
  -21.1106  -13.1281   22.2594 H   0  0  0  0  0  0
  -24.6713  -15.8503   20.5318 H   0  0  0  0  0  0
  -26.2891  -15.6266   20.0980 H   0  0  0  0  0  0
  -26.7143  -32.5502   23.1147 H   0  0  0  0  0  0
  -25.0056  -33.9759   25.0455 H   0  0  0  0  0  0
  -22.7033  -31.3075   21.4059 H   0  0  0  0  0  0
  -23.3745  -35.9655   23.3282 H   0  0  0  0  0  0
  -24.3590  -36.8955   22.2055 H   0  0  0  0  0  0
  -23.7244  -37.6519   23.6665 H   0  0  0  0  0  0
  -26.0669  -31.5814   20.5992 H   0  0  0  0  0  0
  -26.8315  -30.8688   21.9906 H   0  0  0  0  0  0
  -28.1087  -29.0413   21.1959 H   0  0  0  0  0  0
  -26.0400  -25.9600   19.0027 H   0  0  0  0  0  0
  -23.9822  -27.3144   19.0019 H   0  0  0  0  0  0
  -23.7378  -30.6039   19.4027 H   0  0  0  0  0  0
  -22.7481  -29.2500   19.8575 H   0  0  0  0  0  0
  -25.1271  -36.1963   25.0824 H   0  0  0  0  0  0
  -20.9976  -28.3261   24.1403 H   0  0  0  0  0  0
  -20.5662  -26.2289   23.3603 H   0  0  0  0  0  0
  -21.6645  -26.7427   22.1211 H   0  0  0  0  0  0
  -19.6910  -25.6296   21.1236 H   0  0  0  0  0  0
  -19.6692  -27.3195   20.6733 H   0  0  0  0  0  0
  -17.4191  -26.6661   21.4025 H   0  0  0  0  0  0
  -18.0339  -26.0065   22.9014 H   0  0  0  0  0  0
  -19.7938  -30.7255   24.2285 H   0  0  0  0  0  0
  -17.5020  -31.6262   24.5173 H   0  0  0  0  0  0
  -15.5357  -30.2997   23.7637 H   0  0  0  0  0  0
  -15.8669  -28.0834   22.7042 H   0  0  0  0  0  0
  -24.5880  -30.7101   25.7829 H   0  0  0  0  0  0
  -24.8975  -32.2894   26.4953 H   0  0  0  0  0  0
  -25.8091  -30.8873   27.0221 H   0  0  0  0  0  0
  -26.2847  -29.6803   24.1158 H   0  0  0  0  0  0
  -27.4023  -29.7255   25.4602 H   0  0  0  0  0  0
  -27.8708  -30.4331   23.9313 H   0  0  0  0  0  0
  -27.2627  -33.3591   26.2117 H   0  0  0  0  0  0
  -28.3823  -32.6932   25.0312 H   0  0  0  0  0  0
  -28.0730  -31.8423   26.5380 H   0  0  0  0  0  0
  -28.2576  -38.0128   24.7529 H   0  0  0  0  0  0
  -28.1104  -36.2662   24.6227 H   0  0  0  0  0  0
  -27.2317  -37.1394   25.8861 H   0  0  0  0  0  0
  -20.9322  -29.8789   21.6929 H   0  0  0  0  0  0
  -26.0170  -38.2865   24.1435 H   0  0  0  0  0  0
  -29.1674  -18.1682   17.2409 H   0  0  0  0  0  0
  -28.5806  -20.1619   18.5537 H   0  0  0  0  0  0
  -29.8242  -16.0768   18.3362 H   0  0  0  0  0  0
  -29.4465  -18.0040   22.1912 H   0  0  0  0  0  0
  -27.2061  -25.4067   21.4984 H   0  0  0  0  0  0
  -30.6514  -24.3074   19.9443 H   0  0  0  0  0  0
  -29.4803  -23.9546   18.6590 H   0  0  0  0  0  0
  -30.8875  -22.0353   20.4238 H   0  0  0  0  0  0
  -29.9537  -21.7114   18.9814 H   0  0  0  0  0  0
  -29.1657  -15.3090   21.6227 H   0  0  0  0  0  0
  1 25  1  0  0  0
  1 30  2  0  0  0
  1 84  1  0  0  0
  2  3  1  0  0  0
  2 25  1  0  0  0
  2 87  1  0  0  0
  2 88  1  0  0  0
  3  4  1  0  0  0
  3 89  1  0  0  0
  3 90  1  0  0  0
  4  5  1  0  0  0
  4 91  1  0  0  0
  4 92  1  0  0  0
  5  6  1  0  0  0
  5 26  1  0  0  0
  5 93  1  0  0  0
  6 25  1  0  0  0
  6 94  1  0  0  0
  6 95  1  0  0  0
  7  8  2  0  0  0
  7 26  1  0  0  0
  7 29  1  0  0  0
  8  9  1  0  0  0
  8 22  1  0  0  0
  9 10  1  0  0  0
  9 27  2  0  0  0
 10 11  2  0  0  0
 10 15  1  0  0  0
 11 12  1  0  0  0
 11 96  1  0  0  0
 12 13  2  0  0  0
 12 97  1  0  0  0
 13 14  1  0  0  0
 13 31  1  0  0  0
 14 15  2  0  0  0
 14 98  1  0  0  0
 15 99  1  0  0  0
 16 17  2  0  0  0
 16 21  1  0  0  0
 16 31  1  0  0  0
 17 18  1  0  0  0
 17100  1  0  0  0
 18 19  2  0  0  0
 18101  1  0  0  0
 19 20  1  0  0  0
 19 24  1  0  0  0
 20 21  2  0  0  0
 20102  1  0  0  0
 21 23  1  0  0  0
 22 28  1  0  0  0
 22 32  2  0  0  0
 26 27  1  0  0  0
 28103  1  0  0  0
 28104  1  0  0  0
 29105  1  0  0  0
 29106  1  0  0  0
 33 34  1  0  0  0
 33 66  1  0  0  0
 33 70  2  0  0  0
 34 36  1  0  0  0
 34 59  1  0  0  0
 34107  1  0  0  0
 35 44  2  0  0  0
 35 45  1  0  0  0
 35 68  1  0  0  0
 36 56  1  0  0  0
 36108  1  0  0  0
 37 39  1  0  0  0
 37 47  1  0  0  0
 37 66  1  0  0  0
 37109  1  0  0  0
 38 43  2  0  0  0
 38 46  1  0  0  0
 38 47  1  0  0  0
 39 64  1  0  0  0
 39 67  2  0  0  0
 40 52  1  0  0  0
 40 53  2  0  0  0
 40 58  1  0  0  0
 41110  1  0  0  0
 41111  1  0  0  0
 41112  1  0  0  0
 41 48  1  0  0  0
 42 43  1  0  0  0
 42 66  1  0  0  0
 42113  1  0  0  0
 42114  1  0  0  0
 43 44  1  0  0  0
 44115  1  0  0  0
 45 46  2  0  0  0
 45116  1  0  0  0
 46117  1  0  0  0
 47118  1  0  0  0
 47119  1  0  0  0
 48 56  1  0  0  0
 48 65  1  0  0  0
 48120  1  0  0  0
 49 50  1  0  0  0
 49 53  1  0  0  0
 49 64  1  0  0  0
 49121  1  0  0  0
 50 51  1  0  0  0
 50122  1  0  0  0
 50123  1  0  0  0
 51 52  1  0  0  0
 51124  1  0  0  0
 51125  1  0  0  0
 52126  1  0  0  0
 52127  1  0  0  0
 53 54  1  0  0  0
 54 55  2  0  0  0
 54128  1  0  0  0
 55 57  1  0  0  0
 55129  1  0  0  0
 56 69  2  0  0  0
 57 58  2  0  0  0
 57130  1  0  0  0
 58131  1  0  0  0
 59 60  1  0  0  0
 59 61  1  0  0  0
 59 62  1  0  0  0
 60132  1  0  0  0
 60133  1  0  0  0
 60134  1  0  0  0
 61135  1  0  0  0
 61136  1  0  0  0
 61137  1  0  0  0
 62138  1  0  0  0
 62139  1  0  0  0
 62140  1  0  0  0
 63 65  1  0  0  0
 63141  1  0  0  0
 63142  1  0  0  0
 63143  1  0  0  0
 64144  1  0  0  0
 65145  1  0  0  0
 68 79  1  0  0  0
 71 72  2  0  0  0
 71 73  1  0  0  0
 71146  1  0  0  0
 72 75  1  0  0  0
 72147  1  0  0  0
 73 76  2  0  0  0
 73148  1  0  0  0
 74 75  2  0  0  0
 74 76  1  0  0  0
 74149  1  0  0  0
 75 80  1  0  0  0
 76 84  1  0  0  0
 77 78  1  0  0  0
 77 79  2  0  0  0
 77 81  1  0  0  0
 78 83  1  0  0  0
 78 85  2  0  0  0
 79150  1  0  0  0
 80 83  1  0  0  0
 80 86  2  0  0  0
 81 82  1  0  0  0
 81151  1  0  0  0
 81152  1  0  0  0
 82 83  1  0  0  0
 82153  1  0  0  0
 82154  1  0  0  0
 84155  1  0  0  0
M  ISO  4   1 100  68 101  79 101  84 100
M  END
> <chiral flag>
0

> <version>
0

> <s_m_source_file>
/data/baiqing/PycharmProjects/Reinvent-master-3.2/result/LINK_invent/BTK/process_docking_weight1_custom_product_contain_oxygen_bond_distance_aromatic_linkinvent_7_9_3/rearranged_h_0084.sdf

> <i_m_source_file_index>
87

> <r_mmod_Potential_Energy-OPLS-2005>
88.9776916503906

> <r_mmod_Stretch_Energy-OPLS-2005>
57.3776931762695

> <r_mmod_Bend_Energy-OPLS-2005>
135.313522338867

> <r_mmod_Torsional_Energy-OPLS-2005>
307.963928222656

> <r_mmod_Improper_Torsional_Energy-OPLS-2005>
6.75665187835693

> <r_mmod_Van_der_Waal_Energy-OPLS-2005>
157.510162353516

> <r_mmod_Electrostatic_Energy-OPLS-2005>
-374.384460449219

> <r_mmod_Solvation_Energy-OPLS-2005>
-230.262023925781

> <b_mmod_Minimization_Converged-OPLS-2005>
0

> <r_mmod_RMS_Derivative-OPLS-2005>
2.03115153312683

$$$$
87
                    3D
 Structure written by MMmdl.
167176  0  0  1  0            999 V2000
  -30.6070  -14.7840   20.4559 C   0  0  0  0  0  0
  -30.4399  -12.4533   19.4918 C   0  0  0  0  0  0
  -29.5192  -12.5088   18.2505 C   0  0  0  0  0  0
  -28.0433  -12.3302   18.6552 C   0  0  0  0  0  0
  -27.6405  -13.2356   19.8501 C   0  0  2  0  0  0
  -28.6723  -13.1780   20.9950 C   0  0  0  0  0  0
  -25.2495  -13.8216   20.5694 C   0  0  0  0  0  0
  -24.1778  -13.0455   20.9194 C   0  0  0  0  0  0
  -24.6380  -11.6938   20.8722 C   0  0  0  0  0  0
  -23.9062  -10.4312   21.0392 C   0  0  0  0  0  0
  -24.3613   -9.4231   21.9170 C   0  0  0  0  0  0
  -23.6295   -8.2259   22.0743 C   0  0  0  0  0  0
  -22.4272   -8.0286   21.3545 C   0  0  0  0  0  0
  -21.9912   -9.0254   20.4639 C   0  0  0  0  0  0
  -22.7234  -10.2143   20.3045 C   0  0  0  0  0  0
  -21.6858   -6.0738   22.5280 C   0  0  0  0  0  0
  -21.4017   -6.5641   23.8214 C   0  0  0  0  0  0
  -21.3658   -5.6791   24.9172 C   0  0  0  0  0  0
  -21.6043   -4.3055   24.7220 C   0  0  0  0  0  0
  -21.8820   -3.8151   23.4342 C   0  0  0  0  0  0
  -21.9197   -4.6967   22.3400 C   0  0  0  0  0  0
  -22.7807  -13.5235   21.1869 C   0  0  0  0  0  0
  -22.1663   -4.2155   21.0976 F   0  0  0  0  0  0
  -21.5627   -3.4538   25.7735 F   0  0  0  0  0  0
  -29.9870  -13.4996   20.4348 N   0  0  0  0  0  0
  -26.2912  -12.9425   20.3249 N   0  0  0  0  0  0
  -25.9306  -11.6566   20.5706 N   0  0  0  0  0  0
  -22.0465  -12.8204   22.0423 N   0  0  0  0  0  0
  -25.4233  -15.1929   20.4152 N   0  0  0  0  0  0
  -31.7609  -14.9532   20.0581 O   0  0  0  0  0  0
  -21.6644   -6.8876   21.4241 O   0  0  0  0  0  0
  -22.3483  -14.5538   20.6723 O   0  0  0  0  0  0
  -24.6335  -31.8522   23.1951 C   0  0  0  0  0  0
  -25.9143  -32.4737   23.8316 C   0  0  1  0  0  0
  -27.2232  -27.2331   20.1530 C   0  0  0  0  0  0
  -25.5925  -33.8538   24.2230 N   0  0  0  0  0  0
  -23.4340  -30.4709   21.5379 C   0  0  2  0  0  0
  -24.8869  -28.9142   20.1076 C   0  0  0  0  0  0
  -22.7522  -29.4575   22.4894 C   0  0  0  0  0  0
  -18.0293  -28.1383   22.8475 C   0  0  0  0  0  0
  -24.1489  -36.7285   23.2640 C   0  0  0  0  0  0
  -25.9808  -30.7568   21.3809 C   0  0  0  0  0  0
  -26.0557  -29.3751   20.7283 C   0  0  0  0  0  0
  -27.2278  -28.5475   20.7401 C   0  0  0  0  0  0
  -26.0457  -26.8596   19.4730 C   0  0  0  0  0  0
  -24.8882  -27.6658   19.4653 C   0  0  0  0  0  0
  -23.6563  -29.8014   20.1554 C   0  0  0  0  0  0
  -25.4114  -36.3062   24.0320 C   0  0  1  0  0  0
  -20.5900  -28.3694   23.1257 C   0  0  2  0  0  0
  -20.6781  -26.9406   22.5406 C   0  0  0  0  0  0
  -19.5755  -26.6372   21.5211 C   0  0  0  0  0  0
  -18.1931  -26.7920   22.1619 C   0  0  0  0  0  0
  -19.1548  -28.8854   23.2861 C   0  0  0  0  0  0
  -18.9469  -30.1455   23.8876 C   0  0  0  0  0  0
  -17.6468  -30.6578   24.0559 C   0  0  0  0  0  0
  -25.9057  -34.9431   23.5080 C   0  0  0  0  0  0
  -16.5356  -29.9077   23.6331 C   0  0  0  0  0  0
  -16.7282  -28.6496   23.0351 C   0  0  0  0  0  0
  -26.4501  -31.6575   25.0713 C   0  0  0  0  0  0
  -25.3708  -31.3736   26.1423 C   0  0  0  0  0  0
  -27.0357  -30.2988   24.6225 C   0  0  0  0  0  0
  -27.6044  -32.4331   25.7491 C   0  0  0  0  0  0
  -27.5576  -37.1799   24.8463 C   0  0  0  0  0  0
  -21.4225  -29.3038   22.3648 N   0  0  0  0  0  0
  -26.4291  -37.3758   23.9404 N   0  0  0  0  0  0
  -24.7016  -31.0463   22.0938 N   0  0  0  0  0  0
  -23.4204  -28.8118   23.3011 O   0  0  0  0  0  0
  -28.2969  -26.3010   20.1981 O   0  0  0  0  0  0
  -26.5639  -34.8913   22.4655 O   0  0  0  0  0  0
  -23.5473  -32.1355   23.7223 O   0  0  0  0  0  0
  -31.1357  -17.7832   22.4544 C   0  0  0  0  0  0
  -31.7442  -18.4468   23.5223 C   0  0  0  0  0  0
  -30.7968  -20.5110   22.7112 C   0  0  0  0  0  0
  -30.3243  -18.4239   21.4816 C   0  0  0  0  0  0
  -31.5648  -19.8243   23.6715 C   0  0  0  0  0  0
  -30.1277  -19.9043   21.6034 C   0  0  0  0  0  0
  -31.6455  -21.4798   25.5131 C   0  0  0  0  0  0
  -28.9159  -22.1781   21.1463 C   0  0  0  0  0  0
  -32.6048  -21.9427   26.5966 C   0  0  0  0  0  0
  -33.9155  -21.2489   26.2241 C   0  0  0  0  0  0
  -33.5072  -20.1270   25.2625 C   0  0  0  0  0  0
  -26.7900  -24.7519   21.5483 C   0  0  0  0  0  0
  -29.8570  -17.3461   20.4119 C   0  0  0  0  0  0
  -28.7251  -23.5125   20.2346 C   0  0  0  0  0  0
  -28.1808  -24.9373   20.8895 C   0  0  1  0  0  0
  -32.1954  -20.5143   24.7520 N   0  0  0  0  0  0
  -29.4430  -20.9334   20.7372 N   0  0  0  0  0  0
  -30.5106  -21.9539   25.4021 O   0  0  0  0  0  0
  -28.5232  -22.2771   22.3100 O   0  0  0  0  0  0
  -29.7241  -15.8917   20.8209 O   0  0  0  0  0  0
  -31.4807  -12.5960   19.1944 H   0  0  0  0  0  0
  -30.3927  -11.4728   19.9677 H   0  0  0  0  0  0
  -29.8081  -11.7393   17.5328 H   0  0  0  0  0  0
  -29.6432  -13.4657   17.7411 H   0  0  0  0  0  0
  -27.9019  -11.2823   18.9206 H   0  0  0  0  0  0
  -27.3907  -12.5162   17.8008 H   0  0  0  0  0  0
  -27.6366  -14.2556   19.4652 H   0  0  0  0  0  0
  -28.6922  -12.1865   21.4489 H   0  0  0  0  0  0
  -28.4051  -13.8767   21.7895 H   0  0  0  0  0  0
  -25.2754   -9.5715   22.4748 H   0  0  0  0  0  0
  -24.0014   -7.4652   22.7457 H   0  0  0  0  0  0
  -21.0847   -8.8758   19.8943 H   0  0  0  0  0  0
  -22.3671  -10.9672   19.6154 H   0  0  0  0  0  0
  -21.2007   -7.6151   23.9717 H   0  0  0  0  0  0
  -21.1478   -6.0521   25.9075 H   0  0  0  0  0  0
  -22.0601   -2.7616   23.2838 H   0  0  0  0  0  0
  -22.4094  -11.9878   22.4817 H   0  0  0  0  0  0
  -21.1084  -13.1219   22.2636 H   0  0  0  0  0  0
  -24.6686  -15.8584   20.5388 H   0  0  0  0  0  0
  -26.2931  -15.6294   20.1352 H   0  0  0  0  0  0
  -26.7210  -32.5386   23.1054 H   0  0  0  0  0  0
  -25.0054  -33.9666   25.0367 H   0  0  0  0  0  0
  -22.7319  -31.2934   21.3881 H   0  0  0  0  0  0
  -23.3747  -35.9623   23.3298 H   0  0  0  0  0  0
  -24.3576  -36.8917   22.2057 H   0  0  0  0  0  0
  -23.7257  -37.6486   23.6676 H   0  0  0  0  0  0
  -26.1217  -31.5156   20.6090 H   0  0  0  0  0  0
  -26.8569  -30.8085   22.0155 H   0  0  0  0  0  0
  -28.1198  -28.8922   21.2430 H   0  0  0  0  0  0
  -26.0088  -25.9023   18.9719 H   0  0  0  0  0  0
  -23.9990  -27.3101   18.9635 H   0  0  0  0  0  0
  -23.7797  -30.5766   19.3981 H   0  0  0  0  0  0
  -22.7761  -29.2329   19.8507 H   0  0  0  0  0  0
  -25.1301  -36.1904   25.0814 H   0  0  0  0  0  0
  -20.9988  -28.3277   24.1382 H   0  0  0  0  0  0
  -20.5670  -26.2302   23.3615 H   0  0  0  0  0  0
  -21.6644  -26.7418   22.1204 H   0  0  0  0  0  0
  -19.6914  -25.6283   21.1244 H   0  0  0  0  0  0
  -19.6694  -27.3181   20.6740 H   0  0  0  0  0  0
  -17.4205  -26.6666   21.4023 H   0  0  0  0  0  0
  -18.0330  -26.0067   22.9018 H   0  0  0  0  0  0
  -19.7945  -30.7273   24.2237 H   0  0  0  0  0  0
  -17.5021  -31.6258   24.5156 H   0  0  0  0  0  0
  -15.5353  -30.2965   23.7671 H   0  0  0  0  0  0
  -15.8683  -28.0810   22.7069 H   0  0  0  0  0  0
  -24.5890  -30.7074   25.7752 H   0  0  0  0  0  0
  -24.8883  -32.2903   26.4822 H   0  0  0  0  0  0
  -25.8012  -30.8932   27.0222 H   0  0  0  0  0  0
  -26.2950  -29.6717   24.1236 H   0  0  0  0  0  0
  -27.4016  -29.7264   25.4762 H   0  0  0  0  0  0
  -27.8834  -30.4250   23.9482 H   0  0  0  0  0  0
  -27.2643  -33.3641   26.2039 H   0  0  0  0  0  0
  -28.3869  -32.6868   25.0329 H   0  0  0  0  0  0
  -28.0691  -31.8468   26.5432 H   0  0  0  0  0  0
  -28.2592  -38.0100   24.7498 H   0  0  0  0  0  0
  -28.1074  -36.2622   24.6300 H   0  0  0  0  0  0
  -27.2288  -37.1455   25.8868 H   0  0  0  0  0  0
  -20.9422  -29.8768   21.6854 H   0  0  0  0  0  0
  -26.0164  -38.2830   24.1402 H   0  0  0  0  0  0
  -31.3369  -16.7251   22.3932 H   0  0  0  0  0  0
  -32.3460  -17.8800   24.2195 H   0  0  0  0  0  0
  -30.7665  -21.5809   22.8410 H   0  0  0  0  0  0
  -32.2372  -21.6060   27.5664 H   0  0  0  0  0  0
  -32.6966  -23.0288   26.6126 H   0  0  0  0  0  0
  -34.4477  -20.8690   27.0969 H   0  0  0  0  0  0
  -34.5749  -21.9557   25.7173 H   0  0  0  0  0  0
  -33.4272  -19.1799   25.7987 H   0  0  0  0  0  0
  -34.2318  -20.0052   24.4564 H   0  0  0  0  0  0
  -26.7790  -23.9571   22.2889 H   0  0  0  0  0  0
  -26.0239  -24.5026   20.8155 H   0  0  0  0  0  0
  -26.4734  -25.6453   22.0875 H   0  0  0  0  0  0
  -30.5361  -17.4050   19.5614 H   0  0  0  0  0  0
  -28.8827  -17.6618   20.0372 H   0  0  0  0  0  0
  -28.0849  -23.2463   19.3939 H   0  0  0  0  0  0
  -29.7048  -23.7096   19.7979 H   0  0  0  0  0  0
  -28.8513  -25.0881   21.7369 H   0  0  0  0  0  0
  -29.5194  -20.7903   19.7386 H   0  0  0  0  0  0
  1 25  1  0  0  0
  1 30  2  0  0  0
  1 90  1  0  0  0
  2  3  1  0  0  0
  2 25  1  0  0  0
  2 91  1  0  0  0
  2 92  1  0  0  0
  3  4  1  0  0  0
  3 93  1  0  0  0
  3 94  1  0  0  0
  4  5  1  0  0  0
  4 95  1  0  0  0
  4 96  1  0  0  0
  5  6  1  0  0  0
  5 26  1  0  0  0
  5 97  1  0  0  0
  6 25  1  0  0  0
  6 98  1  0  0  0
  6 99  1  0  0  0
  7  8  2  0  0  0
  7 26  1  0  0  0
  7 29  1  0  0  0
  8  9  1  0  0  0
  8 22  1  0  0  0
  9 10  1  0  0  0
  9 27  2  0  0  0
 10 11  2  0  0  0
 10 15  1  0  0  0
 11 12  1  0  0  0
 11100  1  0  0  0
 12 13  2  0  0  0
 12101  1  0  0  0
 13 14  1  0  0  0
 13 31  1  0  0  0
 14 15  2  0  0  0
 14102  1  0  0  0
 15103  1  0  0  0
 16 17  2  0  0  0
 16 21  1  0  0  0
 16 31  1  0  0  0
 17 18  1  0  0  0
 17104  1  0  0  0
 18 19  2  0  0  0
 18105  1  0  0  0
 19 20  1  0  0  0
 19 24  1  0  0  0
 20 21  2  0  0  0
 20106  1  0  0  0
 21 23  1  0  0  0
 22 28  1  0  0  0
 22 32  2  0  0  0
 26 27  1  0  0  0
 28107  1  0  0  0
 28108  1  0  0  0
 29109  1  0  0  0
 29110  1  0  0  0
 33 34  1  0  0  0
 33 66  1  0  0  0
 33 70  2  0  0  0
 34 36  1  0  0  0
 34 59  1  0  0  0
 34111  1  0  0  0
 35 44  2  0  0  0
 35 45  1  0  0  0
 35 68  1  0  0  0
 36 56  1  0  0  0
 36112  1  0  0  0
 37 39  1  0  0  0
 37 47  1  0  0  0
 37 66  1  0  0  0
 37113  1  0  0  0
 38 43  2  0  0  0
 38 46  1  0  0  0
 38 47  1  0  0  0
 39 64  1  0  0  0
 39 67  2  0  0  0
 40 52  1  0  0  0
 40 53  2  0  0  0
 40 58  1  0  0  0
 41114  1  0  0  0
 41115  1  0  0  0
 41116  1  0  0  0
 41 48  1  0  0  0
 42 43  1  0  0  0
 42 66  1  0  0  0
 42117  1  0  0  0
 42118  1  0  0  0
 43 44  1  0  0  0
 44119  1  0  0  0
 45 46  2  0  0  0
 45120  1  0  0  0
 46121  1  0  0  0
 47122  1  0  0  0
 47123  1  0  0  0
 48 56  1  0  0  0
 48 65  1  0  0  0
 48124  1  0  0  0
 49 50  1  0  0  0
 49 53  1  0  0  0
 49 64  1  0  0  0
 49125  1  0  0  0
 50 51  1  0  0  0
 50126  1  0  0  0
 50127  1  0  0  0
 51 52  1  0  0  0
 51128  1  0  0  0
 51129  1  0  0  0
 52130  1  0  0  0
 52131  1  0  0  0
 53 54  1  0  0  0
 54 55  2  0  0  0
 54132  1  0  0  0
 55 57  1  0  0  0
 55133  1  0  0  0
 56 69  2  0  0  0
 57 58  2  0  0  0
 57134  1  0  0  0
 58135  1  0  0  0
 59 60  1  0  0  0
 59 61  1  0  0  0
 59 62  1  0  0  0
 60136  1  0  0  0
 60137  1  0  0  0
 60138  1  0  0  0
 61139  1  0  0  0
 61140  1  0  0  0
 61141  1  0  0  0
 62142  1  0  0  0
 62143  1  0  0  0
 62144  1  0  0  0
 63 65  1  0  0  0
 63145  1  0  0  0
 63146  1  0  0  0
 63147  1  0  0  0
 64148  1  0  0  0
 65149  1  0  0  0
 68 85  1  0  0  0
 71 72  2  0  0  0
 71 74  1  0  0  0
 71150  1  0  0  0
 72 75  1  0  0  0
 72151  1  0  0  0
 73 75  2  0  0  0
 73 76  1  0  0  0
 73152  1  0  0  0
 74 76  2  0  0  0
 74 83  1  0  0  0
 75 86  1  0  0  0
 76 87  1  0  0  0
 77 79  1  0  0  0
 77 86  1  0  0  0
 77 88  2  0  0  0
 78 84  1  0  0  0
 78 87  1  0  0  0
 78 89  2  0  0  0
 79 80  1  0  0  0
 79153  1  0  0  0
 79154  1  0  0  0
 80 81  1  0  0  0
 80155  1  0  0  0
 80156  1  0  0  0
 81 86  1  0  0  0
 81157  1  0  0  0
 81158  1  0  0  0
 82159  1  0  0  0
 82160  1  0  0  0
 82161  1  0  0  0
 82 85  1  0  0  0
 83 90  1  0  0  0
 83162  1  0  0  0
 83163  1  0  0  0
 84 85  1  0  0  0
 84164  1  0  0  0
 84165  1  0  0  0
 85166  1  0  0  0
 87167  1  0  0  0
M  ISO  4   1 100  68 101  85 101  90 100
M  END
> <chiral flag>
0

> <version>
0

> <s_m_source_file>
/data/baiqing/PycharmProjects/Reinvent-master-3.2/result/LINK_invent/BTK/process_docking_weight1_custom_product_contain_oxygen_bond_distance_aromatic_linkinvent_7_9_3/rearranged_h_0084.sdf

> <i_m_source_file_index>
88

> <r_mmod_Potential_Energy-OPLS-2005>
420.089385986328

> <r_mmod_Stretch_Energy-OPLS-2005>
192.172622680664

> <r_mmod_Bend_Energy-OPLS-2005>
259.154876708984

> <r_mmod_Torsional_Energy-OPLS-2005>
278.431701660156

> <r_mmod_Improper_Torsional_Energy-OPLS-2005>
4.42290496826172

> <r_mmod_Van_der_Waal_Energy-OPLS-2005>
155.554794311523

> <r_mmod_Electrostatic_Energy-OPLS-2005>
-329.612945556641

> <r_mmod_Solvation_Energy-OPLS-2005>
-243.142379760742

> <b_mmod_Minimization_Converged-OPLS-2005>
0

> <r_mmod_RMS_Derivative-OPLS-2005>
1.79268312454224

$$$$
88
                    3D
 Structure written by MMmdl.
152161  0  0  1  0            999 V2000
  -30.7267  -14.5230   20.5726 C   0  0  0  0  0  0
  -30.4064  -12.3431   19.4399 C   0  0  0  0  0  0
  -29.4953  -12.5070   18.2099 C   0  0  0  0  0  0
  -28.0155  -12.3685   18.6149 C   0  0  0  0  0  0
  -27.6472  -13.2248   19.8577 C   0  0  2  0  0  0
  -28.6889  -13.0700   20.9872 C   0  0  0  0  0  0
  -25.2511  -13.8201   20.5651 C   0  0  0  0  0  0
  -24.1807  -13.0444   20.9177 C   0  0  0  0  0  0
  -24.6386  -11.6915   20.8722 C   0  0  0  0  0  0
  -23.9076  -10.4285   21.0392 C   0  0  0  0  0  0
  -24.3635   -9.4195   21.9156 C   0  0  0  0  0  0
  -23.6297   -8.2236   22.0738 C   0  0  0  0  0  0
  -22.4271   -8.0283   21.3541 C   0  0  0  0  0  0
  -21.9904   -9.0257   20.4643 C   0  0  0  0  0  0
  -22.7245  -10.2128   20.3041 C   0  0  0  0  0  0
  -21.6847   -6.0743   22.5288 C   0  0  0  0  0  0
  -21.4024   -6.5641   23.8228 C   0  0  0  0  0  0
  -21.3653   -5.6790   24.9182 C   0  0  0  0  0  0
  -21.6037   -4.3054   24.7225 C   0  0  0  0  0  0
  -21.8824   -3.8144   23.4346 C   0  0  0  0  0  0
  -21.9193   -4.6970   22.3401 C   0  0  0  0  0  0
  -22.7820  -13.5209   21.1853 C   0  0  0  0  0  0
  -22.1659   -4.2157   21.0977 F   0  0  0  0  0  0
  -21.5625   -3.4543   25.7730 F   0  0  0  0  0  0
  -30.0078  -13.3726   20.4187 N   0  0  0  0  0  0
  -26.2950  -12.9398   20.3272 N   0  0  0  0  0  0
  -25.9314  -11.6544   20.5710 N   0  0  0  0  0  0
  -22.0480  -12.8208   22.0421 N   0  0  0  0  0  0
  -25.4197  -15.1926   20.4081 N   0  0  0  0  0  0
  -31.8898  -14.5810   20.1621 O   0  0  0  0  0  0
  -21.6650   -6.8883   21.4245 O   0  0  0  0  0  0
  -22.3479  -14.5483   20.6663 O   0  0  0  0  0  0
  -24.6156  -31.8679   23.2082 C   0  0  0  0  0  0
  -25.9049  -32.4820   23.8379 C   0  0  1  0  0  0
  -27.2147  -27.4074   20.1101 C   0  0  0  0  0  0
  -25.5894  -33.8616   24.2305 N   0  0  0  0  0  0
  -23.4050  -30.4924   21.5503 C   0  0  2  0  0  0
  -24.8529  -28.9644   20.1053 C   0  0  0  0  0  0
  -22.7421  -29.4646   22.4967 C   0  0  0  0  0  0
  -18.0280  -28.1376   22.8495 C   0  0  0  0  0  0
  -24.1492  -36.7306   23.2629 C   0  0  0  0  0  0
  -25.9370  -30.8291   21.3670 C   0  0  0  0  0  0
  -26.0163  -29.4647   20.7064 C   0  0  0  0  0  0
  -27.2076  -28.6948   20.7044 C   0  0  0  0  0  0
  -26.0422  -26.9369   19.4878 C   0  0  0  0  0  0
  -24.8629  -27.7035   19.4859 C   0  0  0  0  0  0
  -23.6126  -29.8308   20.1633 C   0  0  0  0  0  0
  -25.4105  -36.3102   24.0329 C   0  0  1  0  0  0
  -20.5872  -28.3651   23.1326 C   0  0  2  0  0  0
  -20.6764  -26.9386   22.5423 C   0  0  0  0  0  0
  -19.5738  -26.6373   21.5223 C   0  0  0  0  0  0
  -18.1920  -26.7909   22.1633 C   0  0  0  0  0  0
  -19.1532  -28.8831   23.2910 C   0  0  0  0  0  0
  -18.9446  -30.1434   23.8915 C   0  0  0  0  0  0
  -17.6447  -30.6560   24.0565 C   0  0  0  0  0  0
  -25.9041  -34.9475   23.5120 C   0  0  0  0  0  0
  -16.5350  -29.9056   23.6320 C   0  0  0  0  0  0
  -16.7268  -28.6483   23.0340 C   0  0  0  0  0  0
  -26.4447  -31.6595   25.0720 C   0  0  0  0  0  0
  -25.3690  -31.3789   26.1463 C   0  0  0  0  0  0
  -27.0224  -30.2997   24.6135 C   0  0  0  0  0  0
  -27.6033  -32.4299   25.7471 C   0  0  0  0  0  0
  -27.5595  -37.1805   24.8439 C   0  0  0  0  0  0
  -21.4142  -29.3016   22.3725 N   0  0  0  0  0  0
  -26.4288  -37.3791   23.9407 N   0  0  0  0  0  0
  -24.6709  -31.0769   22.0997 N   0  0  0  0  0  0
  -23.4209  -28.8182   23.2995 O   0  0  0  0  0  0
  -28.2915  -26.5467   20.1834 O   0  0  0  0  0  0
  -26.5604  -34.8930   22.4687 O   0  0  0  0  0  0
  -23.5341  -32.1437   23.7466 O   0  0  0  0  0  0
  -30.7340  -19.2429   20.6392 C   0  0  0  0  0  0
  -28.6318  -18.4188   21.4838 C   0  0  0  0  0  0
  -30.1943  -20.5436   20.5271 C   0  0  0  0  0  0
  -28.1088  -19.7404   21.3905 C   0  0  0  0  0  0
  -29.9724  -18.1506   21.1193 C   0  0  0  0  0  0
  -28.8696  -20.8554   20.9220 C   0  0  0  0  0  0
  -28.2965  -24.2034   20.9668 C   0  0  0  0  0  0
  -28.0885  -23.1309   21.9090 C   0  0  0  0  0  0
  -28.1213  -25.5427   21.1248 C   0  0  0  0  0  0
  -30.6736  -16.8135   21.3254 C   0  0  0  0  0  0
  -28.7463  -23.2141   19.9076 C   0  0  0  0  0  0
  -28.3362  -22.1932   20.9037 N   0  0  0  0  0  0
  -30.0676  -15.6397   20.9935 N   0  0  0  0  0  0
  -27.9200  -23.1308   23.1126 O   0  0  0  0  0  0
  -31.8348  -16.8680   21.7542 O   0  0  0  0  0  0
  -31.4534  -12.4195   19.1419 H   0  0  0  0  0  0
  -30.2991  -11.3466   19.8717 H   0  0  0  0  0  0
  -29.7467  -11.7646   17.4511 H   0  0  0  0  0  0
  -29.6674  -13.4829   17.7538 H   0  0  0  0  0  0
  -27.8269  -11.3148   18.8196 H   0  0  0  0  0  0
  -27.3713  -12.6312   17.7734 H   0  0  0  0  0  0
  -27.6685  -14.2649   19.5309 H   0  0  0  0  0  0
  -28.6754  -12.0520   21.3776 H   0  0  0  0  0  0
  -28.4479  -13.7175   21.8315 H   0  0  0  0  0  0
  -25.2799   -9.5666   22.4709 H   0  0  0  0  0  0
  -24.0030   -7.4620   22.7445 H   0  0  0  0  0  0
  -21.0836   -8.8768   19.8944 H   0  0  0  0  0  0
  -22.3713  -10.9660   19.6148 H   0  0  0  0  0  0
  -21.2033   -7.6159   23.9731 H   0  0  0  0  0  0
  -21.1460   -6.0521   25.9079 H   0  0  0  0  0  0
  -22.0606   -2.7616   23.2854 H   0  0  0  0  0  0
  -22.4108  -11.9911   22.4883 H   0  0  0  0  0  0
  -21.1081  -13.1200   22.2574 H   0  0  0  0  0  0
  -24.6459  -15.8417   20.5064 H   0  0  0  0  0  0
  -26.2595  -15.6373   20.0615 H   0  0  0  0  0  0
  -26.7126  -32.5532   23.1157 H   0  0  0  0  0  0
  -25.0021  -33.9776   25.0436 H   0  0  0  0  0  0
  -22.6921  -31.3087   21.4177 H   0  0  0  0  0  0
  -23.3739  -35.9657   23.3300 H   0  0  0  0  0  0
  -24.3588  -36.8888   22.2036 H   0  0  0  0  0  0
  -23.7277  -37.6530   23.6627 H   0  0  0  0  0  0
  -26.0575  -31.6014   20.6052 H   0  0  0  0  0  0
  -26.8214  -30.8737   21.9912 H   0  0  0  0  0  0
  -28.0980  -29.0643   21.1921 H   0  0  0  0  0  0
  -26.0343  -25.9558   19.0326 H   0  0  0  0  0  0
  -23.9667  -27.3143   19.0216 H   0  0  0  0  0  0
  -23.7112  -30.6103   19.4068 H   0  0  0  0  0  0
  -22.7360  -29.2486   19.8714 H   0  0  0  0  0  0
  -25.1276  -36.1958   25.0819 H   0  0  0  0  0  0
  -20.9974  -28.3225   24.1445 H   0  0  0  0  0  0
  -20.5646  -26.2250   23.3612 H   0  0  0  0  0  0
  -21.6638  -26.7410   22.1237 H   0  0  0  0  0  0
  -19.6890  -25.6282   21.1236 H   0  0  0  0  0  0
  -19.6675  -27.3203   20.6772 H   0  0  0  0  0  0
  -17.4188  -26.6651   21.4036 H   0  0  0  0  0  0
  -18.0318  -26.0056   22.9028 H   0  0  0  0  0  0
  -19.7927  -30.7258   24.2276 H   0  0  0  0  0  0
  -17.4994  -31.6240   24.5159 H   0  0  0  0  0  0
  -15.5348  -30.2972   23.7604 H   0  0  0  0  0  0
  -15.8673  -28.0808   22.7032 H   0  0  0  0  0  0
  -24.5818  -30.7187   25.7810 H   0  0  0  0  0  0
  -24.8966  -32.3000   26.4874 H   0  0  0  0  0  0
  -25.7982  -30.8957   27.0249 H   0  0  0  0  0  0
  -26.2784  -29.6844   24.1060 H   0  0  0  0  0  0
  -27.3790  -29.7150   25.4625 H   0  0  0  0  0  0
  -27.8716  -30.4244   23.9417 H   0  0  0  0  0  0
  -27.2646  -33.3579   26.2084 H   0  0  0  0  0  0
  -28.3815  -32.6879   25.0279 H   0  0  0  0  0  0
  -28.0727  -31.8409   26.5358 H   0  0  0  0  0  0
  -28.2595  -38.0119   24.7517 H   0  0  0  0  0  0
  -28.1116  -36.2666   24.6216 H   0  0  0  0  0  0
  -27.2324  -37.1384   25.8840 H   0  0  0  0  0  0
  -20.9285  -29.8760   21.6976 H   0  0  0  0  0  0
  -26.0174  -38.2860   24.1430 H   0  0  0  0  0  0
  -31.7724  -19.0926   20.3736 H   0  0  0  0  0  0
  -28.0082  -17.6296   21.8818 H   0  0  0  0  0  0
  -30.8524  -21.3245   20.1714 H   0  0  0  0  0  0
  -27.0867  -19.8972   21.7141 H   0  0  0  0  0  0
  -27.7741  -25.9430   22.0693 H   0  0  0  0  0  0
  -29.8119  -23.2165   19.6757 H   0  0  0  0  0  0
  -28.1566  -23.1550   18.9916 H   0  0  0  0  0  0
  -29.0623  -15.6301   20.9578 H   0  0  0  0  0  0
  1 25  1  0  0  0
  1 30  2  0  0  0
  1 83  1  0  0  0
  2  3  1  0  0  0
  2 25  1  0  0  0
  2 86  1  0  0  0
  2 87  1  0  0  0
  3  4  1  0  0  0
  3 88  1  0  0  0
  3 89  1  0  0  0
  4  5  1  0  0  0
  4 90  1  0  0  0
  4 91  1  0  0  0
  5  6  1  0  0  0
  5 26  1  0  0  0
  5 92  1  0  0  0
  6 25  1  0  0  0
  6 93  1  0  0  0
  6 94  1  0  0  0
  7  8  2  0  0  0
  7 26  1  0  0  0
  7 29  1  0  0  0
  8  9  1  0  0  0
  8 22  1  0  0  0
  9 10  1  0  0  0
  9 27  2  0  0  0
 10 11  2  0  0  0
 10 15  1  0  0  0
 11 12  1  0  0  0
 11 95  1  0  0  0
 12 13  2  0  0  0
 12 96  1  0  0  0
 13 14  1  0  0  0
 13 31  1  0  0  0
 14 15  2  0  0  0
 14 97  1  0  0  0
 15 98  1  0  0  0
 16 17  2  0  0  0
 16 21  1  0  0  0
 16 31  1  0  0  0
 17 18  1  0  0  0
 17 99  1  0  0  0
 18 19  2  0  0  0
 18100  1  0  0  0
 19 20  1  0  0  0
 19 24  1  0  0  0
 20 21  2  0  0  0
 20101  1  0  0  0
 21 23  1  0  0  0
 22 28  1  0  0  0
 22 32  2  0  0  0
 26 27  1  0  0  0
 28102  1  0  0  0
 28103  1  0  0  0
 29104  1  0  0  0
 29105  1  0  0  0
 33 34  1  0  0  0
 33 66  1  0  0  0
 33 70  2  0  0  0
 34 36  1  0  0  0
 34 59  1  0  0  0
 34106  1  0  0  0
 35 44  2  0  0  0
 35 45  1  0  0  0
 35 68  1  0  0  0
 36 56  1  0  0  0
 36107  1  0  0  0
 37 39  1  0  0  0
 37 47  1  0  0  0
 37 66  1  0  0  0
 37108  1  0  0  0
 38 43  2  0  0  0
 38 46  1  0  0  0
 38 47  1  0  0  0
 39 64  1  0  0  0
 39 67  2  0  0  0
 40 52  1  0  0  0
 40 53  2  0  0  0
 40 58  1  0  0  0
 41109  1  0  0  0
 41110  1  0  0  0
 41111  1  0  0  0
 41 48  1  0  0  0
 42 43  1  0  0  0
 42 66  1  0  0  0
 42112  1  0  0  0
 42113  1  0  0  0
 43 44  1  0  0  0
 44114  1  0  0  0
 45 46  2  0  0  0
 45115  1  0  0  0
 46116  1  0  0  0
 47117  1  0  0  0
 47118  1  0  0  0
 48 56  1  0  0  0
 48 65  1  0  0  0
 48119  1  0  0  0
 49 50  1  0  0  0
 49 53  1  0  0  0
 49 64  1  0  0  0
 49120  1  0  0  0
 50 51  1  0  0  0
 50121  1  0  0  0
 50122  1  0  0  0
 51 52  1  0  0  0
 51123  1  0  0  0
 51124  1  0  0  0
 52125  1  0  0  0
 52126  1  0  0  0
 53 54  1  0  0  0
 54 55  2  0  0  0
 54127  1  0  0  0
 55 57  1  0  0  0
 55128  1  0  0  0
 56 69  2  0  0  0
 57 58  2  0  0  0
 57129  1  0  0  0
 58130  1  0  0  0
 59 60  1  0  0  0
 59 61  1  0  0  0
 59 62  1  0  0  0
 60131  1  0  0  0
 60132  1  0  0  0
 60133  1  0  0  0
 61134  1  0  0  0
 61135  1  0  0  0
 61136  1  0  0  0
 62137  1  0  0  0
 62138  1  0  0  0
 62139  1  0  0  0
 63 65  1  0  0  0
 63140  1  0  0  0
 63141  1  0  0  0
 63142  1  0  0  0
 64143  1  0  0  0
 65144  1  0  0  0
 68 79  1  0  0  0
 71 73  2  0  0  0
 71 75  1  0  0  0
 71145  1  0  0  0
 72 74  1  0  0  0
 72 75  2  0  0  0
 72146  1  0  0  0
 73 76  1  0  0  0
 73147  1  0  0  0
 74 76  2  0  0  0
 74148  1  0  0  0
 75 80  1  0  0  0
 76 82  1  0  0  0
 77 78  1  0  0  0
 77 79  2  0  0  0
 77 81  1  0  0  0
 78 82  1  0  0  0
 78 84  2  0  0  0
 79149  1  0  0  0
 80 83  1  0  0  0
 80 85  2  0  0  0
 81 82  1  0  0  0
 81150  1  0  0  0
 81151  1  0  0  0
 83152  1  0  0  0
M  ISO  4   1 100  68 101  79 101  83 100
M  END
> <chiral flag>
0

> <version>
0

> <s_m_source_file>
/data/baiqing/PycharmProjects/Reinvent-master-3.2/result/LINK_invent/BTK/process_docking_weight1_custom_product_contain_oxygen_bond_distance_aromatic_linkinvent_7_9_3/rearranged_h_0084.sdf

> <i_m_source_file_index>
89

> <r_mmod_Potential_Energy-OPLS-2005>
25.484058380127

> <r_mmod_Stretch_Energy-OPLS-2005>
46.7641220092773

> <r_mmod_Bend_Energy-OPLS-2005>
176.550384521484

> <r_mmod_Torsional_Energy-OPLS-2005>
276.563537597656

> <r_mmod_Improper_Torsional_Energy-OPLS-2005>
9.78150081634521

> <r_mmod_Van_der_Waal_Energy-OPLS-2005>
150.650924682617

> <r_mmod_Electrostatic_Energy-OPLS-2005>
-428.702209472656

> <r_mmod_Solvation_Energy-OPLS-2005>
-235.030349731445

> <b_mmod_Minimization_Converged-OPLS-2005>
0

> <r_mmod_RMS_Derivative-OPLS-2005>
3.41181397438049

$$$$
89
                    3D
 Structure written by MMmdl.
153162  0  0  1  0            999 V2000
  -30.6253  -14.8260   20.4331 C   0  0  0  0  0  0
  -30.4272  -12.5058   19.4915 C   0  0  0  0  0  0
  -29.5142  -12.5156   18.2472 C   0  0  0  0  0  0
  -28.0444  -12.3241   18.6624 C   0  0  0  0  0  0
  -27.6354  -13.2454   19.8432 C   0  0  2  0  0  0
  -28.6808  -13.2421   20.9810 C   0  0  0  0  0  0
  -25.2480  -13.8220   20.5706 C   0  0  0  0  0  0
  -24.1785  -13.0444   20.9206 C   0  0  0  0  0  0
  -24.6396  -11.6926   20.8739 C   0  0  0  0  0  0
  -23.9077  -10.4293   21.0394 C   0  0  0  0  0  0
  -24.3625   -9.4211   21.9177 C   0  0  0  0  0  0
  -23.6293   -8.2251   22.0751 C   0  0  0  0  0  0
  -22.4275   -8.0286   21.3542 C   0  0  0  0  0  0
  -21.9911   -9.0257   20.4644 C   0  0  0  0  0  0
  -22.7244  -10.2133   20.3047 C   0  0  0  0  0  0
  -21.6856   -6.0731   22.5278 C   0  0  0  0  0  0
  -21.4020   -6.5636   23.8209 C   0  0  0  0  0  0
  -21.3660   -5.6792   24.9170 C   0  0  0  0  0  0
  -21.6045   -4.3052   24.7225 C   0  0  0  0  0  0
  -21.8819   -3.8140   23.4346 C   0  0  0  0  0  0
  -21.9193   -4.6958   22.3399 C   0  0  0  0  0  0
  -22.7803  -13.5215   21.1860 C   0  0  0  0  0  0
  -22.1662   -4.2140   21.0974 F   0  0  0  0  0  0
  -21.5626   -3.4535   25.7741 F   0  0  0  0  0  0
  -29.9734  -13.6038   20.3864 N   0  0  0  0  0  0
  -26.2917  -12.9449   20.3269 N   0  0  0  0  0  0
  -25.9336  -11.6581   20.5744 N   0  0  0  0  0  0
  -22.0448  -12.8206   22.0415 N   0  0  0  0  0  0
  -25.4149  -15.1951   20.4150 N   0  0  0  0  0  0
  -31.8252  -14.8300   20.1517 O   0  0  0  0  0  0
  -21.6641   -6.8879   21.4238 O   0  0  0  0  0  0
  -22.3479  -14.5512   20.6698 O   0  0  0  0  0  0
  -24.6381  -31.8499   23.1955 C   0  0  0  0  0  0
  -25.9187  -32.4722   23.8313 C   0  0  1  0  0  0
  -27.2188  -27.2125   20.1379 C   0  0  0  0  0  0
  -25.5969  -33.8525   24.2253 N   0  0  0  0  0  0
  -23.4385  -30.4721   21.5386 C   0  0  2  0  0  0
  -24.8912  -28.9172   20.1052 C   0  0  0  0  0  0
  -22.7539  -29.4572   22.4875 C   0  0  0  0  0  0
  -18.0305  -28.1386   22.8470 C   0  0  0  0  0  0
  -24.1490  -36.7260   23.2631 C   0  0  0  0  0  0
  -25.9892  -30.7476   21.3847 C   0  0  0  0  0  0
  -26.0650  -29.3659   20.7269 C   0  0  0  0  0  0
  -27.2339  -28.5250   20.7373 C   0  0  0  0  0  0
  -26.0297  -26.8581   19.4647 C   0  0  0  0  0  0
  -24.8812  -27.6723   19.4608 C   0  0  0  0  0  0
  -23.6618  -29.8072   20.1551 C   0  0  0  0  0  0
  -25.4116  -36.3049   24.0323 C   0  0  1  0  0  0
  -20.5908  -28.3709   23.1237 C   0  0  2  0  0  0
  -20.6793  -26.9418   22.5396 C   0  0  0  0  0  0
  -19.5772  -26.6383   21.5193 C   0  0  0  0  0  0
  -18.1951  -26.7928   22.1608 C   0  0  0  0  0  0
  -19.1559  -28.8866   23.2847 C   0  0  0  0  0  0
  -18.9479  -30.1461   23.8875 C   0  0  0  0  0  0
  -17.6476  -30.6583   24.0556 C   0  0  0  0  0  0
  -25.9064  -34.9419   23.5092 C   0  0  0  0  0  0
  -16.5368  -29.9073   23.6330 C   0  0  0  0  0  0
  -16.7289  -28.6491   23.0350 C   0  0  0  0  0  0
  -26.4547  -31.6542   25.0704 C   0  0  0  0  0  0
  -25.3770  -31.3715   26.1426 C   0  0  0  0  0  0
  -27.0375  -30.2939   24.6212 C   0  0  0  0  0  0
  -27.6110  -32.4263   25.7483 C   0  0  0  0  0  0
  -27.5576  -37.1793   24.8466 C   0  0  0  0  0  0
  -21.4240  -29.3044   22.3614 N   0  0  0  0  0  0
  -26.4289  -37.3754   23.9401 N   0  0  0  0  0  0
  -24.7077  -31.0414   22.0959 N   0  0  0  0  0  0
  -23.4210  -28.8117   23.3001 O   0  0  0  0  0  0
  -28.2225  -26.1997   20.2202 O   0  0  0  0  0  0
  -26.5614  -34.8902   22.4646 O   0  0  0  0  0  0
  -23.5513  -32.1345   23.7206 O   0  0  0  0  0  0
  -32.0476  -19.1441   19.8733 C   0  0  0  0  0  0
  -31.1717  -20.2352   20.0182 C   0  0  0  0  0  0
  -31.6283  -17.8149   20.0645 C   0  0  0  0  0  0
  -29.8119  -20.0650   20.3673 C   0  0  0  0  0  0
  -30.2958  -17.4854   20.4133 C   0  0  0  0  0  0
  -29.4035  -18.6520   20.5621 C   0  0  0  0  0  0
  -28.1056  -23.5639   20.7693 C   0  0  0  0  0  0
  -29.1795  -22.6737   20.2071 C   0  0  0  0  0  0
  -27.7760  -24.9369   20.7524 C   0  0  0  0  0  0
  -27.1883  -22.6313   21.5234 C   0  0  0  0  0  0
  -27.6924  -21.2058   21.2537 C   0  0  0  0  0  0
  -28.9675  -21.3173   20.5526 N   0  0  0  0  0  0
  -29.9067  -16.0279   20.5923 N   0  0  0  0  0  0
  -30.1197  -23.0776   19.5163 O   0  0  0  0  0  0
  -28.1185  -18.3887   20.8991 F   0  0  0  0  0  0
  -31.4689  -12.6168   19.1862 H   0  0  0  0  0  0
  -30.3725  -11.5451   20.0066 H   0  0  0  0  0  0
  -29.8141  -11.7338   17.5484 H   0  0  0  0  0  0
  -29.6276  -13.4627   17.7166 H   0  0  0  0  0  0
  -27.9219  -11.2793   18.9511 H   0  0  0  0  0  0
  -27.3854  -12.4827   17.8082 H   0  0  0  0  0  0
  -27.6103  -14.2546   19.4320 H   0  0  0  0  0  0
  -28.7358  -12.2633   21.4599 H   0  0  0  0  0  0
  -28.4040  -13.9530   21.7610 H   0  0  0  0  0  0
  -25.2766   -9.5687   22.4753 H   0  0  0  0  0  0
  -23.9999   -7.4645   22.7478 H   0  0  0  0  0  0
  -21.0837   -8.8775   19.8953 H   0  0  0  0  0  0
  -22.3699  -10.9669   19.6155 H   0  0  0  0  0  0
  -21.2016   -7.6149   23.9712 H   0  0  0  0  0  0
  -21.1482   -6.0519   25.9074 H   0  0  0  0  0  0
  -22.0599   -2.7602   23.2851 H   0  0  0  0  0  0
  -22.4066  -11.9877   22.4820 H   0  0  0  0  0  0
  -21.1055  -13.1216   22.2591 H   0  0  0  0  0  0
  -24.6481  -15.8477   20.5340 H   0  0  0  0  0  0
  -26.2658  -15.6439   20.1013 H   0  0  0  0  0  0
  -26.7240  -32.5372   23.1038 H   0  0  0  0  0  0
  -25.0165  -33.9654   25.0433 H   0  0  0  0  0  0
  -22.7376  -31.2962   21.3897 H   0  0  0  0  0  0
  -23.3753  -35.9592   23.3308 H   0  0  0  0  0  0
  -24.3580  -36.8858   22.2042 H   0  0  0  0  0  0
  -23.7246  -37.6469   23.6640 H   0  0  0  0  0  0
  -26.1320  -31.5057   20.6132 H   0  0  0  0  0  0
  -26.8649  -30.8000   22.0196 H   0  0  0  0  0  0
  -28.1239  -28.8533   21.2556 H   0  0  0  0  0  0
  -25.9692  -25.8977   18.9730 H   0  0  0  0  0  0
  -23.9861  -27.3236   18.9647 H   0  0  0  0  0  0
  -23.7883  -30.5846   19.4008 H   0  0  0  0  0  0
  -22.7797  -29.2428   19.8470 H   0  0  0  0  0  0
  -25.1294  -36.1901   25.0816 H   0  0  0  0  0  0
  -21.0000  -28.3300   24.1359 H   0  0  0  0  0  0
  -20.5680  -26.2319   23.3606 H   0  0  0  0  0  0
  -21.6666  -26.7426   22.1203 H   0  0  0  0  0  0
  -19.6942  -25.6291   21.1228 H   0  0  0  0  0  0
  -19.6711  -27.3188   20.6716 H   0  0  0  0  0  0
  -17.4221  -26.6662   21.4014 H   0  0  0  0  0  0
  -18.0358  -26.0066   22.8998 H   0  0  0  0  0  0
  -19.7957  -30.7281   24.2235 H   0  0  0  0  0  0
  -17.5031  -31.6262   24.5153 H   0  0  0  0  0  0
  -15.5369  -30.2971   23.7666 H   0  0  0  0  0  0
  -15.8686  -28.0803   22.7081 H   0  0  0  0  0  0
  -24.5968  -30.7022   25.7785 H   0  0  0  0  0  0
  -24.8941  -32.2886   26.4803 H   0  0  0  0  0  0
  -25.8098  -30.8951   27.0229 H   0  0  0  0  0  0
  -26.2952  -29.6686   24.1233 H   0  0  0  0  0  0
  -27.4031  -29.7203   25.4742 H   0  0  0  0  0  0
  -27.8854  -30.4184   23.9473 H   0  0  0  0  0  0
  -27.2749  -33.3591   26.2026 H   0  0  0  0  0  0
  -28.3960  -32.6756   25.0329 H   0  0  0  0  0  0
  -28.0728  -31.8384   26.5430 H   0  0  0  0  0  0
  -28.2607  -38.0076   24.7486 H   0  0  0  0  0  0
  -28.1059  -36.2607   24.6322 H   0  0  0  0  0  0
  -27.2291  -37.1476   25.8869 H   0  0  0  0  0  0
  -20.9435  -29.8750   21.6796 H   0  0  0  0  0  0
  -26.0170  -38.2831   24.1384 H   0  0  0  0  0  0
  -33.0804  -19.3326   19.6128 H   0  0  0  0  0  0
  -31.5936  -21.2175   19.8747 H   0  0  0  0  0  0
  -32.3852  -17.0616   19.9287 H   0  0  0  0  0  0
  -26.8855  -25.1468   21.3303 H   0  0  0  0  0  0
  -26.1540  -22.7549   21.1987 H   0  0  0  0  0  0
  -27.2358  -22.8585   22.5895 H   0  0  0  0  0  0
  -26.9834  -20.6660   20.6243 H   0  0  0  0  0  0
  -27.8084  -20.6475   22.1832 H   0  0  0  0  0  0
  -28.9316  -15.8920   20.8124 H   0  0  0  0  0  0
  1 25  1  0  0  0
  1 30  2  0  0  0
  1 83  1  0  0  0
  2  3  1  0  0  0
  2 25  1  0  0  0
  2 86  1  0  0  0
  2 87  1  0  0  0
  3  4  1  0  0  0
  3 88  1  0  0  0
  3 89  1  0  0  0
  4  5  1  0  0  0
  4 90  1  0  0  0
  4 91  1  0  0  0
  5  6  1  0  0  0
  5 26  1  0  0  0
  5 92  1  0  0  0
  6 25  1  0  0  0
  6 93  1  0  0  0
  6 94  1  0  0  0
  7  8  2  0  0  0
  7 26  1  0  0  0
  7 29  1  0  0  0
  8  9  1  0  0  0
  8 22  1  0  0  0
  9 10  1  0  0  0
  9 27  2  0  0  0
 10 11  2  0  0  0
 10 15  1  0  0  0
 11 12  1  0  0  0
 11 95  1  0  0  0
 12 13  2  0  0  0
 12 96  1  0  0  0
 13 14  1  0  0  0
 13 31  1  0  0  0
 14 15  2  0  0  0
 14 97  1  0  0  0
 15 98  1  0  0  0
 16 17  2  0  0  0
 16 21  1  0  0  0
 16 31  1  0  0  0
 17 18  1  0  0  0
 17 99  1  0  0  0
 18 19  2  0  0  0
 18100  1  0  0  0
 19 20  1  0  0  0
 19 24  1  0  0  0
 20 21  2  0  0  0
 20101  1  0  0  0
 21 23  1  0  0  0
 22 28  1  0  0  0
 22 32  2  0  0  0
 26 27  1  0  0  0
 28102  1  0  0  0
 28103  1  0  0  0
 29104  1  0  0  0
 29105  1  0  0  0
 33 34  1  0  0  0
 33 66  1  0  0  0
 33 70  2  0  0  0
 34 36  1  0  0  0
 34 59  1  0  0  0
 34106  1  0  0  0
 35 44  2  0  0  0
 35 45  1  0  0  0
 35 68  1  0  0  0
 36 56  1  0  0  0
 36107  1  0  0  0
 37 39  1  0  0  0
 37 47  1  0  0  0
 37 66  1  0  0  0
 37108  1  0  0  0
 38 43  2  0  0  0
 38 46  1  0  0  0
 38 47  1  0  0  0
 39 64  1  0  0  0
 39 67  2  0  0  0
 40 52  1  0  0  0
 40 53  2  0  0  0
 40 58  1  0  0  0
 41109  1  0  0  0
 41110  1  0  0  0
 41111  1  0  0  0
 41 48  1  0  0  0
 42 43  1  0  0  0
 42 66  1  0  0  0
 42112  1  0  0  0
 42113  1  0  0  0
 43 44  1  0  0  0
 44114  1  0  0  0
 45 46  2  0  0  0
 45115  1  0  0  0
 46116  1  0  0  0
 47117  1  0  0  0
 47118  1  0  0  0
 48 56  1  0  0  0
 48 65  1  0  0  0
 48119  1  0  0  0
 49 50  1  0  0  0
 49 53  1  0  0  0
 49 64  1  0  0  0
 49120  1  0  0  0
 50 51  1  0  0  0
 50121  1  0  0  0
 50122  1  0  0  0
 51 52  1  0  0  0
 51123  1  0  0  0
 51124  1  0  0  0
 52125  1  0  0  0
 52126  1  0  0  0
 53 54  1  0  0  0
 54 55  2  0  0  0
 54127  1  0  0  0
 55 57  1  0  0  0
 55128  1  0  0  0
 56 69  2  0  0  0
 57 58  2  0  0  0
 57129  1  0  0  0
 58130  1  0  0  0
 59 60  1  0  0  0
 59 61  1  0  0  0
 59 62  1  0  0  0
 60131  1  0  0  0
 60132  1  0  0  0
 60133  1  0  0  0
 61134  1  0  0  0
 61135  1  0  0  0
 61136  1  0  0  0
 62137  1  0  0  0
 62138  1  0  0  0
 62139  1  0  0  0
 63 65  1  0  0  0
 63140  1  0  0  0
 63141  1  0  0  0
 63142  1  0  0  0
 64143  1  0  0  0
 65144  1  0  0  0
 68 79  1  0  0  0
 71 72  2  0  0  0
 71 73  1  0  0  0
 71145  1  0  0  0
 72 74  1  0  0  0
 72146  1  0  0  0
 73 75  2  0  0  0
 73147  1  0  0  0
 74 76  2  0  0  0
 74 82  1  0  0  0
 75 76  1  0  0  0
 75 83  1  0  0  0
 76 85  1  0  0  0
 77 78  1  0  0  0
 77 79  2  0  0  0
 77 80  1  0  0  0
 78 82  1  0  0  0
 78 84  2  0  0  0
 79148  1  0  0  0
 80 81  1  0  0  0
 80149  1  0  0  0
 80150  1  0  0  0
 81 82  1  0  0  0
 81151  1  0  0  0
 81152  1  0  0  0
 83153  1  0  0  0
M  ISO  4   1 100  68 101  79 101  83 100
M  END
> <chiral flag>
0

> <version>
0

> <s_m_source_file>
/data/baiqing/PycharmProjects/Reinvent-master-3.2/result/LINK_invent/BTK/process_docking_weight1_custom_product_contain_oxygen_bond_distance_aromatic_linkinvent_7_9_3/rearranged_h_0084.sdf

> <i_m_source_file_index>
90

> <r_mmod_Potential_Energy-OPLS-2005>
413.037658691406

> <r_mmod_Stretch_Energy-OPLS-2005>
173.132263183594

> <r_mmod_Bend_Energy-OPLS-2005>
268.947967529297

> <r_mmod_Torsional_Energy-OPLS-2005>
258.597137451172

> <r_mmod_Improper_Torsional_Energy-OPLS-2005>
4.46314859390259

> <r_mmod_Van_der_Waal_Energy-OPLS-2005>
147.602508544922

> <r_mmod_Electrostatic_Energy-OPLS-2005>
-365.751892089844

> <r_mmod_Solvation_Energy-OPLS-2005>
-207.254547119141

> <b_mmod_Minimization_Converged-OPLS-2005>
0

> <r_mmod_RMS_Derivative-OPLS-2005>
1.27008092403412

$$$$
90
                    3D
 Structure written by MMmdl.
153162  0  0  1  0            999 V2000
  -30.5999  -14.7239   20.5670 C   0  0  0  0  0  0
  -30.4534  -12.4693   19.4646 C   0  0  0  0  0  0
  -29.5184  -12.5481   18.2326 C   0  0  0  0  0  0
  -28.0388  -12.3623   18.6300 C   0  0  0  0  0  0
  -27.6543  -13.2151   19.8658 C   0  0  2  0  0  0
  -28.6938  -13.0247   20.9858 C   0  0  0  0  0  0
  -25.2563  -13.8153   20.5668 C   0  0  0  0  0  0
  -24.1826  -13.0423   20.9165 C   0  0  0  0  0  0
  -24.6392  -11.6894   20.8713 C   0  0  0  0  0  0
  -23.9061  -10.4284   21.0395 C   0  0  0  0  0  0
  -24.3614   -9.4205   21.9178 C   0  0  0  0  0  0
  -23.6289   -8.2242   22.0753 C   0  0  0  0  0  0
  -22.4271   -8.0279   21.3544 C   0  0  0  0  0  0
  -21.9903   -9.0250   20.4646 C   0  0  0  0  0  0
  -22.7231  -10.2127   20.3049 C   0  0  0  0  0  0
  -21.6852   -6.0734   22.5280 C   0  0  0  0  0  0
  -21.4014   -6.5639   23.8214 C   0  0  0  0  0  0
  -21.3659   -5.6792   24.9176 C   0  0  0  0  0  0
  -21.6045   -4.3055   24.7227 C   0  0  0  0  0  0
  -21.8819   -3.8146   23.4348 C   0  0  0  0  0  0
  -21.9193   -4.6962   22.3404 C   0  0  0  0  0  0
  -22.7852  -13.5224   21.1848 C   0  0  0  0  0  0
  -22.1662   -4.2149   21.0981 F   0  0  0  0  0  0
  -21.5629   -3.4538   25.7739 F   0  0  0  0  0  0
  -30.0022  -13.4722   20.4646 N   0  0  0  0  0  0
  -26.2985  -12.9326   20.3287 N   0  0  0  0  0  0
  -25.9315  -11.6480   20.5700 N   0  0  0  0  0  0
  -22.0498  -12.8219   22.0410 N   0  0  0  0  0  0
  -25.4282  -15.1875   20.4109 N   0  0  0  0  0  0
  -31.6995  -14.9196   20.0340 O   0  0  0  0  0  0
  -21.6637   -6.8876   21.4242 O   0  0  0  0  0  0
  -22.3537  -14.5534   20.6704 O   0  0  0  0  0  0
  -24.6300  -31.8560   23.1985 C   0  0  0  0  0  0
  -25.9128  -32.4760   23.8333 C   0  0  1  0  0  0
  -27.2303  -27.2834   20.1279 C   0  0  0  0  0  0
  -25.5926  -33.8562   24.2260 N   0  0  0  0  0  0
  -23.4276  -30.4766   21.5417 C   0  0  2  0  0  0
  -24.8786  -28.9213   20.1153 C   0  0  0  0  0  0
  -22.7501  -29.4601   22.4922 C   0  0  0  0  0  0
  -18.0292  -28.1386   22.8483 C   0  0  0  0  0  0
  -24.1489  -36.7286   23.2639 C   0  0  0  0  0  0
  -25.9717  -30.7748   21.3762 C   0  0  0  0  0  0
  -26.0493  -29.3968   20.7223 C   0  0  0  0  0  0
  -27.2319  -28.5899   20.7183 C   0  0  0  0  0  0
  -26.0384  -26.8642   19.5039 C   0  0  0  0  0  0
  -24.8759  -27.6606   19.4966 C   0  0  0  0  0  0
  -23.6473  -29.8063   20.1597 C   0  0  0  0  0  0
  -25.4115  -36.3073   24.0327 C   0  0  1  0  0  0
  -20.5894  -28.3694   23.1273 C   0  0  2  0  0  0
  -20.6779  -26.9412   22.5410 C   0  0  0  0  0  0
  -19.5756  -26.6382   21.5210 C   0  0  0  0  0  0
  -18.1935  -26.7927   22.1623 C   0  0  0  0  0  0
  -19.1545  -28.8858   23.2871 C   0  0  0  0  0  0
  -18.9466  -30.1458   23.8890 C   0  0  0  0  0  0
  -17.6465  -30.6586   24.0561 C   0  0  0  0  0  0
  -25.9055  -34.9443   23.5097 C   0  0  0  0  0  0
  -16.5356  -29.9082   23.6331 C   0  0  0  0  0  0
  -16.7278  -28.6500   23.0351 C   0  0  0  0  0  0
  -26.4501  -31.6580   25.0716 C   0  0  0  0  0  0
  -25.3724  -31.3730   26.1437 C   0  0  0  0  0  0
  -27.0346  -30.2996   24.6195 C   0  0  0  0  0  0
  -27.6056  -32.4320   25.7491 C   0  0  0  0  0  0
  -27.5580  -37.1800   24.8465 C   0  0  0  0  0  0
  -21.4209  -29.3039   22.3663 N   0  0  0  0  0  0
  -26.4294  -37.3769   23.9407 N   0  0  0  0  0  0
  -24.6953  -31.0534   22.0956 N   0  0  0  0  0  0
  -23.4204  -28.8147   23.3024 O   0  0  0  0  0  0
  -28.3095  -26.3785   20.1175 O   0  0  0  0  0  0
  -26.5629  -34.8918   22.4667 O   0  0  0  0  0  0
  -23.5452  -32.1374   23.7286 O   0  0  0  0  0  0
  -29.7226  -18.3772   22.1105 C   0  0  0  0  0  0
  -29.5081  -19.7750   21.9244 C   0  0  0  0  0  0
  -29.8597  -18.0682   19.7720 C   0  0  0  0  0  0
  -29.8774  -17.4328   21.0508 C   0  0  0  0  0  0
  -29.4406  -20.4309   20.6636 C   0  0  0  0  0  0
  -29.6615  -19.4928   19.5935 C   0  0  0  0  0  0
  -28.5779  -23.8737   20.7210 C   0  0  0  0  0  0
  -29.1887  -23.0226   19.6932 C   0  0  0  0  0  0
  -28.1894  -25.1998   20.8957 C   0  0  0  0  0  0
  -29.8886  -15.8974   21.4028 C   0  0  0  0  0  0
  -28.4901  -22.6443   21.6454 C   0  0  0  0  0  0
  -29.3311  -15.6009   22.5029 N   0  0  0  0  0  0
  -29.1723  -21.8970   20.5705 N   0  0  0  0  0  0
  -29.6568  -19.9911   18.2921 N   0  0  0  0  0  0
  -29.5077  -23.2499   18.5444 O   0  0  0  0  0  0
  -31.4876  -12.6304   19.1565 H   0  0  0  0  0  0
  -30.4366  -11.4666   19.8944 H   0  0  0  0  0  0
  -29.8040  -11.7981   17.4938 H   0  0  0  0  0  0
  -29.6437  -13.5170   17.7471 H   0  0  0  0  0  0
  -27.8820  -11.3054   18.8489 H   0  0  0  0  0  0
  -27.3872  -12.5984   17.7879 H   0  0  0  0  0  0
  -27.6834  -14.2596   19.5552 H   0  0  0  0  0  0
  -28.7451  -11.9712   21.2650 H   0  0  0  0  0  0
  -28.3646  -13.5096   21.8972 H   0  0  0  0  0  0
  -25.2760   -9.5685   22.4748 H   0  0  0  0  0  0
  -24.0001   -7.4634   22.7471 H   0  0  0  0  0  0
  -21.0835   -8.8766   19.8952 H   0  0  0  0  0  0
  -22.3690  -10.9665   19.6156 H   0  0  0  0  0  0
  -21.2005   -7.6147   23.9718 H   0  0  0  0  0  0
  -21.1482   -6.0522   25.9079 H   0  0  0  0  0  0
  -22.0599   -2.7608   23.2848 H   0  0  0  0  0  0
  -22.4112  -11.9878   22.4793 H   0  0  0  0  0  0
  -21.1118  -13.1248   22.2621 H   0  0  0  0  0  0
  -24.6685  -15.8474   20.5368 H   0  0  0  0  0  0
  -26.2943  -15.6293   20.1292 H   0  0  0  0  0  0
  -26.7198  -32.5424   23.1082 H   0  0  0  0  0  0
  -25.0066  -33.9697   25.0400 H   0  0  0  0  0  0
  -22.7231  -31.2976   21.3931 H   0  0  0  0  0  0
  -23.3751  -35.9619   23.3303 H   0  0  0  0  0  0
  -24.3578  -36.8906   22.2054 H   0  0  0  0  0  0
  -23.7246  -37.6488   23.6663 H   0  0  0  0  0  0
  -26.1060  -31.5345   20.6050 H   0  0  0  0  0  0
  -26.8506  -30.8271   22.0073 H   0  0  0  0  0  0
  -28.1324  -28.9499   21.1958 H   0  0  0  0  0  0
  -26.0050  -25.8917   19.0333 H   0  0  0  0  0  0
  -23.9790  -27.2895   19.0201 H   0  0  0  0  0  0
  -23.7706  -30.5803   19.4014 H   0  0  0  0  0  0
  -22.7670  -29.2371   19.8559 H   0  0  0  0  0  0
  -25.1297  -36.1922   25.0819 H   0  0  0  0  0  0
  -20.9987  -28.3275   24.1394 H   0  0  0  0  0  0
  -20.5675  -26.2305   23.3614 H   0  0  0  0  0  0
  -21.6648  -26.7435   22.1205 H   0  0  0  0  0  0
  -19.6918  -25.6292   21.1241 H   0  0  0  0  0  0
  -19.6694  -27.3192   20.6740 H   0  0  0  0  0  0
  -17.4203  -26.6671   21.4026 H   0  0  0  0  0  0
  -18.0338  -26.0069   22.9021 H   0  0  0  0  0  0
  -19.7941  -30.7275   24.2257 H   0  0  0  0  0  0
  -17.5016  -31.6265   24.5164 H   0  0  0  0  0  0
  -15.5355  -30.2982   23.7657 H   0  0  0  0  0  0
  -15.8678  -28.0816   22.7070 H   0  0  0  0  0  0
  -24.5908  -30.7068   25.7768 H   0  0  0  0  0  0
  -24.8904  -32.2898   26.4842 H   0  0  0  0  0  0
  -25.8040  -30.8926   27.0225 H   0  0  0  0  0  0
  -26.2928  -29.6744   24.1211 H   0  0  0  0  0  0
  -27.4022  -29.7258   25.4712 H   0  0  0  0  0  0
  -27.8808  -30.4270   23.9439 H   0  0  0  0  0  0
  -27.2663  -33.3624   26.2057 H   0  0  0  0  0  0
  -28.3875  -32.6873   25.0326 H   0  0  0  0  0  0
  -28.0712  -31.8448   26.5417 H   0  0  0  0  0  0
  -28.2603  -38.0093   24.7505 H   0  0  0  0  0  0
  -28.1073  -36.2624   24.6301 H   0  0  0  0  0  0
  -27.2295  -37.1459   25.8868 H   0  0  0  0  0  0
  -20.9400  -29.8753   21.6857 H   0  0  0  0  0  0
  -26.0173  -38.2845   24.1403 H   0  0  0  0  0  0
  -29.7357  -18.0328   23.1348 H   0  0  0  0  0  0
  -29.3833  -20.3636   22.8209 H   0  0  0  0  0  0
  -29.9672  -17.4392   18.8998 H   0  0  0  0  0  0
  -27.7308  -25.4556   21.8407 H   0  0  0  0  0  0
  -27.4951  -22.2438   21.8478 H   0  0  0  0  0  0
  -29.0780  -22.6759   22.5641 H   0  0  0  0  0  0
  -28.9347  -16.4229   22.9399 H   0  0  0  0  0  0
  -29.4692  -19.3686   17.5130 H   0  0  0  0  0  0
  -29.3499  -20.9477   18.1401 H   0  0  0  0  0  0
  1 25  1  0  0  0
  1 30  2  0  0  0
  1 80  1  0  0  0
  2  3  1  0  0  0
  2 25  1  0  0  0
  2 86  1  0  0  0
  2 87  1  0  0  0
  3  4  1  0  0  0
  3 88  1  0  0  0
  3 89  1  0  0  0
  4  5  1  0  0  0
  4 90  1  0  0  0
  4 91  1  0  0  0
  5  6  1  0  0  0
  5 26  1  0  0  0
  5 92  1  0  0  0
  6 25  1  0  0  0
  6 93  1  0  0  0
  6 94  1  0  0  0
  7  8  2  0  0  0
  7 26  1  0  0  0
  7 29  1  0  0  0
  8  9  1  0  0  0
  8 22  1  0  0  0
  9 10  1  0  0  0
  9 27  2  0  0  0
 10 11  2  0  0  0
 10 15  1  0  0  0
 11 12  1  0  0  0
 11 95  1  0  0  0
 12 13  2  0  0  0
 12 96  1  0  0  0
 13 14  1  0  0  0
 13 31  1  0  0  0
 14 15  2  0  0  0
 14 97  1  0  0  0
 15 98  1  0  0  0
 16 17  2  0  0  0
 16 21  1  0  0  0
 16 31  1  0  0  0
 17 18  1  0  0  0
 17 99  1  0  0  0
 18 19  2  0  0  0
 18100  1  0  0  0
 19 20  1  0  0  0
 19 24  1  0  0  0
 20 21  2  0  0  0
 20101  1  0  0  0
 21 23  1  0  0  0
 22 28  1  0  0  0
 22 32  2  0  0  0
 26 27  1  0  0  0
 28102  1  0  0  0
 28103  1  0  0  0
 29104  1  0  0  0
 29105  1  0  0  0
 33 34  1  0  0  0
 33 66  1  0  0  0
 33 70  2  0  0  0
 34 36  1  0  0  0
 34 59  1  0  0  0
 34106  1  0  0  0
 35 44  2  0  0  0
 35 45  1  0  0  0
 35 68  1  0  0  0
 36 56  1  0  0  0
 36107  1  0  0  0
 37 39  1  0  0  0
 37 47  1  0  0  0
 37 66  1  0  0  0
 37108  1  0  0  0
 38 43  2  0  0  0
 38 46  1  0  0  0
 38 47  1  0  0  0
 39 64  1  0  0  0
 39 67  2  0  0  0
 40 52  1  0  0  0
 40 53  2  0  0  0
 40 58  1  0  0  0
 41109  1  0  0  0
 41110  1  0  0  0
 41111  1  0  0  0
 41 48  1  0  0  0
 42 43  1  0  0  0
 42 66  1  0  0  0
 42112  1  0  0  0
 42113  1  0  0  0
 43 44  1  0  0  0
 44114  1  0  0  0
 45 46  2  0  0  0
 45115  1  0  0  0
 46116  1  0  0  0
 47117  1  0  0  0
 47118  1  0  0  0
 48 56  1  0  0  0
 48 65  1  0  0  0
 48119  1  0  0  0
 49 50  1  0  0  0
 49 53  1  0  0  0
 49 64  1  0  0  0
 49120  1  0  0  0
 50 51  1  0  0  0
 50121  1  0  0  0
 50122  1  0  0  0
 51 52  1  0  0  0
 51123  1  0  0  0
 51124  1  0  0  0
 52125  1  0  0  0
 52126  1  0  0  0
 53 54  1  0  0  0
 54 55  2  0  0  0
 54127  1  0  0  0
 55 57  1  0  0  0
 55128  1  0  0  0
 56 69  2  0  0  0
 57 58  2  0  0  0
 57129  1  0  0  0
 58130  1  0  0  0
 59 60  1  0  0  0
 59 61  1  0  0  0
 59 62  1  0  0  0
 60131  1  0  0  0
 60132  1  0  0  0
 60133  1  0  0  0
 61134  1  0  0  0
 61135  1  0  0  0
 61136  1  0  0  0
 62137  1  0  0  0
 62138  1  0  0  0
 62139  1  0  0  0
 63 65  1  0  0  0
 63140  1  0  0  0
 63141  1  0  0  0
 63142  1  0  0  0
 64143  1  0  0  0
 65144  1  0  0  0
 68 79  1  0  0  0
 71 72  2  0  0  0
 71 74  1  0  0  0
 71145  1  0  0  0
 72 75  1  0  0  0
 72146  1  0  0  0
 73 74  2  0  0  0
 73 76  1  0  0  0
 73147  1  0  0  0
 74 80  1  0  0  0
 75 76  2  0  0  0
 75 83  1  0  0  0
 76 84  1  0  0  0
 77 78  1  0  0  0
 77 79  2  0  0  0
 77 81  1  0  0  0
 78 83  1  0  0  0
 78 85  2  0  0  0
 79148  1  0  0  0
 80 82  2  0  0  0
 81 83  1  0  0  0
 81149  1  0  0  0
 81150  1  0  0  0
 82151  1  0  0  0
 84152  1  0  0  0
 84153  1  0  0  0
M  ISO  4   1 100  68 101  79 101  80 100
M  END
> <chiral flag>
0

> <version>
0

> <s_m_source_file>
/data/baiqing/PycharmProjects/Reinvent-master-3.2/result/LINK_invent/BTK/process_docking_weight1_custom_product_contain_oxygen_bond_distance_aromatic_linkinvent_7_9_3/rearranged_h_0084.sdf

> <i_m_source_file_index>
91

> <r_mmod_Potential_Energy-OPLS-2005>
298.242492675781

> <r_mmod_Stretch_Energy-OPLS-2005>
120.058082580566

> <r_mmod_Bend_Energy-OPLS-2005>
276.201049804688

> <r_mmod_Torsional_Energy-OPLS-2005>
212.88801574707

> <r_mmod_Improper_Torsional_Energy-OPLS-2005>
5.71312570571899

> <r_mmod_Van_der_Waal_Energy-OPLS-2005>
147.69905090332

> <r_mmod_Electrostatic_Energy-OPLS-2005>
-311.205474853516

> <r_mmod_Solvation_Energy-OPLS-2005>
-225.299331665039

> <b_mmod_Minimization_Converged-OPLS-2005>
0

> <r_mmod_RMS_Derivative-OPLS-2005>
0.449438691139221

$$$$
91
                    3D
 Structure written by MMmdl.
151160  0  0  1  0            999 V2000
  -30.5994  -14.7255   20.5744 C   0  0  0  0  0  0
  -30.4533  -12.4728   19.4650 C   0  0  0  0  0  0
  -29.5188  -12.5520   18.2328 C   0  0  0  0  0  0
  -28.0391  -12.3643   18.6289 C   0  0  0  0  0  0
  -27.6540  -13.2152   19.8655 C   0  0  2  0  0  0
  -28.6926  -13.0226   20.9854 C   0  0  0  0  0  0
  -25.2559  -13.8153   20.5661 C   0  0  0  0  0  0
  -24.1824  -13.0422   20.9164 C   0  0  0  0  0  0
  -24.6391  -11.6893   20.8710 C   0  0  0  0  0  0
  -23.9059  -10.4284   21.0394 C   0  0  0  0  0  0
  -24.3613   -9.4205   21.9177 C   0  0  0  0  0  0
  -23.6288   -8.2242   22.0753 C   0  0  0  0  0  0
  -22.4270   -8.0278   21.3544 C   0  0  0  0  0  0
  -21.9902   -9.0249   20.4646 C   0  0  0  0  0  0
  -22.7229  -10.2127   20.3049 C   0  0  0  0  0  0
  -21.6852   -6.0733   22.5280 C   0  0  0  0  0  0
  -21.4014   -6.5638   23.8213 C   0  0  0  0  0  0
  -21.3660   -5.6791   24.9176 C   0  0  0  0  0  0
  -21.6044   -4.3054   24.7226 C   0  0  0  0  0  0
  -21.8820   -3.8145   23.4348 C   0  0  0  0  0  0
  -21.9192   -4.6962   22.3403 C   0  0  0  0  0  0
  -22.7851  -13.5224   21.1848 C   0  0  0  0  0  0
  -22.1661   -4.2147   21.0981 F   0  0  0  0  0  0
  -21.5629   -3.4538   25.7739 F   0  0  0  0  0  0
  -30.0012  -13.4737   20.4670 N   0  0  0  0  0  0
  -26.2980  -12.9326   20.3280 N   0  0  0  0  0  0
  -25.9312  -11.6480   20.5692 N   0  0  0  0  0  0
  -22.0499  -12.8217   22.0411 N   0  0  0  0  0  0
  -25.4275  -15.1877   20.4103 N   0  0  0  0  0  0
  -31.6957  -14.9242   20.0357 O   0  0  0  0  0  0
  -21.6637   -6.8875   21.4241 O   0  0  0  0  0  0
  -22.3534  -14.5533   20.6706 O   0  0  0  0  0  0
  -24.6302  -31.8558   23.1984 C   0  0  0  0  0  0
  -25.9128  -32.4760   23.8333 C   0  0  1  0  0  0
  -27.2311  -27.2820   20.1289 C   0  0  0  0  0  0
  -25.5926  -33.8561   24.2258 N   0  0  0  0  0  0
  -23.4280  -30.4761   21.5413 C   0  0  2  0  0  0
  -24.8792  -28.9203   20.1157 C   0  0  0  0  0  0
  -22.7500  -29.4601   22.4919 C   0  0  0  0  0  0
  -18.0291  -28.1388   22.8484 C   0  0  0  0  0  0
  -24.1489  -36.7288   23.2640 C   0  0  0  0  0  0
  -25.9722  -30.7741   21.3765 C   0  0  0  0  0  0
  -26.0499  -29.3957   20.7231 C   0  0  0  0  0  0
  -27.2325  -28.5886   20.7193 C   0  0  0  0  0  0
  -26.0393  -26.8629   19.5049 C   0  0  0  0  0  0
  -24.8768  -27.6595   19.4973 C   0  0  0  0  0  0
  -23.6480  -29.8055   20.1595 C   0  0  0  0  0  0
  -25.4115  -36.3074   24.0326 C   0  0  1  0  0  0
  -20.5894  -28.3698   23.1272 C   0  0  2  0  0  0
  -20.6779  -26.9416   22.5409 C   0  0  0  0  0  0
  -19.5755  -26.6383   21.5213 C   0  0  0  0  0  0
  -18.1935  -26.7930   22.1625 C   0  0  0  0  0  0
  -19.1544  -28.8860   23.2872 C   0  0  0  0  0  0
  -18.9465  -30.1461   23.8891 C   0  0  0  0  0  0
  -17.6464  -30.6589   24.0562 C   0  0  0  0  0  0
  -25.9054  -34.9443   23.5095 C   0  0  0  0  0  0
  -16.5356  -29.9085   23.6331 C   0  0  0  0  0  0
  -16.7278  -28.6503   23.0352 C   0  0  0  0  0  0
  -26.4499  -31.6583   25.0720 C   0  0  0  0  0  0
  -25.3722  -31.3729   26.1438 C   0  0  0  0  0  0
  -27.0350  -30.3002   24.6201 C   0  0  0  0  0  0
  -27.6049  -32.4327   25.7497 C   0  0  0  0  0  0
  -27.5579  -37.1800   24.8465 C   0  0  0  0  0  0
  -21.4208  -29.3044   22.3662 N   0  0  0  0  0  0
  -26.4292  -37.3770   23.9406 N   0  0  0  0  0  0
  -24.6956  -31.0529   22.0955 N   0  0  0  0  0  0
  -23.4200  -28.8146   23.3023 O   0  0  0  0  0  0
  -28.3118  -26.3785   20.1143 O   0  0  0  0  0  0
  -26.5629  -34.8917   22.4666 O   0  0  0  0  0  0
  -23.5453  -32.1373   23.7282 O   0  0  0  0  0  0
  -29.7637  -18.0481   19.8016 C   0  0  0  0  0  0
  -29.5621  -19.4703   19.6179 C   0  0  0  0  0  0
  -29.6502  -19.7976   21.9350 C   0  0  0  0  0  0
  -29.9030  -17.4327   21.0840 C   0  0  0  0  0  0
  -29.4536  -20.4333   20.6772 C   0  0  0  0  0  0
  -29.8722  -18.4013   22.1389 C   0  0  0  0  0  0
  -28.5903  -23.8773   20.7286 C   0  0  0  0  0  0
  -29.1759  -23.0183   19.6921 C   0  0  0  0  0  0
  -28.2072  -25.2054   20.9032 C   0  0  0  0  0  0
  -29.8994  -15.8919   21.4273 C   0  0  0  0  0  0
  -28.5295  -22.6556   21.6669 C   0  0  0  0  0  0
  -29.3451  -15.5706   22.5221 N   0  0  0  0  0  0
  -29.1795  -21.8978   20.5789 N   0  0  0  0  0  0
  -29.4795  -23.2406   18.5380 O   0  0  0  0  0  0
  -30.0223  -18.0045   23.4272 F   0  0  0  0  0  0
  -31.4875  -12.6348   19.1577 H   0  0  0  0  0  0
  -30.4374  -11.4692   19.8932 H   0  0  0  0  0  0
  -29.8057  -11.8039   17.4928 H   0  0  0  0  0  0
  -29.6430  -13.5221   17.7491 H   0  0  0  0  0  0
  -27.8829  -11.3070   18.8459 H   0  0  0  0  0  0
  -27.3878  -12.6017   17.7869 H   0  0  0  0  0  0
  -27.6834  -14.2603   19.5569 H   0  0  0  0  0  0
  -28.7451  -11.9682   21.2611 H   0  0  0  0  0  0
  -28.3585  -13.5022   21.8977 H   0  0  0  0  0  0
  -25.2760   -9.5683   22.4747 H   0  0  0  0  0  0
  -23.9999   -7.4635   22.7473 H   0  0  0  0  0  0
  -21.0832   -8.8765   19.8954 H   0  0  0  0  0  0
  -22.3688  -10.9663   19.6155 H   0  0  0  0  0  0
  -21.2006   -7.6146   23.9716 H   0  0  0  0  0  0
  -21.1482   -6.0522   25.9078 H   0  0  0  0  0  0
  -22.0599   -2.7607   23.2848 H   0  0  0  0  0  0
  -22.4114  -11.9874   22.4791 H   0  0  0  0  0  0
  -21.1122  -13.1249   22.2631 H   0  0  0  0  0  0
  -24.6671  -15.8471   20.5351 H   0  0  0  0  0  0
  -26.2925  -15.6295   20.1260 H   0  0  0  0  0  0
  -26.7198  -32.5422   23.1082 H   0  0  0  0  0  0
  -25.0064  -33.9698   25.0397 H   0  0  0  0  0  0
  -22.7240  -31.2975   21.3923 H   0  0  0  0  0  0
  -23.3751  -35.9622   23.3305 H   0  0  0  0  0  0
  -24.3579  -36.8910   22.2054 H   0  0  0  0  0  0
  -23.7245  -37.6490   23.6665 H   0  0  0  0  0  0
  -26.1069  -31.5336   20.6051 H   0  0  0  0  0  0
  -26.8508  -30.8269   22.0078 H   0  0  0  0  0  0
  -28.1332  -28.9484   21.1963 H   0  0  0  0  0  0
  -26.0066  -25.8907   19.0335 H   0  0  0  0  0  0
  -23.9803  -27.2879   19.0202 H   0  0  0  0  0  0
  -23.7717  -30.5796   19.4013 H   0  0  0  0  0  0
  -22.7676  -29.2365   19.8554 H   0  0  0  0  0  0
  -25.1298  -36.1922   25.0819 H   0  0  0  0  0  0
  -20.9984  -28.3277   24.1393 H   0  0  0  0  0  0
  -20.5679  -26.2309   23.3614 H   0  0  0  0  0  0
  -21.6647  -26.7440   22.1204 H   0  0  0  0  0  0
  -19.6917  -25.6293   21.1247 H   0  0  0  0  0  0
  -19.6692  -27.3190   20.6740 H   0  0  0  0  0  0
  -17.4203  -26.6675   21.4029 H   0  0  0  0  0  0
  -18.0337  -26.0073   22.9023 H   0  0  0  0  0  0
  -19.7941  -30.7278   24.2259 H   0  0  0  0  0  0
  -17.5018  -31.6268   24.5165 H   0  0  0  0  0  0
  -15.5356  -30.2986   23.7658 H   0  0  0  0  0  0
  -15.8678  -28.0820   22.7071 H   0  0  0  0  0  0
  -24.5901  -30.7074   25.7764 H   0  0  0  0  0  0
  -24.8907  -32.2897   26.4850 H   0  0  0  0  0  0
  -25.8037  -30.8916   27.0222 H   0  0  0  0  0  0
  -26.2937  -29.6745   24.1216 H   0  0  0  0  0  0
  -27.4026  -29.7266   25.4720 H   0  0  0  0  0  0
  -27.8815  -30.4279   23.9449 H   0  0  0  0  0  0
  -27.2651  -33.3627   26.2066 H   0  0  0  0  0  0
  -28.3865  -32.6888   25.0332 H   0  0  0  0  0  0
  -28.0713  -31.8460   26.5421 H   0  0  0  0  0  0
  -28.2596  -38.0096   24.7507 H   0  0  0  0  0  0
  -28.1074  -36.2626   24.6298 H   0  0  0  0  0  0
  -27.2295  -37.1457   25.8868 H   0  0  0  0  0  0
  -20.9398  -29.8761   21.6859 H   0  0  0  0  0  0
  -26.0172  -38.2845   24.1402 H   0  0  0  0  0  0
  -29.7634  -17.4150   18.9261 H   0  0  0  0  0  0
  -29.4447  -19.8268   18.6040 H   0  0  0  0  0  0
  -29.6240  -20.4061   22.8261 H   0  0  0  0  0  0
  -27.7738  -25.4696   21.8579 H   0  0  0  0  0  0
  -27.5409  -22.2576   21.9025 H   0  0  0  0  0  0
  -29.1440  -22.6953   22.5676 H   0  0  0  0  0  0
  -28.9919  -16.3894   23.0047 H   0  0  0  0  0  0
  1 25  1  0  0  0
  1 30  2  0  0  0
  1 80  1  0  0  0
  2  3  1  0  0  0
  2 25  1  0  0  0
  2 86  1  0  0  0
  2 87  1  0  0  0
  3  4  1  0  0  0
  3 88  1  0  0  0
  3 89  1  0  0  0
  4  5  1  0  0  0
  4 90  1  0  0  0
  4 91  1  0  0  0
  5  6  1  0  0  0
  5 26  1  0  0  0
  5 92  1  0  0  0
  6 25  1  0  0  0
  6 93  1  0  0  0
  6 94  1  0  0  0
  7  8  2  0  0  0
  7 26  1  0  0  0
  7 29  1  0  0  0
  8  9  1  0  0  0
  8 22  1  0  0  0
  9 10  1  0  0  0
  9 27  2  0  0  0
 10 11  2  0  0  0
 10 15  1  0  0  0
 11 12  1  0  0  0
 11 95  1  0  0  0
 12 13  2  0  0  0
 12 96  1  0  0  0
 13 14  1  0  0  0
 13 31  1  0  0  0
 14 15  2  0  0  0
 14 97  1  0  0  0
 15 98  1  0  0  0
 16 17  2  0  0  0
 16 21  1  0  0  0
 16 31  1  0  0  0
 17 18  1  0  0  0
 17 99  1  0  0  0
 18 19  2  0  0  0
 18100  1  0  0  0
 19 20  1  0  0  0
 19 24  1  0  0  0
 20 21  2  0  0  0
 20101  1  0  0  0
 21 23  1  0  0  0
 22 28  1  0  0  0
 22 32  2  0  0  0
 26 27  1  0  0  0
 28102  1  0  0  0
 28103  1  0  0  0
 29104  1  0  0  0
 29105  1  0  0  0
 33 34  1  0  0  0
 33 66  1  0  0  0
 33 70  2  0  0  0
 34 36  1  0  0  0
 34 59  1  0  0  0
 34106  1  0  0  0
 35 44  2  0  0  0
 35 45  1  0  0  0
 35 68  1  0  0  0
 36 56  1  0  0  0
 36107  1  0  0  0
 37 39  1  0  0  0
 37 47  1  0  0  0
 37 66  1  0  0  0
 37108  1  0  0  0
 38 43  2  0  0  0
 38 46  1  0  0  0
 38 47  1  0  0  0
 39 64  1  0  0  0
 39 67  2  0  0  0
 40 52  1  0  0  0
 40 53  2  0  0  0
 40 58  1  0  0  0
 41109  1  0  0  0
 41110  1  0  0  0
 41111  1  0  0  0
 41 48  1  0  0  0
 42 43  1  0  0  0
 42 66  1  0  0  0
 42112  1  0  0  0
 42113  1  0  0  0
 43 44  1  0  0  0
 44114  1  0  0  0
 45 46  2  0  0  0
 45115  1  0  0  0
 46116  1  0  0  0
 47117  1  0  0  0
 47118  1  0  0  0
 48 56  1  0  0  0
 48 65  1  0  0  0
 48119  1  0  0  0
 49 50  1  0  0  0
 49 53  1  0  0  0
 49 64  1  0  0  0
 49120  1  0  0  0
 50 51  1  0  0  0
 50121  1  0  0  0
 50122  1  0  0  0
 51 52  1  0  0  0
 51123  1  0  0  0
 51124  1  0  0  0
 52125  1  0  0  0
 52126  1  0  0  0
 53 54  1  0  0  0
 54 55  2  0  0  0
 54127  1  0  0  0
 55 57  1  0  0  0
 55128  1  0  0  0
 56 69  2  0  0  0
 57 58  2  0  0  0
 57129  1  0  0  0
 58130  1  0  0  0
 59 60  1  0  0  0
 59 61  1  0  0  0
 59 62  1  0  0  0
 60131  1  0  0  0
 60132  1  0  0  0
 60133  1  0  0  0
 61134  1  0  0  0
 61135  1  0  0  0
 61136  1  0  0  0
 62137  1  0  0  0
 62138  1  0  0  0
 62139  1  0  0  0
 63 65  1  0  0  0
 63140  1  0  0  0
 63141  1  0  0  0
 63142  1  0  0  0
 64143  1  0  0  0
 65144  1  0  0  0
 68 79  1  0  0  0
 71 72  2  0  0  0
 71 74  1  0  0  0
 71145  1  0  0  0
 72 75  1  0  0  0
 72146  1  0  0  0
 73 75  2  0  0  0
 73 76  1  0  0  0
 73147  1  0  0  0
 74 76  2  0  0  0
 74 80  1  0  0  0
 75 83  1  0  0  0
 76 85  1  0  0  0
 77 78  1  0  0  0
 77 79  2  0  0  0
 77 81  1  0  0  0
 78 83  1  0  0  0
 78 84  2  0  0  0
 79148  1  0  0  0
 80 82  2  0  0  0
 81 83  1  0  0  0
 81149  1  0  0  0
 81150  1  0  0  0
 82151  1  0  0  0
M  ISO  4   1 100  68 101  79 101  80 100
M  END
> <chiral flag>
0

> <version>
0

> <s_m_source_file>
/data/baiqing/PycharmProjects/Reinvent-master-3.2/result/LINK_invent/BTK/process_docking_weight1_custom_product_contain_oxygen_bond_distance_aromatic_linkinvent_7_9_3/rearranged_h_0084.sdf

> <i_m_source_file_index>
92

> <r_mmod_Potential_Energy-OPLS-2005>
402.862243652344

> <r_mmod_Stretch_Energy-OPLS-2005>
121.339729309082

> <r_mmod_Bend_Energy-OPLS-2005>
270.501434326172

> <r_mmod_Torsional_Energy-OPLS-2005>
214.688415527344

> <r_mmod_Improper_Torsional_Energy-OPLS-2005>
3.44453883171082

> <r_mmod_Van_der_Waal_Energy-OPLS-2005>
147.723175048828

> <r_mmod_Electrostatic_Energy-OPLS-2005>
-214.329406738281

> <r_mmod_Solvation_Energy-OPLS-2005>
-213.336822509766

> <b_mmod_Minimization_Converged-OPLS-2005>
0

> <r_mmod_RMS_Derivative-OPLS-2005>
0.154068276286125

$$$$
92
                    3D
 Structure written by MMmdl.
159168  0  0  1  0            999 V2000
  -30.7405  -14.4299   20.5273 C   0  0  0  0  0  0
  -30.3984  -12.2605   19.4379 C   0  0  0  0  0  0
  -29.4882  -12.4789   18.2126 C   0  0  0  0  0  0
  -28.0077  -12.3500   18.6184 C   0  0  0  0  0  0
  -27.6523  -13.2068   19.8625 C   0  0  2  0  0  0
  -28.6930  -13.0204   20.9903 C   0  0  0  0  0  0
  -25.2552  -13.8158   20.5673 C   0  0  0  0  0  0
  -24.1815  -13.0422   20.9177 C   0  0  0  0  0  0
  -24.6380  -11.6893   20.8733 C   0  0  0  0  0  0
  -23.9055  -10.4282   21.0405 C   0  0  0  0  0  0
  -24.3614   -9.4205   21.9186 C   0  0  0  0  0  0
  -23.6295   -8.2239   22.0758 C   0  0  0  0  0  0
  -22.4279   -8.0274   21.3546 C   0  0  0  0  0  0
  -21.9906   -9.0244   20.4646 C   0  0  0  0  0  0
  -22.7229  -10.2127   20.3056 C   0  0  0  0  0  0
  -21.6852   -6.0736   22.5287 C   0  0  0  0  0  0
  -21.4010   -6.5644   23.8219 C   0  0  0  0  0  0
  -21.3655   -5.6799   24.9179 C   0  0  0  0  0  0
  -21.6045   -4.3064   24.7230 C   0  0  0  0  0  0
  -21.8816   -3.8151   23.4352 C   0  0  0  0  0  0
  -21.9190   -4.6964   22.3406 C   0  0  0  0  0  0
  -22.7845  -13.5228   21.1839 C   0  0  0  0  0  0
  -22.1664   -4.2150   21.0985 F   0  0  0  0  0  0
  -21.5622   -3.4546   25.7741 F   0  0  0  0  0  0
  -30.0289  -13.2756   20.4349 N   0  0  0  0  0  0
  -26.2974  -12.9329   20.3320 N   0  0  0  0  0  0
  -25.9303  -11.6491   20.5761 N   0  0  0  0  0  0
  -22.0494  -12.8227   22.0407 N   0  0  0  0  0  0
  -25.4259  -15.1875   20.4093 N   0  0  0  0  0  0
  -31.9144  -14.4988   20.1528 O   0  0  0  0  0  0
  -21.6641   -6.8877   21.4250 O   0  0  0  0  0  0
  -22.3531  -14.5531   20.6683 O   0  0  0  0  0  0
  -24.6103  -31.8711   23.2128 C   0  0  0  0  0  0
  -25.9010  -32.4841   23.8415 C   0  0  1  0  0  0
  -27.2320  -27.4749   20.0970 C   0  0  0  0  0  0
  -25.5879  -33.8637   24.2344 N   0  0  0  0  0  0
  -23.3964  -30.4943   21.5524 C   0  0  2  0  0  0
  -24.8434  -28.9644   20.1163 C   0  0  0  0  0  0
  -22.7384  -29.4672   22.5009 C   0  0  0  0  0  0
  -18.0265  -28.1377   22.8501 C   0  0  0  0  0  0
  -24.1480  -36.7323   23.2636 C   0  0  0  0  0  0
  -25.9203  -30.8506   21.3585 C   0  0  0  0  0  0
  -26.0007  -29.4872   20.7087 C   0  0  0  0  0  0
  -27.2019  -28.7486   20.6972 C   0  0  0  0  0  0
  -26.0644  -26.9540   19.5020 C   0  0  0  0  0  0
  -24.8671  -27.6942   19.5116 C   0  0  0  0  0  0
  -23.6023  -29.8251   20.1670 C   0  0  0  0  0  0
  -25.4100  -36.3124   24.0341 C   0  0  1  0  0  0
  -20.5852  -28.3659   23.1334 C   0  0  2  0  0  0
  -20.6753  -26.9402   22.5423 C   0  0  0  0  0  0
  -19.5732  -26.6389   21.5218 C   0  0  0  0  0  0
  -18.1911  -26.7926   22.1630 C   0  0  0  0  0  0
  -19.1513  -28.8833   23.2916 C   0  0  0  0  0  0
  -18.9444  -30.1441   23.8923 C   0  0  0  0  0  0
  -17.6447  -30.6588   24.0566 C   0  0  0  0  0  0
  -25.9027  -34.9486   23.5140 C   0  0  0  0  0  0
  -16.5338  -29.9092   23.6327 C   0  0  0  0  0  0
  -16.7255  -28.6505   23.0355 C   0  0  0  0  0  0
  -26.4452  -31.6610   25.0727 C   0  0  0  0  0  0
  -25.3737  -31.3723   26.1494 C   0  0  0  0  0  0
  -27.0255  -30.3049   24.6078 C   0  0  0  0  0  0
  -27.6055  -32.4310   25.7466 C   0  0  0  0  0  0
  -27.5585  -37.1800   24.8457 C   0  0  0  0  0  0
  -21.4116  -29.3033   22.3746 N   0  0  0  0  0  0
  -26.4286  -37.3811   23.9419 N   0  0  0  0  0  0
  -24.6605  -31.0847   22.1010 N   0  0  0  0  0  0
  -23.4171  -28.8220   23.3043 O   0  0  0  0  0  0
  -28.3852  -26.7395   20.0907 O   0  0  0  0  0  0
  -26.5597  -34.8934   22.4706 O   0  0  0  0  0  0
  -23.5303  -32.1444   23.7551 O   0  0  0  0  0  0
  -30.8434  -19.1665   21.6824 C   0  0  0  0  0  0
  -30.5045  -20.5180   21.4990 C   0  0  0  0  0  0
  -29.0349  -18.5103   20.1854 C   0  0  0  0  0  0
  -30.1434  -18.1611   20.9888 C   0  0  0  0  0  0
  -29.4659  -20.8708   20.6131 C   0  0  0  0  0  0
  -28.7017  -19.8711   19.9653 C   0  0  0  0  0  0
  -28.7866  -24.4135   20.3198 C   0  0  0  0  0  0
  -28.7365  -23.1736   21.0650 C   0  0  0  0  0  0
  -30.6660  -16.7916   21.0088 C   0  0  0  0  0  0
  -28.3340  -25.5781   20.8120 C   0  0  0  0  0  0
  -29.9822  -15.6476   20.7935 C   0  0  0  0  0  0
  -29.3821  -24.2109   18.9581 C   0  0  0  0  0  0
  -29.7649  -22.7333   18.9840 C   0  0  0  0  0  0
  -27.0567  -19.3115   18.2974 C   0  0  0  0  0  0
  -29.2861  -22.2338   20.2725 N   0  0  0  0  0  0
  -28.2788  -22.9909   22.1989 O   0  0  0  0  0  0
  -27.6946  -20.2847   19.1167 O   0  0  0  0  0  0
  -31.4490  -12.3066   19.1467 H   0  0  0  0  0  0
  -30.2494  -11.2610   19.8504 H   0  0  0  0  0  0
  -29.7244  -11.7554   17.4313 H   0  0  0  0  0  0
  -29.6704  -13.4657   17.7843 H   0  0  0  0  0  0
  -27.8130  -11.2970   18.8270 H   0  0  0  0  0  0
  -27.3619  -12.6158   17.7805 H   0  0  0  0  0  0
  -27.6822  -14.2442   19.5341 H   0  0  0  0  0  0
  -28.6508  -12.0021   21.3794 H   0  0  0  0  0  0
  -28.4771  -13.6695   21.8403 H   0  0  0  0  0  0
  -25.2755   -9.5686   22.4765 H   0  0  0  0  0  0
  -23.9993   -7.4641   22.7497 H   0  0  0  0  0  0
  -21.0823   -8.8766   19.8965 H   0  0  0  0  0  0
  -22.3684  -10.9666   19.6171 H   0  0  0  0  0  0
  -21.2014   -7.6154   23.9719 H   0  0  0  0  0  0
  -21.1474   -6.0535   25.9084 H   0  0  0  0  0  0
  -22.0597   -2.7609   23.2861 H   0  0  0  0  0  0
  -22.4110  -11.9876   22.4768 H   0  0  0  0  0  0
  -21.1124  -13.1271   22.2639 H   0  0  0  0  0  0
  -24.6568  -15.8394   20.5199 H   0  0  0  0  0  0
  -26.2794  -15.6300   20.0947 H   0  0  0  0  0  0
  -26.7090  -32.5573   23.1195 H   0  0  0  0  0  0
  -25.0012  -33.9810   25.0473 H   0  0  0  0  0  0
  -22.6832  -31.3096   21.4145 H   0  0  0  0  0  0
  -23.3747  -35.9647   23.3291 H   0  0  0  0  0  0
  -24.3579  -36.8946   22.2052 H   0  0  0  0  0  0
  -23.7216  -37.6520   23.6654 H   0  0  0  0  0  0
  -26.0227  -31.6169   20.5889 H   0  0  0  0  0  0
  -26.8115  -30.9087   21.9711 H   0  0  0  0  0  0
  -28.0986  -29.1451   21.1523 H   0  0  0  0  0  0
  -26.0850  -25.9784   19.0364 H   0  0  0  0  0  0
  -23.9762  -27.2842   19.0558 H   0  0  0  0  0  0
  -23.7051  -30.5987   19.4054 H   0  0  0  0  0  0
  -22.7282  -29.2398   19.8757 H   0  0  0  0  0  0
  -25.1266  -36.1993   25.0833 H   0  0  0  0  0  0
  -20.9944  -28.3218   24.1453 H   0  0  0  0  0  0
  -20.5667  -26.2261   23.3601 H   0  0  0  0  0  0
  -21.6622  -26.7452   22.1208 H   0  0  0  0  0  0
  -19.6892  -25.6307   21.1231 H   0  0  0  0  0  0
  -19.6670  -27.3214   20.6761 H   0  0  0  0  0  0
  -17.4179  -26.6686   21.4030 H   0  0  0  0  0  0
  -18.0307  -26.0060   22.9018 H   0  0  0  0  0  0
  -19.7918  -30.7251   24.2303 H   0  0  0  0  0  0
  -17.5005  -31.6273   24.5162 H   0  0  0  0  0  0
  -15.5343  -30.3008   23.7633 H   0  0  0  0  0  0
  -15.8652  -28.0834   22.7063 H   0  0  0  0  0  0
  -24.5854  -30.7140   25.7826 H   0  0  0  0  0  0
  -24.9000  -32.2891   26.5017 H   0  0  0  0  0  0
  -25.8090  -30.8811   27.0206 H   0  0  0  0  0  0
  -26.2771  -29.6828   24.1154 H   0  0  0  0  0  0
  -27.4044  -29.7275   25.4521 H   0  0  0  0  0  0
  -27.8605  -30.4362   23.9193 H   0  0  0  0  0  0
  -27.2710  -33.3624   26.2051 H   0  0  0  0  0  0
  -28.3851  -32.6845   25.0269 H   0  0  0  0  0  0
  -28.0731  -31.8420   26.5366 H   0  0  0  0  0  0
  -28.2583  -38.0121   24.7554 H   0  0  0  0  0  0
  -28.1101  -36.2654   24.6211 H   0  0  0  0  0  0
  -27.2314  -37.1370   25.8863 H   0  0  0  0  0  0
  -20.9267  -29.8748   21.6971 H   0  0  0  0  0  0
  -26.0176  -38.2881   24.1463 H   0  0  0  0  0  0
  -31.6921  -18.9108   22.3015 H   0  0  0  0  0  0
  -31.0965  -21.2836   21.9816 H   0  0  0  0  0  0
  -28.5100  -17.7243   19.6644 H   0  0  0  0  0  0
  -31.7421  -16.7420   21.1159 H   0  0  0  0  0  0
  -27.8961  -25.7039   21.7945 H   0  0  0  0  0  0
  -28.9056  -15.6653   20.7414 H   0  0  0  0  0  0
  -30.2440  -24.8610   18.8042 H   0  0  0  0  0  0
  -28.6375  -24.4191   18.1887 H   0  0  0  0  0  0
  -30.8472  -22.6103   18.9291 H   0  0  0  0  0  0
  -29.3170  -22.1861   18.1544 H   0  0  0  0  0  0
  -26.3535  -19.8079   17.6285 H   0  0  0  0  0  0
  -26.4922  -18.5910   18.8909 H   0  0  0  0  0  0
  -27.7753  -18.7776   17.6731 H   0  0  0  0  0  0
  1 25  1  0  0  0
  1 30  2  0  0  0
  1 81  1  0  0  0
  2  3  1  0  0  0
  2 25  1  0  0  0
  2 88  1  0  0  0
  2 89  1  0  0  0
  3  4  1  0  0  0
  3 90  1  0  0  0
  3 91  1  0  0  0
  4  5  1  0  0  0
  4 92  1  0  0  0
  4 93  1  0  0  0
  5  6  1  0  0  0
  5 26  1  0  0  0
  5 94  1  0  0  0
  6 25  1  0  0  0
  6 95  1  0  0  0
  6 96  1  0  0  0
  7  8  2  0  0  0
  7 26  1  0  0  0
  7 29  1  0  0  0
  8  9  1  0  0  0
  8 22  1  0  0  0
  9 10  1  0  0  0
  9 27  2  0  0  0
 10 11  2  0  0  0
 10 15  1  0  0  0
 11 12  1  0  0  0
 11 97  1  0  0  0
 12 13  2  0  0  0
 12 98  1  0  0  0
 13 14  1  0  0  0
 13 31  1  0  0  0
 14 15  2  0  0  0
 14 99  1  0  0  0
 15100  1  0  0  0
 16 17  2  0  0  0
 16 21  1  0  0  0
 16 31  1  0  0  0
 17 18  1  0  0  0
 17101  1  0  0  0
 18 19  2  0  0  0
 18102  1  0  0  0
 19 20  1  0  0  0
 19 24  1  0  0  0
 20 21  2  0  0  0
 20103  1  0  0  0
 21 23  1  0  0  0
 22 28  1  0  0  0
 22 32  2  0  0  0
 26 27  1  0  0  0
 28104  1  0  0  0
 28105  1  0  0  0
 29106  1  0  0  0
 29107  1  0  0  0
 33 34  1  0  0  0
 33 66  1  0  0  0
 33 70  2  0  0  0
 34 36  1  0  0  0
 34 59  1  0  0  0
 34108  1  0  0  0
 35 44  2  0  0  0
 35 45  1  0  0  0
 35 68  1  0  0  0
 36 56  1  0  0  0
 36109  1  0  0  0
 37 39  1  0  0  0
 37 47  1  0  0  0
 37 66  1  0  0  0
 37110  1  0  0  0
 38 43  2  0  0  0
 38 46  1  0  0  0
 38 47  1  0  0  0
 39 64  1  0  0  0
 39 67  2  0  0  0
 40 52  1  0  0  0
 40 53  2  0  0  0
 40 58  1  0  0  0
 41111  1  0  0  0
 41112  1  0  0  0
 41113  1  0  0  0
 41 48  1  0  0  0
 42 43  1  0  0  0
 42 66  1  0  0  0
 42114  1  0  0  0
 42115  1  0  0  0
 43 44  1  0  0  0
 44116  1  0  0  0
 45 46  2  0  0  0
 45117  1  0  0  0
 46118  1  0  0  0
 47119  1  0  0  0
 47120  1  0  0  0
 48 56  1  0  0  0
 48 65  1  0  0  0
 48121  1  0  0  0
 49 50  1  0  0  0
 49 53  1  0  0  0
 49 64  1  0  0  0
 49122  1  0  0  0
 50 51  1  0  0  0
 50123  1  0  0  0
 50124  1  0  0  0
 51 52  1  0  0  0
 51125  1  0  0  0
 51126  1  0  0  0
 52127  1  0  0  0
 52128  1  0  0  0
 53 54  1  0  0  0
 54 55  2  0  0  0
 54129  1  0  0  0
 55 57  1  0  0  0
 55130  1  0  0  0
 56 69  2  0  0  0
 57 58  2  0  0  0
 57131  1  0  0  0
 58132  1  0  0  0
 59 60  1  0  0  0
 59 61  1  0  0  0
 59 62  1  0  0  0
 60133  1  0  0  0
 60134  1  0  0  0
 60135  1  0  0  0
 61136  1  0  0  0
 61137  1  0  0  0
 61138  1  0  0  0
 62139  1  0  0  0
 62140  1  0  0  0
 62141  1  0  0  0
 63 65  1  0  0  0
 63142  1  0  0  0
 63143  1  0  0  0
 63144  1  0  0  0
 64145  1  0  0  0
 65146  1  0  0  0
 68 80  1  0  0  0
 71 72  2  0  0  0
 71 74  1  0  0  0
 71147  1  0  0  0
 72 75  1  0  0  0
 72148  1  0  0  0
 73 74  2  0  0  0
 73 76  1  0  0  0
 73149  1  0  0  0
 74 79  1  0  0  0
 75 76  2  0  0  0
 75 85  1  0  0  0
 76 87  1  0  0  0
 77 78  1  0  0  0
 77 80  2  0  0  0
 77 82  1  0  0  0
 78 85  1  0  0  0
 78 86  2  0  0  0
 79 81  2  0  0  0
 79150  1  0  0  0
 80151  1  0  0  0
 81152  1  0  0  0
 82 83  1  0  0  0
 82153  1  0  0  0
 82154  1  0  0  0
 83 85  1  0  0  0
 83155  1  0  0  0
 83156  1  0  0  0
 84 87  1  0  0  0
 84157  1  0  0  0
 84158  1  0  0  0
 84159  1  0  0  0
M  ISO  4   1 100  68 101  80 101  81 100
M  END
> <chiral flag>
0

> <version>
0

> <s_m_source_file>
/data/baiqing/PycharmProjects/Reinvent-master-3.2/result/LINK_invent/BTK/process_docking_weight1_custom_product_contain_oxygen_bond_distance_aromatic_linkinvent_7_9_3/rearranged_h_0084.sdf

> <i_m_source_file_index>
93

> <r_mmod_Potential_Energy-OPLS-2005>
99.5849304199219

> <r_mmod_Stretch_Energy-OPLS-2005>
32.0218696594238

> <r_mmod_Bend_Energy-OPLS-2005>
122.000045776367

> <r_mmod_Torsional_Energy-OPLS-2005>
288.720916748047

> <r_mmod_Improper_Torsional_Energy-OPLS-2005>
10.0405416488647

> <r_mmod_Van_der_Waal_Energy-OPLS-2005>
156.012466430664

> <r_mmod_Electrostatic_Energy-OPLS-2005>
-318.286468505859

> <r_mmod_Solvation_Energy-OPLS-2005>
-207.325714111328

> <b_mmod_Minimization_Converged-OPLS-2005>
0

> <r_mmod_RMS_Derivative-OPLS-2005>
1.11188411712646

$$$$
