0
                    3D
 Structure written by MMmdl.
140147  0  0  1  0            999 V2000
  -30.3275  -15.6569   20.3269 C   0  0  0  0  0  0
  -30.4201  -13.0686   19.5824 C   0  0  0  0  0  0
  -29.5643  -12.6562   18.3502 C   0  0  0  0  0  0
  -28.1306  -12.3022   18.7774 C   0  0  0  0  0  0
  -27.5852  -13.3162   19.8088 C   0  0  2  0  0  0
  -28.5703  -13.6674   20.9433 C   0  0  0  0  0  0
  -25.2278  -13.8298   20.5789 C   0  0  0  0  0  0
  -24.1683  -13.0444   20.9267 C   0  0  0  0  0  0
  -24.6392  -11.6958   20.8742 C   0  0  0  0  0  0
  -23.9112  -10.4310   21.0395 C   0  0  0  0  0  0
  -24.3654   -9.4221   21.9185 C   0  0  0  0  0  0
  -23.6321   -8.2263   22.0755 C   0  0  0  0  0  0
  -22.4301   -8.0300   21.3546 C   0  0  0  0  0  0
  -21.9948   -9.0270   20.4643 C   0  0  0  0  0  0
  -22.7275  -10.2138   20.3047 C   0  0  0  0  0  0
  -21.6864   -6.0746   22.5288 C   0  0  0  0  0  0
  -21.4016   -6.5649   23.8211 C   0  0  0  0  0  0
  -21.3664   -5.6796   24.9180 C   0  0  0  0  0  0
  -21.6044   -4.3058   24.7222 C   0  0  0  0  0  0
  -21.8819   -3.8153   23.4341 C   0  0  0  0  0  0
  -21.9199   -4.6982   22.3399 C   0  0  0  0  0  0
  -22.7698  -13.5176   21.1913 C   0  0  0  0  0  0
  -22.1676   -4.2163   21.0979 F   0  0  0  0  0  0
  -21.5628   -3.4539   25.7733 F   0  0  0  0  0  0
  -29.7750  -14.2421   20.3190 N   0  0  0  0  0  0
  -26.2696  -12.9638   20.3141 N   0  0  0  0  0  0
  -25.9322  -11.6704   20.5646 N   0  0  0  0  0  0
  -22.0370  -12.8167   22.0463 N   0  0  0  0  0  0
  -25.3929  -15.2050   20.4300 N   0  0  0  0  0  0
  -31.5524  -15.6266   20.1117 O   0  0  0  0  0  0
  -21.6655   -6.8897   21.4247 O   0  0  0  0  0  0
  -22.3397  -14.5487   20.6757 O   0  0  0  0  0  0
  -24.6862  -31.7967   23.1501 C   0  0  0  0  0  0
  -25.9445  -32.4424   23.8053 C   0  0  1  0  0  0
  -27.2191  -26.6791   20.2366 C   0  0  0  0  0  0
  -25.6033  -33.8263   24.1940 N   0  0  0  0  0  0
  -23.5104  -30.3992   21.5037 C   0  0  2  0  0  0
  -24.9700  -28.7354   20.1200 C   0  0  0  0  0  0
  -22.7792  -29.4297   22.4711 C   0  0  0  0  0  0
  -18.0319  -28.1415   22.8412 C   0  0  0  0  0  0
  -24.1514  -36.7124   23.2651 C   0  0  0  0  0  0
  -26.0932  -30.5237   21.4196 C   0  0  0  0  0  0
  -26.1552  -29.0846   20.7764 C   0  0  0  0  0  0
  -27.2600  -28.0829   20.8071 C   0  0  0  0  0  0
  -26.0018  -26.5476   19.5200 C   0  0  0  0  0  0
  -24.9318  -27.4935   19.4654 C   0  0  0  0  0  0
  -23.7625  -29.6898   20.1420 C   0  0  0  0  0  0
  -25.4165  -36.2870   24.0278 C   0  0  1  0  0  0
  -20.5951  -28.3770   23.1119 C   0  0  2  0  0  0
  -20.6796  -26.9421   22.5401 C   0  0  0  0  0  0
  -19.5789  -26.6362   21.5203 C   0  0  0  0  0  0
  -18.1952  -26.7936   22.1591 C   0  0  0  0  0  0
  -19.1593  -28.8921   23.2731 C   0  0  0  0  0  0
  -18.9496  -30.1487   23.8806 C   0  0  0  0  0  0
  -17.6491  -30.6600   24.0526 C   0  0  0  0  0  0
  -25.9143  -34.9261   23.4943 C   0  0  0  0  0  0
  -16.5378  -29.9081   23.6342 C   0  0  0  0  0  0
  -16.7285  -28.6500   23.0362 C   0  0  0  0  0  0
  -26.4632  -31.6455   25.0678 C   0  0  0  0  0  0
  -25.3696  -31.3756   26.1282 C   0  0  0  0  0  0
  -27.0562  -30.2785   24.6578 C   0  0  0  0  0  0
  -27.6082  -32.4308   25.7489 C   0  0  0  0  0  0
  -27.5565  -37.1725   24.8479 C   0  0  0  0  0  0
  -21.4435  -29.3010   22.3453 N   0  0  0  0  0  0
  -26.4292  -37.3628   23.9392 N   0  0  0  0  0  0
  -24.7869  -30.9428   22.0758 N   0  0  0  0  0  0
  -23.4227  -28.7890   23.3050 O   0  0  0  0  0  0
  -28.1792  -25.4464   20.2837 O   0  0  0  0  0  0
  -26.5782  -34.8845   22.4552 O   0  0  0  0  0  0
  -23.5876  -32.1049   23.6461 O   0  0  0  0  0  0
  -28.0210  -22.2939   20.4092 C   0  0  0  0  0  0
  -27.9188  -23.8492   20.3308 C   0  0  0  0  0  0
  -28.4471  -20.4893   20.5201 C   0  0  0  0  0  0
  -29.6086  -18.9888   20.3032 C   0  0  0  0  0  0
  -27.3826  -19.9215   20.9070 N   0  0  0  0  0  0
  -29.3793  -17.2442   20.4563 O   0  0  0  0  0  0
  -31.4202  -13.3343   19.2387 H   0  0  0  0  0  0
  -30.5715  -12.2275   20.2586 H   0  0  0  0  0  0
  -30.0284  -11.8127   17.8387 H   0  0  0  0  0  0
  -29.5400  -13.4783   17.6343 H   0  0  0  0  0  0
  -28.1604  -11.3096   19.2262 H   0  0  0  0  0  0
  -27.4748  -12.2364   17.9091 H   0  0  0  0  0  0
  -27.4471  -14.2319   19.2324 H   0  0  0  0  0  0
  -28.8021  -12.7992   21.5626 H   0  0  0  0  0  0
  -28.1296  -14.4118   21.6094 H   0  0  0  0  0  0
  -25.2788   -9.5716   22.4765 H   0  0  0  0  0  0
  -24.0027   -7.4663   22.7484 H   0  0  0  0  0  0
  -21.0871   -8.8788   19.8948 H   0  0  0  0  0  0
  -22.3731  -10.9684   19.6160 H   0  0  0  0  0  0
  -21.2002   -7.6153   23.9720 H   0  0  0  0  0  0
  -21.1489   -6.0527   25.9078 H   0  0  0  0  0  0
  -22.0589   -2.7618   23.2832 H   0  0  0  0  0  0
  -22.4016  -11.9849   22.4874 H   0  0  0  0  0  0
  -21.0980  -13.1161   22.2640 H   0  0  0  0  0  0
  -24.6314  -15.8611   20.5680 H   0  0  0  0  0  0
  -26.2514  -15.6484   20.1291 H   0  0  0  0  0  0
  -26.7543  -32.4891   23.0772 H   0  0  0  0  0  0
  -25.0102  -33.9295   25.0042 H   0  0  0  0  0  0
  -22.8314  -31.2329   21.3104 H   0  0  0  0  0  0
  -23.3791  -35.9438   23.3292 H   0  0  0  0  0  0
  -24.3578  -36.8806   22.2070 H   0  0  0  0  0  0
  -23.7269  -37.6296   23.6741 H   0  0  0  0  0  0
  -26.3018  -31.2419   20.6247 H   0  0  0  0  0  0
  -26.9412  -30.5906   22.0869 H   0  0  0  0  0  0
  -28.1477  -28.3591   21.3598 H   0  0  0  0  0  0
  -25.8304  -25.6058   19.0202 H   0  0  0  0  0  0
  -24.0359  -27.2188   18.9248 H   0  0  0  0  0  0
  -23.9281  -30.4369   19.3689 H   0  0  0  0  0  0
  -22.8684  -29.1471   19.8305 H   0  0  0  0  0  0
  -25.1381  -36.1627   25.0773 H   0  0  0  0  0  0
  -21.0002  -28.3419   24.1257 H   0  0  0  0  0  0
  -20.5650  -26.2395   23.3668 H   0  0  0  0  0  0
  -21.6657  -26.7364   22.1226 H   0  0  0  0  0  0
  -19.6963  -25.6263   21.1258 H   0  0  0  0  0  0
  -19.6759  -27.3149   20.6722 H   0  0  0  0  0  0
  -17.4229  -26.6607   21.3997 H   0  0  0  0  0  0
  -18.0356  -26.0120   22.9034 H   0  0  0  0  0  0
  -19.7975  -30.7283   24.2185 H   0  0  0  0  0  0
  -17.5052  -31.6276   24.5133 H   0  0  0  0  0  0
  -15.5372  -30.2961   23.7739 H   0  0  0  0  0  0
  -15.8673  -28.0789   22.7173 H   0  0  0  0  0  0
  -24.5933  -30.7048   25.7582 H   0  0  0  0  0  0
  -24.8833  -32.2968   26.4492 H   0  0  0  0  0  0
  -25.7881  -30.9070   27.0195 H   0  0  0  0  0  0
  -26.3303  -29.6391   24.1544 H   0  0  0  0  0  0
  -27.3952  -29.7215   25.5325 H   0  0  0  0  0  0
  -27.9292  -30.3895   24.0139 H   0  0  0  0  0  0
  -27.2639  -33.3681   26.1854 H   0  0  0  0  0  0
  -28.3999  -32.6733   25.0391 H   0  0  0  0  0  0
  -28.0636  -31.8574   26.5564 H   0  0  0  0  0  0
  -28.2585  -38.0015   24.7484 H   0  0  0  0  0  0
  -28.1062  -36.2537   24.6380 H   0  0  0  0  0  0
  -27.2263  -37.1447   25.8878 H   0  0  0  0  0  0
  -20.9779  -29.8646   21.6475 H   0  0  0  0  0  0
  -26.0117  -38.2682   24.1356 H   0  0  0  0  0  0
  -26.9507  -22.1584   20.4101 H   0  0  0  0  0  0
  -28.9957  -23.7636   20.3468 H   0  0  0  0  0  0
  -30.4527  -19.1904   20.9621 H   0  0  0  0  0  0
  -30.0138  -19.0968   19.2961 H   0  0  0  0  0  0
  -27.4939  -18.9148   20.9626 H   0  0  0  0  0  0
  1 25  1  0  0  0
  1 30  2  0  0  0
  1 76  1  0  0  0
  2  3  1  0  0  0
  2 25  1  0  0  0
  2 77  1  0  0  0
  2 78  1  0  0  0
  3  4  1  0  0  0
  3 79  1  0  0  0
  3 80  1  0  0  0
  4  5  1  0  0  0
  4 81  1  0  0  0
  4 82  1  0  0  0
  5  6  1  0  0  0
  5 26  1  0  0  0
  5 83  1  0  0  0
  6 25  1  0  0  0
  6 84  1  0  0  0
  6 85  1  0  0  0
  7  8  2  0  0  0
  7 26  1  0  0  0
  7 29  1  0  0  0
  8  9  1  0  0  0
  8 22  1  0  0  0
  9 10  1  0  0  0
  9 27  2  0  0  0
 10 11  2  0  0  0
 10 15  1  0  0  0
 11 12  1  0  0  0
 11 86  1  0  0  0
 12 13  2  0  0  0
 12 87  1  0  0  0
 13 14  1  0  0  0
 13 31  1  0  0  0
 14 15  2  0  0  0
 14 88  1  0  0  0
 15 89  1  0  0  0
 16 17  2  0  0  0
 16 21  1  0  0  0
 16 31  1  0  0  0
 17 18  1  0  0  0
 17 90  1  0  0  0
 18 19  2  0  0  0
 18 91  1  0  0  0
 19 20  1  0  0  0
 19 24  1  0  0  0
 20 21  2  0  0  0
 20 92  1  0  0  0
 21 23  1  0  0  0
 22 28  1  0  0  0
 22 32  2  0  0  0
 26 27  1  0  0  0
 28 93  1  0  0  0
 28 94  1  0  0  0
 29 95  1  0  0  0
 29 96  1  0  0  0
 33 34  1  0  0  0
 33 66  1  0  0  0
 33 70  2  0  0  0
 34 36  1  0  0  0
 34 59  1  0  0  0
 34 97  1  0  0  0
 35 44  2  0  0  0
 35 45  1  0  0  0
 35 68  1  0  0  0
 36 56  1  0  0  0
 36 98  1  0  0  0
 37 39  1  0  0  0
 37 47  1  0  0  0
 37 66  1  0  0  0
 37 99  1  0  0  0
 38 43  2  0  0  0
 38 46  1  0  0  0
 38 47  1  0  0  0
 39 64  1  0  0  0
 39 67  2  0  0  0
 40 52  1  0  0  0
 40 53  2  0  0  0
 40 58  1  0  0  0
 41100  1  0  0  0
 41101  1  0  0  0
 41102  1  0  0  0
 41 48  1  0  0  0
 42 43  1  0  0  0
 42 66  1  0  0  0
 42103  1  0  0  0
 42104  1  0  0  0
 43 44  1  0  0  0
 44105  1  0  0  0
 45 46  2  0  0  0
 45106  1  0  0  0
 46107  1  0  0  0
 47108  1  0  0  0
 47109  1  0  0  0
 48 56  1  0  0  0
 48 65  1  0  0  0
 48110  1  0  0  0
 49 50  1  0  0  0
 49 53  1  0  0  0
 49 64  1  0  0  0
 49111  1  0  0  0
 50 51  1  0  0  0
 50112  1  0  0  0
 50113  1  0  0  0
 51 52  1  0  0  0
 51114  1  0  0  0
 51115  1  0  0  0
 52116  1  0  0  0
 52117  1  0  0  0
 53 54  1  0  0  0
 54 55  2  0  0  0
 54118  1  0  0  0
 55 57  1  0  0  0
 55119  1  0  0  0
 56 69  2  0  0  0
 57 58  2  0  0  0
 57120  1  0  0  0
 58121  1  0  0  0
 59 60  1  0  0  0
 59 61  1  0  0  0
 59 62  1  0  0  0
 60122  1  0  0  0
 60123  1  0  0  0
 60124  1  0  0  0
 61125  1  0  0  0
 61126  1  0  0  0
 61127  1  0  0  0
 62128  1  0  0  0
 62129  1  0  0  0
 62130  1  0  0  0
 63 65  1  0  0  0
 63131  1  0  0  0
 63132  1  0  0  0
 63133  1  0  0  0
 64134  1  0  0  0
 65135  1  0  0  0
 68 72  1  0  0  0
 71 72  2  0  0  0
 71 73  1  0  0  0
 71136  1  0  0  0
 72137  1  0  0  0
 73 74  1  0  0  0
 73 75  2  0  0  0
 74 76  1  0  0  0
 74138  1  0  0  0
 74139  1  0  0  0
 75140  1  0  0  0
M  ISO  4   1 100  68 101  72 101  76 100
M  END
> <chiral flag>
0

> <version>
0

> <s_m_source_file>
/data/baiqing/PycharmProjects/Reinvent-master-3.2/result/LINK_invent/BTK/process_docking_weight1_custom_product_contain_oxygen_bond_distance_aromatic_linkinvent_7_9_3/rearranged_h_0069.sdf

> <i_m_source_file_index>
1

> <r_mmod_Potential_Energy-OPLS-2005>
3057.45068359375

> <r_mmod_Stretch_Energy-OPLS-2005>
1251.16088867188

> <r_mmod_Bend_Energy-OPLS-2005>
1137.55749511719

> <r_mmod_Torsional_Energy-OPLS-2005>
173.679733276367

> <r_mmod_Improper_Torsional_Energy-OPLS-2005>
3.05196118354797

> <r_mmod_Van_der_Waal_Energy-OPLS-2005>
113.379981994629

> <r_mmod_Electrostatic_Energy-OPLS-2005>
-352.130432128906

> <r_mmod_Solvation_Energy-OPLS-2005>
-203.161666870117

> <b_mmod_Minimization_Converged-OPLS-2005>
0

> <r_mmod_RMS_Derivative-OPLS-2005>
5.22090911865234

$$$$
1
                    3D
 Structure written by MMmdl.
150158  0  0  1  0            999 V2000
  -30.6073  -14.6759   20.4867 C   0  0  0  0  0  0
  -30.4404  -12.4121   19.4590 C   0  0  0  0  0  0
  -29.5105  -12.5076   18.2283 C   0  0  0  0  0  0
  -28.0337  -12.3402   18.6395 C   0  0  0  0  0  0
  -27.6509  -13.2181   19.8604 C   0  0  2  0  0  0
  -28.6959  -13.0919   20.9921 C   0  0  0  0  0  0
  -25.2554  -13.8172   20.5681 C   0  0  0  0  0  0
  -24.1826  -13.0437   20.9199 C   0  0  0  0  0  0
  -24.6395  -11.6908   20.8745 C   0  0  0  0  0  0
  -23.9063  -10.4291   21.0408 C   0  0  0  0  0  0
  -24.3615   -9.4206   21.9185 C   0  0  0  0  0  0
  -23.6290   -8.2242   22.0754 C   0  0  0  0  0  0
  -22.4273   -8.0281   21.3543 C   0  0  0  0  0  0
  -21.9907   -9.0255   20.4647 C   0  0  0  0  0  0
  -22.7236  -10.2135   20.3058 C   0  0  0  0  0  0
  -21.6853   -6.0735   22.5278 C   0  0  0  0  0  0
  -21.4015   -6.5639   23.8211 C   0  0  0  0  0  0
  -21.3659   -5.6791   24.9173 C   0  0  0  0  0  0
  -21.6043   -4.3053   24.7224 C   0  0  0  0  0  0
  -21.8820   -3.8145   23.4345 C   0  0  0  0  0  0
  -21.9193   -4.6962   22.3401 C   0  0  0  0  0  0
  -22.7849  -13.5230   21.1857 C   0  0  0  0  0  0
  -22.1661   -4.2148   21.0979 F   0  0  0  0  0  0
  -21.5627   -3.4538   25.7737 F   0  0  0  0  0  0
  -30.0073  -13.4424   20.4256 N   0  0  0  0  0  0
  -26.2977  -12.9352   20.3302 N   0  0  0  0  0  0
  -25.9324  -11.6509   20.5756 N   0  0  0  0  0  0
  -22.0488  -12.8226   22.0414 N   0  0  0  0  0  0
  -25.4263  -15.1894   20.4076 N   0  0  0  0  0  0
  -31.7782  -14.8259   20.1250 O   0  0  0  0  0  0
  -21.6639   -6.8878   21.4240 O   0  0  0  0  0  0
  -22.3536  -14.5535   20.6701 O   0  0  0  0  0  0
  -24.6278  -31.8584   23.2013 C   0  0  0  0  0  0
  -25.9118  -32.4771   23.8346 C   0  0  1  0  0  0
  -27.2231  -27.3016   20.1185 C   0  0  0  0  0  0
  -25.5926  -33.8572   24.2272 N   0  0  0  0  0  0
  -23.4223  -30.4822   21.5443 C   0  0  2  0  0  0
  -24.8687  -28.9356   20.1108 C   0  0  0  0  0  0
  -22.7483  -29.4618   22.4928 C   0  0  0  0  0  0
  -18.0288  -28.1385   22.8487 C   0  0  0  0  0  0
  -24.1489  -36.7292   23.2639 C   0  0  0  0  0  0
  -25.9654  -30.7840   21.3750 C   0  0  0  0  0  0
  -26.0392  -29.4105   20.7158 C   0  0  0  0  0  0
  -27.2195  -28.6060   20.7082 C   0  0  0  0  0  0
  -26.0274  -26.8846   19.4887 C   0  0  0  0  0  0
  -24.8660  -27.6790   19.4878 C   0  0  0  0  0  0
  -23.6378  -29.8177   20.1597 C   0  0  0  0  0  0
  -25.4114  -36.3079   24.0328 C   0  0  1  0  0  0
  -20.5890  -28.3691   23.1278 C   0  0  2  0  0  0
  -20.6777  -26.9413   22.5408 C   0  0  0  0  0  0
  -19.5750  -26.6383   21.5212 C   0  0  0  0  0  0
  -18.1932  -26.7926   22.1627 C   0  0  0  0  0  0
  -19.1541  -28.8855   23.2878 C   0  0  0  0  0  0
  -18.9463  -30.1456   23.8895 C   0  0  0  0  0  0
  -17.6462  -30.6587   24.0563 C   0  0  0  0  0  0
  -25.9052  -34.9448   23.5101 C   0  0  0  0  0  0
  -16.5354  -29.9085   23.6329 C   0  0  0  0  0  0
  -16.7275  -28.6502   23.0352 C   0  0  0  0  0  0
  -26.4496  -31.6586   25.0724 C   0  0  0  0  0  0
  -25.3725  -31.3732   26.1449 C   0  0  0  0  0  0
  -27.0342  -30.3007   24.6191 C   0  0  0  0  0  0
  -27.6050  -32.4327   25.7496 C   0  0  0  0  0  0
  -27.5580  -37.1800   24.8464 C   0  0  0  0  0  0
  -21.4194  -29.3044   22.3671 N   0  0  0  0  0  0
  -26.4291  -37.3774   23.9409 N   0  0  0  0  0  0
  -24.6908  -31.0583   22.0970 N   0  0  0  0  0  0
  -23.4200  -28.8156   23.3011 O   0  0  0  0  0  0
  -28.3348  -26.4395   20.1725 O   0  0  0  0  0  0
  -26.5623  -34.8918   22.4669 O   0  0  0  0  0  0
  -23.5437  -32.1389   23.7332 O   0  0  0  0  0  0
  -31.1099  -19.3271   20.2361 C   0  0  0  0  0  0
  -31.0704  -17.9001   20.2919 C   0  0  0  0  0  0
  -28.7697  -18.0345   20.9505 C   0  0  0  0  0  0
  -29.9949  -20.1667   20.5435 C   0  0  0  0  0  0
  -29.8960  -17.2003   20.6702 C   0  0  0  0  0  0
  -28.8079  -19.4686   20.8935 C   0  0  0  0  0  0
  -30.1958  -21.7061   20.6431 C   0  0  0  0  0  0
  -29.3162  -24.0311   20.4225 C   0  0  0  0  0  0
  -28.1042  -24.9693   20.0272 C   0  0  0  0  0  0
  -29.7797  -15.7339   20.7933 N   0  0  0  0  0  0
  -29.2164  -22.6442   20.3736 N   0  0  0  0  0  0
  -31.3438  -22.0519   20.9504 O   0  0  0  0  0  0
  -30.3494  -24.6164   20.7710 O   0  0  0  0  0  0
  -27.6910  -20.1689   21.2097 F   0  0  0  0  0  0
  -31.4808  -12.5426   19.1564 H   0  0  0  0  0  0
  -30.3827  -11.4208   19.9113 H   0  0  0  0  0  0
  -29.7808  -11.7502   17.4914 H   0  0  0  0  0  0
  -29.6471  -13.4731   17.7383 H   0  0  0  0  0  0
  -27.8761  -11.2879   18.8788 H   0  0  0  0  0  0
  -27.3790  -12.5603   17.7955 H   0  0  0  0  0  0
  -27.6625  -14.2496   19.5082 H   0  0  0  0  0  0
  -28.7156  -12.0745   21.3858 H   0  0  0  0  0  0
  -28.4373  -13.7328   21.8364 H   0  0  0  0  0  0
  -25.2763   -9.5681   22.4758 H   0  0  0  0  0  0
  -23.9999   -7.4634   22.7474 H   0  0  0  0  0  0
  -21.0837   -8.8776   19.8955 H   0  0  0  0  0  0
  -22.3695  -10.9675   19.6167 H   0  0  0  0  0  0
  -21.2011   -7.6148   23.9714 H   0  0  0  0  0  0
  -21.1479   -6.0522   25.9075 H   0  0  0  0  0  0
  -22.0600   -2.7608   23.2847 H   0  0  0  0  0  0
  -22.4102  -11.9889   22.4806 H   0  0  0  0  0  0
  -21.1107  -13.1258   22.2618 H   0  0  0  0  0  0
  -24.6530  -15.8386   20.5038 H   0  0  0  0  0  0
  -26.2597  -15.6224   20.0316 H   0  0  0  0  0  0
  -26.7186  -32.5435   23.1094 H   0  0  0  0  0  0
  -25.0067  -33.9712   25.0411 H   0  0  0  0  0  0
  -22.7169  -31.3033   21.4010 H   0  0  0  0  0  0
  -23.3749  -35.9626   23.3300 H   0  0  0  0  0  0
  -24.3580  -36.8916   22.2054 H   0  0  0  0  0  0
  -23.7244  -37.6494   23.6663 H   0  0  0  0  0  0
  -26.0999  -31.5475   20.6075 H   0  0  0  0  0  0
  -26.8447  -30.8316   22.0059 H   0  0  0  0  0  0
  -28.1168  -28.9655   21.1922 H   0  0  0  0  0  0
  -25.9582  -25.9260   18.9974 H   0  0  0  0  0  0
  -23.9692  -27.3102   19.0088 H   0  0  0  0  0  0
  -23.7586  -30.5946   19.4038 H   0  0  0  0  0  0
  -22.7570  -29.2489   19.8562 H   0  0  0  0  0  0
  -25.1294  -36.1930   25.0820 H   0  0  0  0  0  0
  -20.9983  -28.3267   24.1398 H   0  0  0  0  0  0
  -20.5679  -26.2301   23.3608 H   0  0  0  0  0  0
  -21.6645  -26.7440   22.1200 H   0  0  0  0  0  0
  -19.6911  -25.6294   21.1242 H   0  0  0  0  0  0
  -19.6685  -27.3193   20.6742 H   0  0  0  0  0  0
  -17.4198  -26.6670   21.4034 H   0  0  0  0  0  0
  -18.0337  -26.0071   22.9027 H   0  0  0  0  0  0
  -19.7938  -30.7274   24.2263 H   0  0  0  0  0  0
  -17.5016  -31.6266   24.5165 H   0  0  0  0  0  0
  -15.5354  -30.2987   23.7653 H   0  0  0  0  0  0
  -15.8676  -28.0820   22.7069 H   0  0  0  0  0  0
  -24.5891  -30.7092   25.7776 H   0  0  0  0  0  0
  -24.8930  -32.2904   26.4878 H   0  0  0  0  0  0
  -25.8044  -30.8900   27.0222 H   0  0  0  0  0  0
  -26.2922  -29.6756   24.1210 H   0  0  0  0  0  0
  -27.4029  -29.7266   25.4701 H   0  0  0  0  0  0
  -27.8795  -30.4289   23.9426 H   0  0  0  0  0  0
  -27.2653  -33.3625   26.2072 H   0  0  0  0  0  0
  -28.3861  -32.6892   25.0326 H   0  0  0  0  0  0
  -28.0718  -31.8457   26.5416 H   0  0  0  0  0  0
  -28.2592  -38.0102   24.7515 H   0  0  0  0  0  0
  -28.1081  -36.2634   24.6281 H   0  0  0  0  0  0
  -27.2298  -37.1439   25.8867 H   0  0  0  0  0  0
  -20.9373  -29.8771   21.6885 H   0  0  0  0  0  0
  -26.0171  -38.2848   24.1412 H   0  0  0  0  0  0
  -32.0518  -19.7909   19.9783 H   0  0  0  0  0  0
  -31.9744  -17.3550   20.0595 H   0  0  0  0  0  0
  -27.8370  -17.5735   21.2409 H   0  0  0  0  0  0
  -27.2515  -24.6708   20.6384 H   0  0  0  0  0  0
  -27.8559  -24.7465   18.9893 H   0  0  0  0  0  0
  -28.8671  -15.4162   21.0815 H   0  0  0  0  0  0
  -28.3198  -22.2658   20.1088 H   0  0  0  0  0  0
  1 25  1  0  0  0
  1 30  2  0  0  0
  1 80  1  0  0  0
  2  3  1  0  0  0
  2 25  1  0  0  0
  2 85  1  0  0  0
  2 86  1  0  0  0
  3  4  1  0  0  0
  3 87  1  0  0  0
  3 88  1  0  0  0
  4  5  1  0  0  0
  4 89  1  0  0  0
  4 90  1  0  0  0
  5  6  1  0  0  0
  5 26  1  0  0  0
  5 91  1  0  0  0
  6 25  1  0  0  0
  6 92  1  0  0  0
  6 93  1  0  0  0
  7  8  2  0  0  0
  7 26  1  0  0  0
  7 29  1  0  0  0
  8  9  1  0  0  0
  8 22  1  0  0  0
  9 10  1  0  0  0
  9 27  2  0  0  0
 10 11  2  0  0  0
 10 15  1  0  0  0
 11 12  1  0  0  0
 11 94  1  0  0  0
 12 13  2  0  0  0
 12 95  1  0  0  0
 13 14  1  0  0  0
 13 31  1  0  0  0
 14 15  2  0  0  0
 14 96  1  0  0  0
 15 97  1  0  0  0
 16 17  2  0  0  0
 16 21  1  0  0  0
 16 31  1  0  0  0
 17 18  1  0  0  0
 17 98  1  0  0  0
 18 19  2  0  0  0
 18 99  1  0  0  0
 19 20  1  0  0  0
 19 24  1  0  0  0
 20 21  2  0  0  0
 20100  1  0  0  0
 21 23  1  0  0  0
 22 28  1  0  0  0
 22 32  2  0  0  0
 26 27  1  0  0  0
 28101  1  0  0  0
 28102  1  0  0  0
 29103  1  0  0  0
 29104  1  0  0  0
 33 34  1  0  0  0
 33 66  1  0  0  0
 33 70  2  0  0  0
 34 36  1  0  0  0
 34 59  1  0  0  0
 34105  1  0  0  0
 35 44  2  0  0  0
 35 45  1  0  0  0
 35 68  1  0  0  0
 36 56  1  0  0  0
 36106  1  0  0  0
 37 39  1  0  0  0
 37 47  1  0  0  0
 37 66  1  0  0  0
 37107  1  0  0  0
 38 43  2  0  0  0
 38 46  1  0  0  0
 38 47  1  0  0  0
 39 64  1  0  0  0
 39 67  2  0  0  0
 40 52  1  0  0  0
 40 53  2  0  0  0
 40 58  1  0  0  0
 41108  1  0  0  0
 41109  1  0  0  0
 41110  1  0  0  0
 41 48  1  0  0  0
 42 43  1  0  0  0
 42 66  1  0  0  0
 42111  1  0  0  0
 42112  1  0  0  0
 43 44  1  0  0  0
 44113  1  0  0  0
 45 46  2  0  0  0
 45114  1  0  0  0
 46115  1  0  0  0
 47116  1  0  0  0
 47117  1  0  0  0
 48 56  1  0  0  0
 48 65  1  0  0  0
 48118  1  0  0  0
 49 50  1  0  0  0
 49 53  1  0  0  0
 49 64  1  0  0  0
 49119  1  0  0  0
 50 51  1  0  0  0
 50120  1  0  0  0
 50121  1  0  0  0
 51 52  1  0  0  0
 51122  1  0  0  0
 51123  1  0  0  0
 52124  1  0  0  0
 52125  1  0  0  0
 53 54  1  0  0  0
 54 55  2  0  0  0
 54126  1  0  0  0
 55 57  1  0  0  0
 55127  1  0  0  0
 56 69  2  0  0  0
 57 58  2  0  0  0
 57128  1  0  0  0
 58129  1  0  0  0
 59 60  1  0  0  0
 59 61  1  0  0  0
 59 62  1  0  0  0
 60130  1  0  0  0
 60131  1  0  0  0
 60132  1  0  0  0
 61133  1  0  0  0
 61134  1  0  0  0
 61135  1  0  0  0
 62136  1  0  0  0
 62137  1  0  0  0
 62138  1  0  0  0
 63 65  1  0  0  0
 63139  1  0  0  0
 63140  1  0  0  0
 63141  1  0  0  0
 64142  1  0  0  0
 65143  1  0  0  0
 68 79  1  0  0  0
 71 72  2  0  0  0
 71 74  1  0  0  0
 71144  1  0  0  0
 72 75  1  0  0  0
 72145  1  0  0  0
 73 75  2  0  0  0
 73 76  1  0  0  0
 73146  1  0  0  0
 74 76  2  0  0  0
 74 77  1  0  0  0
 75 80  1  0  0  0
 76 84  1  0  0  0
 77 81  1  0  0  0
 77 82  2  0  0  0
 78 79  1  0  0  0
 78 81  1  0  0  0
 78 83  2  0  0  0
 79147  1  0  0  0
 79148  1  0  0  0
 80149  1  0  0  0
 81150  1  0  0  0
M  ISO  4   1 100  68 101  79 101  80 100
M  END
> <chiral flag>
0

> <version>
0

> <s_m_source_file>
/data/baiqing/PycharmProjects/Reinvent-master-3.2/result/LINK_invent/BTK/process_docking_weight1_custom_product_contain_oxygen_bond_distance_aromatic_linkinvent_7_9_3/rearranged_h_0069.sdf

> <i_m_source_file_index>
2

> <r_mmod_Potential_Energy-OPLS-2005>
-25.2279872894287

> <r_mmod_Stretch_Energy-OPLS-2005>
93.0222396850586

> <r_mmod_Bend_Energy-OPLS-2005>
149.318771362305

> <r_mmod_Torsional_Energy-OPLS-2005>
218.844543457031

> <r_mmod_Improper_Torsional_Energy-OPLS-2005>
5.19262266159058

> <r_mmod_Van_der_Waal_Energy-OPLS-2005>
153.32763671875

> <r_mmod_Electrostatic_Energy-OPLS-2005>
-423.644866943359

> <r_mmod_Solvation_Energy-OPLS-2005>
-280.388793945312

> <b_mmod_Minimization_Converged-OPLS-2005>
0

> <r_mmod_RMS_Derivative-OPLS-2005>
0.22262866795063

$$$$
2
                    3D
 Structure written by MMmdl.
160168  0  0  1  0            999 V2000
  -30.6331  -14.7466   20.4696 C   0  0  0  0  0  0
  -30.4408  -12.4396   19.4971 C   0  0  0  0  0  0
  -29.5183  -12.3890   18.2599 C   0  0  0  0  0  0
  -28.0317  -12.2971   18.6559 C   0  0  0  0  0  0
  -27.6410  -13.2211   19.8403 C   0  0  2  0  0  0
  -28.6803  -13.1644   20.9731 C   0  0  0  0  0  0
  -25.2534  -13.8197   20.5691 C   0  0  0  0  0  0
  -24.1808  -13.0452   20.9196 C   0  0  0  0  0  0
  -24.6382  -11.6930   20.8762 C   0  0  0  0  0  0
  -23.9054  -10.4308   21.0415 C   0  0  0  0  0  0
  -24.3610   -9.4222   21.9184 C   0  0  0  0  0  0
  -23.6296   -8.2250   22.0743 C   0  0  0  0  0  0
  -22.4281   -8.0280   21.3532 C   0  0  0  0  0  0
  -21.9914   -9.0256   20.4641 C   0  0  0  0  0  0
  -22.7234  -10.2143   20.3058 C   0  0  0  0  0  0
  -21.6861   -6.0739   22.5280 C   0  0  0  0  0  0
  -21.4021   -6.5640   23.8214 C   0  0  0  0  0  0
  -21.3659   -5.6788   24.9172 C   0  0  0  0  0  0
  -21.6041   -4.3049   24.7223 C   0  0  0  0  0  0
  -21.8821   -3.8146   23.4342 C   0  0  0  0  0  0
  -21.9198   -4.6965   22.3403 C   0  0  0  0  0  0
  -22.7833  -13.5236   21.1861 C   0  0  0  0  0  0
  -22.1664   -4.2152   21.0980 F   0  0  0  0  0  0
  -21.5624   -3.4533   25.7732 F   0  0  0  0  0  0
  -29.9803  -13.5301   20.3912 N   0  0  0  0  0  0
  -26.2934  -12.9375   20.3248 N   0  0  0  0  0  0
  -25.9307  -11.6537   20.5796 N   0  0  0  0  0  0
  -22.0479  -12.8232   22.0418 N   0  0  0  0  0  0
  -25.4276  -15.1921   20.4153 N   0  0  0  0  0  0
  -31.8100  -14.8221   20.1059 O   0  0  0  0  0  0
  -21.6642   -6.8880   21.4239 O   0  0  0  0  0  0
  -22.3514  -14.5536   20.6701 O   0  0  0  0  0  0
  -24.6286  -31.8574   23.2012 C   0  0  0  0  0  0
  -25.9122  -32.4766   23.8345 C   0  0  1  0  0  0
  -27.2198  -27.2823   20.1290 C   0  0  0  0  0  0
  -25.5933  -33.8569   24.2270 N   0  0  0  0  0  0
  -23.4247  -30.4814   21.5434 C   0  0  2  0  0  0
  -24.8728  -28.9361   20.1084 C   0  0  0  0  0  0
  -22.7490  -29.4609   22.4913 C   0  0  0  0  0  0
  -18.0289  -28.1390   22.8477 C   0  0  0  0  0  0
  -24.1492  -36.7293   23.2638 C   0  0  0  0  0  0
  -25.9690  -30.7783   21.3783 C   0  0  0  0  0  0
  -26.0431  -29.4033   20.7197 C   0  0  0  0  0  0
  -27.2186  -28.5883   20.7213 C   0  0  0  0  0  0
  -26.0284  -26.8882   19.4744 C   0  0  0  0  0  0
  -24.8699  -27.6862   19.4743 C   0  0  0  0  0  0
  -23.6426  -29.8195   20.1579 C   0  0  0  0  0  0
  -25.4117  -36.3077   24.0323 C   0  0  1  0  0  0
  -20.5890  -28.3696   23.1272 C   0  0  2  0  0  0
  -20.6779  -26.9414   22.5407 C   0  0  0  0  0  0
  -19.5760  -26.6383   21.5207 C   0  0  0  0  0  0
  -18.1939  -26.7931   22.1618 C   0  0  0  0  0  0
  -19.1542  -28.8861   23.2869 C   0  0  0  0  0  0
  -18.9464  -30.1462   23.8884 C   0  0  0  0  0  0
  -17.6463  -30.6589   24.0563 C   0  0  0  0  0  0
  -25.9054  -34.9445   23.5097 C   0  0  0  0  0  0
  -16.5353  -29.9087   23.6331 C   0  0  0  0  0  0
  -16.7276  -28.6508   23.0343 C   0  0  0  0  0  0
  -26.4500  -31.6580   25.0722 C   0  0  0  0  0  0
  -25.3730  -31.3720   26.1447 C   0  0  0  0  0  0
  -27.0344  -30.2999   24.6191 C   0  0  0  0  0  0
  -27.6056  -32.4315   25.7498 C   0  0  0  0  0  0
  -27.5580  -37.1803   24.8463 C   0  0  0  0  0  0
  -21.4199  -29.3046   22.3663 N   0  0  0  0  0  0
  -26.4294  -37.3773   23.9404 N   0  0  0  0  0  0
  -24.6929  -31.0562   22.0976 N   0  0  0  0  0  0
  -23.4202  -28.8142   23.2998 O   0  0  0  0  0  0
  -28.3129  -26.3895   20.2137 O   0  0  0  0  0  0
  -26.5624  -34.8914   22.4664 O   0  0  0  0  0  0
  -23.5442  -32.1385   23.7322 O   0  0  0  0  0  0
  -29.6230  -18.4390   17.8873 C   0  0  0  0  0  0
  -29.5081  -19.6762   18.5261 C   0  0  0  0  0  0
  -29.6686  -18.5204   20.6509 C   0  0  0  0  0  0
  -29.7482  -17.2209   18.5892 C   0  0  0  0  0  0
  -29.4920  -19.7753   19.9280 C   0  0  0  0  0  0
  -29.8117  -17.1965   20.0248 C   0  0  0  0  0  0
  -29.7486  -16.0675   17.6725 C   0  0  0  0  0  0
  -28.7714  -22.2693   19.9825 C   0  0  0  0  0  0
  -31.0863  -15.6472   17.0996 C   0  0  0  0  0  0
  -29.7335  -16.0507   22.2666 C   0  0  0  0  0  0
  -29.0417  -23.7532   20.5097 C   0  0  0  0  0  0
  -28.0622  -24.9276   19.9908 C   0  0  0  0  0  0
  -28.6749  -15.5265   17.2862 N   0  0  0  0  0  0
  -29.3814  -21.1373   20.5142 N   0  0  0  0  0  0
  -29.9385  -15.9137   20.8176 N   0  0  0  0  0  0
  -27.9484  -22.1549   19.0710 O   0  0  0  0  0  0
  -31.4764  -12.5703   19.1798 H   0  0  0  0  0  0
  -30.4168  -11.4876   20.0297 H   0  0  0  0  0  0
  -29.7819  -11.5278   17.6450 H   0  0  0  0  0  0
  -29.6877  -13.2456   17.6219 H   0  0  0  0  0  0
  -27.8449  -11.2580   18.9281 H   0  0  0  0  0  0
  -27.3958  -12.4991   17.7932 H   0  0  0  0  0  0
  -27.6360  -14.2396   19.4545 H   0  0  0  0  0  0
  -28.7215  -12.1671   21.4140 H   0  0  0  0  0  0
  -28.3788  -13.8347   21.7747 H   0  0  0  0  0  0
  -25.2756   -9.5706   22.4752 H   0  0  0  0  0  0
  -24.0015   -7.4644   22.7456 H   0  0  0  0  0  0
  -21.0844   -8.8774   19.8952 H   0  0  0  0  0  0
  -22.3687  -10.9676   19.6164 H   0  0  0  0  0  0
  -21.2020   -7.6148   23.9722 H   0  0  0  0  0  0
  -21.1471   -6.0513   25.9075 H   0  0  0  0  0  0
  -22.0604   -2.7608   23.2841 H   0  0  0  0  0  0
  -22.4088  -11.9898   22.4819 H   0  0  0  0  0  0
  -21.1090  -13.1247   22.2607 H   0  0  0  0  0  0
  -24.6683  -15.8532   20.5372 H   0  0  0  0  0  0
  -26.2960  -15.6317   20.1391 H   0  0  0  0  0  0
  -26.7184  -32.5432   23.1087 H   0  0  0  0  0  0
  -25.0079  -33.9711   25.0413 H   0  0  0  0  0  0
  -22.7196  -31.3029   21.3994 H   0  0  0  0  0  0
  -23.3751  -35.9628   23.3300 H   0  0  0  0  0  0
  -24.3583  -36.8918   22.2052 H   0  0  0  0  0  0
  -23.7246  -37.6493   23.6664 H   0  0  0  0  0  0
  -26.1036  -31.5411   20.6104 H   0  0  0  0  0  0
  -26.8482  -30.8284   22.0087 H   0  0  0  0  0  0
  -28.1113  -28.9377   21.2209 H   0  0  0  0  0  0
  -25.9563  -25.9376   18.9675 H   0  0  0  0  0  0
  -23.9755  -27.3262   18.9845 H   0  0  0  0  0  0
  -23.7669  -30.5978   19.4042 H   0  0  0  0  0  0
  -22.7621  -29.2521   19.8510 H   0  0  0  0  0  0
  -25.1299  -36.1926   25.0815 H   0  0  0  0  0  0
  -20.9982  -28.3273   24.1393 H   0  0  0  0  0  0
  -20.5679  -26.2302   23.3608 H   0  0  0  0  0  0
  -21.6648  -26.7445   22.1200 H   0  0  0  0  0  0
  -19.6924  -25.6292   21.1245 H   0  0  0  0  0  0
  -19.6705  -27.3185   20.6732 H   0  0  0  0  0  0
  -17.4207  -26.6666   21.4023 H   0  0  0  0  0  0
  -18.0349  -26.0078   22.9021 H   0  0  0  0  0  0
  -19.7941  -30.7284   24.2240 H   0  0  0  0  0  0
  -17.5019  -31.6265   24.5172 H   0  0  0  0  0  0
  -15.5354  -30.2986   23.7668 H   0  0  0  0  0  0
  -15.8674  -28.0834   22.7051 H   0  0  0  0  0  0
  -24.5914  -30.7057   25.7777 H   0  0  0  0  0  0
  -24.8913  -32.2886   26.4862 H   0  0  0  0  0  0
  -25.8059  -30.8908   27.0226 H   0  0  0  0  0  0
  -26.2920  -29.6745   24.1219 H   0  0  0  0  0  0
  -27.4036  -29.7260   25.4701 H   0  0  0  0  0  0
  -27.8795  -30.4275   23.9421 H   0  0  0  0  0  0
  -27.2664  -33.3618   26.2065 H   0  0  0  0  0  0
  -28.3877  -32.6866   25.0336 H   0  0  0  0  0  0
  -28.0709  -31.8443   26.5424 H   0  0  0  0  0  0
  -28.2595  -38.0102   24.7509 H   0  0  0  0  0  0
  -28.1079  -36.2634   24.6295 H   0  0  0  0  0  0
  -27.2299  -37.1456   25.8866 H   0  0  0  0  0  0
  -20.9378  -29.8776   21.6878 H   0  0  0  0  0  0
  -26.0175  -38.2847   24.1408 H   0  0  0  0  0  0
  -29.5928  -18.4336   16.8058 H   0  0  0  0  0  0
  -29.4295  -20.5526   17.9003 H   0  0  0  0  0  0
  -29.6831  -18.5935   21.7276 H   0  0  0  0  0  0
  -31.8590  -16.3759   17.3475 H   0  0  0  0  0  0
  -31.0267  -15.5754   16.0136 H   0  0  0  0  0  0
  -31.3991  -14.6813   17.4906 H   0  0  0  0  0  0
  -30.4725  -16.7286   22.6947 H   0  0  0  0  0  0
  -29.8310  -15.1160   22.8221 H   0  0  0  0  0  0
  -28.7396  -16.4481   22.4738 H   0  0  0  0  0  0
  -30.0618  -24.0058   20.2202 H   0  0  0  0  0  0
  -29.0329  -23.7370   21.5990 H   0  0  0  0  0  0
  -27.0930  -24.6868   20.4297 H   0  0  0  0  0  0
  -27.9428  -24.8029   18.9139 H   0  0  0  0  0  0
  -27.8609  -15.9612   17.7074 H   0  0  0  0  0  0
  -29.8836  -21.2835   21.3801 H   0  0  0  0  0  0
  1 25  1  0  0  0
  1 30  2  0  0  0
  1 85  1  0  0  0
  2  3  1  0  0  0
  2 25  1  0  0  0
  2 87  1  0  0  0
  2 88  1  0  0  0
  3  4  1  0  0  0
  3 89  1  0  0  0
  3 90  1  0  0  0
  4  5  1  0  0  0
  4 91  1  0  0  0
  4 92  1  0  0  0
  5  6  1  0  0  0
  5 26  1  0  0  0
  5 93  1  0  0  0
  6 25  1  0  0  0
  6 94  1  0  0  0
  6 95  1  0  0  0
  7  8  2  0  0  0
  7 26  1  0  0  0
  7 29  1  0  0  0
  8  9  1  0  0  0
  8 22  1  0  0  0
  9 10  1  0  0  0
  9 27  2  0  0  0
 10 11  2  0  0  0
 10 15  1  0  0  0
 11 12  1  0  0  0
 11 96  1  0  0  0
 12 13  2  0  0  0
 12 97  1  0  0  0
 13 14  1  0  0  0
 13 31  1  0  0  0
 14 15  2  0  0  0
 14 98  1  0  0  0
 15 99  1  0  0  0
 16 17  2  0  0  0
 16 21  1  0  0  0
 16 31  1  0  0  0
 17 18  1  0  0  0
 17100  1  0  0  0
 18 19  2  0  0  0
 18101  1  0  0  0
 19 20  1  0  0  0
 19 24  1  0  0  0
 20 21  2  0  0  0
 20102  1  0  0  0
 21 23  1  0  0  0
 22 28  1  0  0  0
 22 32  2  0  0  0
 26 27  1  0  0  0
 28103  1  0  0  0
 28104  1  0  0  0
 29105  1  0  0  0
 29106  1  0  0  0
 33 34  1  0  0  0
 33 66  1  0  0  0
 33 70  2  0  0  0
 34 36  1  0  0  0
 34 59  1  0  0  0
 34107  1  0  0  0
 35 44  2  0  0  0
 35 45  1  0  0  0
 35 68  1  0  0  0
 36 56  1  0  0  0
 36108  1  0  0  0
 37 39  1  0  0  0
 37 47  1  0  0  0
 37 66  1  0  0  0
 37109  1  0  0  0
 38 43  2  0  0  0
 38 46  1  0  0  0
 38 47  1  0  0  0
 39 64  1  0  0  0
 39 67  2  0  0  0
 40 52  1  0  0  0
 40 53  2  0  0  0
 40 58  1  0  0  0
 41110  1  0  0  0
 41111  1  0  0  0
 41112  1  0  0  0
 41 48  1  0  0  0
 42 43  1  0  0  0
 42 66  1  0  0  0
 42113  1  0  0  0
 42114  1  0  0  0
 43 44  1  0  0  0
 44115  1  0  0  0
 45 46  2  0  0  0
 45116  1  0  0  0
 46117  1  0  0  0
 47118  1  0  0  0
 47119  1  0  0  0
 48 56  1  0  0  0
 48 65  1  0  0  0
 48120  1  0  0  0
 49 50  1  0  0  0
 49 53  1  0  0  0
 49 64  1  0  0  0
 49121  1  0  0  0
 50 51  1  0  0  0
 50122  1  0  0  0
 50123  1  0  0  0
 51 52  1  0  0  0
 51124  1  0  0  0
 51125  1  0  0  0
 52126  1  0  0  0
 52127  1  0  0  0
 53 54  1  0  0  0
 54 55  2  0  0  0
 54128  1  0  0  0
 55 57  1  0  0  0
 55129  1  0  0  0
 56 69  2  0  0  0
 57 58  2  0  0  0
 57130  1  0  0  0
 58131  1  0  0  0
 59 60  1  0  0  0
 59 61  1  0  0  0
 59 62  1  0  0  0
 60132  1  0  0  0
 60133  1  0  0  0
 60134  1  0  0  0
 61135  1  0  0  0
 61136  1  0  0  0
 61137  1  0  0  0
 62138  1  0  0  0
 62139  1  0  0  0
 62140  1  0  0  0
 63 65  1  0  0  0
 63141  1  0  0  0
 63142  1  0  0  0
 63143  1  0  0  0
 64144  1  0  0  0
 65145  1  0  0  0
 68 82  1  0  0  0
 71 72  2  0  0  0
 71 74  1  0  0  0
 71146  1  0  0  0
 72 75  1  0  0  0
 72147  1  0  0  0
 73 75  2  0  0  0
 73 76  1  0  0  0
 73148  1  0  0  0
 74 76  2  0  0  0
 74 77  1  0  0  0
 75 84  1  0  0  0
 76 85  1  0  0  0
 77 79  1  0  0  0
 77 83  2  0  0  0
 78 81  1  0  0  0
 78 84  1  0  0  0
 78 86  2  0  0  0
 79149  1  0  0  0
 79150  1  0  0  0
 79151  1  0  0  0
 80 85  1  0  0  0
 80152  1  0  0  0
 80153  1  0  0  0
 80154  1  0  0  0
 81 82  1  0  0  0
 81155  1  0  0  0
 81156  1  0  0  0
 82157  1  0  0  0
 82158  1  0  0  0
 83159  1  0  0  0
 84160  1  0  0  0
M  ISO  4   1 100  68 101  82 101  85 100
M  END
> <chiral flag>
0

> <version>
0

> <s_m_source_file>
/data/baiqing/PycharmProjects/Reinvent-master-3.2/result/LINK_invent/BTK/process_docking_weight1_custom_product_contain_oxygen_bond_distance_aromatic_linkinvent_7_9_3/rearranged_h_0069.sdf

> <i_m_source_file_index>
3

> <r_mmod_Potential_Energy-OPLS-2005>
323.368194580078

> <r_mmod_Stretch_Energy-OPLS-2005>
134.423751831055

> <r_mmod_Bend_Energy-OPLS-2005>
173.678176879883

> <r_mmod_Torsional_Energy-OPLS-2005>
321.803833007812

> <r_mmod_Improper_Torsional_Energy-OPLS-2005>
5.41393661499023

> <r_mmod_Van_der_Waal_Energy-OPLS-2005>
156.569778442383

> <r_mmod_Electrostatic_Energy-OPLS-2005>
-334.239166259766

> <r_mmod_Solvation_Energy-OPLS-2005>
-218.236221313477

> <b_mmod_Minimization_Converged-OPLS-2005>
0

> <r_mmod_RMS_Derivative-OPLS-2005>
0.969111144542694

$$$$
3
                    3D
 Structure written by MMmdl.
154162  0  0  1  0            999 V2000
  -30.5108  -15.0485   20.4208 C   0  0  0  0  0  0
  -30.4416  -12.6633   19.4986 C   0  0  0  0  0  0
  -29.5222  -12.5404   18.2601 C   0  0  0  0  0  0
  -28.0610  -12.3045   18.6859 C   0  0  0  0  0  0
  -27.6213  -13.2538   19.8303 C   0  0  2  0  0  0
  -28.6650  -13.3343   20.9644 C   0  0  0  0  0  0
  -25.2437  -13.8222   20.5724 C   0  0  0  0  0  0
  -24.1767  -13.0443   20.9256 C   0  0  0  0  0  0
  -24.6393  -11.6928   20.8769 C   0  0  0  0  0  0
  -23.9075  -10.4294   21.0416 C   0  0  0  0  0  0
  -24.3623   -9.4208   21.9191 C   0  0  0  0  0  0
  -23.6299   -8.2244   22.0753 C   0  0  0  0  0  0
  -22.4282   -8.0281   21.3541 C   0  0  0  0  0  0
  -21.9917   -9.0255   20.4643 C   0  0  0  0  0  0
  -22.7246  -10.2139   20.3061 C   0  0  0  0  0  0
  -21.6855   -6.0737   22.5277 C   0  0  0  0  0  0
  -21.4013   -6.5644   23.8208 C   0  0  0  0  0  0
  -21.3653   -5.6798   24.9172 C   0  0  0  0  0  0
  -21.6046   -4.3059   24.7225 C   0  0  0  0  0  0
  -21.8818   -3.8150   23.4343 C   0  0  0  0  0  0
  -21.9194   -4.6965   22.3400 C   0  0  0  0  0  0
  -22.7787  -13.5213   21.1893 C   0  0  0  0  0  0
  -22.1665   -4.2154   21.0976 F   0  0  0  0  0  0
  -21.5624   -3.4538   25.7734 F   0  0  0  0  0  0
  -29.9205  -13.7787   20.3467 N   0  0  0  0  0  0
  -26.2853  -12.9456   20.3236 N   0  0  0  0  0  0
  -25.9322  -11.6584   20.5738 N   0  0  0  0  0  0
  -22.0427  -12.8203   22.0443 N   0  0  0  0  0  0
  -25.4087  -15.1949   20.4119 N   0  0  0  0  0  0
  -31.7318  -15.0786   20.2218 O   0  0  0  0  0  0
  -21.6646   -6.8881   21.4238 O   0  0  0  0  0  0
  -22.3479  -14.5515   20.6727 O   0  0  0  0  0  0
  -24.6510  -31.8370   23.1814 C   0  0  0  0  0  0
  -25.9244  -32.4662   23.8227 C   0  0  1  0  0  0
  -27.2107  -27.0536   20.1648 C   0  0  0  0  0  0
  -25.5960  -33.8468   24.2143 N   0  0  0  0  0  0
  -23.4593  -30.4539   21.5296 C   0  0  2  0  0  0
  -24.9093  -28.8676   20.1110 C   0  0  0  0  0  0
  -22.7612  -29.4508   22.4832 C   0  0  0  0  0  0
  -18.0322  -28.1387   22.8468 C   0  0  0  0  0  0
  -24.1503  -36.7242   23.2641 C   0  0  0  0  0  0
  -26.0211  -30.6842   21.3936 C   0  0  0  0  0  0
  -26.0909  -29.2872   20.7355 C   0  0  0  0  0  0
  -27.2423  -28.3987   20.7419 C   0  0  0  0  0  0
  -26.0028  -26.7616   19.4916 C   0  0  0  0  0  0
  -24.8830  -27.6212   19.4706 C   0  0  0  0  0  0
  -23.6907  -29.7794   20.1513 C   0  0  0  0  0  0
  -25.4135  -36.3015   24.0312 C   0  0  1  0  0  0
  -20.5936  -28.3726   23.1211 C   0  0  2  0  0  0
  -20.6807  -26.9424   22.5394 C   0  0  0  0  0  0
  -19.5778  -26.6373   21.5206 C   0  0  0  0  0  0
  -18.1959  -26.7922   22.1616 C   0  0  0  0  0  0
  -19.1580  -28.8876   23.2830 C   0  0  0  0  0  0
  -18.9488  -30.1469   23.8863 C   0  0  0  0  0  0
  -17.6481  -30.6584   24.0552 C   0  0  0  0  0  0
  -25.9088  -34.9392   23.5048 C   0  0  0  0  0  0
  -16.5376  -29.9072   23.6334 C   0  0  0  0  0  0
  -16.7305  -28.6489   23.0357 C   0  0  0  0  0  0
  -26.4536  -31.6546   25.0696 C   0  0  0  0  0  0
  -25.3681  -31.3740   26.1356 C   0  0  0  0  0  0
  -27.0423  -30.2940   24.6319 C   0  0  0  0  0  0
  -27.6061  -32.4322   25.7475 C   0  0  0  0  0  0
  -27.5583  -37.1775   24.8463 C   0  0  0  0  0  0
  -21.4299  -29.3045   22.3578 N   0  0  0  0  0  0
  -26.4296  -37.3731   23.9397 N   0  0  0  0  0  0
  -24.7311  -31.0151   22.0890 N   0  0  0  0  0  0
  -23.4216  -28.8060   23.3017 O   0  0  0  0  0  0
  -28.2318  -26.0087   20.2261 O   0  0  0  0  0  0
  -26.5692  -34.8907   22.4639 O   0  0  0  0  0  0
  -23.5608  -32.1283   23.6982 O   0  0  0  0  0  0
  -31.4834  -19.3398   21.9034 C   0  0  0  0  0  0
  -31.1791  -18.0453   21.4402 C   0  0  0  0  0  0
  -29.2437  -19.0366   20.3749 C   0  0  0  0  0  0
  -30.7047  -20.5034   21.6529 C   0  0  0  0  0  0
  -30.0203  -17.7747   20.6964 C   0  0  0  0  0  0
  -29.5612  -20.4687   20.7729 C   0  0  0  0  0  0
  -31.1377  -21.6428   22.4927 C   0  0  0  0  0  0
  -28.9704  -23.1758   20.2391 C   0  0  0  0  0  0
  -27.8671  -24.4555   20.2634 C   0  0  0  0  0  0
  -31.2077  -21.4878   23.8157 N   0  0  0  0  0  0
  -28.7100  -21.7708   20.4957 N   0  0  0  0  0  0
  -29.7248  -16.2623   20.4443 N   0  0  0  0  0  0
  -31.5424  -22.8062   22.0014 N   0  3  0  0  0  0
  -30.1092  -23.4833   19.8791 O   0  0  0  0  0  0
  -31.4679  -12.8473   19.1764 H   0  0  0  0  0  0
  -30.4683  -11.7286   20.0612 H   0  0  0  0  0  0
  -29.8615  -11.7320   17.6115 H   0  0  0  0  0  0
  -29.5856  -13.4546   17.6680 H   0  0  0  0  0  0
  -27.9794  -11.2684   19.0177 H   0  0  0  0  0  0
  -27.3935  -12.4026   17.8293 H   0  0  0  0  0  0
  -27.5655  -14.2428   19.3746 H   0  0  0  0  0  0
  -28.7837  -12.3733   21.4664 H   0  0  0  0  0  0
  -28.3474  -14.0472   21.7269 H   0  0  0  0  0  0
  -25.2755   -9.5696   22.4778 H   0  0  0  0  0  0
  -24.0002   -7.4640   22.7477 H   0  0  0  0  0  0
  -21.0845   -8.8781   19.8949 H   0  0  0  0  0  0
  -22.3695  -10.9686   19.6177 H   0  0  0  0  0  0
  -21.2006   -7.6151   23.9714 H   0  0  0  0  0  0
  -21.1472   -6.0526   25.9077 H   0  0  0  0  0  0
  -22.0599   -2.7612   23.2843 H   0  0  0  0  0  0
  -22.4040  -11.9872   22.4843 H   0  0  0  0  0  0
  -21.1035  -13.1218   22.2620 H   0  0  0  0  0  0
  -24.6344  -15.8415   20.5179 H   0  0  0  0  0  0
  -26.2364  -15.6315   20.0301 H   0  0  0  0  0  0
  -26.7301  -32.5247   23.0937 H   0  0  0  0  0  0
  -25.0054  -33.9556   25.0250 H   0  0  0  0  0  0
  -22.7667  -31.2825   21.3688 H   0  0  0  0  0  0
  -23.3784  -35.9557   23.3287 H   0  0  0  0  0  0
  -24.3581  -36.8902   22.2060 H   0  0  0  0  0  0
  -23.7241  -37.6420   23.6702 H   0  0  0  0  0  0
  -26.1868  -31.4350   20.6195 H   0  0  0  0  0  0
  -26.8882  -30.7362   22.0413 H   0  0  0  0  0  0
  -28.1411  -28.7149   21.2538 H   0  0  0  0  0  0
  -25.8822  -25.8184   18.9836 H   0  0  0  0  0  0
  -23.9838  -27.2966   18.9645 H   0  0  0  0  0  0
  -23.8353  -30.5524   19.3953 H   0  0  0  0  0  0
  -22.8040  -29.2255   19.8382 H   0  0  0  0  0  0
  -25.1324  -36.1849   25.0807 H   0  0  0  0  0  0
  -21.0019  -28.3334   24.1336 H   0  0  0  0  0  0
  -20.5703  -26.2341   23.3621 H   0  0  0  0  0  0
  -21.6669  -26.7429   22.1186 H   0  0  0  0  0  0
  -19.6943  -25.6274   21.1260 H   0  0  0  0  0  0
  -19.6718  -27.3167   20.6720 H   0  0  0  0  0  0
  -17.4225  -26.6673   21.4024 H   0  0  0  0  0  0
  -18.0361  -26.0067   22.9017 H   0  0  0  0  0  0
  -19.7969  -30.7282   24.2231 H   0  0  0  0  0  0
  -17.5039  -31.6263   24.5149 H   0  0  0  0  0  0
  -15.5371  -30.2954   23.7674 H   0  0  0  0  0  0
  -15.8713  -28.0788   22.7090 H   0  0  0  0  0  0
  -24.5894  -30.7070   25.7626 H   0  0  0  0  0  0
  -24.8823  -32.2918   26.4688 H   0  0  0  0  0  0
  -25.7917  -30.8948   27.0191 H   0  0  0  0  0  0
  -26.3056  -29.6631   24.1335 H   0  0  0  0  0  0
  -27.4024  -29.7280   25.4913 H   0  0  0  0  0  0
  -27.8968  -30.4164   23.9664 H   0  0  0  0  0  0
  -27.2676  -33.3679   26.1940 H   0  0  0  0  0  0
  -28.3918  -32.6789   25.0319 H   0  0  0  0  0  0
  -28.0676  -31.8511   26.5468 H   0  0  0  0  0  0
  -28.2576  -38.0100   24.7529 H   0  0  0  0  0  0
  -28.1120  -36.2623   24.6289 H   0  0  0  0  0  0
  -27.2295  -37.1403   25.8868 H   0  0  0  0  0  0
  -20.9534  -29.8742   21.6731 H   0  0  0  0  0  0
  -26.0181  -38.2805   24.1405 H   0  0  0  0  0  0
  -32.3529  -19.4240   22.5418 H   0  0  0  0  0  0
  -31.8265  -17.2357   21.7435 H   0  0  0  0  0  0
  -28.3399  -18.8940   19.8025 H   0  0  0  0  0  0
  -27.2471  -24.3045   21.1475 H   0  0  0  0  0  0
  -27.2191  -24.2437   19.4156 H   0  0  0  0  0  0
  -30.8959  -20.6165   24.2201 H   0  0  0  0  0  0
  -31.5198  -22.2125   24.4424 H   0  0  0  0  0  0
  -27.7142  -21.5970   20.5363 H   0  0  0  0  0  0
  -28.7423  -16.0672   20.3336 H   0  0  0  0  0  0
  -31.2599  -23.0375   21.0448 H   0  0  0  0  0  0
  -31.9261  -23.5416   22.5721 H   0  0  0  0  0  0
  1 25  1  0  0  0
  1 30  2  0  0  0
  1 82  1  0  0  0
  2  3  1  0  0  0
  2 25  1  0  0  0
  2 85  1  0  0  0
  2 86  1  0  0  0
  3  4  1  0  0  0
  3 87  1  0  0  0
  3 88  1  0  0  0
  4  5  1  0  0  0
  4 89  1  0  0  0
  4 90  1  0  0  0
  5  6  1  0  0  0
  5 26  1  0  0  0
  5 91  1  0  0  0
  6 25  1  0  0  0
  6 92  1  0  0  0
  6 93  1  0  0  0
  7  8  2  0  0  0
  7 26  1  0  0  0
  7 29  1  0  0  0
  8  9  1  0  0  0
  8 22  1  0  0  0
  9 10  1  0  0  0
  9 27  2  0  0  0
 10 11  2  0  0  0
 10 15  1  0  0  0
 11 12  1  0  0  0
 11 94  1  0  0  0
 12 13  2  0  0  0
 12 95  1  0  0  0
 13 14  1  0  0  0
 13 31  1  0  0  0
 14 15  2  0  0  0
 14 96  1  0  0  0
 15 97  1  0  0  0
 16 17  2  0  0  0
 16 21  1  0  0  0
 16 31  1  0  0  0
 17 18  1  0  0  0
 17 98  1  0  0  0
 18 19  2  0  0  0
 18 99  1  0  0  0
 19 20  1  0  0  0
 19 24  1  0  0  0
 20 21  2  0  0  0
 20100  1  0  0  0
 21 23  1  0  0  0
 22 28  1  0  0  0
 22 32  2  0  0  0
 26 27  1  0  0  0
 28101  1  0  0  0
 28102  1  0  0  0
 29103  1  0  0  0
 29104  1  0  0  0
 33 34  1  0  0  0
 33 66  1  0  0  0
 33 70  2  0  0  0
 34 36  1  0  0  0
 34 59  1  0  0  0
 34105  1  0  0  0
 35 44  2  0  0  0
 35 45  1  0  0  0
 35 68  1  0  0  0
 36 56  1  0  0  0
 36106  1  0  0  0
 37 39  1  0  0  0
 37 47  1  0  0  0
 37 66  1  0  0  0
 37107  1  0  0  0
 38 43  2  0  0  0
 38 46  1  0  0  0
 38 47  1  0  0  0
 39 64  1  0  0  0
 39 67  2  0  0  0
 40 52  1  0  0  0
 40 53  2  0  0  0
 40 58  1  0  0  0
 41108  1  0  0  0
 41109  1  0  0  0
 41110  1  0  0  0
 41 48  1  0  0  0
 42 43  1  0  0  0
 42 66  1  0  0  0
 42111  1  0  0  0
 42112  1  0  0  0
 43 44  1  0  0  0
 44113  1  0  0  0
 45 46  2  0  0  0
 45114  1  0  0  0
 46115  1  0  0  0
 47116  1  0  0  0
 47117  1  0  0  0
 48 56  1  0  0  0
 48 65  1  0  0  0
 48118  1  0  0  0
 49 50  1  0  0  0
 49 53  1  0  0  0
 49 64  1  0  0  0
 49119  1  0  0  0
 50 51  1  0  0  0
 50120  1  0  0  0
 50121  1  0  0  0
 51 52  1  0  0  0
 51122  1  0  0  0
 51123  1  0  0  0
 52124  1  0  0  0
 52125  1  0  0  0
 53 54  1  0  0  0
 54 55  2  0  0  0
 54126  1  0  0  0
 55 57  1  0  0  0
 55127  1  0  0  0
 56 69  2  0  0  0
 57 58  2  0  0  0
 57128  1  0  0  0
 58129  1  0  0  0
 59 60  1  0  0  0
 59 61  1  0  0  0
 59 62  1  0  0  0
 60130  1  0  0  0
 60131  1  0  0  0
 60132  1  0  0  0
 61133  1  0  0  0
 61134  1  0  0  0
 61135  1  0  0  0
 62136  1  0  0  0
 62137  1  0  0  0
 62138  1  0  0  0
 63 65  1  0  0  0
 63139  1  0  0  0
 63140  1  0  0  0
 63141  1  0  0  0
 64142  1  0  0  0
 65143  1  0  0  0
 68 79  1  0  0  0
 71 72  2  0  0  0
 71 74  1  0  0  0
 71144  1  0  0  0
 72 75  1  0  0  0
 72145  1  0  0  0
 73 75  2  0  0  0
 73 76  1  0  0  0
 73146  1  0  0  0
 74 76  2  0  0  0
 74 77  1  0  0  0
 75 82  1  0  0  0
 76 81  1  0  0  0
 77 80  1  0  0  0
 77 83  2  0  0  0
 78 79  1  0  0  0
 78 81  1  0  0  0
 78 84  2  0  0  0
 79147  1  0  0  0
 79148  1  0  0  0
 80149  1  0  0  0
 80150  1  0  0  0
 81151  1  0  0  0
 82152  1  0  0  0
 83153  1  0  0  0
 83154  1  0  0  0
M  CHG  1  83   1
M  ISO  4   1 100  68 101  79 101  82 100
M  END
> <chiral flag>
0

> <version>
0

> <s_m_source_file>
/data/baiqing/PycharmProjects/Reinvent-master-3.2/result/LINK_invent/BTK/process_docking_weight1_custom_product_contain_oxygen_bond_distance_aromatic_linkinvent_7_9_3/rearranged_h_0069.sdf

> <i_m_source_file_index>
4

> <r_mmod_Potential_Energy-OPLS-2005>
517.477844238281

> <r_mmod_Stretch_Energy-OPLS-2005>
358.858734130859

> <r_mmod_Bend_Energy-OPLS-2005>
288.999145507812

> <r_mmod_Torsional_Energy-OPLS-2005>
263.021606445312

> <r_mmod_Improper_Torsional_Energy-OPLS-2005>
9.51687622070312

> <r_mmod_Van_der_Waal_Energy-OPLS-2005>
150.356796264648

> <r_mmod_Electrostatic_Energy-OPLS-2005>
-372.952239990234

> <r_mmod_Solvation_Energy-OPLS-2005>
-454.676086425781

> <b_mmod_Minimization_Converged-OPLS-2005>
0

> <r_mmod_RMS_Derivative-OPLS-2005>
1.51757621765137

$$$$
4
                    3D
 Structure written by MMmdl.
158167  0  0  1  0            999 V2000
  -30.6386  -14.6903   20.4625 C   0  0  0  0  0  0
  -30.4476  -12.4161   19.4424 C   0  0  0  0  0  0
  -29.5128  -12.5095   18.2160 C   0  0  0  0  0  0
  -28.0394  -12.3448   18.6385 C   0  0  0  0  0  0
  -27.6594  -13.2252   19.8587 C   0  0  2  0  0  0
  -28.7156  -13.1192   20.9841 C   0  0  0  0  0  0
  -25.2597  -13.8180   20.5686 C   0  0  0  0  0  0
  -24.1878  -13.0437   20.9186 C   0  0  0  0  0  0
  -24.6475  -11.6930   20.8763 C   0  0  0  0  0  0
  -23.9141  -10.4306   21.0443 C   0  0  0  0  0  0
  -24.3670   -9.4209   21.9217 C   0  0  0  0  0  0
  -23.6321   -8.2249   22.0783 C   0  0  0  0  0  0
  -22.4300   -8.0310   21.3579 C   0  0  0  0  0  0
  -21.9955   -9.0292   20.4671 C   0  0  0  0  0  0
  -22.7315  -10.2161   20.3086 C   0  0  0  0  0  0
  -21.6862   -6.0766   22.5303 C   0  0  0  0  0  0
  -21.4011   -6.5660   23.8232 C   0  0  0  0  0  0
  -21.3651   -5.6813   24.9188 C   0  0  0  0  0  0
  -21.6037   -4.3069   24.7232 C   0  0  0  0  0  0
  -21.8817   -3.8175   23.4352 C   0  0  0  0  0  0
  -21.9188   -4.6986   22.3418 C   0  0  0  0  0  0
  -22.7889  -13.5232   21.1847 C   0  0  0  0  0  0
  -22.1663   -4.2182   21.0999 F   0  0  0  0  0  0
  -21.5619   -3.4553   25.7744 F   0  0  0  0  0  0
  -30.0257  -13.4593   20.4015 N   0  0  0  0  0  0
  -26.3061  -12.9390   20.3325 N   0  0  0  0  0  0
  -25.9414  -11.6543   20.5781 N   0  0  0  0  0  0
  -22.0517  -12.8226   22.0382 N   0  0  0  0  0  0
  -25.4207  -15.1897   20.4133 N   0  0  0  0  0  0
  -31.8223  -14.8315   20.1445 O   0  0  0  0  0  0
  -21.6654   -6.8905   21.4268 O   0  0  0  0  0  0
  -22.3588  -14.5561   20.6725 O   0  0  0  0  0  0
  -24.6285  -31.8580   23.1942 C   0  0  0  0  0  0
  -25.9101  -32.4769   23.8303 C   0  0  1  0  0  0
  -27.2467  -27.3115   20.1226 C   0  0  0  0  0  0
  -25.5890  -33.8564   24.2264 N   0  0  0  0  0  0
  -23.4226  -30.4775   21.5379 C   0  0  2  0  0  0
  -24.8710  -28.9252   20.1115 C   0  0  0  0  0  0
  -22.7518  -29.4581   22.4907 C   0  0  0  0  0  0
  -18.0282  -28.1392   22.8428 C   0  0  0  0  0  0
  -24.1479  -36.7305   23.2644 C   0  0  0  0  0  0
  -25.9587  -30.7950   21.3539 C   0  0  0  0  0  0
  -26.0369  -29.4155   20.7082 C   0  0  0  0  0  0
  -27.2227  -28.6209   20.7003 C   0  0  0  0  0  0
  -26.0497  -26.8701   19.5112 C   0  0  0  0  0  0
  -24.8809  -27.6606   19.5015 C   0  0  0  0  0  0
  -23.6390  -29.8062   20.1554 C   0  0  0  0  0  0
  -25.4089  -36.3082   24.0349 C   0  0  1  0  0  0
  -20.5878  -28.3678   23.1278 C   0  0  2  0  0  0
  -20.6773  -26.9402   22.5413 C   0  0  0  0  0  0
  -19.5758  -26.6365   21.5183 C   0  0  0  0  0  0
  -18.1932  -26.7911   22.1573 C   0  0  0  0  0  0
  -19.1542  -28.8839   23.2837 C   0  0  0  0  0  0
  -18.9475  -30.1424   23.8876 C   0  0  0  0  0  0
  -17.6498  -30.6576   24.0540 C   0  0  0  0  0  0
  -25.9035  -34.9451   23.5121 C   0  0  0  0  0  0
  -16.5372  -29.9090   23.6322 C   0  0  0  0  0  0
  -16.7278  -28.6511   23.0310 C   0  0  0  0  0  0
  -26.4477  -31.6552   25.0669 C   0  0  0  0  0  0
  -25.3722  -31.3690   26.1412 C   0  0  0  0  0  0
  -27.0308  -30.3005   24.6015 C   0  0  0  0  0  0
  -27.6053  -32.4258   25.7428 C   0  0  0  0  0  0
  -27.5570  -37.1794   24.8466 C   0  0  0  0  0  0
  -21.4221  -29.3022   22.3678 N   0  0  0  0  0  0
  -26.4265  -37.3779   23.9438 N   0  0  0  0  0  0
  -24.6887  -31.0608   22.0869 N   0  0  0  0  0  0
  -23.4247  -28.8149   23.2998 O   0  0  0  0  0  0
  -28.3928  -26.4961   20.2247 O   0  0  0  0  0  0
  -26.5621  -34.8926   22.4701 O   0  0  0  0  0  0
  -23.5446  -32.1320   23.7297 O   0  0  0  0  0  0
  -31.0278  -18.0643   20.6843 C   0  0  0  0  0  0
  -28.5371  -19.3277   20.4636 C   0  0  0  0  0  0
  -30.9340  -19.5060   20.6874 C   0  0  0  0  0  0
  -29.6615  -20.1842   20.5926 C   0  0  0  0  0  0
  -29.8789  -17.2256   20.5939 C   0  0  0  0  0  0
  -28.6425  -17.9082   20.4802 C   0  0  0  0  0  0
  -29.1627  -23.7170   21.6236 C   0  0  0  0  0  0
  -28.8691  -23.8702   20.3294 C   0  0  0  0  0  0
  -29.4984  -22.3242   21.8859 C   0  0  0  0  0  0
  -29.0068  -22.5191   19.7405 C   0  0  0  0  0  0
  -32.2447  -20.2859   20.8148 C   0  0  0  0  0  0
  -28.5594  -25.1956   19.5246 C   0  0  0  0  0  0
  -29.4474  -21.6550   20.7101 N   0  0  0  0  0  0
  -29.8002  -15.7560   20.6781 N   0  0  0  0  0  0
  -32.9173  -20.4220   19.5169 N   0  3  0  0  0  0
  -29.7950  -21.8249   22.9765 O   0  0  0  0  0  0
  -28.7709  -22.1940   18.5718 O   0  0  0  0  0  0
  -27.5101  -17.1674   20.4107 F   0  0  0  0  0  0
  -31.4895  -12.5324   19.1369 H   0  0  0  0  0  0
  -30.3765  -11.4255   19.8957 H   0  0  0  0  0  0
  -29.7766  -11.7446   17.4847 H   0  0  0  0  0  0
  -29.6527  -13.4696   17.7139 H   0  0  0  0  0  0
  -27.8899  -11.2929   18.8826 H   0  0  0  0  0  0
  -27.3802  -12.5603   17.7967 H   0  0  0  0  0  0
  -27.6634  -14.2554   19.5030 H   0  0  0  0  0  0
  -28.7364  -12.1138   21.4074 H   0  0  0  0  0  0
  -28.4678  -13.7860   21.8111 H   0  0  0  0  0  0
  -25.2817   -9.5669   22.4793 H   0  0  0  0  0  0
  -24.0026   -7.4646   22.7521 H   0  0  0  0  0  0
  -21.0870   -8.8839   19.8984 H   0  0  0  0  0  0
  -22.3797  -10.9712   19.6193 H   0  0  0  0  0  0
  -21.2011   -7.6173   23.9747 H   0  0  0  0  0  0
  -21.1463   -6.0541   25.9091 H   0  0  0  0  0  0
  -22.0594   -2.7636   23.2859 H   0  0  0  0  0  0
  -22.4085  -11.9839   22.4719 H   0  0  0  0  0  0
  -21.1157  -13.1304   22.2624 H   0  0  0  0  0  0
  -24.6576  -15.8357   20.5780 H   0  0  0  0  0  0
  -26.2735  -15.6662   20.1408 H   0  0  0  0  0  0
  -26.7183  -32.5457   23.1074 H   0  0  0  0  0  0
  -25.0049  -33.9673   25.0415 H   0  0  0  0  0  0
  -22.7115  -31.2928   21.3926 H   0  0  0  0  0  0
  -23.3727  -35.9649   23.3288 H   0  0  0  0  0  0
  -24.3597  -36.8940   22.2067 H   0  0  0  0  0  0
  -23.7239  -37.6504   23.6676 H   0  0  0  0  0  0
  -26.0676  -31.5454   20.5689 H   0  0  0  0  0  0
  -26.8492  -30.8714   21.9659 H   0  0  0  0  0  0
  -28.1212  -29.0043   21.1604 H   0  0  0  0  0  0
  -25.9778  -25.8920   19.0664 H   0  0  0  0  0  0
  -23.9880  -27.2737   19.0320 H   0  0  0  0  0  0
  -23.7686  -30.5773   19.3966 H   0  0  0  0  0  0
  -22.7611  -29.2373   19.8475 H   0  0  0  0  0  0
  -25.1272  -36.1916   25.0839 H   0  0  0  0  0  0
  -20.9911  -28.3209   24.1424 H   0  0  0  0  0  0
  -20.5605  -26.2297   23.3611 H   0  0  0  0  0  0
  -21.6647  -26.7407   22.1247 H   0  0  0  0  0  0
  -19.6955  -25.6276   21.1226 H   0  0  0  0  0  0
  -19.6710  -27.3151   20.6696 H   0  0  0  0  0  0
  -17.4214  -26.6614   21.3965 H   0  0  0  0  0  0
  -18.0340  -26.0065   22.8987 H   0  0  0  0  0  0
  -19.7981  -30.7203   24.2240 H   0  0  0  0  0  0
  -17.5084  -31.6245   24.5163 H   0  0  0  0  0  0
  -15.5379  -30.3014   23.7657 H   0  0  0  0  0  0
  -15.8652  -28.0842   22.7041 H   0  0  0  0  0  0
  -24.5942  -30.6969   25.7762 H   0  0  0  0  0  0
  -24.8848  -32.2866   26.4740 H   0  0  0  0  0  0
  -25.8066  -30.8967   27.0238 H   0  0  0  0  0  0
  -26.2847  -29.6753   24.1097 H   0  0  0  0  0  0
  -27.4181  -29.7232   25.4412 H   0  0  0  0  0  0
  -27.8630  -30.4374   23.9097 H   0  0  0  0  0  0
  -27.2704  -33.3595   26.1952 H   0  0  0  0  0  0
  -28.3875  -32.6732   25.0238 H   0  0  0  0  0  0
  -28.0696  -31.8402   26.5362 H   0  0  0  0  0  0
  -28.2578  -38.0100   24.7521 H   0  0  0  0  0  0
  -28.1089  -36.2644   24.6272 H   0  0  0  0  0  0
  -27.2345  -37.1427   25.8884 H   0  0  0  0  0  0
  -20.9418  -29.8795   21.6918 H   0  0  0  0  0  0
  -26.0150  -38.2861   24.1423 H   0  0  0  0  0  0
  -31.9996  -17.6018   20.7935 H   0  0  0  0  0  0
  -27.5505  -19.7634   20.4010 H   0  0  0  0  0  0
  -29.1997  -24.5076   22.3562 H   0  0  0  0  0  0
  -32.9083  -19.7822   21.5198 H   0  0  0  0  0  0
  -32.0791  -21.2827   21.2200 H   0  0  0  0  0  0
  -27.7914  -24.9874   18.7849 H   0  0  0  0  0  0
  -29.4591  -25.3522   18.9267 H   0  0  0  0  0  0
  -28.8481  -15.4457   20.7972 H   0  0  0  0  0  0
  -33.7033  -21.0422   19.6061 H   0  0  0  0  0  0
  -32.2865  -20.7998   18.8344 H   0  0  0  0  0  0
  -33.2487  -19.5312   19.1930 H   0  0  0  0  0  0
  1 25  1  0  0  0
  1 30  2  0  0  0
  1 84  1  0  0  0
  2  3  1  0  0  0
  2 25  1  0  0  0
  2 89  1  0  0  0
  2 90  1  0  0  0
  3  4  1  0  0  0
  3 91  1  0  0  0
  3 92  1  0  0  0
  4  5  1  0  0  0
  4 93  1  0  0  0
  4 94  1  0  0  0
  5  6  1  0  0  0
  5 26  1  0  0  0
  5 95  1  0  0  0
  6 25  1  0  0  0
  6 96  1  0  0  0
  6 97  1  0  0  0
  7  8  2  0  0  0
  7 26  1  0  0  0
  7 29  1  0  0  0
  8  9  1  0  0  0
  8 22  1  0  0  0
  9 10  1  0  0  0
  9 27  2  0  0  0
 10 11  2  0  0  0
 10 15  1  0  0  0
 11 12  1  0  0  0
 11 98  1  0  0  0
 12 13  2  0  0  0
 12 99  1  0  0  0
 13 14  1  0  0  0
 13 31  1  0  0  0
 14 15  2  0  0  0
 14100  1  0  0  0
 15101  1  0  0  0
 16 17  2  0  0  0
 16 21  1  0  0  0
 16 31  1  0  0  0
 17 18  1  0  0  0
 17102  1  0  0  0
 18 19  2  0  0  0
 18103  1  0  0  0
 19 20  1  0  0  0
 19 24  1  0  0  0
 20 21  2  0  0  0
 20104  1  0  0  0
 21 23  1  0  0  0
 22 28  1  0  0  0
 22 32  2  0  0  0
 26 27  1  0  0  0
 28105  1  0  0  0
 28106  1  0  0  0
 29107  1  0  0  0
 29108  1  0  0  0
 33 34  1  0  0  0
 33 66  1  0  0  0
 33 70  2  0  0  0
 34 36  1  0  0  0
 34 59  1  0  0  0
 34109  1  0  0  0
 35 44  2  0  0  0
 35 45  1  0  0  0
 35 68  1  0  0  0
 36 56  1  0  0  0
 36110  1  0  0  0
 37 39  1  0  0  0
 37 47  1  0  0  0
 37 66  1  0  0  0
 37111  1  0  0  0
 38 43  2  0  0  0
 38 46  1  0  0  0
 38 47  1  0  0  0
 39 64  1  0  0  0
 39 67  2  0  0  0
 40 52  1  0  0  0
 40 53  2  0  0  0
 40 58  1  0  0  0
 41112  1  0  0  0
 41113  1  0  0  0
 41114  1  0  0  0
 41 48  1  0  0  0
 42 43  1  0  0  0
 42 66  1  0  0  0
 42115  1  0  0  0
 42116  1  0  0  0
 43 44  1  0  0  0
 44117  1  0  0  0
 45 46  2  0  0  0
 45118  1  0  0  0
 46119  1  0  0  0
 47120  1  0  0  0
 47121  1  0  0  0
 48 56  1  0  0  0
 48 65  1  0  0  0
 48122  1  0  0  0
 49 50  1  0  0  0
 49 53  1  0  0  0
 49 64  1  0  0  0
 49123  1  0  0  0
 50 51  1  0  0  0
 50124  1  0  0  0
 50125  1  0  0  0
 51 52  1  0  0  0
 51126  1  0  0  0
 51127  1  0  0  0
 52128  1  0  0  0
 52129  1  0  0  0
 53 54  1  0  0  0
 54 55  2  0  0  0
 54130  1  0  0  0
 55 57  1  0  0  0
 55131  1  0  0  0
 56 69  2  0  0  0
 57 58  2  0  0  0
 57132  1  0  0  0
 58133  1  0  0  0
 59 60  1  0  0  0
 59 61  1  0  0  0
 59 62  1  0  0  0
 60134  1  0  0  0
 60135  1  0  0  0
 60136  1  0  0  0
 61137  1  0  0  0
 61138  1  0  0  0
 61139  1  0  0  0
 62140  1  0  0  0
 62141  1  0  0  0
 62142  1  0  0  0
 63 65  1  0  0  0
 63143  1  0  0  0
 63144  1  0  0  0
 63145  1  0  0  0
 64146  1  0  0  0
 65147  1  0  0  0
 68 82  1  0  0  0
 71 73  2  0  0  0
 71 75  1  0  0  0
 71148  1  0  0  0
 72 74  2  0  0  0
 72 76  1  0  0  0
 72149  1  0  0  0
 73 74  1  0  0  0
 73 81  1  0  0  0
 74 83  1  0  0  0
 75 76  2  0  0  0
 75 84  1  0  0  0
 76 88  1  0  0  0
 77 78  2  0  0  0
 77 79  1  0  0  0
 77150  1  0  0  0
 78 80  1  0  0  0
 78 82  1  0  0  0
 79 83  1  0  0  0
 79 86  2  0  0  0
 80 83  1  0  0  0
 80 87  2  0  0  0
 81 85  1  0  0  0
 81151  1  0  0  0
 81152  1  0  0  0
 82153  1  0  0  0
 82154  1  0  0  0
 84155  1  0  0  0
 85156  1  0  0  0
 85157  1  0  0  0
 85158  1  0  0  0
M  CHG  1  85   1
M  ISO  4   1 100  68 101  82 101  84 100
M  END
> <chiral flag>
0

> <version>
0

> <s_m_source_file>
/data/baiqing/PycharmProjects/Reinvent-master-3.2/result/LINK_invent/BTK/process_docking_weight1_custom_product_contain_oxygen_bond_distance_aromatic_linkinvent_7_9_3/rearranged_h_0069.sdf

> <i_m_source_file_index>
5

> <r_mmod_Potential_Energy-OPLS-2005>
-199.359786987305

> <r_mmod_Stretch_Energy-OPLS-2005>
95.5260391235352

> <r_mmod_Bend_Energy-OPLS-2005>
214.643661499023

> <r_mmod_Torsional_Energy-OPLS-2005>
245.971649169922

> <r_mmod_Improper_Torsional_Energy-OPLS-2005>
5.78268194198608

> <r_mmod_Van_der_Waal_Energy-OPLS-2005>
127.522399902344

> <r_mmod_Electrostatic_Energy-OPLS-2005>
-424.886871337891

> <r_mmod_Solvation_Energy-OPLS-2005>
-523.566955566406

> <b_mmod_Minimization_Converged-OPLS-2005>
0

> <r_mmod_RMS_Derivative-OPLS-2005>
4.3898811340332

$$$$
5
                    3D
 Structure written by MMmdl.
158166  0  0  1  0            999 V2000
  -30.5916  -14.7233   20.4816 C   0  0  0  0  0  0
  -30.4407  -12.4418   19.4538 C   0  0  0  0  0  0
  -29.5105  -12.4933   18.2213 C   0  0  0  0  0  0
  -28.0375  -12.3117   18.6399 C   0  0  0  0  0  0
  -27.6426  -13.2135   19.8407 C   0  0  2  0  0  0
  -28.6868  -13.1361   20.9732 C   0  0  0  0  0  0
  -25.2528  -13.8122   20.5617 C   0  0  0  0  0  0
  -24.1816  -13.0416   20.9183 C   0  0  0  0  0  0
  -24.6383  -11.6884   20.8737 C   0  0  0  0  0  0
  -23.9052  -10.4294   21.0414 C   0  0  0  0  0  0
  -24.3616   -9.4212   21.9183 C   0  0  0  0  0  0
  -23.6300   -8.2247   22.0751 C   0  0  0  0  0  0
  -22.4283   -8.0279   21.3539 C   0  0  0  0  0  0
  -21.9918   -9.0255   20.4637 C   0  0  0  0  0  0
  -22.7235  -10.2138   20.3057 C   0  0  0  0  0  0
  -21.6857   -6.0737   22.5281 C   0  0  0  0  0  0
  -21.4012   -6.5640   23.8212 C   0  0  0  0  0  0
  -21.3659   -5.6786   24.9173 C   0  0  0  0  0  0
  -21.6049   -4.3052   24.7220 C   0  0  0  0  0  0
  -21.8819   -3.8147   23.4342 C   0  0  0  0  0  0
  -21.9195   -4.6967   22.3402 C   0  0  0  0  0  0
  -22.7846  -13.5227   21.1842 C   0  0  0  0  0  0
  -22.1659   -4.2161   21.0983 F   0  0  0  0  0  0
  -21.5638   -3.4541   25.7738 F   0  0  0  0  0  0
  -29.9834  -13.4940   20.3868 N   0  0  0  0  0  0
  -26.2929  -12.9305   20.3203 N   0  0  0  0  0  0
  -25.9301  -11.6467   20.5712 N   0  0  0  0  0  0
  -22.0480  -12.8254   22.0406 N   0  0  0  0  0  0
  -25.4175  -15.1844   20.3974 N   0  0  0  0  0  0
  -31.7941  -14.8461   20.2322 O   0  0  0  0  0  0
  -21.6630   -6.8891   21.4249 O   0  0  0  0  0  0
  -22.3537  -14.5534   20.6665 O   0  0  0  0  0  0
  -24.6330  -31.8547   23.1933 C   0  0  0  0  0  0
  -25.9158  -32.4761   23.8281 C   0  0  1  0  0  0
  -27.2231  -27.2572   20.1569 C   0  0  0  0  0  0
  -25.5937  -33.8554   24.2218 N   0  0  0  0  0  0
  -23.4293  -30.4770   21.5348 C   0  0  2  0  0  0
  -24.8782  -28.9151   20.1127 C   0  0  0  0  0  0
  -22.7491  -29.4646   22.4876 C   0  0  0  0  0  0
  -18.0292  -28.1415   22.8454 C   0  0  0  0  0  0
  -24.1491  -36.7284   23.2642 C   0  0  0  0  0  0
  -25.9721  -30.7727   21.3649 C   0  0  0  0  0  0
  -26.0482  -29.3894   20.7191 C   0  0  0  0  0  0
  -27.2289  -28.5766   20.7232 C   0  0  0  0  0  0
  -26.0351  -26.8492   19.5141 C   0  0  0  0  0  0
  -24.8776  -27.6530   19.4965 C   0  0  0  0  0  0
  -23.6489  -29.8048   20.1524 C   0  0  0  0  0  0
  -25.4113  -36.3066   24.0325 C   0  0  1  0  0  0
  -20.5892  -28.3747   23.1242 C   0  0  2  0  0  0
  -20.6786  -26.9455   22.5408 C   0  0  0  0  0  0
  -19.5755  -26.6407   21.5214 C   0  0  0  0  0  0
  -18.1932  -26.7960   22.1614 C   0  0  0  0  0  0
  -19.1547  -28.8887   23.2851 C   0  0  0  0  0  0
  -18.9475  -30.1482   23.8892 C   0  0  0  0  0  0
  -17.6483  -30.6609   24.0576 C   0  0  0  0  0  0
  -25.9056  -34.9451   23.5077 C   0  0  0  0  0  0
  -16.5372  -29.9122   23.6337 C   0  0  0  0  0  0
  -16.7283  -28.6542   23.0348 C   0  0  0  0  0  0
  -26.4514  -31.6586   25.0674 C   0  0  0  0  0  0
  -25.3736  -31.3758   26.1398 C   0  0  0  0  0  0
  -27.0355  -30.3004   24.6157 C   0  0  0  0  0  0
  -27.6049  -32.4334   25.7455 C   0  0  0  0  0  0
  -27.5567  -37.1781   24.8462 C   0  0  0  0  0  0
  -21.4200  -29.3084   22.3612 N   0  0  0  0  0  0
  -26.4274  -37.3768   23.9413 N   0  0  0  0  0  0
  -24.6973  -31.0534   22.0887 N   0  0  0  0  0  0
  -23.4173  -28.8195   23.2999 O   0  0  0  0  0  0
  -28.3139  -26.3581   20.1894 O   0  0  0  0  0  0
  -26.5616  -34.8928   22.4640 O   0  0  0  0  0  0
  -23.5486  -32.1373   23.7233 O   0  0  0  0  0  0
  -30.0839  -19.7234   22.4066 C   0  0  0  0  0  0
  -30.3750  -17.2875   22.4072 C   0  0  0  0  0  0
  -29.5715  -18.4398   20.4120 C   0  0  0  0  0  0
  -30.4441  -18.5288   23.0800 C   0  0  0  0  0  0
  -29.6203  -19.7395   21.0688 C   0  0  0  0  0  0
  -29.9462  -17.1920   21.0676 C   0  0  0  0  0  0
  -31.6988  -19.5832   24.9161 C   0  0  0  0  0  0
  -30.9022  -18.5884   24.4849 C   0  0  0  0  0  0
  -28.8623  -22.2554   20.9674 C   0  0  0  0  0  0
  -30.4071  -17.5144   25.4417 C   0  0  0  0  0  0
  -28.8734  -23.6436   20.1545 C   0  0  0  0  0  0
  -28.1039  -24.9622   20.7307 C   0  0  0  0  0  0
  -29.3080  -21.0495   20.4230 N   0  0  0  0  0  0
  -29.7587  -15.8333   20.5152 N   0  0  0  0  0  0
  -28.4204  -22.2870   22.1184 O   0  0  0  0  0  0
  -31.4773  -12.5910   19.1459 H   0  0  0  0  0  0
  -30.4029  -11.4592   19.9295 H   0  0  0  0  0  0
  -29.7914  -11.7217   17.5033 H   0  0  0  0  0  0
  -29.6341  -13.4474   17.7074 H   0  0  0  0  0  0
  -27.9001  -11.2628   18.9088 H   0  0  0  0  0  0
  -27.3756  -12.4915   17.7910 H   0  0  0  0  0  0
  -27.6382  -14.2344   19.4585 H   0  0  0  0  0  0
  -28.7219  -12.1342   21.4025 H   0  0  0  0  0  0
  -28.4243  -13.8137   21.7878 H   0  0  0  0  0  0
  -25.2756   -9.5700   22.4749 H   0  0  0  0  0  0
  -24.0012   -7.4642   22.7473 H   0  0  0  0  0  0
  -21.0842   -8.8769   19.8954 H   0  0  0  0  0  0
  -22.3673  -10.9680   19.6175 H   0  0  0  0  0  0
  -21.1990   -7.6148   23.9725 H   0  0  0  0  0  0
  -21.1477   -6.0513   25.9081 H   0  0  0  0  0  0
  -22.0595   -2.7620   23.2833 H   0  0  0  0  0  0
  -22.4087  -11.9937   22.4843 H   0  0  0  0  0  0
  -21.1076  -13.1274   22.2558 H   0  0  0  0  0  0
  -24.6424  -15.8274   20.5103 H   0  0  0  0  0  0
  -26.2423  -15.6320   20.0188 H   0  0  0  0  0  0
  -26.7216  -32.5422   23.1011 H   0  0  0  0  0  0
  -25.0088  -33.9655   25.0371 H   0  0  0  0  0  0
  -22.7312  -31.3029   21.3852 H   0  0  0  0  0  0
  -23.3748  -35.9623   23.3305 H   0  0  0  0  0  0
  -24.3591  -36.8909   22.2058 H   0  0  0  0  0  0
  -23.7253  -37.6485   23.6673 H   0  0  0  0  0  0
  -26.1024  -31.5278   20.5878 H   0  0  0  0  0  0
  -26.8531  -30.8337   21.9904 H   0  0  0  0  0  0
  -28.1281  -28.9425   21.2007 H   0  0  0  0  0  0
  -25.9961  -25.8796   19.0382 H   0  0  0  0  0  0
  -23.9824  -27.2823   19.0166 H   0  0  0  0  0  0
  -23.7753  -30.5821   19.3969 H   0  0  0  0  0  0
  -22.7659  -29.2411   19.8450 H   0  0  0  0  0  0
  -25.1301  -36.1893   25.0815 H   0  0  0  0  0  0
  -20.9994  -28.3355   24.1357 H   0  0  0  0  0  0
  -20.5711  -26.2353   23.3621 H   0  0  0  0  0  0
  -21.6654  -26.7488   22.1190 H   0  0  0  0  0  0
  -19.6943  -25.6321   21.1240 H   0  0  0  0  0  0
  -19.6720  -27.3217   20.6741 H   0  0  0  0  0  0
  -17.4211  -26.6698   21.4014 H   0  0  0  0  0  0
  -18.0342  -26.0128   22.9030 H   0  0  0  0  0  0
  -19.7964  -30.7280   24.2261 H   0  0  0  0  0  0
  -17.5057  -31.6293   24.5192 H   0  0  0  0  0  0
  -15.5372  -30.3036   23.7689 H   0  0  0  0  0  0
  -15.8672  -28.0881   22.7059 H   0  0  0  0  0  0
  -24.5884  -30.7143   25.7721 H   0  0  0  0  0  0
  -24.8963  -32.2950   26.4806 H   0  0  0  0  0  0
  -25.8042  -30.8927   27.0179 H   0  0  0  0  0  0
  -26.2925  -29.6741   24.1202 H   0  0  0  0  0  0
  -27.4072  -29.7282   25.4665 H   0  0  0  0  0  0
  -27.8793  -30.4282   23.9372 H   0  0  0  0  0  0
  -27.2634  -33.3635   26.2002 H   0  0  0  0  0  0
  -28.3864  -32.6891   25.0294 H   0  0  0  0  0  0
  -28.0714  -31.8490   26.5390 H   0  0  0  0  0  0
  -28.2574  -38.0082   24.7495 H   0  0  0  0  0  0
  -28.1058  -36.2606   24.6291 H   0  0  0  0  0  0
  -27.2279  -37.1431   25.8861 H   0  0  0  0  0  0
  -20.9393  -29.8772   21.6777 H   0  0  0  0  0  0
  -26.0156  -38.2837   24.1428 H   0  0  0  0  0  0
  -30.1624  -20.6543   22.9477 H   0  0  0  0  0  0
  -30.6292  -16.3809   22.9371 H   0  0  0  0  0  0
  -29.2274  -18.3935   19.3885 H   0  0  0  0  0  0
  -32.0530  -20.3589   24.2510 H   0  0  0  0  0  0
  -32.0200  -19.6378   25.9467 H   0  0  0  0  0  0
  -29.3185  -17.4498   25.4215 H   0  0  0  0  0  0
  -30.7006  -17.7316   26.4701 H   0  0  0  0  0  0
  -30.8151  -16.5377   25.1813 H   0  0  0  0  0  0
  -28.5038  -23.4418   19.1499 H   0  0  0  0  0  0
  -29.9268  -23.8997   20.0382 H   0  0  0  0  0  0
  -27.0398  -24.7306   20.7489 H   0  0  0  0  0  0
  -28.3629  -25.0421   21.7869 H   0  0  0  0  0  0
  -29.5123  -21.0890   19.4329 H   0  0  0  0  0  0
  -28.7994  -15.6078   20.3036 H   0  0  0  0  0  0
  1 25  1  0  0  0
  1 30  2  0  0  0
  1 84  1  0  0  0
  2  3  1  0  0  0
  2 25  1  0  0  0
  2 86  1  0  0  0
  2 87  1  0  0  0
  3  4  1  0  0  0
  3 88  1  0  0  0
  3 89  1  0  0  0
  4  5  1  0  0  0
  4 90  1  0  0  0
  4 91  1  0  0  0
  5  6  1  0  0  0
  5 26  1  0  0  0
  5 92  1  0  0  0
  6 25  1  0  0  0
  6 93  1  0  0  0
  6 94  1  0  0  0
  7  8  2  0  0  0
  7 26  1  0  0  0
  7 29  1  0  0  0
  8  9  1  0  0  0
  8 22  1  0  0  0
  9 10  1  0  0  0
  9 27  2  0  0  0
 10 11  2  0  0  0
 10 15  1  0  0  0
 11 12  1  0  0  0
 11 95  1  0  0  0
 12 13  2  0  0  0
 12 96  1  0  0  0
 13 14  1  0  0  0
 13 31  1  0  0  0
 14 15  2  0  0  0
 14 97  1  0  0  0
 15 98  1  0  0  0
 16 17  2  0  0  0
 16 21  1  0  0  0
 16 31  1  0  0  0
 17 18  1  0  0  0
 17 99  1  0  0  0
 18 19  2  0  0  0
 18100  1  0  0  0
 19 20  1  0  0  0
 19 24  1  0  0  0
 20 21  2  0  0  0
 20101  1  0  0  0
 21 23  1  0  0  0
 22 28  1  0  0  0
 22 32  2  0  0  0
 26 27  1  0  0  0
 28102  1  0  0  0
 28103  1  0  0  0
 29104  1  0  0  0
 29105  1  0  0  0
 33 34  1  0  0  0
 33 66  1  0  0  0
 33 70  2  0  0  0
 34 36  1  0  0  0
 34 59  1  0  0  0
 34106  1  0  0  0
 35 44  2  0  0  0
 35 45  1  0  0  0
 35 68  1  0  0  0
 36 56  1  0  0  0
 36107  1  0  0  0
 37 39  1  0  0  0
 37 47  1  0  0  0
 37 66  1  0  0  0
 37108  1  0  0  0
 38 43  2  0  0  0
 38 46  1  0  0  0
 38 47  1  0  0  0
 39 64  1  0  0  0
 39 67  2  0  0  0
 40 52  1  0  0  0
 40 53  2  0  0  0
 40 58  1  0  0  0
 41109  1  0  0  0
 41110  1  0  0  0
 41111  1  0  0  0
 41 48  1  0  0  0
 42 43  1  0  0  0
 42 66  1  0  0  0
 42112  1  0  0  0
 42113  1  0  0  0
 43 44  1  0  0  0
 44114  1  0  0  0
 45 46  2  0  0  0
 45115  1  0  0  0
 46116  1  0  0  0
 47117  1  0  0  0
 47118  1  0  0  0
 48 56  1  0  0  0
 48 65  1  0  0  0
 48119  1  0  0  0
 49 50  1  0  0  0
 49 53  1  0  0  0
 49 64  1  0  0  0
 49120  1  0  0  0
 50 51  1  0  0  0
 50121  1  0  0  0
 50122  1  0  0  0
 51 52  1  0  0  0
 51123  1  0  0  0
 51124  1  0  0  0
 52125  1  0  0  0
 52126  1  0  0  0
 53 54  1  0  0  0
 54 55  2  0  0  0
 54127  1  0  0  0
 55 57  1  0  0  0
 55128  1  0  0  0
 56 69  2  0  0  0
 57 58  2  0  0  0
 57129  1  0  0  0
 58130  1  0  0  0
 59 60  1  0  0  0
 59 61  1  0  0  0
 59 62  1  0  0  0
 60131  1  0  0  0
 60132  1  0  0  0
 60133  1  0  0  0
 61134  1  0  0  0
 61135  1  0  0  0
 61136  1  0  0  0
 62137  1  0  0  0
 62138  1  0  0  0
 62139  1  0  0  0
 63 65  1  0  0  0
 63140  1  0  0  0
 63141  1  0  0  0
 63142  1  0  0  0
 64143  1  0  0  0
 65144  1  0  0  0
 68 82  1  0  0  0
 71 74  2  0  0  0
 71 75  1  0  0  0
 71145  1  0  0  0
 72 74  1  0  0  0
 72 76  2  0  0  0
 72146  1  0  0  0
 73 75  2  0  0  0
 73 76  1  0  0  0
 73147  1  0  0  0
 74 78  1  0  0  0
 75 83  1  0  0  0
 76 84  1  0  0  0
 77 78  2  0  0  0
 77148  1  0  0  0
 77149  1  0  0  0
 78 80  1  0  0  0
 79 81  1  0  0  0
 79 83  1  0  0  0
 79 85  2  0  0  0
 80150  1  0  0  0
 80151  1  0  0  0
 80152  1  0  0  0
 81 82  1  0  0  0
 81153  1  0  0  0
 81154  1  0  0  0
 82155  1  0  0  0
 82156  1  0  0  0
 83157  1  0  0  0
 84158  1  0  0  0
M  ISO  4   1 100  68 101  82 101  84 100
M  END
> <chiral flag>
0

> <version>
0

> <s_m_source_file>
/data/baiqing/PycharmProjects/Reinvent-master-3.2/result/LINK_invent/BTK/process_docking_weight1_custom_product_contain_oxygen_bond_distance_aromatic_linkinvent_7_9_3/rearranged_h_0069.sdf

> <i_m_source_file_index>
6

> <r_mmod_Potential_Energy-OPLS-2005>
170.954498291016

> <r_mmod_Stretch_Energy-OPLS-2005>
127.034194946289

> <r_mmod_Bend_Energy-OPLS-2005>
157.357223510742

> <r_mmod_Torsional_Energy-OPLS-2005>
282.028778076172

> <r_mmod_Improper_Torsional_Energy-OPLS-2005>
10.5189723968506

> <r_mmod_Van_der_Waal_Energy-OPLS-2005>
139.117630004883

> <r_mmod_Electrostatic_Energy-OPLS-2005>
-396.050140380859

> <r_mmod_Solvation_Energy-OPLS-2005>
-233.715972900391

> <b_mmod_Minimization_Converged-OPLS-2005>
0

> <r_mmod_RMS_Derivative-OPLS-2005>
3.43144392967224

$$$$
6
                    3D
 Structure written by MMmdl.
156165  0  0  1  0            999 V2000
  -30.6059  -14.7542   20.4488 C   0  0  0  0  0  0
  -30.4341  -12.4539   19.4912 C   0  0  0  0  0  0
  -29.5210  -12.5211   18.2468 C   0  0  0  0  0  0
  -28.0430  -12.3539   18.6482 C   0  0  0  0  0  0
  -27.6481  -13.2403   19.8600 C   0  0  2  0  0  0
  -28.6889  -13.1644   20.9993 C   0  0  0  0  0  0
  -25.2531  -13.8214   20.5702 C   0  0  0  0  0  0
  -24.1813  -13.0452   20.9167 C   0  0  0  0  0  0
  -24.6420  -11.6932   20.8719 C   0  0  0  0  0  0
  -23.9100  -10.4308   21.0393 C   0  0  0  0  0  0
  -24.3639   -9.4216   21.9173 C   0  0  0  0  0  0
  -23.6298   -8.2263   22.0751 C   0  0  0  0  0  0
  -22.4277   -8.0310   21.3543 C   0  0  0  0  0  0
  -21.9914   -9.0287   20.4649 C   0  0  0  0  0  0
  -22.7262  -10.2155   20.3049 C   0  0  0  0  0  0
  -21.6866   -6.0742   22.5269 C   0  0  0  0  0  0
  -21.4032   -6.5641   23.8206 C   0  0  0  0  0  0
  -21.3654   -5.6789   24.9165 C   0  0  0  0  0  0
  -21.6036   -4.3047   24.7211 C   0  0  0  0  0  0
  -21.8825   -3.8146   23.4328 C   0  0  0  0  0  0
  -21.9199   -4.6969   22.3388 C   0  0  0  0  0  0
  -22.7833  -13.5237   21.1826 C   0  0  0  0  0  0
  -22.1665   -4.2166   21.0962 F   0  0  0  0  0  0
  -21.5623   -3.4519   25.7712 F   0  0  0  0  0  0
  -29.9970  -13.5156   20.4306 N   0  0  0  0  0  0
  -26.2974  -12.9445   20.3303 N   0  0  0  0  0  0
  -25.9356  -11.6573   20.5739 N   0  0  0  0  0  0
  -22.0488  -12.8236   22.0399 N   0  0  0  0  0  0
  -25.4230  -15.1944   20.4178 N   0  0  0  0  0  0
  -31.7691  -14.8656   20.0496 O   0  0  0  0  0  0
  -21.6647   -6.8894   21.4233 O   0  0  0  0  0  0
  -22.3511  -14.5535   20.6673 O   0  0  0  0  0  0
  -24.6335  -31.8554   23.1978 C   0  0  0  0  0  0
  -25.9150  -32.4754   23.8333 C   0  0  1  0  0  0
  -27.2156  -27.2396   20.1254 C   0  0  0  0  0  0
  -25.5934  -33.8555   24.2253 N   0  0  0  0  0  0
  -23.4314  -30.4784   21.5419 C   0  0  2  0  0  0
  -24.8801  -28.9303   20.1050 C   0  0  0  0  0  0
  -22.7516  -29.4595   22.4894 C   0  0  0  0  0  0
  -18.0295  -28.1399   22.8476 C   0  0  0  0  0  0
  -24.1488  -36.7276   23.2640 C   0  0  0  0  0  0
  -25.9806  -30.7599   21.3855 C   0  0  0  0  0  0
  -26.0525  -29.3819   20.7241 C   0  0  0  0  0  0
  -27.2204  -28.5473   20.7285 C   0  0  0  0  0  0
  -26.0259  -26.8801   19.4502 C   0  0  0  0  0  0
  -24.8747  -27.6882   19.4563 C   0  0  0  0  0  0
  -23.6514  -29.8186   20.1559 C   0  0  0  0  0  0
  -25.4117  -36.3064   24.0325 C   0  0  1  0  0  0
  -20.5901  -28.3708   23.1265 C   0  0  2  0  0  0
  -20.6784  -26.9418   22.5409 C   0  0  0  0  0  0
  -19.5753  -26.6385   21.5215 C   0  0  0  0  0  0
  -18.1933  -26.7939   22.1624 C   0  0  0  0  0  0
  -19.1546  -28.8870   23.2868 C   0  0  0  0  0  0
  -18.9467  -30.1472   23.8888 C   0  0  0  0  0  0
  -17.6463  -30.6596   24.0565 C   0  0  0  0  0  0
  -25.9060  -34.9435   23.5093 C   0  0  0  0  0  0
  -16.5355  -29.9089   23.6334 C   0  0  0  0  0  0
  -16.7282  -28.6510   23.0347 C   0  0  0  0  0  0
  -26.4500  -31.6584   25.0731 C   0  0  0  0  0  0
  -25.3704  -31.3760   26.1438 C   0  0  0  0  0  0
  -27.0347  -30.2987   24.6257 C   0  0  0  0  0  0
  -27.6052  -32.4329   25.7500 C   0  0  0  0  0  0
  -27.5578  -37.1798   24.8464 C   0  0  0  0  0  0
  -21.4216  -29.3049   22.3642 N   0  0  0  0  0  0
  -26.4290  -37.3763   23.9405 N   0  0  0  0  0  0
  -24.7006  -31.0495   22.0975 N   0  0  0  0  0  0
  -23.4205  -28.8135   23.3002 O   0  0  0  0  0  0
  -28.2894  -26.3084   20.2129 O   0  0  0  0  0  0
  -26.5631  -34.8917   22.4662 O   0  0  0  0  0  0
  -23.5475  -32.1385   23.7254 O   0  0  0  0  0  0
  -29.0420  -18.1296   17.8845 C   0  0  0  0  0  0
  -29.3787  -17.0191   18.6767 C   0  0  0  0  0  0
  -29.6428  -18.5225   20.5667 C   0  0  0  0  0  0
  -29.0070  -19.4540   18.3865 C   0  0  0  0  0  0
  -29.3239  -19.7079   19.7618 C   0  0  0  0  0  0
  -29.6850  -17.1536   20.0429 C   0  0  0  0  0  0
  -30.5028  -21.9175   20.0960 C   0  0  0  0  0  0
  -28.6700  -20.5310   17.4120 C   0  0  0  0  0  0
  -28.2213  -22.0953   20.3390 C   0  0  0  0  0  0
  -28.8178  -23.5578   20.5517 C   0  0  2  0  0  0
  -28.0551  -24.8429   19.8904 C   0  0  0  0  0  0
  -28.0103  -20.3800   16.3406 N   0  0  0  0  0  0
  -29.3617  -21.1287   20.2543 N   0  0  0  0  0  0
  -29.8691  -15.8808   20.7972 N   0  0  0  0  0  0
  -31.6592  -21.5276   19.9214 O   0  0  0  0  0  0
  -30.1459  -23.2541   20.1184 O   0  0  0  0  0  0
  -31.4805  -12.5605   19.2000 H   0  0  0  0  0  0
  -30.3621  -11.4753   19.9685 H   0  0  0  0  0  0
  -29.8034  -11.7509   17.5285 H   0  0  0  0  0  0
  -29.6572  -13.4771   17.7400 H   0  0  0  0  0  0
  -27.8844  -11.3020   18.8893 H   0  0  0  0  0  0
  -27.3966  -12.5734   17.7978 H   0  0  0  0  0  0
  -27.6469  -14.2662   19.4917 H   0  0  0  0  0  0
  -28.7168  -12.1620   21.4293 H   0  0  0  0  0  0
  -28.4215  -13.8385   21.8149 H   0  0  0  0  0  0
  -25.2789   -9.5692   22.4738 H   0  0  0  0  0  0
  -24.0009   -7.4653   22.7468 H   0  0  0  0  0  0
  -21.0843   -8.8817   19.8959 H   0  0  0  0  0  0
  -22.3726  -10.9694   19.6159 H   0  0  0  0  0  0
  -21.2042   -7.6148   23.9708 H   0  0  0  0  0  0
  -21.1463   -6.0516   25.9067 H   0  0  0  0  0  0
  -22.0607   -2.7607   23.2815 H   0  0  0  0  0  0
  -22.4110  -11.9900   22.4790 H   0  0  0  0  0  0
  -21.1120  -13.1276   22.2628 H   0  0  0  0  0  0
  -24.6580  -15.8490   20.5390 H   0  0  0  0  0  0
  -26.2789  -15.6386   20.1091 H   0  0  0  0  0  0
  -26.7222  -32.5399   23.1079 H   0  0  0  0  0  0
  -25.0068  -33.9693   25.0389 H   0  0  0  0  0  0
  -22.7283  -31.3011   21.3970 H   0  0  0  0  0  0
  -23.3752  -35.9605   23.3302 H   0  0  0  0  0  0
  -24.3580  -36.8895   22.2053 H   0  0  0  0  0  0
  -23.7242  -37.6478   23.6668 H   0  0  0  0  0  0
  -26.1271  -31.5234   20.6204 H   0  0  0  0  0  0
  -26.8551  -30.8051   22.0228 H   0  0  0  0  0  0
  -28.1111  -28.8840   21.2412 H   0  0  0  0  0  0
  -25.9454  -25.9463   18.9153 H   0  0  0  0  0  0
  -23.9842  -27.3431   18.9496 H   0  0  0  0  0  0
  -23.7760  -30.5989   19.4037 H   0  0  0  0  0  0
  -22.7695  -29.2541   19.8479 H   0  0  0  0  0  0
  -25.1298  -36.1909   25.0817 H   0  0  0  0  0  0
  -20.9993  -28.3297   24.1389 H   0  0  0  0  0  0
  -20.5689  -26.2313   23.3619 H   0  0  0  0  0  0
  -21.6659  -26.7443   22.1206 H   0  0  0  0  0  0
  -19.6914  -25.6290   21.1262 H   0  0  0  0  0  0
  -19.6701  -27.3187   20.6738 H   0  0  0  0  0  0
  -17.4203  -26.6681   21.4029 H   0  0  0  0  0  0
  -18.0329  -26.0098   22.9036 H   0  0  0  0  0  0
  -19.7943  -30.7292   24.2258 H   0  0  0  0  0  0
  -17.5016  -31.6280   24.5159 H   0  0  0  0  0  0
  -15.5355  -30.2984   23.7672 H   0  0  0  0  0  0
  -15.8681  -28.0831   22.7061 H   0  0  0  0  0  0
  -24.5865  -30.7130   25.7758 H   0  0  0  0  0  0
  -24.8914  -32.2944   26.4846 H   0  0  0  0  0  0
  -25.7991  -30.8935   27.0228 H   0  0  0  0  0  0
  -26.2949  -29.6732   24.1249 H   0  0  0  0  0  0
  -27.3962  -29.7260   25.4810 H   0  0  0  0  0  0
  -27.8856  -30.4236   23.9556 H   0  0  0  0  0  0
  -27.2660  -33.3639   26.2058 H   0  0  0  0  0  0
  -28.3867  -32.6875   25.0324 H   0  0  0  0  0  0
  -28.0714  -31.8466   26.5432 H   0  0  0  0  0  0
  -28.2596  -38.0093   24.7504 H   0  0  0  0  0  0
  -28.1074  -36.2626   24.6293 H   0  0  0  0  0  0
  -27.2303  -37.1454   25.8869 H   0  0  0  0  0  0
  -20.9392  -29.8770   21.6847 H   0  0  0  0  0  0
  -26.0165  -38.2836   24.1399 H   0  0  0  0  0  0
  -28.8172  -17.9394   16.8454 H   0  0  0  0  0  0
  -29.3644  -16.0423   18.2119 H   0  0  0  0  0  0
  -29.8622  -18.6717   21.6137 H   0  0  0  0  0  0
  -29.0339  -21.5324   17.6525 H   0  0  0  0  0  0
  -27.6133  -22.0628   19.4364 H   0  0  0  0  0  0
  -27.5641  -21.8298   21.1675 H   0  0  0  0  0  0
  -28.8768  -23.7318   21.6264 H   0  0  0  0  0  0
  -27.0250  -24.6322   20.1737 H   0  0  0  0  0  0
  -28.0887  -24.7396   18.8056 H   0  0  0  0  0  0
  -27.7040  -19.4208   16.2183 H   0  0  0  0  0  0
  -29.0882  -15.6577   21.3974 H   0  0  0  0  0  0
  1 25  1  0  0  0
  1 30  2  0  0  0
  1 84  1  0  0  0
  2  3  1  0  0  0
  2 25  1  0  0  0
  2 87  1  0  0  0
  2 88  1  0  0  0
  3  4  1  0  0  0
  3 89  1  0  0  0
  3 90  1  0  0  0
  4  5  1  0  0  0
  4 91  1  0  0  0
  4 92  1  0  0  0
  5  6  1  0  0  0
  5 26  1  0  0  0
  5 93  1  0  0  0
  6 25  1  0  0  0
  6 94  1  0  0  0
  6 95  1  0  0  0
  7  8  2  0  0  0
  7 26  1  0  0  0
  7 29  1  0  0  0
  8  9  1  0  0  0
  8 22  1  0  0  0
  9 10  1  0  0  0
  9 27  2  0  0  0
 10 11  2  0  0  0
 10 15  1  0  0  0
 11 12  1  0  0  0
 11 96  1  0  0  0
 12 13  2  0  0  0
 12 97  1  0  0  0
 13 14  1  0  0  0
 13 31  1  0  0  0
 14 15  2  0  0  0
 14 98  1  0  0  0
 15 99  1  0  0  0
 16 17  2  0  0  0
 16 21  1  0  0  0
 16 31  1  0  0  0
 17 18  1  0  0  0
 17100  1  0  0  0
 18 19  2  0  0  0
 18101  1  0  0  0
 19 20  1  0  0  0
 19 24  1  0  0  0
 20 21  2  0  0  0
 20102  1  0  0  0
 21 23  1  0  0  0
 22 28  1  0  0  0
 22 32  2  0  0  0
 26 27  1  0  0  0
 28103  1  0  0  0
 28104  1  0  0  0
 29105  1  0  0  0
 29106  1  0  0  0
 33 34  1  0  0  0
 33 66  1  0  0  0
 33 70  2  0  0  0
 34 36  1  0  0  0
 34 59  1  0  0  0
 34107  1  0  0  0
 35 44  2  0  0  0
 35 45  1  0  0  0
 35 68  1  0  0  0
 36 56  1  0  0  0
 36108  1  0  0  0
 37 39  1  0  0  0
 37 47  1  0  0  0
 37 66  1  0  0  0
 37109  1  0  0  0
 38 43  2  0  0  0
 38 46  1  0  0  0
 38 47  1  0  0  0
 39 64  1  0  0  0
 39 67  2  0  0  0
 40 52  1  0  0  0
 40 53  2  0  0  0
 40 58  1  0  0  0
 41110  1  0  0  0
 41111  1  0  0  0
 41112  1  0  0  0
 41 48  1  0  0  0
 42 43  1  0  0  0
 42 66  1  0  0  0
 42113  1  0  0  0
 42114  1  0  0  0
 43 44  1  0  0  0
 44115  1  0  0  0
 45 46  2  0  0  0
 45116  1  0  0  0
 46117  1  0  0  0
 47118  1  0  0  0
 47119  1  0  0  0
 48 56  1  0  0  0
 48 65  1  0  0  0
 48120  1  0  0  0
 49 50  1  0  0  0
 49 53  1  0  0  0
 49 64  1  0  0  0
 49121  1  0  0  0
 50 51  1  0  0  0
 50122  1  0  0  0
 50123  1  0  0  0
 51 52  1  0  0  0
 51124  1  0  0  0
 51125  1  0  0  0
 52126  1  0  0  0
 52127  1  0  0  0
 53 54  1  0  0  0
 54 55  2  0  0  0
 54128  1  0  0  0
 55 57  1  0  0  0
 55129  1  0  0  0
 56 69  2  0  0  0
 57 58  2  0  0  0
 57130  1  0  0  0
 58131  1  0  0  0
 59 60  1  0  0  0
 59 61  1  0  0  0
 59 62  1  0  0  0
 60132  1  0  0  0
 60133  1  0  0  0
 60134  1  0  0  0
 61135  1  0  0  0
 61136  1  0  0  0
 61137  1  0  0  0
 62138  1  0  0  0
 62139  1  0  0  0
 62140  1  0  0  0
 63 65  1  0  0  0
 63141  1  0  0  0
 63142  1  0  0  0
 63143  1  0  0  0
 64144  1  0  0  0
 65145  1  0  0  0
 68 81  1  0  0  0
 71 72  2  0  0  0
 71 74  1  0  0  0
 71146  1  0  0  0
 72 76  1  0  0  0
 72147  1  0  0  0
 73 75  1  0  0  0
 73 76  2  0  0  0
 73148  1  0  0  0
 74 75  2  0  0  0
 74 78  1  0  0  0
 75 83  1  0  0  0
 76 84  1  0  0  0
 77 83  1  0  0  0
 77 85  2  0  0  0
 77 86  1  0  0  0
 78 82  2  0  0  0
 78149  1  0  0  0
 79 80  1  0  0  0
 79 83  1  0  0  0
 79150  1  0  0  0
 79151  1  0  0  0
 80 81  1  0  0  0
 80 86  1  0  0  0
 80152  1  0  0  0
 81153  1  0  0  0
 81154  1  0  0  0
 82155  1  0  0  0
 84156  1  0  0  0
M  ISO  4   1 100  68 101  81 101  84 100
M  END
> <chiral flag>
0

> <version>
0

> <s_m_source_file>
/data/baiqing/PycharmProjects/Reinvent-master-3.2/result/LINK_invent/BTK/process_docking_weight1_custom_product_contain_oxygen_bond_distance_aromatic_linkinvent_7_9_3/rearranged_h_0069.sdf

> <i_m_source_file_index>
7

> <r_mmod_Potential_Energy-OPLS-2005>
296.055206298828

> <r_mmod_Stretch_Energy-OPLS-2005>
141.326370239258

> <r_mmod_Bend_Energy-OPLS-2005>
199.803131103516

> <r_mmod_Torsional_Energy-OPLS-2005>
308.101226806641

> <r_mmod_Improper_Torsional_Energy-OPLS-2005>
7.036780834198

> <r_mmod_Van_der_Waal_Energy-OPLS-2005>
140.710876464844

> <r_mmod_Electrostatic_Energy-OPLS-2005>
-343.67041015625

> <r_mmod_Solvation_Energy-OPLS-2005>
-253.270034790039

> <b_mmod_Minimization_Converged-OPLS-2005>
0

> <r_mmod_RMS_Derivative-OPLS-2005>
1.90094745159149

$$$$
7
                    3D
 Structure written by MMmdl.
152160  0  0  1  0            999 V2000
  -30.6113  -14.6535   20.4959 C   0  0  0  0  0  0
  -30.4403  -12.4000   19.4549 C   0  0  0  0  0  0
  -29.5092  -12.5064   18.2258 C   0  0  0  0  0  0
  -28.0320  -12.3412   18.6366 C   0  0  0  0  0  0
  -27.6518  -13.2150   19.8611 C   0  0  2  0  0  0
  -28.6959  -13.0750   20.9923 C   0  0  0  0  0  0
  -25.2556  -13.8162   20.5679 C   0  0  0  0  0  0
  -24.1827  -13.0433   20.9206 C   0  0  0  0  0  0
  -24.6391  -11.6902   20.8745 C   0  0  0  0  0  0
  -23.9057  -10.4288   21.0410 C   0  0  0  0  0  0
  -24.3612   -9.4204   21.9186 C   0  0  0  0  0  0
  -23.6289   -8.2239   22.0753 C   0  0  0  0  0  0
  -22.4271   -8.0277   21.3544 C   0  0  0  0  0  0
  -21.9903   -9.0252   20.4649 C   0  0  0  0  0  0
  -22.7228  -10.2134   20.3059 C   0  0  0  0  0  0
  -21.6852   -6.0733   22.5279 C   0  0  0  0  0  0
  -21.4014   -6.5638   23.8212 C   0  0  0  0  0  0
  -21.3659   -5.6790   24.9175 C   0  0  0  0  0  0
  -21.6044   -4.3052   24.7225 C   0  0  0  0  0  0
  -21.8819   -3.8145   23.4346 C   0  0  0  0  0  0
  -21.9193   -4.6961   22.3402 C   0  0  0  0  0  0
  -22.7851  -13.5234   21.1863 C   0  0  0  0  0  0
  -22.1662   -4.2148   21.0980 F   0  0  0  0  0  0
  -21.5629   -3.4536   25.7737 F   0  0  0  0  0  0
  -30.0108  -13.4223   20.4305 N   0  0  0  0  0  0
  -26.2977  -12.9338   20.3295 N   0  0  0  0  0  0
  -25.9316  -11.6498   20.5747 N   0  0  0  0  0  0
  -22.0485  -12.8232   22.0417 N   0  0  0  0  0  0
  -25.4265  -15.1881   20.4065 N   0  0  0  0  0  0
  -31.7774  -14.8138   20.1212 O   0  0  0  0  0  0
  -21.6636   -6.8875   21.4240 O   0  0  0  0  0  0
  -22.3544  -14.5542   20.6705 O   0  0  0  0  0  0
  -24.6257  -31.8597   23.2019 C   0  0  0  0  0  0
  -25.9104  -32.4778   23.8351 C   0  0  1  0  0  0
  -27.2254  -27.3182   20.1256 C   0  0  0  0  0  0
  -25.5920  -33.8579   24.2276 N   0  0  0  0  0  0
  -23.4197  -30.4822   21.5448 C   0  0  2  0  0  0
  -24.8672  -28.9337   20.1145 C   0  0  0  0  0  0
  -22.7472  -29.4621   22.4942 C   0  0  0  0  0  0
  -18.0284  -28.1386   22.8486 C   0  0  0  0  0  0
  -24.1490  -36.7295   23.2639 C   0  0  0  0  0  0
  -25.9604  -30.7904   21.3732 C   0  0  0  0  0  0
  -26.0354  -29.4162   20.7185 C   0  0  0  0  0  0
  -27.2193  -28.6208   20.7120 C   0  0  0  0  0  0
  -26.0390  -26.8900   19.4908 C   0  0  0  0  0  0
  -24.8706  -27.6760   19.4910 C   0  0  0  0  0  0
  -23.6349  -29.8141   20.1613 C   0  0  0  0  0  0
  -25.4114  -36.3083   24.0329 C   0  0  1  0  0  0
  -20.5883  -28.3687   23.1289 C   0  0  2  0  0  0
  -20.6773  -26.9411   22.5415 C   0  0  0  0  0  0
  -19.5752  -26.6385   21.5215 C   0  0  0  0  0  0
  -18.1930  -26.7929   22.1624 C   0  0  0  0  0  0
  -19.1536  -28.8853   23.2881 C   0  0  0  0  0  0
  -18.9458  -30.1456   23.8896 C   0  0  0  0  0  0
  -17.6458  -30.6586   24.0564 C   0  0  0  0  0  0
  -25.9050  -34.9452   23.5104 C   0  0  0  0  0  0
  -16.5349  -29.9086   23.6331 C   0  0  0  0  0  0
  -16.7272  -28.6505   23.0349 C   0  0  0  0  0  0
  -26.4491  -31.6588   25.0721 C   0  0  0  0  0  0
  -25.3726  -31.3732   26.1452 C   0  0  0  0  0  0
  -27.0327  -30.3009   24.6175 C   0  0  0  0  0  0
  -27.6060  -32.4317   25.7483 C   0  0  0  0  0  0
  -27.5581  -37.1799   24.8462 C   0  0  0  0  0  0
  -21.4186  -29.3039   22.3683 N   0  0  0  0  0  0
  -26.4293  -37.3776   23.9406 N   0  0  0  0  0  0
  -24.6874  -31.0608   22.0970 N   0  0  0  0  0  0
  -23.4194  -28.8163   23.3025 O   0  0  0  0  0  0
  -28.3467  -26.4772   20.1407 O   0  0  0  0  0  0
  -26.5622  -34.8920   22.4672 O   0  0  0  0  0  0
  -23.5421  -32.1392   23.7350 O   0  0  0  0  0  0
  -28.7029  -19.3670   20.4587 C   0  0  0  0  0  0
  -28.7011  -17.9533   20.6866 C   0  0  0  0  0  0
  -31.0759  -17.8723   20.3696 C   0  0  0  0  0  0
  -29.8948  -20.0821   20.1651 C   0  0  0  0  0  0
  -29.8796  -17.1536   20.6229 C   0  0  0  0  0  0
  -31.0848  -19.2841   20.1524 C   0  0  0  0  0  0
  -29.9190  -21.5589   19.7612 C   0  0  0  0  0  0
  -29.1629  -24.0366   19.8665 C   0  0  0  0  0  0
  -28.1568  -25.0530   20.5319 C   0  0  0  0  0  0
  -29.7876  -15.7010   20.8269 N   0  0  0  0  0  0
  -29.1370  -22.5936   20.2561 N   0  0  0  0  0  0
  -30.7922  -21.8607   18.7927 N   0  3  0  0  0  0
  -29.9652  -24.4470   19.0161 O   0  0  0  0  0  0
  -32.2819  -19.8630   19.8833 F   0  0  0  0  0  0
  -31.4807  -12.5308   19.1519 H   0  0  0  0  0  0
  -30.3812  -11.4051   19.8991 H   0  0  0  0  0  0
  -29.7771  -11.7525   17.4843 H   0  0  0  0  0  0
  -29.6483  -13.4739   17.7407 H   0  0  0  0  0  0
  -27.8715  -11.2885   18.8722 H   0  0  0  0  0  0
  -27.3775  -12.5663   17.7936 H   0  0  0  0  0  0
  -27.6677  -14.2483   19.5150 H   0  0  0  0  0  0
  -28.7099  -12.0536   21.3759 H   0  0  0  0  0  0
  -28.4377  -13.7074   21.8431 H   0  0  0  0  0  0
  -25.2759   -9.5682   22.4756 H   0  0  0  0  0  0
  -24.0001   -7.4629   22.7469 H   0  0  0  0  0  0
  -21.0833   -8.8771   19.8956 H   0  0  0  0  0  0
  -22.3686  -10.9673   19.6169 H   0  0  0  0  0  0
  -21.2005   -7.6145   23.9715 H   0  0  0  0  0  0
  -21.1482   -6.0520   25.9078 H   0  0  0  0  0  0
  -22.0599   -2.7606   23.2844 H   0  0  0  0  0  0
  -22.4095  -11.9892   22.4809 H   0  0  0  0  0  0
  -21.1106  -13.1267   22.2623 H   0  0  0  0  0  0
  -24.6483  -15.8326   20.4953 H   0  0  0  0  0  0
  -26.2471  -15.6137   19.9969 H   0  0  0  0  0  0
  -26.7173  -32.5452   23.1102 H   0  0  0  0  0  0
  -25.0063  -33.9724   25.0418 H   0  0  0  0  0  0
  -22.7135  -31.3024   21.4007 H   0  0  0  0  0  0
  -23.3752  -35.9628   23.3301 H   0  0  0  0  0  0
  -24.3581  -36.8916   22.2053 H   0  0  0  0  0  0
  -23.7243  -37.6498   23.6661 H   0  0  0  0  0  0
  -26.0909  -31.5527   20.6037 H   0  0  0  0  0  0
  -26.8411  -30.8409   22.0018 H   0  0  0  0  0  0
  -28.1179  -28.9882   21.1874 H   0  0  0  0  0  0
  -26.0028  -25.9363   18.9850 H   0  0  0  0  0  0
  -23.9776  -27.3043   19.0074 H   0  0  0  0  0  0
  -23.7540  -30.5889   19.4032 H   0  0  0  0  0  0
  -22.7553  -29.2421   19.8603 H   0  0  0  0  0  0
  -25.1295  -36.1937   25.0822 H   0  0  0  0  0  0
  -20.9976  -28.3263   24.1408 H   0  0  0  0  0  0
  -20.5674  -26.2297   23.3613 H   0  0  0  0  0  0
  -21.6643  -26.7442   22.1209 H   0  0  0  0  0  0
  -19.6912  -25.6296   21.1245 H   0  0  0  0  0  0
  -19.6691  -27.3197   20.6746 H   0  0  0  0  0  0
  -17.4201  -26.6678   21.4024 H   0  0  0  0  0  0
  -18.0326  -26.0070   22.9020 H   0  0  0  0  0  0
  -19.7933  -30.7274   24.2263 H   0  0  0  0  0  0
  -17.5012  -31.6265   24.5168 H   0  0  0  0  0  0
  -15.5349  -30.2987   23.7655 H   0  0  0  0  0  0
  -15.8673  -28.0827   22.7059 H   0  0  0  0  0  0
  -24.5898  -30.7082   25.7785 H   0  0  0  0  0  0
  -24.8921  -32.2902   26.4873 H   0  0  0  0  0  0
  -25.8051  -30.8913   27.0230 H   0  0  0  0  0  0
  -26.2896  -29.6760   24.1207 H   0  0  0  0  0  0
  -27.4030  -29.7264   25.4676 H   0  0  0  0  0  0
  -27.8766  -30.4290   23.9391 H   0  0  0  0  0  0
  -27.2682  -33.3621   26.2060 H   0  0  0  0  0  0
  -28.3866  -32.6868   25.0303 H   0  0  0  0  0  0
  -28.0734  -31.8441   26.5394 H   0  0  0  0  0  0
  -28.2601  -38.0095   24.7509 H   0  0  0  0  0  0
  -28.1076  -36.2625   24.6288 H   0  0  0  0  0  0
  -27.2301  -37.1450   25.8867 H   0  0  0  0  0  0
  -20.9365  -29.8758   21.6890 H   0  0  0  0  0  0
  -26.0177  -38.2854   24.1406 H   0  0  0  0  0  0
  -27.7590  -19.8930   20.4741 H   0  0  0  0  0  0
  -27.7519  -17.4765   20.8888 H   0  0  0  0  0  0
  -32.0181  -17.3479   20.3229 H   0  0  0  0  0  0
  -28.2873  -24.9891   21.6120 H   0  0  0  0  0  0
  -27.1510  -24.6881   20.3327 H   0  0  0  0  0  0
  -28.8788  -15.3827   21.1239 H   0  0  0  0  0  0
  -28.4973  -22.2741   20.9679 H   0  0  0  0  0  0
  -31.4887  -21.1812   18.5211 H   0  0  0  0  0  0
  -30.8706  -22.8243   18.4879 H   0  0  0  0  0  0
  1 25  1  0  0  0
  1 30  2  0  0  0
  1 80  1  0  0  0
  2  3  1  0  0  0
  2 25  1  0  0  0
  2 85  1  0  0  0
  2 86  1  0  0  0
  3  4  1  0  0  0
  3 87  1  0  0  0
  3 88  1  0  0  0
  4  5  1  0  0  0
  4 89  1  0  0  0
  4 90  1  0  0  0
  5  6  1  0  0  0
  5 26  1  0  0  0
  5 91  1  0  0  0
  6 25  1  0  0  0
  6 92  1  0  0  0
  6 93  1  0  0  0
  7  8  2  0  0  0
  7 26  1  0  0  0
  7 29  1  0  0  0
  8  9  1  0  0  0
  8 22  1  0  0  0
  9 10  1  0  0  0
  9 27  2  0  0  0
 10 11  2  0  0  0
 10 15  1  0  0  0
 11 12  1  0  0  0
 11 94  1  0  0  0
 12 13  2  0  0  0
 12 95  1  0  0  0
 13 14  1  0  0  0
 13 31  1  0  0  0
 14 15  2  0  0  0
 14 96  1  0  0  0
 15 97  1  0  0  0
 16 17  2  0  0  0
 16 21  1  0  0  0
 16 31  1  0  0  0
 17 18  1  0  0  0
 17 98  1  0  0  0
 18 19  2  0  0  0
 18 99  1  0  0  0
 19 20  1  0  0  0
 19 24  1  0  0  0
 20 21  2  0  0  0
 20100  1  0  0  0
 21 23  1  0  0  0
 22 28  1  0  0  0
 22 32  2  0  0  0
 26 27  1  0  0  0
 28101  1  0  0  0
 28102  1  0  0  0
 29103  1  0  0  0
 29104  1  0  0  0
 33 34  1  0  0  0
 33 66  1  0  0  0
 33 70  2  0  0  0
 34 36  1  0  0  0
 34 59  1  0  0  0
 34105  1  0  0  0
 35 44  2  0  0  0
 35 45  1  0  0  0
 35 68  1  0  0  0
 36 56  1  0  0  0
 36106  1  0  0  0
 37 39  1  0  0  0
 37 47  1  0  0  0
 37 66  1  0  0  0
 37107  1  0  0  0
 38 43  2  0  0  0
 38 46  1  0  0  0
 38 47  1  0  0  0
 39 64  1  0  0  0
 39 67  2  0  0  0
 40 52  1  0  0  0
 40 53  2  0  0  0
 40 58  1  0  0  0
 41108  1  0  0  0
 41109  1  0  0  0
 41110  1  0  0  0
 41 48  1  0  0  0
 42 43  1  0  0  0
 42 66  1  0  0  0
 42111  1  0  0  0
 42112  1  0  0  0
 43 44  1  0  0  0
 44113  1  0  0  0
 45 46  2  0  0  0
 45114  1  0  0  0
 46115  1  0  0  0
 47116  1  0  0  0
 47117  1  0  0  0
 48 56  1  0  0  0
 48 65  1  0  0  0
 48118  1  0  0  0
 49 50  1  0  0  0
 49 53  1  0  0  0
 49 64  1  0  0  0
 49119  1  0  0  0
 50 51  1  0  0  0
 50120  1  0  0  0
 50121  1  0  0  0
 51 52  1  0  0  0
 51122  1  0  0  0
 51123  1  0  0  0
 52124  1  0  0  0
 52125  1  0  0  0
 53 54  1  0  0  0
 54 55  2  0  0  0
 54126  1  0  0  0
 55 57  1  0  0  0
 55127  1  0  0  0
 56 69  2  0  0  0
 57 58  2  0  0  0
 57128  1  0  0  0
 58129  1  0  0  0
 59 60  1  0  0  0
 59 61  1  0  0  0
 59 62  1  0  0  0
 60130  1  0  0  0
 60131  1  0  0  0
 60132  1  0  0  0
 61133  1  0  0  0
 61134  1  0  0  0
 61135  1  0  0  0
 62136  1  0  0  0
 62137  1  0  0  0
 62138  1  0  0  0
 63 65  1  0  0  0
 63139  1  0  0  0
 63140  1  0  0  0
 63141  1  0  0  0
 64142  1  0  0  0
 65143  1  0  0  0
 68 79  1  0  0  0
 71 72  2  0  0  0
 71 74  1  0  0  0
 71144  1  0  0  0
 72 75  1  0  0  0
 72145  1  0  0  0
 73 75  2  0  0  0
 73 76  1  0  0  0
 73146  1  0  0  0
 74 76  2  0  0  0
 74 77  1  0  0  0
 75 80  1  0  0  0
 76 84  1  0  0  0
 77 81  1  0  0  0
 77 82  2  0  0  0
 78 79  1  0  0  0
 78 81  1  0  0  0
 78 83  2  0  0  0
 79147  1  0  0  0
 79148  1  0  0  0
 80149  1  0  0  0
 81150  1  0  0  0
 82151  1  0  0  0
 82152  1  0  0  0
M  CHG  1  82   1
M  ISO  4   1 100  68 101  79 101  80 100
M  END
> <chiral flag>
0

> <version>
0

> <s_m_source_file>
/data/baiqing/PycharmProjects/Reinvent-master-3.2/result/LINK_invent/BTK/process_docking_weight1_custom_product_contain_oxygen_bond_distance_aromatic_linkinvent_7_9_3/rearranged_h_0069.sdf

> <i_m_source_file_index>
8

> <r_mmod_Potential_Energy-OPLS-2005>
-171.113098144531

> <r_mmod_Stretch_Energy-OPLS-2005>
88.8483047485352

> <r_mmod_Bend_Energy-OPLS-2005>
143.545318603516

> <r_mmod_Torsional_Energy-OPLS-2005>
223.217269897461

> <r_mmod_Improper_Torsional_Energy-OPLS-2005>
5.6275429725647

> <r_mmod_Van_der_Waal_Energy-OPLS-2005>
160.325942993164

> <r_mmod_Electrostatic_Energy-OPLS-2005>
-378.513397216797

> <r_mmod_Solvation_Energy-OPLS-2005>
-464.06884765625

> <b_mmod_Minimization_Converged-OPLS-2005>
0

> <r_mmod_RMS_Derivative-OPLS-2005>
0.336467862129211

$$$$
8
                    3D
 Structure written by MMmdl.
158167  0  0  1  0            999 V2000
  -30.6291  -14.7747   20.4519 C   0  0  0  0  0  0
  -30.4197  -12.4715   19.4873 C   0  0  0  0  0  0
  -29.5031  -12.4918   18.2438 C   0  0  0  0  0  0
  -28.0332  -12.3119   18.6628 C   0  0  0  0  0  0
  -27.6321  -13.2368   19.8418 C   0  0  2  0  0  0
  -28.6738  -13.2134   20.9810 C   0  0  0  0  0  0
  -25.2464  -13.8225   20.5693 C   0  0  0  0  0  0
  -24.1774  -13.0450   20.9241 C   0  0  0  0  0  0
  -24.6385  -11.6940   20.8775 C   0  0  0  0  0  0
  -23.9071  -10.4299   21.0426 C   0  0  0  0  0  0
  -24.3617   -9.4211   21.9201 C   0  0  0  0  0  0
  -23.6294   -8.2245   22.0762 C   0  0  0  0  0  0
  -22.4279   -8.0288   21.3539 C   0  0  0  0  0  0
  -21.9919   -9.0270   20.4638 C   0  0  0  0  0  0
  -22.7255  -10.2147   20.3061 C   0  0  0  0  0  0
  -21.6838   -6.0742   22.5273 C   0  0  0  0  0  0
  -21.4010   -6.5647   23.8208 C   0  0  0  0  0  0
  -21.3660   -5.6797   24.9170 C   0  0  0  0  0  0
  -21.6051   -4.3056   24.7220 C   0  0  0  0  0  0
  -21.8815   -3.8155   23.4332 C   0  0  0  0  0  0
  -21.9196   -4.6975   22.3393 C   0  0  0  0  0  0
  -22.7792  -13.5228   21.1896 C   0  0  0  0  0  0
  -22.1656   -4.2170   21.0965 F   0  0  0  0  0  0
  -21.5639   -3.4531   25.7726 F   0  0  0  0  0  0
  -29.9715  -13.5611   20.3907 N   0  0  0  0  0  0
  -26.2878  -12.9433   20.3255 N   0  0  0  0  0  0
  -25.9305  -11.6569   20.5751 N   0  0  0  0  0  0
  -22.0427  -12.8204   22.0439 N   0  0  0  0  0  0
  -25.4150  -15.1944   20.4097 N   0  0  0  0  0  0
  -31.8256  -14.7884   20.1530 O   0  0  0  0  0  0
  -21.6635   -6.8889   21.4238 O   0  0  0  0  0  0
  -22.3474  -14.5529   20.6754 O   0  0  0  0  0  0
  -24.6287  -31.8542   23.1902 C   0  0  0  0  0  0
  -25.9127  -32.4717   23.8266 C   0  0  1  0  0  0
  -27.2414  -27.2659   20.1490 C   0  0  0  0  0  0
  -25.5930  -33.8515   24.2201 N   0  0  0  0  0  0
  -23.4279  -30.4697   21.5304 C   0  0  2  0  0  0
  -24.8833  -28.9068   20.1038 C   0  0  0  0  0  0
  -22.7483  -29.4591   22.4833 C   0  0  0  0  0  0
  -18.0306  -28.1389   22.8461 C   0  0  0  0  0  0
  -24.1524  -36.7287   23.2639 C   0  0  0  0  0  0
  -25.9684  -30.7681   21.3702 C   0  0  0  0  0  0
  -26.0450  -29.3878   20.7193 C   0  0  0  0  0  0
  -27.2203  -28.5758   20.7326 C   0  0  0  0  0  0
  -26.0632  -26.8425   19.5010 C   0  0  0  0  0  0
  -24.8966  -27.6435   19.4810 C   0  0  0  0  0  0
  -23.6485  -29.7898   20.1503 C   0  0  0  0  0  0
  -25.4135  -36.3031   24.0312 C   0  0  1  0  0  0
  -20.5909  -28.3731   23.1230 C   0  0  2  0  0  0
  -20.6793  -26.9432   22.5406 C   0  0  0  0  0  0
  -19.5771  -26.6390   21.5205 C   0  0  0  0  0  0
  -18.1950  -26.7933   22.1607 C   0  0  0  0  0  0
  -19.1560  -28.8867   23.2849 C   0  0  0  0  0  0
  -18.9501  -30.1464   23.8869 C   0  0  0  0  0  0
  -17.6502  -30.6586   24.0565 C   0  0  0  0  0  0
  -25.9071  -34.9410   23.5066 C   0  0  0  0  0  0
  -16.5387  -29.9093   23.6314 C   0  0  0  0  0  0
  -16.7300  -28.6522   23.0310 C   0  0  0  0  0  0
  -26.4512  -31.6536   25.0665 C   0  0  0  0  0  0
  -25.3722  -31.3661   26.1383 C   0  0  0  0  0  0
  -27.0399  -30.2956   24.6170 C   0  0  0  0  0  0
  -27.6076  -32.4280   25.7429 C   0  0  0  0  0  0
  -27.5585  -37.1779   24.8449 C   0  0  0  0  0  0
  -21.4184  -29.3069   22.3589 N   0  0  0  0  0  0
  -26.4306  -37.3744   23.9386 N   0  0  0  0  0  0
  -24.6925  -31.0500   22.0866 N   0  0  0  0  0  0
  -23.4181  -28.8137   23.2932 O   0  0  0  0  0  0
  -28.3637  -26.4232   20.2891 O   0  0  0  0  0  0
  -26.5674  -34.8903   22.4655 O   0  0  0  0  0  0
  -23.5454  -32.1379   23.7212 O   0  0  0  0  0  0
  -29.4375  -18.5843   20.6258 C   0  0  0  0  0  0
  -31.6988  -17.7358   20.4647 C   0  0  0  0  0  0
  -31.3008  -20.1682   20.4499 C   0  0  0  0  0  0
  -29.8907  -19.9819   20.5631 C   0  0  0  0  0  0
  -30.3243  -17.4140   20.5697 C   0  0  0  0  0  0
  -32.1692  -19.0571   20.4012 C   0  0  0  0  0  0
  -28.7962  -21.8042   21.8805 C   0  0  0  0  0  0
  -28.4408  -23.3082   21.7826 C   0  0  0  0  0  0
  -28.8549  -22.2967   19.6583 C   0  0  0  0  0  0
  -28.1856  -23.6040   20.2973 C   0  0  2  0  0  0
  -31.9595  -21.5452   20.4169 C   0  0  0  0  0  0
  -28.5648  -25.0679   19.6803 C   0  0  0  0  0  0
  -29.0343  -21.2079   20.6887 N   0  0  0  0  0  0
  -29.9049  -15.9647   20.6270 N   0  0  0  0  0  0
  -28.8484  -21.2365   22.9758 O   0  0  0  0  0  0
  -33.5070  -19.2606   20.3069 F   0  0  0  0  0  0
  -31.4614  -12.5806   19.1827 H   0  0  0  0  0  0
  -30.3588  -11.5091   19.9974 H   0  0  0  0  0  0
  -29.7903  -11.6985   17.5514 H   0  0  0  0  0  0
  -29.6237  -13.4322   17.7052 H   0  0  0  0  0  0
  -27.9075  -11.2687   18.9556 H   0  0  0  0  0  0
  -27.3721  -12.4683   17.8102 H   0  0  0  0  0  0
  -27.6142  -14.2471   19.4336 H   0  0  0  0  0  0
  -28.7131  -12.2285   21.4506 H   0  0  0  0  0  0
  -28.4010  -13.9166   21.7679 H   0  0  0  0  0  0
  -25.2747   -9.5684   22.4796 H   0  0  0  0  0  0
  -23.9999   -7.4624   22.7472 H   0  0  0  0  0  0
  -21.0865   -8.8804   19.8919 H   0  0  0  0  0  0
  -22.3730  -10.9704   19.6184 H   0  0  0  0  0  0
  -21.1987   -7.6154   23.9722 H   0  0  0  0  0  0
  -21.1489   -6.0520   25.9082 H   0  0  0  0  0  0
  -22.0597   -2.7620   23.2823 H   0  0  0  0  0  0
  -22.4040  -11.9874   22.4830 H   0  0  0  0  0  0
  -21.1032  -13.1220   22.2609 H   0  0  0  0  0  0
  -24.6460  -15.8475   20.5171 H   0  0  0  0  0  0
  -26.2571  -15.6326   20.0592 H   0  0  0  0  0  0
  -26.7182  -32.5419   23.1003 H   0  0  0  0  0  0
  -24.9972  -33.9612   25.0268 H   0  0  0  0  0  0
  -22.7254  -31.2903   21.3766 H   0  0  0  0  0  0
  -23.3792  -35.9616   23.3263 H   0  0  0  0  0  0
  -24.3593  -36.8976   22.2056 H   0  0  0  0  0  0
  -23.7299  -37.6469   23.6733 H   0  0  0  0  0  0
  -26.1040  -31.5284   20.5988 H   0  0  0  0  0  0
  -26.8428  -30.8216   22.0065 H   0  0  0  0  0  0
  -28.1060  -28.9319   21.2428 H   0  0  0  0  0  0
  -26.0272  -25.8611   19.0511 H   0  0  0  0  0  0
  -24.0069  -27.2680   18.9921 H   0  0  0  0  0  0
  -23.7618  -30.5653   19.3913 H   0  0  0  0  0  0
  -22.7705  -29.2129   19.8521 H   0  0  0  0  0  0
  -25.1317  -36.1858   25.0809 H   0  0  0  0  0  0
  -21.0020  -28.3430   24.1344 H   0  0  0  0  0  0
  -20.5711  -26.2362   23.3641 H   0  0  0  0  0  0
  -21.6656  -26.7450   22.1185 H   0  0  0  0  0  0
  -19.6950  -25.6307   21.1236 H   0  0  0  0  0  0
  -19.6719  -27.3191   20.6738 H   0  0  0  0  0  0
  -17.4208  -26.6676   21.4021 H   0  0  0  0  0  0
  -18.0349  -26.0076   22.9004 H   0  0  0  0  0  0
  -19.7996  -30.7263   24.2233 H   0  0  0  0  0  0
  -17.5079  -31.6252   24.5199 H   0  0  0  0  0  0
  -15.5387  -30.2984   23.7667 H   0  0  0  0  0  0
  -15.8712  -28.0857   22.6978 H   0  0  0  0  0  0
  -24.5953  -30.6959   25.7686 H   0  0  0  0  0  0
  -24.8847  -32.2809   26.4774 H   0  0  0  0  0  0
  -25.8033  -30.8860   27.0187 H   0  0  0  0  0  0
  -26.2992  -29.6609   24.1298 H   0  0  0  0  0  0
  -27.4195  -29.7300   25.4692 H   0  0  0  0  0  0
  -27.8813  -30.4206   23.9345 H   0  0  0  0  0  0
  -27.2736  -33.3657   26.1899 H   0  0  0  0  0  0
  -28.3951  -32.6704   25.0268 H   0  0  0  0  0  0
  -28.0694  -31.8456   26.5423 H   0  0  0  0  0  0
  -28.2559  -38.0118   24.7522 H   0  0  0  0  0  0
  -28.1121  -36.2632   24.6250 H   0  0  0  0  0  0
  -27.2276  -37.1382   25.8847 H   0  0  0  0  0  0
  -20.9385  -29.8745   21.6735 H   0  0  0  0  0  0
  -26.0182  -38.2820   24.1409 H   0  0  0  0  0  0
  -28.3748  -18.4088   20.7242 H   0  0  0  0  0  0
  -32.4664  -16.9822   20.4392 H   0  0  0  0  0  0
  -29.2702  -23.8997   22.1676 H   0  0  0  0  0  0
  -27.5620  -23.5314   22.3869 H   0  0  0  0  0  0
  -29.8164  -22.5489   19.2141 H   0  0  0  0  0  0
  -28.2264  -21.9211   18.8518 H   0  0  0  0  0  0
  -27.1079  -23.4990   20.1608 H   0  0  0  0  0  0
  -32.0998  -21.8735   19.3873 H   0  0  0  0  0  0
  -32.9460  -21.5199   20.8812 H   0  0  0  0  0  0
  -31.4025  -22.3113   20.9529 H   0  0  0  0  0  0
  -28.2003  -25.1115   18.6546 H   0  0  0  0  0  0
  -29.6492  -25.0404   19.5610 H   0  0  0  0  0  0
  -28.9179  -15.8160   20.7688 H   0  0  0  0  0  0
  1 25  1  0  0  0
  1 30  2  0  0  0
  1 84  1  0  0  0
  2  3  1  0  0  0
  2 25  1  0  0  0
  2 87  1  0  0  0
  2 88  1  0  0  0
  3  4  1  0  0  0
  3 89  1  0  0  0
  3 90  1  0  0  0
  4  5  1  0  0  0
  4 91  1  0  0  0
  4 92  1  0  0  0
  5  6  1  0  0  0
  5 26  1  0  0  0
  5 93  1  0  0  0
  6 25  1  0  0  0
  6 94  1  0  0  0
  6 95  1  0  0  0
  7  8  2  0  0  0
  7 26  1  0  0  0
  7 29  1  0  0  0
  8  9  1  0  0  0
  8 22  1  0  0  0
  9 10  1  0  0  0
  9 27  2  0  0  0
 10 11  2  0  0  0
 10 15  1  0  0  0
 11 12  1  0  0  0
 11 96  1  0  0  0
 12 13  2  0  0  0
 12 97  1  0  0  0
 13 14  1  0  0  0
 13 31  1  0  0  0
 14 15  2  0  0  0
 14 98  1  0  0  0
 15 99  1  0  0  0
 16 17  2  0  0  0
 16 21  1  0  0  0
 16 31  1  0  0  0
 17 18  1  0  0  0
 17100  1  0  0  0
 18 19  2  0  0  0
 18101  1  0  0  0
 19 20  1  0  0  0
 19 24  1  0  0  0
 20 21  2  0  0  0
 20102  1  0  0  0
 21 23  1  0  0  0
 22 28  1  0  0  0
 22 32  2  0  0  0
 26 27  1  0  0  0
 28103  1  0  0  0
 28104  1  0  0  0
 29105  1  0  0  0
 29106  1  0  0  0
 33 34  1  0  0  0
 33 66  1  0  0  0
 33 70  2  0  0  0
 34 36  1  0  0  0
 34 59  1  0  0  0
 34107  1  0  0  0
 35 44  2  0  0  0
 35 45  1  0  0  0
 35 68  1  0  0  0
 36 56  1  0  0  0
 36108  1  0  0  0
 37 39  1  0  0  0
 37 47  1  0  0  0
 37 66  1  0  0  0
 37109  1  0  0  0
 38 43  2  0  0  0
 38 46  1  0  0  0
 38 47  1  0  0  0
 39 64  1  0  0  0
 39 67  2  0  0  0
 40 52  1  0  0  0
 40 53  2  0  0  0
 40 58  1  0  0  0
 41110  1  0  0  0
 41111  1  0  0  0
 41112  1  0  0  0
 41 48  1  0  0  0
 42 43  1  0  0  0
 42 66  1  0  0  0
 42113  1  0  0  0
 42114  1  0  0  0
 43 44  1  0  0  0
 44115  1  0  0  0
 45 46  2  0  0  0
 45116  1  0  0  0
 46117  1  0  0  0
 47118  1  0  0  0
 47119  1  0  0  0
 48 56  1  0  0  0
 48 65  1  0  0  0
 48120  1  0  0  0
 49 50  1  0  0  0
 49 53  1  0  0  0
 49 64  1  0  0  0
 49121  1  0  0  0
 50 51  1  0  0  0
 50122  1  0  0  0
 50123  1  0  0  0
 51 52  1  0  0  0
 51124  1  0  0  0
 51125  1  0  0  0
 52126  1  0  0  0
 52127  1  0  0  0
 53 54  1  0  0  0
 54 55  2  0  0  0
 54128  1  0  0  0
 55 57  1  0  0  0
 55129  1  0  0  0
 56 69  2  0  0  0
 57 58  2  0  0  0
 57130  1  0  0  0
 58131  1  0  0  0
 59 60  1  0  0  0
 59 61  1  0  0  0
 59 62  1  0  0  0
 60132  1  0  0  0
 60133  1  0  0  0
 60134  1  0  0  0
 61135  1  0  0  0
 61136  1  0  0  0
 61137  1  0  0  0
 62138  1  0  0  0
 62139  1  0  0  0
 62140  1  0  0  0
 63 65  1  0  0  0
 63141  1  0  0  0
 63142  1  0  0  0
 63143  1  0  0  0
 64144  1  0  0  0
 65145  1  0  0  0
 68 82  1  0  0  0
 71 74  2  0  0  0
 71 75  1  0  0  0
 71146  1  0  0  0
 72 75  2  0  0  0
 72 76  1  0  0  0
 72147  1  0  0  0
 73 74  1  0  0  0
 73 76  2  0  0  0
 73 81  1  0  0  0
 74 83  1  0  0  0
 75 84  1  0  0  0
 76 86  1  0  0  0
 77 78  1  0  0  0
 77 83  1  0  0  0
 77 85  2  0  0  0
 78 80  1  0  0  0
 78148  1  0  0  0
 78149  1  0  0  0
 79 80  1  0  0  0
 79 83  1  0  0  0
 79150  1  0  0  0
 79151  1  0  0  0
 80 82  1  0  0  0
 80152  1  0  0  0
 81153  1  0  0  0
 81154  1  0  0  0
 81155  1  0  0  0
 82156  1  0  0  0
 82157  1  0  0  0
 84158  1  0  0  0
M  ISO  4   1 100  68 101  82 101  84 100
M  END
> <chiral flag>
0

> <version>
0

> <s_m_source_file>
/data/baiqing/PycharmProjects/Reinvent-master-3.2/result/LINK_invent/BTK/process_docking_weight1_custom_product_contain_oxygen_bond_distance_aromatic_linkinvent_7_9_3/rearranged_h_0069.sdf

> <i_m_source_file_index>
9

> <r_mmod_Potential_Energy-OPLS-2005>
323.315765380859

> <r_mmod_Stretch_Energy-OPLS-2005>
140.940994262695

> <r_mmod_Bend_Energy-OPLS-2005>
227.054351806641

> <r_mmod_Torsional_Energy-OPLS-2005>
293.525817871094

> <r_mmod_Improper_Torsional_Energy-OPLS-2005>
6.65316343307495

> <r_mmod_Van_der_Waal_Energy-OPLS-2005>
140.199920654297

> <r_mmod_Electrostatic_Energy-OPLS-2005>
-355.778747558594

> <r_mmod_Solvation_Energy-OPLS-2005>
-223.566192626953

> <b_mmod_Minimization_Converged-OPLS-2005>
0

> <r_mmod_RMS_Derivative-OPLS-2005>
3.34100389480591

$$$$
10
                    3D
 Structure written by MMmdl.
164173  0  0  1  0            999 V2000
  -30.6135  -14.7412   20.4760 C   0  0  0  0  0  0
  -30.4352  -12.4589   19.4651 C   0  0  0  0  0  0
  -29.5081  -12.5001   18.2312 C   0  0  0  0  0  0
  -28.0363  -12.3175   18.6510 C   0  0  0  0  0  0
  -27.6397  -13.2256   19.8448 C   0  0  2  0  0  0
  -28.6847  -13.1667   20.9791 C   0  0  0  0  0  0
  -25.2505  -13.8174   20.5686 C   0  0  0  0  0  0
  -24.1796  -13.0430   20.9212 C   0  0  0  0  0  0
  -24.6384  -11.6909   20.8758 C   0  0  0  0  0  0
  -23.9061  -10.4290   21.0421 C   0  0  0  0  0  0
  -24.3614   -9.4201   21.9191 C   0  0  0  0  0  0
  -23.6286   -8.2239   22.0759 C   0  0  0  0  0  0
  -22.4266   -8.0284   21.3549 C   0  0  0  0  0  0
  -21.9903   -9.0259   20.4652 C   0  0  0  0  0  0
  -22.7238  -10.2135   20.3065 C   0  0  0  0  0  0
  -21.6851   -6.0740   22.5285 C   0  0  0  0  0  0
  -21.4016   -6.5644   23.8218 C   0  0  0  0  0  0
  -21.3654   -5.6796   24.9175 C   0  0  0  0  0  0
  -21.6039   -4.3058   24.7226 C   0  0  0  0  0  0
  -21.8816   -3.8149   23.4346 C   0  0  0  0  0  0
  -21.9191   -4.6968   22.3404 C   0  0  0  0  0  0
  -22.7818  -13.5222   21.1867 C   0  0  0  0  0  0
  -22.1658   -4.2158   21.0979 F   0  0  0  0  0  0
  -21.5624   -3.4536   25.7733 F   0  0  0  0  0  0
  -29.9812  -13.5216   20.3895 N   0  0  0  0  0  0
  -26.2921  -12.9372   20.3253 N   0  0  0  0  0  0
  -25.9307  -11.6522   20.5744 N   0  0  0  0  0  0
  -22.0454  -12.8232   22.0428 N   0  0  0  0  0  0
  -25.4170  -15.1902   20.4088 N   0  0  0  0  0  0
  -31.8131  -14.8246   20.1948 O   0  0  0  0  0  0
  -21.6630   -6.8884   21.4247 O   0  0  0  0  0  0
  -22.3508  -14.5524   20.6703 O   0  0  0  0  0  0
  -24.6294  -31.8559   23.1976 C   0  0  0  0  0  0
  -25.9123  -32.4756   23.8326 C   0  0  1  0  0  0
  -27.2243  -27.2762   20.1376 C   0  0  0  0  0  0
  -25.5922  -33.8558   24.2249 N   0  0  0  0  0  0
  -23.4263  -30.4764   21.5415 C   0  0  2  0  0  0
  -24.8740  -28.9152   20.1203 C   0  0  0  0  0  0
  -22.7491  -29.4603   22.4927 C   0  0  0  0  0  0
  -18.0290  -28.1378   22.8487 C   0  0  0  0  0  0
  -24.1493  -36.7289   23.2642 C   0  0  0  0  0  0
  -25.9698  -30.7749   21.3732 C   0  0  0  0  0  0
  -26.0452  -29.3945   20.7222 C   0  0  0  0  0  0
  -27.2271  -28.5899   20.7132 C   0  0  0  0  0  0
  -26.0313  -26.8484   19.5226 C   0  0  0  0  0  0
  -24.8706  -27.6489   19.5117 C   0  0  0  0  0  0
  -23.6450  -29.8033   20.1605 C   0  0  0  0  0  0
  -25.4116  -36.3071   24.0326 C   0  0  1  0  0  0
  -20.5893  -28.3690   23.1276 C   0  0  2  0  0  0
  -20.6778  -26.9408   22.5412 C   0  0  0  0  0  0
  -19.5753  -26.6373   21.5215 C   0  0  0  0  0  0
  -18.1933  -26.7920   22.1628 C   0  0  0  0  0  0
  -19.1545  -28.8851   23.2878 C   0  0  0  0  0  0
  -18.9461  -30.1449   23.8897 C   0  0  0  0  0  0
  -17.6460  -30.6582   24.0557 C   0  0  0  0  0  0
  -25.9051  -34.9441   23.5092 C   0  0  0  0  0  0
  -16.5354  -29.9077   23.6327 C   0  0  0  0  0  0
  -16.7276  -28.6495   23.0354 C   0  0  0  0  0  0
  -26.4496  -31.6577   25.0708 C   0  0  0  0  0  0
  -25.3720  -31.3731   26.1430 C   0  0  0  0  0  0
  -27.0333  -30.2990   24.6181 C   0  0  0  0  0  0
  -27.6047  -32.4320   25.7481 C   0  0  0  0  0  0
  -27.5579  -37.1798   24.8464 C   0  0  0  0  0  0
  -21.4202  -29.3038   22.3669 N   0  0  0  0  0  0
  -26.4293  -37.3764   23.9407 N   0  0  0  0  0  0
  -24.6942  -31.0538   22.0938 N   0  0  0  0  0  0
  -23.4198  -28.8143   23.3023 O   0  0  0  0  0  0
  -28.3430  -26.4249   20.0842 O   0  0  0  0  0  0
  -26.5633  -34.8918   22.4664 O   0  0  0  0  0  0
  -23.5450  -32.1367   23.7285 O   0  0  0  0  0  0
  -31.7186  -18.7723   22.1522 C   0  0  0  0  0  0
  -31.3010  -17.4847   21.7874 C   0  0  0  0  0  0
  -29.5655  -18.5044   20.4242 C   0  0  0  0  0  0
  -31.1068  -19.9430   21.6508 C   0  0  0  0  0  0
  -29.9868  -19.8694   20.7628 C   0  0  0  0  0  0
  -30.2256  -17.2894   20.9018 C   0  0  0  0  0  0
  -29.6170  -21.2924   18.8044 C   0  0  0  0  0  0
  -29.1053  -22.4234   20.9022 C   0  0  0  0  0  0
  -29.6888  -22.7220   18.2030 C   0  0  2  0  0  0
  -28.3561  -23.6498   20.1487 C   0  0  1  0  0  0
  -31.7775  -21.2463   22.0534 C   0  0  0  0  0  0
  -31.1175  -23.2921   18.3133 C   0  0  0  0  0  0
  -28.3562  -25.1272   20.8308 C   0  0  0  0  0  0
  -29.4349  -21.1312   20.1421 N   0  0  0  0  0  0
  -29.8335  -15.8863   20.6086 N   0  0  0  0  0  0
  -28.6876  -23.6932   18.7088 N   0  3  0  0  0  0
  -29.7280  -20.3367   18.0270 O   0  0  0  0  0  0
  -31.4731  -12.5952   19.1571 H   0  0  0  0  0  0
  -30.3919  -11.4843   19.9545 H   0  0  0  0  0  0
  -29.7937  -11.7260   17.5173 H   0  0  0  0  0  0
  -29.6272  -13.4528   17.7128 H   0  0  0  0  0  0
  -27.9038  -11.2705   18.9272 H   0  0  0  0  0  0
  -27.3747  -12.4943   17.8024 H   0  0  0  0  0  0
  -27.6304  -14.2432   19.4540 H   0  0  0  0  0  0
  -28.7252  -12.1703   21.4216 H   0  0  0  0  0  0
  -28.4217  -13.8534   21.7856 H   0  0  0  0  0  0
  -25.2761   -9.5670   22.4762 H   0  0  0  0  0  0
  -23.9996   -7.4625   22.7475 H   0  0  0  0  0  0
  -21.0835   -8.8781   19.8959 H   0  0  0  0  0  0
  -22.3701  -10.9676   19.6174 H   0  0  0  0  0  0
  -21.2017   -7.6151   23.9725 H   0  0  0  0  0  0
  -21.1476   -6.0520   25.9079 H   0  0  0  0  0  0
  -22.0599   -2.7612   23.2839 H   0  0  0  0  0  0
  -22.4059  -11.9903   22.4841 H   0  0  0  0  0  0
  -21.1076  -13.1280   22.2621 H   0  0  0  0  0  0
  -24.6418  -15.8360   20.5147 H   0  0  0  0  0  0
  -26.2525  -15.6364   20.0547 H   0  0  0  0  0  0
  -26.7188  -32.5421   23.1073 H   0  0  0  0  0  0
  -25.0050  -33.9696   25.0384 H   0  0  0  0  0  0
  -22.7224  -31.2976   21.3918 H   0  0  0  0  0  0
  -23.3753  -35.9626   23.3305 H   0  0  0  0  0  0
  -24.3587  -36.8911   22.2057 H   0  0  0  0  0  0
  -23.7252  -37.6490   23.6669 H   0  0  0  0  0  0
  -26.1044  -31.5352   20.6026 H   0  0  0  0  0  0
  -26.8487  -30.8280   22.0041 H   0  0  0  0  0  0
  -28.1339  -28.9632   21.1687 H   0  0  0  0  0  0
  -25.9953  -25.8802   19.0445 H   0  0  0  0  0  0
  -23.9729  -27.2772   19.0374 H   0  0  0  0  0  0
  -23.7709  -30.5755   19.4007 H   0  0  0  0  0  0
  -22.7635  -29.2357   19.8564 H   0  0  0  0  0  0
  -25.1301  -36.1918   25.0819 H   0  0  0  0  0  0
  -20.9986  -28.3263   24.1398 H   0  0  0  0  0  0
  -20.5672  -26.2300   23.3616 H   0  0  0  0  0  0
  -21.6646  -26.7425   22.1212 H   0  0  0  0  0  0
  -19.6914  -25.6281   21.1251 H   0  0  0  0  0  0
  -19.6685  -27.3181   20.6742 H   0  0  0  0  0  0
  -17.4199  -26.6665   21.4034 H   0  0  0  0  0  0
  -18.0331  -26.0060   22.9023 H   0  0  0  0  0  0
  -19.7937  -30.7266   24.2273 H   0  0  0  0  0  0
  -17.5012  -31.6267   24.5149 H   0  0  0  0  0  0
  -15.5354  -30.2979   23.7644 H   0  0  0  0  0  0
  -15.8678  -28.0808   22.7074 H   0  0  0  0  0  0
  -24.5887  -30.7091   25.7757 H   0  0  0  0  0  0
  -24.8925  -32.2905   26.4850 H   0  0  0  0  0  0
  -25.8035  -30.8901   27.0207 H   0  0  0  0  0  0
  -26.2904  -29.6741   24.1202 H   0  0  0  0  0  0
  -27.4011  -29.7246   25.4697 H   0  0  0  0  0  0
  -27.8793  -30.4264   23.9419 H   0  0  0  0  0  0
  -27.2646  -33.3620   26.2053 H   0  0  0  0  0  0
  -28.3858  -32.6881   25.0308 H   0  0  0  0  0  0
  -28.0717  -31.8448   26.5400 H   0  0  0  0  0  0
  -28.2593  -38.0096   24.7501 H   0  0  0  0  0  0
  -28.1074  -36.2623   24.6300 H   0  0  0  0  0  0
  -27.2298  -37.1461   25.8867 H   0  0  0  0  0  0
  -20.9383  -29.8763   21.6881 H   0  0  0  0  0  0
  -26.0172  -38.2843   24.1393 H   0  0  0  0  0  0
  -32.5661  -18.8545   22.8188 H   0  0  0  0  0  0
  -31.8269  -16.6392   22.2088 H   0  0  0  0  0  0
  -28.7334  -18.3903   19.7437 H   0  0  0  0  0  0
  -28.5461  -22.1588   21.8005 H   0  0  0  0  0  0
  -30.0284  -22.8658   21.2574 H   0  0  0  0  0  0
  -29.4788  -22.6171   17.1373 H   0  0  0  0  0  0
  -27.3038  -23.3623   20.1259 H   0  0  0  0  0  0
  -32.7434  -21.0687   22.5271 H   0  0  0  0  0  0
  -31.1724  -21.7899   22.7789 H   0  0  0  0  0  0
  -31.9789  -21.8706   21.1832 H   0  0  0  0  0  0
  -31.3940  -23.5148   19.3436 H   0  0  0  0  0  0
  -31.2186  -24.2123   17.7377 H   0  0  0  0  0  0
  -31.8518  -22.5881   17.9193 H   0  0  0  0  0  0
  -27.5613  -25.1546   21.5770 H   0  0  0  0  0  0
  -29.2696  -25.1862   21.4229 H   0  0  0  0  0  0
  -28.8406  -15.7200   20.5576 H   0  0  0  0  0  0
  -27.8317  -23.5008   18.2109 H   0  0  0  0  0  0
  -28.9606  -24.6278   18.4452 H   0  0  0  0  0  0
  1 25  1  0  0  0
  1 30  2  0  0  0
  1 85  1  0  0  0
  2  3  1  0  0  0
  2 25  1  0  0  0
  2 88  1  0  0  0
  2 89  1  0  0  0
  3  4  1  0  0  0
  3 90  1  0  0  0
  3 91  1  0  0  0
  4  5  1  0  0  0
  4 92  1  0  0  0
  4 93  1  0  0  0
  5  6  1  0  0  0
  5 26  1  0  0  0
  5 94  1  0  0  0
  6 25  1  0  0  0
  6 95  1  0  0  0
  6 96  1  0  0  0
  7  8  2  0  0  0
  7 26  1  0  0  0
  7 29  1  0  0  0
  8  9  1  0  0  0
  8 22  1  0  0  0
  9 10  1  0  0  0
  9 27  2  0  0  0
 10 11  2  0  0  0
 10 15  1  0  0  0
 11 12  1  0  0  0
 11 97  1  0  0  0
 12 13  2  0  0  0
 12 98  1  0  0  0
 13 14  1  0  0  0
 13 31  1  0  0  0
 14 15  2  0  0  0
 14 99  1  0  0  0
 15100  1  0  0  0
 16 17  2  0  0  0
 16 21  1  0  0  0
 16 31  1  0  0  0
 17 18  1  0  0  0
 17101  1  0  0  0
 18 19  2  0  0  0
 18102  1  0  0  0
 19 20  1  0  0  0
 19 24  1  0  0  0
 20 21  2  0  0  0
 20103  1  0  0  0
 21 23  1  0  0  0
 22 28  1  0  0  0
 22 32  2  0  0  0
 26 27  1  0  0  0
 28104  1  0  0  0
 28105  1  0  0  0
 29106  1  0  0  0
 29107  1  0  0  0
 33 34  1  0  0  0
 33 66  1  0  0  0
 33 70  2  0  0  0
 34 36  1  0  0  0
 34 59  1  0  0  0
 34108  1  0  0  0
 35 44  2  0  0  0
 35 45  1  0  0  0
 35 68  1  0  0  0
 36 56  1  0  0  0
 36109  1  0  0  0
 37 39  1  0  0  0
 37 47  1  0  0  0
 37 66  1  0  0  0
 37110  1  0  0  0
 38 43  2  0  0  0
 38 46  1  0  0  0
 38 47  1  0  0  0
 39 64  1  0  0  0
 39 67  2  0  0  0
 40 52  1  0  0  0
 40 53  2  0  0  0
 40 58  1  0  0  0
 41111  1  0  0  0
 41112  1  0  0  0
 41113  1  0  0  0
 41 48  1  0  0  0
 42 43  1  0  0  0
 42 66  1  0  0  0
 42114  1  0  0  0
 42115  1  0  0  0
 43 44  1  0  0  0
 44116  1  0  0  0
 45 46  2  0  0  0
 45117  1  0  0  0
 46118  1  0  0  0
 47119  1  0  0  0
 47120  1  0  0  0
 48 56  1  0  0  0
 48 65  1  0  0  0
 48121  1  0  0  0
 49 50  1  0  0  0
 49 53  1  0  0  0
 49 64  1  0  0  0
 49122  1  0  0  0
 50 51  1  0  0  0
 50123  1  0  0  0
 50124  1  0  0  0
 51 52  1  0  0  0
 51125  1  0  0  0
 51126  1  0  0  0
 52127  1  0  0  0
 52128  1  0  0  0
 53 54  1  0  0  0
 54 55  2  0  0  0
 54129  1  0  0  0
 55 57  1  0  0  0
 55130  1  0  0  0
 56 69  2  0  0  0
 57 58  2  0  0  0
 57131  1  0  0  0
 58132  1  0  0  0
 59 60  1  0  0  0
 59 61  1  0  0  0
 59 62  1  0  0  0
 60133  1  0  0  0
 60134  1  0  0  0
 60135  1  0  0  0
 61136  1  0  0  0
 61137  1  0  0  0
 61138  1  0  0  0
 62139  1  0  0  0
 62140  1  0  0  0
 62141  1  0  0  0
 63 65  1  0  0  0
 63142  1  0  0  0
 63143  1  0  0  0
 63144  1  0  0  0
 64145  1  0  0  0
 65146  1  0  0  0
 68 83  1  0  0  0
 71 72  2  0  0  0
 71 74  1  0  0  0
 71147  1  0  0  0
 72 76  1  0  0  0
 72148  1  0  0  0
 73 75  1  0  0  0
 73 76  2  0  0  0
 73149  1  0  0  0
 74 75  2  0  0  0
 74 81  1  0  0  0
 75 84  1  0  0  0
 76 85  1  0  0  0
 77 79  1  0  0  0
 77 84  1  0  0  0
 77 87  2  0  0  0
 78 80  1  0  0  0
 78 84  1  0  0  0
 78150  1  0  0  0
 78151  1  0  0  0
 79 82  1  0  0  0
 79 86  1  0  0  0
 79152  1  0  0  0
 80 83  1  0  0  0
 80 86  1  0  0  0
 80153  1  0  0  0
 81154  1  0  0  0
 81155  1  0  0  0
 81156  1  0  0  0
 82157  1  0  0  0
 82158  1  0  0  0
 82159  1  0  0  0
 83160  1  0  0  0
 83161  1  0  0  0
 85162  1  0  0  0
 86163  1  0  0  0
 86164  1  0  0  0
M  CHG  1  86   1
M  ISO  4   1 100  68 101  83 101  85 100
M  END
> <chiral flag>
0

> <version>
0

> <s_m_source_file>
/data/baiqing/PycharmProjects/Reinvent-master-3.2/result/LINK_invent/BTK/process_docking_weight1_custom_product_contain_oxygen_bond_distance_aromatic_linkinvent_7_9_3/rearranged_h_0069.sdf

> <i_m_source_file_index>
10

> <r_mmod_Potential_Energy-OPLS-2005>
176.294647216797

> <r_mmod_Stretch_Energy-OPLS-2005>
137.847869873047

> <r_mmod_Bend_Energy-OPLS-2005>
181.328155517578

> <r_mmod_Torsional_Energy-OPLS-2005>
386.903625488281

> <r_mmod_Improper_Torsional_Energy-OPLS-2005>
8.10847949981689

> <r_mmod_Van_der_Waal_Energy-OPLS-2005>
147.468994140625

> <r_mmod_Electrostatic_Energy-OPLS-2005>
-278.080596923828

> <r_mmod_Solvation_Energy-OPLS-2005>
-484.87158203125

> <b_mmod_Minimization_Converged-OPLS-2005>
0

> <r_mmod_RMS_Derivative-OPLS-2005>
1.19316279888153

$$$$
11
                    3D
 Structure written by MMmdl.
157165  0  0  1  0            999 V2000
  -30.5298  -14.9403   20.5196 C   0  0  0  0  0  0
  -30.4522  -12.6046   19.4974 C   0  0  0  0  0  0
  -29.5292  -12.5681   18.2533 C   0  0  0  0  0  0
  -28.0564  -12.3445   18.6514 C   0  0  0  0  0  0
  -27.6372  -13.2363   19.8456 C   0  0  2  0  0  0
  -28.6743  -13.1580   20.9771 C   0  0  0  0  0  0
  -25.2503  -13.8176   20.5681 C   0  0  0  0  0  0
  -24.1786  -13.0425   20.9162 C   0  0  0  0  0  0
  -24.6380  -11.6905   20.8700 C   0  0  0  0  0  0
  -23.9058  -10.4286   21.0387 C   0  0  0  0  0  0
  -24.3613   -9.4208   21.9176 C   0  0  0  0  0  0
  -23.6290   -8.2245   22.0753 C   0  0  0  0  0  0
  -22.4270   -8.0277   21.3550 C   0  0  0  0  0  0
  -21.9894   -9.0246   20.4649 C   0  0  0  0  0  0
  -22.7223  -10.2128   20.3051 C   0  0  0  0  0  0
  -21.6856   -6.0727   22.5272 C   0  0  0  0  0  0
  -21.4021   -6.5628   23.8209 C   0  0  0  0  0  0
  -21.3667   -5.6783   24.9168 C   0  0  0  0  0  0
  -21.6048   -4.3043   24.7213 C   0  0  0  0  0  0
  -21.8824   -3.8137   23.4333 C   0  0  0  0  0  0
  -21.9199   -4.6957   22.3397 C   0  0  0  0  0  0
  -22.7822  -13.5225   21.1845 C   0  0  0  0  0  0
  -22.1667   -4.2150   21.0969 F   0  0  0  0  0  0
  -21.5629   -3.4524   25.7722 F   0  0  0  0  0  0
  -29.9528  -13.6603   20.4330 N   0  0  0  0  0  0
  -26.2904  -12.9380   20.3202 N   0  0  0  0  0  0
  -25.9306  -11.6517   20.5666 N   0  0  0  0  0  0
  -22.0470  -12.8230   22.0410 N   0  0  0  0  0  0
  -25.4236  -15.1907   20.4222 N   0  0  0  0  0  0
  -31.6756  -15.0534   20.0630 O   0  0  0  0  0  0
  -21.6643   -6.8870   21.4237 O   0  0  0  0  0  0
  -22.3515  -14.5546   20.6710 O   0  0  0  0  0  0
  -24.6442  -31.8434   23.1874 C   0  0  0  0  0  0
  -25.9217  -32.4690   23.8256 C   0  0  1  0  0  0
  -27.2159  -27.1368   20.1560 C   0  0  0  0  0  0
  -25.5956  -33.8494   24.2177 N   0  0  0  0  0  0
  -23.4467  -30.4633   21.5337 C   0  0  2  0  0  0
  -24.8960  -28.8860   20.1156 C   0  0  0  0  0  0
  -22.7565  -29.4547   22.4859 C   0  0  0  0  0  0
  -18.0303  -28.1399   22.8476 C   0  0  0  0  0  0
  -24.1495  -36.7257   23.2642 C   0  0  0  0  0  0
  -26.0033  -30.7180   21.3854 C   0  0  0  0  0  0
  -26.0750  -29.3272   20.7315 C   0  0  0  0  0  0
  -27.2392  -28.4697   20.7327 C   0  0  0  0  0  0
  -26.0132  -26.7950   19.5035 C   0  0  0  0  0  0
  -24.8770  -27.6320   19.4861 C   0  0  0  0  0  0
  -23.6738  -29.7909   20.1541 C   0  0  0  0  0  0
  -25.4126  -36.3025   24.0312 C   0  0  1  0  0  0
  -20.5917  -28.3724   23.1242 C   0  0  2  0  0  0
  -20.6794  -26.9427   22.5410 C   0  0  0  0  0  0
  -19.5768  -26.6383   21.5217 C   0  0  0  0  0  0
  -18.1946  -26.7935   22.1622 C   0  0  0  0  0  0
  -19.1559  -28.8881   23.2849 C   0  0  0  0  0  0
  -18.9476  -30.1477   23.8878 C   0  0  0  0  0  0
  -17.6473  -30.6593   24.0565 C   0  0  0  0  0  0
  -25.9076  -34.9399   23.5054 C   0  0  0  0  0  0
  -16.5365  -29.9087   23.6337 C   0  0  0  0  0  0
  -16.7286  -28.6507   23.0354 C   0  0  0  0  0  0
  -26.4527  -31.6557   25.0701 C   0  0  0  0  0  0
  -25.3707  -31.3765   26.1397 C   0  0  0  0  0  0
  -27.0384  -30.2945   24.6288 C   0  0  0  0  0  0
  -27.6049  -32.4324   25.7494 C   0  0  0  0  0  0
  -27.5573  -37.1791   24.8464 C   0  0  0  0  0  0
  -21.4257  -29.3043   22.3607 N   0  0  0  0  0  0
  -26.4287  -37.3737   23.9401 N   0  0  0  0  0  0
  -24.7181  -31.0293   22.0905 N   0  0  0  0  0  0
  -23.4206  -28.8104   23.3020 O   0  0  0  0  0  0
  -28.2667  -26.1500   20.1586 O   0  0  0  0  0  0
  -26.5663  -34.8900   22.4634 O   0  0  0  0  0  0
  -23.5566  -32.1305   23.7107 O   0  0  0  0  0  0
  -28.7897  -19.6854   19.5853 C   0  0  0  0  0  0
  -30.2871  -18.5860   21.6238 C   0  0  0  0  0  0
  -29.0569  -18.2406   19.6442 C   0  0  0  0  0  0
  -29.2183  -20.6497   20.5696 C   0  0  0  0  0  0
  -29.8019  -17.5923   20.7021 C   0  0  0  0  0  0
  -30.0008  -20.0051   21.5800 C   0  0  0  0  0  0
  -28.7105  -23.3316   20.0526 C   0  0  0  0  0  0
  -28.4376  -17.3679   18.5681 C   0  0  0  0  0  0
  -28.2703  -24.7855   22.1924 C   0  0  0  0  0  0
  -29.3045  -15.8614   22.4069 C   0  0  0  0  0  0
  -28.0043  -24.7060   20.6812 C   0  0  1  0  0  0
  -28.7564  -22.1037   20.7620 N   0  0  0  0  0  0
  -29.8247  -16.0799   21.0432 N   0  0  0  0  0  0
  -29.1747  -23.3933   18.9120 O   0  0  0  0  0  0
  -30.4620  -20.7701   22.5996 F   0  0  0  0  0  0
  -31.4820  -12.7863   19.1857 H   0  0  0  0  0  0
  -30.4745  -11.6306   19.9887 H   0  0  0  0  0  0
  -29.8536  -11.7898   17.5615 H   0  0  0  0  0  0
  -29.6183  -13.5132   17.7152 H   0  0  0  0  0  0
  -27.9413  -11.2933   18.9185 H   0  0  0  0  0  0
  -27.4010  -12.5171   17.7971 H   0  0  0  0  0  0
  -27.6284  -14.2627   19.4758 H   0  0  0  0  0  0
  -28.7778  -12.1283   21.3220 H   0  0  0  0  0  0
  -28.3076  -13.6852   21.8480 H   0  0  0  0  0  0
  -25.2766   -9.5683   22.4742 H   0  0  0  0  0  0
  -24.0009   -7.4636   22.7475 H   0  0  0  0  0  0
  -21.0827   -8.8753   19.8960 H   0  0  0  0  0  0
  -22.3678  -10.9656   19.6152 H   0  0  0  0  0  0
  -21.2012   -7.6138   23.9705 H   0  0  0  0  0  0
  -21.1489   -6.0510   25.9074 H   0  0  0  0  0  0
  -22.0598   -2.7597   23.2823 H   0  0  0  0  0  0
  -22.4094  -11.9898   22.4803 H   0  0  0  0  0  0
  -21.1102  -13.1273   22.2647 H   0  0  0  0  0  0
  -24.6637  -15.8483   20.5575 H   0  0  0  0  0  0
  -26.2940  -15.6339   20.1609 H   0  0  0  0  0  0
  -26.7288  -32.5297   23.0989 H   0  0  0  0  0  0
  -25.0067  -33.9593   25.0300 H   0  0  0  0  0  0
  -22.7495  -31.2895   21.3791 H   0  0  0  0  0  0
  -23.3740  -35.9608   23.3315 H   0  0  0  0  0  0
  -24.3573  -36.8879   22.2054 H   0  0  0  0  0  0
  -23.7280  -37.6471   23.6672 H   0  0  0  0  0  0
  -26.1565  -31.4703   20.6102 H   0  0  0  0  0  0
  -26.8745  -30.7709   22.0270 H   0  0  0  0  0  0
  -28.1401  -28.8045   21.2271 H   0  0  0  0  0  0
  -25.9387  -25.8370   19.0089 H   0  0  0  0  0  0
  -23.9793  -27.2899   18.9889 H   0  0  0  0  0  0
  -23.8140  -30.5642   19.3980 H   0  0  0  0  0  0
  -22.7872  -29.2363   19.8421 H   0  0  0  0  0  0
  -25.1314  -36.1848   25.0803 H   0  0  0  0  0  0
  -21.0000  -28.3320   24.1368 H   0  0  0  0  0  0
  -20.5696  -26.2331   23.3625 H   0  0  0  0  0  0
  -21.6664  -26.7446   22.1208 H   0  0  0  0  0  0
  -19.6931  -25.6289   21.1262 H   0  0  0  0  0  0
  -19.6706  -27.3178   20.6738 H   0  0  0  0  0  0
  -17.4214  -26.6678   21.4027 H   0  0  0  0  0  0
  -18.0343  -26.0084   22.9026 H   0  0  0  0  0  0
  -19.7955  -30.7302   24.2231 H   0  0  0  0  0  0
  -17.5028  -31.6274   24.5172 H   0  0  0  0  0  0
  -15.5367  -30.2986   23.7673 H   0  0  0  0  0  0
  -15.8684  -28.0824   22.7078 H   0  0  0  0  0  0
  -24.5880  -30.7115   25.7727 H   0  0  0  0  0  0
  -24.8907  -32.2959   26.4756 H   0  0  0  0  0  0
  -25.7983  -30.8982   27.0217 H   0  0  0  0  0  0
  -26.2998  -29.6671   24.1286 H   0  0  0  0  0  0
  -27.3977  -29.7244   25.4866 H   0  0  0  0  0  0
  -27.8912  -30.4166   23.9608 H   0  0  0  0  0  0
  -27.2623  -33.3631   26.2028 H   0  0  0  0  0  0
  -28.3883  -32.6879   25.0345 H   0  0  0  0  0  0
  -28.0687  -31.8482   26.5454 H   0  0  0  0  0  0
  -28.2598  -38.0080   24.7479 H   0  0  0  0  0  0
  -28.1060  -36.2608   24.6318 H   0  0  0  0  0  0
  -27.2286  -37.1475   25.8867 H   0  0  0  0  0  0
  -20.9465  -29.8739   21.6774 H   0  0  0  0  0  0
  -26.0149  -38.2806   24.1388 H   0  0  0  0  0  0
  -28.1591  -20.0504   18.7878 H   0  0  0  0  0  0
  -30.8621  -18.2521   22.4739 H   0  0  0  0  0  0
  -28.2290  -17.9405   17.6634 H   0  0  0  0  0  0
  -27.5015  -16.9387   18.9233 H   0  0  0  0  0  0
  -29.1064  -16.5525   18.2916 H   0  0  0  0  0  0
  -28.0451  -23.8491   22.7023 H   0  0  0  0  0  0
  -27.6545  -25.5578   22.6535 H   0  0  0  0  0  0
  -29.3133  -25.0318   22.3898 H   0  0  0  0  0  0
  -29.5125  -16.6758   23.0969 H   0  0  0  0  0  0
  -29.7181  -14.9777   22.8976 H   0  0  0  0  0  0
  -28.2181  -15.7753   22.3754 H   0  0  0  0  0  0
  -26.9381  -24.5096   20.5720 H   0  0  0  0  0  0
  -28.4682  -22.2632   21.7176 H   0  0  0  0  0  0
  1 25  1  0  0  0
  1 30  2  0  0  0
  1 83  1  0  0  0
  2  3  1  0  0  0
  2 25  1  0  0  0
  2 86  1  0  0  0
  2 87  1  0  0  0
  3  4  1  0  0  0
  3 88  1  0  0  0
  3 89  1  0  0  0
  4  5  1  0  0  0
  4 90  1  0  0  0
  4 91  1  0  0  0
  5  6  1  0  0  0
  5 26  1  0  0  0
  5 92  1  0  0  0
  6 25  1  0  0  0
  6 93  1  0  0  0
  6 94  1  0  0  0
  7  8  2  0  0  0
  7 26  1  0  0  0
  7 29  1  0  0  0
  8  9  1  0  0  0
  8 22  1  0  0  0
  9 10  1  0  0  0
  9 27  2  0  0  0
 10 11  2  0  0  0
 10 15  1  0  0  0
 11 12  1  0  0  0
 11 95  1  0  0  0
 12 13  2  0  0  0
 12 96  1  0  0  0
 13 14  1  0  0  0
 13 31  1  0  0  0
 14 15  2  0  0  0
 14 97  1  0  0  0
 15 98  1  0  0  0
 16 17  2  0  0  0
 16 21  1  0  0  0
 16 31  1  0  0  0
 17 18  1  0  0  0
 17 99  1  0  0  0
 18 19  2  0  0  0
 18100  1  0  0  0
 19 20  1  0  0  0
 19 24  1  0  0  0
 20 21  2  0  0  0
 20101  1  0  0  0
 21 23  1  0  0  0
 22 28  1  0  0  0
 22 32  2  0  0  0
 26 27  1  0  0  0
 28102  1  0  0  0
 28103  1  0  0  0
 29104  1  0  0  0
 29105  1  0  0  0
 33 34  1  0  0  0
 33 66  1  0  0  0
 33 70  2  0  0  0
 34 36  1  0  0  0
 34 59  1  0  0  0
 34106  1  0  0  0
 35 44  2  0  0  0
 35 45  1  0  0  0
 35 68  1  0  0  0
 36 56  1  0  0  0
 36107  1  0  0  0
 37 39  1  0  0  0
 37 47  1  0  0  0
 37 66  1  0  0  0
 37108  1  0  0  0
 38 43  2  0  0  0
 38 46  1  0  0  0
 38 47  1  0  0  0
 39 64  1  0  0  0
 39 67  2  0  0  0
 40 52  1  0  0  0
 40 53  2  0  0  0
 40 58  1  0  0  0
 41109  1  0  0  0
 41110  1  0  0  0
 41111  1  0  0  0
 41 48  1  0  0  0
 42 43  1  0  0  0
 42 66  1  0  0  0
 42112  1  0  0  0
 42113  1  0  0  0
 43 44  1  0  0  0
 44114  1  0  0  0
 45 46  2  0  0  0
 45115  1  0  0  0
 46116  1  0  0  0
 47117  1  0  0  0
 47118  1  0  0  0
 48 56  1  0  0  0
 48 65  1  0  0  0
 48119  1  0  0  0
 49 50  1  0  0  0
 49 53  1  0  0  0
 49 64  1  0  0  0
 49120  1  0  0  0
 50 51  1  0  0  0
 50121  1  0  0  0
 50122  1  0  0  0
 51 52  1  0  0  0
 51123  1  0  0  0
 51124  1  0  0  0
 52125  1  0  0  0
 52126  1  0  0  0
 53 54  1  0  0  0
 54 55  2  0  0  0
 54127  1  0  0  0
 55 57  1  0  0  0
 55128  1  0  0  0
 56 69  2  0  0  0
 57 58  2  0  0  0
 57129  1  0  0  0
 58130  1  0  0  0
 59 60  1  0  0  0
 59 61  1  0  0  0
 59 62  1  0  0  0
 60131  1  0  0  0
 60132  1  0  0  0
 60133  1  0  0  0
 61134  1  0  0  0
 61135  1  0  0  0
 61136  1  0  0  0
 62137  1  0  0  0
 62138  1  0  0  0
 62139  1  0  0  0
 63 65  1  0  0  0
 63140  1  0  0  0
 63141  1  0  0  0
 63142  1  0  0  0
 64143  1  0  0  0
 65144  1  0  0  0
 68 81  1  0  0  0
 71 73  2  0  0  0
 71 74  1  0  0  0
 71145  1  0  0  0
 72 75  2  0  0  0
 72 76  1  0  0  0
 72146  1  0  0  0
 73 75  1  0  0  0
 73 78  1  0  0  0
 74 76  2  0  0  0
 74 82  1  0  0  0
 75 83  1  0  0  0
 76 85  1  0  0  0
 77 81  1  0  0  0
 77 82  1  0  0  0
 77 84  2  0  0  0
 78147  1  0  0  0
 78148  1  0  0  0
 78149  1  0  0  0
 79150  1  0  0  0
 79151  1  0  0  0
 79152  1  0  0  0
 79 81  1  0  0  0
 80 83  1  0  0  0
 80153  1  0  0  0
 80154  1  0  0  0
 80155  1  0  0  0
 81156  1  0  0  0
 82157  1  0  0  0
M  ISO  4   1 100  68 101  81 101  83 100
M  END
> <chiral flag>
0

> <version>
0

> <s_m_source_file>
/data/baiqing/PycharmProjects/Reinvent-master-3.2/result/LINK_invent/BTK/process_docking_weight1_custom_product_contain_oxygen_bond_distance_aromatic_linkinvent_7_9_3/rearranged_h_0069.sdf

> <i_m_source_file_index>
11

> <r_mmod_Potential_Energy-OPLS-2005>
639.547973632812

> <r_mmod_Stretch_Energy-OPLS-2005>
247.468490600586

> <r_mmod_Bend_Energy-OPLS-2005>
275.670837402344

> <r_mmod_Torsional_Energy-OPLS-2005>
353.679443359375

> <r_mmod_Improper_Torsional_Energy-OPLS-2005>
7.17726612091064

> <r_mmod_Van_der_Waal_Energy-OPLS-2005>
137.988906860352

> <r_mmod_Electrostatic_Energy-OPLS-2005>
-343.336975097656

> <r_mmod_Solvation_Energy-OPLS-2005>
-219.937515258789

> <b_mmod_Minimization_Converged-OPLS-2005>
0

> <r_mmod_RMS_Derivative-OPLS-2005>
1.33166694641113

$$$$
12
                    3D
 Structure written by MMmdl.
154162  0  0  1  0            999 V2000
  -30.6193  -14.6546   20.4889 C   0  0  0  0  0  0
  -30.4394  -12.4001   19.4542 C   0  0  0  0  0  0
  -29.5082  -12.5058   18.2255 C   0  0  0  0  0  0
  -28.0313  -12.3420   18.6383 C   0  0  0  0  0  0
  -27.6513  -13.2185   19.8615 C   0  0  2  0  0  0
  -28.6974  -13.0839   20.9914 C   0  0  0  0  0  0
  -25.2546  -13.8168   20.5693 C   0  0  0  0  0  0
  -24.1814  -13.0425   20.9170 C   0  0  0  0  0  0
  -24.6393  -11.6901   20.8726 C   0  0  0  0  0  0
  -23.9065  -10.4286   21.0398 C   0  0  0  0  0  0
  -24.3616   -9.4204   21.9178 C   0  0  0  0  0  0
  -23.6290   -8.2241   22.0753 C   0  0  0  0  0  0
  -22.4272   -8.0279   21.3544 C   0  0  0  0  0  0
  -21.9906   -9.0252   20.4646 C   0  0  0  0  0  0
  -22.7236  -10.2129   20.3051 C   0  0  0  0  0  0
  -21.6852   -6.0734   22.5279 C   0  0  0  0  0  0
  -21.4015   -6.5637   23.8213 C   0  0  0  0  0  0
  -21.3659   -5.6790   24.9175 C   0  0  0  0  0  0
  -21.6044   -4.3053   24.7225 C   0  0  0  0  0  0
  -21.8820   -3.8145   23.4346 C   0  0  0  0  0  0
  -21.9193   -4.6962   22.3402 C   0  0  0  0  0  0
  -22.7838  -13.5219   21.1845 C   0  0  0  0  0  0
  -22.1662   -4.2148   21.0979 F   0  0  0  0  0  0
  -21.5628   -3.4537   25.7738 F   0  0  0  0  0  0
  -30.0119  -13.4266   20.4257 N   0  0  0  0  0  0
  -26.2982  -12.9359   20.3324 N   0  0  0  0  0  0
  -25.9325  -11.6509   20.5754 N   0  0  0  0  0  0
  -22.0488  -12.8212   22.0408 N   0  0  0  0  0  0
  -25.4216  -15.1899   20.4183 N   0  0  0  0  0  0
  -31.7886  -14.8070   20.1235 O   0  0  0  0  0  0
  -21.6637   -6.8876   21.4241 O   0  0  0  0  0  0
  -22.3519  -14.5528   20.6703 O   0  0  0  0  0  0
  -24.6258  -31.8595   23.2018 C   0  0  0  0  0  0
  -25.9106  -32.4778   23.8349 C   0  0  1  0  0  0
  -27.2259  -27.3189   20.1245 C   0  0  0  0  0  0
  -25.5921  -33.8579   24.2277 N   0  0  0  0  0  0
  -23.4198  -30.4821   21.5444 C   0  0  2  0  0  0
  -24.8673  -28.9334   20.1142 C   0  0  0  0  0  0
  -22.7472  -29.4623   22.4938 C   0  0  0  0  0  0
  -18.0286  -28.1385   22.8487 C   0  0  0  0  0  0
  -24.1489  -36.7295   23.2639 C   0  0  0  0  0  0
  -25.9601  -30.7905   21.3725 C   0  0  0  0  0  0
  -26.0354  -29.4163   20.7181 C   0  0  0  0  0  0
  -27.2196  -28.6216   20.7109 C   0  0  0  0  0  0
  -26.0394  -26.8892   19.4914 C   0  0  0  0  0  0
  -24.8709  -27.6751   19.4914 C   0  0  0  0  0  0
  -23.6351  -29.8139   20.1608 C   0  0  0  0  0  0
  -25.4114  -36.3084   24.0330 C   0  0  1  0  0  0
  -20.5886  -28.3689   23.1284 C   0  0  2  0  0  0
  -20.6775  -26.9413   22.5410 C   0  0  0  0  0  0
  -19.5751  -26.6387   21.5212 C   0  0  0  0  0  0
  -18.1931  -26.7928   22.1626 C   0  0  0  0  0  0
  -19.1538  -28.8854   23.2882 C   0  0  0  0  0  0
  -18.9462  -30.1456   23.8898 C   0  0  0  0  0  0
  -17.6461  -30.6587   24.0565 C   0  0  0  0  0  0
  -25.9049  -34.9452   23.5105 C   0  0  0  0  0  0
  -16.5352  -29.9086   23.6330 C   0  0  0  0  0  0
  -16.7274  -28.6505   23.0349 C   0  0  0  0  0  0
  -26.4492  -31.6587   25.0719 C   0  0  0  0  0  0
  -25.3728  -31.3725   26.1449 C   0  0  0  0  0  0
  -27.0334  -30.3013   24.6169 C   0  0  0  0  0  0
  -27.6055  -32.4320   25.7487 C   0  0  0  0  0  0
  -27.5579  -37.1805   24.8467 C   0  0  0  0  0  0
  -21.4187  -29.3041   22.3679 N   0  0  0  0  0  0
  -26.4294  -37.3777   23.9406 N   0  0  0  0  0  0
  -24.6873  -31.0608   22.0966 N   0  0  0  0  0  0
  -23.4197  -28.8165   23.3020 O   0  0  0  0  0  0
  -28.3478  -26.4788   20.1373 O   0  0  0  0  0  0
  -26.5620  -34.8919   22.4672 O   0  0  0  0  0  0
  -23.5422  -32.1391   23.7348 O   0  0  0  0  0  0
  -28.7338  -19.3509   20.3635 C   0  0  0  0  0  0
  -31.1191  -17.8818   20.4128 C   0  0  0  0  0  0
  -29.9289  -20.0846   20.1393 C   0  0  0  0  0  0
  -31.1400  -19.2981   20.2007 C   0  0  0  0  0  0
  -29.9141  -17.1570   20.5900 C   0  0  0  0  0  0
  -28.7286  -17.9390   20.5798 C   0  0  0  0  0  0
  -29.8822  -21.5553   19.7023 C   0  0  0  0  0  0
  -29.1133  -24.0273   19.8095 C   0  0  0  0  0  0
  -28.1621  -25.0559   20.5351 C   0  0  0  0  0  0
  -32.4122  -19.8601   20.0242 N   0  0  0  0  0  0
  -29.8021  -15.7089   20.7997 N   0  0  0  0  0  0
  -29.1233  -22.5921   20.2272 N   0  0  0  0  0  0
  -30.6810  -21.8324   18.6666 N   0  3  0  0  0  0
  -29.8444  -24.4225   18.8906 O   0  0  0  0  0  0
  -27.5428  -17.3063   20.7501 F   0  0  0  0  0  0
  -31.4800  -12.5269   19.1507 H   0  0  0  0  0  0
  -30.3775  -11.4070   19.9018 H   0  0  0  0  0  0
  -29.7745  -11.7506   17.4849 H   0  0  0  0  0  0
  -29.6477  -13.4726   17.7391 H   0  0  0  0  0  0
  -27.8718  -11.2896   18.8761 H   0  0  0  0  0  0
  -27.3760  -12.5646   17.7953 H   0  0  0  0  0  0
  -27.6631  -14.2511   19.5125 H   0  0  0  0  0  0
  -28.7113  -12.0652   21.3817 H   0  0  0  0  0  0
  -28.4423  -13.7229   21.8383 H   0  0  0  0  0  0
  -25.2764   -9.5680   22.4750 H   0  0  0  0  0  0
  -24.0001   -7.4633   22.7472 H   0  0  0  0  0  0
  -21.0837   -8.8771   19.8953 H   0  0  0  0  0  0
  -22.3696  -10.9666   19.6158 H   0  0  0  0  0  0
  -21.2007   -7.6145   23.9716 H   0  0  0  0  0  0
  -21.1480   -6.0519   25.9078 H   0  0  0  0  0  0
  -22.0600   -2.7607   23.2847 H   0  0  0  0  0  0
  -22.4104  -11.9871   22.4791 H   0  0  0  0  0  0
  -21.1109  -13.1241   22.2623 H   0  0  0  0  0  0
  -24.6558  -15.8376   20.5645 H   0  0  0  0  0  0
  -26.2866  -15.6614   20.1835 H   0  0  0  0  0  0
  -26.7173  -32.5451   23.1098 H   0  0  0  0  0  0
  -25.0068  -33.9723   25.0422 H   0  0  0  0  0  0
  -22.7137  -31.3024   21.4000 H   0  0  0  0  0  0
  -23.3748  -35.9632   23.3310 H   0  0  0  0  0  0
  -24.3579  -36.8906   22.2052 H   0  0  0  0  0  0
  -23.7248  -37.6503   23.6654 H   0  0  0  0  0  0
  -26.0901  -31.5524   20.6026 H   0  0  0  0  0  0
  -26.8410  -30.8416   22.0007 H   0  0  0  0  0  0
  -28.1182  -28.9898   21.1858 H   0  0  0  0  0  0
  -26.0042  -25.9338   18.9883 H   0  0  0  0  0  0
  -23.9780  -27.3024   19.0084 H   0  0  0  0  0  0
  -23.7550  -30.5888   19.4027 H   0  0  0  0  0  0
  -22.7553  -29.2428   19.8593 H   0  0  0  0  0  0
  -25.1295  -36.1939   25.0823 H   0  0  0  0  0  0
  -20.9978  -28.3263   24.1404 H   0  0  0  0  0  0
  -20.5676  -26.2298   23.3609 H   0  0  0  0  0  0
  -21.6644  -26.7444   22.1203 H   0  0  0  0  0  0
  -19.6912  -25.6298   21.1240 H   0  0  0  0  0  0
  -19.6686  -27.3198   20.6742 H   0  0  0  0  0  0
  -17.4199  -26.6672   21.4031 H   0  0  0  0  0  0
  -18.0336  -26.0071   22.9024 H   0  0  0  0  0  0
  -19.7937  -30.7273   24.2267 H   0  0  0  0  0  0
  -17.5015  -31.6266   24.5168 H   0  0  0  0  0  0
  -15.5352  -30.2988   23.7653 H   0  0  0  0  0  0
  -15.8674  -28.0825   22.7061 H   0  0  0  0  0  0
  -24.5899  -30.7077   25.7779 H   0  0  0  0  0  0
  -24.8924  -32.2891   26.4880 H   0  0  0  0  0  0
  -25.8056  -30.8899   27.0220 H   0  0  0  0  0  0
  -26.2904  -29.6762   24.1202 H   0  0  0  0  0  0
  -27.4045  -29.7271   25.4668 H   0  0  0  0  0  0
  -27.8767  -30.4303   23.9379 H   0  0  0  0  0  0
  -27.2671  -33.3625   26.2059 H   0  0  0  0  0  0
  -28.3866  -32.6873   25.0315 H   0  0  0  0  0  0
  -28.0718  -31.8448   26.5408 H   0  0  0  0  0  0
  -28.2605  -38.0094   24.7505 H   0  0  0  0  0  0
  -28.1067  -36.2626   24.6304 H   0  0  0  0  0  0
  -27.2296  -37.1470   25.8870 H   0  0  0  0  0  0
  -20.9364  -29.8763   21.6888 H   0  0  0  0  0  0
  -26.0178  -38.2855   24.1396 H   0  0  0  0  0  0
  -27.7829  -19.8600   20.3171 H   0  0  0  0  0  0
  -32.0520  -17.3384   20.4330 H   0  0  0  0  0  0
  -28.3565  -24.9885   21.6055 H   0  0  0  0  0  0
  -27.1397  -24.7079   20.3982 H   0  0  0  0  0  0
  -33.2151  -19.2759   20.2396 H   0  0  0  0  0  0
  -32.5699  -20.8151   20.3328 H   0  0  0  0  0  0
  -28.8726  -15.4214   21.0633 H   0  0  0  0  0  0
  -28.5421  -22.2847   20.9925 H   0  0  0  0  0  0
  -31.3662  -21.1370   18.3971 H   0  0  0  0  0  0
  -30.7356  -22.7819   18.3177 H   0  0  0  0  0  0
  1 25  1  0  0  0
  1 30  2  0  0  0
  1 81  1  0  0  0
  2  3  1  0  0  0
  2 25  1  0  0  0
  2 86  1  0  0  0
  2 87  1  0  0  0
  3  4  1  0  0  0
  3 88  1  0  0  0
  3 89  1  0  0  0
  4  5  1  0  0  0
  4 90  1  0  0  0
  4 91  1  0  0  0
  5  6  1  0  0  0
  5 26  1  0  0  0
  5 92  1  0  0  0
  6 25  1  0  0  0
  6 93  1  0  0  0
  6 94  1  0  0  0
  7  8  2  0  0  0
  7 26  1  0  0  0
  7 29  1  0  0  0
  8  9  1  0  0  0
  8 22  1  0  0  0
  9 10  1  0  0  0
  9 27  2  0  0  0
 10 11  2  0  0  0
 10 15  1  0  0  0
 11 12  1  0  0  0
 11 95  1  0  0  0
 12 13  2  0  0  0
 12 96  1  0  0  0
 13 14  1  0  0  0
 13 31  1  0  0  0
 14 15  2  0  0  0
 14 97  1  0  0  0
 15 98  1  0  0  0
 16 17  2  0  0  0
 16 21  1  0  0  0
 16 31  1  0  0  0
 17 18  1  0  0  0
 17 99  1  0  0  0
 18 19  2  0  0  0
 18100  1  0  0  0
 19 20  1  0  0  0
 19 24  1  0  0  0
 20 21  2  0  0  0
 20101  1  0  0  0
 21 23  1  0  0  0
 22 28  1  0  0  0
 22 32  2  0  0  0
 26 27  1  0  0  0
 28102  1  0  0  0
 28103  1  0  0  0
 29104  1  0  0  0
 29105  1  0  0  0
 33 34  1  0  0  0
 33 66  1  0  0  0
 33 70  2  0  0  0
 34 36  1  0  0  0
 34 59  1  0  0  0
 34106  1  0  0  0
 35 44  2  0  0  0
 35 45  1  0  0  0
 35 68  1  0  0  0
 36 56  1  0  0  0
 36107  1  0  0  0
 37 39  1  0  0  0
 37 47  1  0  0  0
 37 66  1  0  0  0
 37108  1  0  0  0
 38 43  2  0  0  0
 38 46  1  0  0  0
 38 47  1  0  0  0
 39 64  1  0  0  0
 39 67  2  0  0  0
 40 52  1  0  0  0
 40 53  2  0  0  0
 40 58  1  0  0  0
 41109  1  0  0  0
 41110  1  0  0  0
 41111  1  0  0  0
 41 48  1  0  0  0
 42 43  1  0  0  0
 42 66  1  0  0  0
 42112  1  0  0  0
 42113  1  0  0  0
 43 44  1  0  0  0
 44114  1  0  0  0
 45 46  2  0  0  0
 45115  1  0  0  0
 46116  1  0  0  0
 47117  1  0  0  0
 47118  1  0  0  0
 48 56  1  0  0  0
 48 65  1  0  0  0
 48119  1  0  0  0
 49 50  1  0  0  0
 49 53  1  0  0  0
 49 64  1  0  0  0
 49120  1  0  0  0
 50 51  1  0  0  0
 50121  1  0  0  0
 50122  1  0  0  0
 51 52  1  0  0  0
 51123  1  0  0  0
 51124  1  0  0  0
 52125  1  0  0  0
 52126  1  0  0  0
 53 54  1  0  0  0
 54 55  2  0  0  0
 54127  1  0  0  0
 55 57  1  0  0  0
 55128  1  0  0  0
 56 69  2  0  0  0
 57 58  2  0  0  0
 57129  1  0  0  0
 58130  1  0  0  0
 59 60  1  0  0  0
 59 61  1  0  0  0
 59 62  1  0  0  0
 60131  1  0  0  0
 60132  1  0  0  0
 60133  1  0  0  0
 61134  1  0  0  0
 61135  1  0  0  0
 61136  1  0  0  0
 62137  1  0  0  0
 62138  1  0  0  0
 62139  1  0  0  0
 63 65  1  0  0  0
 63140  1  0  0  0
 63141  1  0  0  0
 63142  1  0  0  0
 64143  1  0  0  0
 65144  1  0  0  0
 68 79  1  0  0  0
 71 73  2  0  0  0
 71 76  1  0  0  0
 71145  1  0  0  0
 72 74  2  0  0  0
 72 75  1  0  0  0
 72146  1  0  0  0
 73 74  1  0  0  0
 73 77  1  0  0  0
 74 80  1  0  0  0
 75 76  2  0  0  0
 75 81  1  0  0  0
 76 85  1  0  0  0
 77 82  1  0  0  0
 77 83  2  0  0  0
 78 79  1  0  0  0
 78 82  1  0  0  0
 78 84  2  0  0  0
 79147  1  0  0  0
 79148  1  0  0  0
 80149  1  0  0  0
 80150  1  0  0  0
 81151  1  0  0  0
 82152  1  0  0  0
 83153  1  0  0  0
 83154  1  0  0  0
M  CHG  1  83   1
M  ISO  4   1 100  68 101  79 101  81 100
M  END
> <chiral flag>
0

> <version>
0

> <s_m_source_file>
/data/baiqing/PycharmProjects/Reinvent-master-3.2/result/LINK_invent/BTK/process_docking_weight1_custom_product_contain_oxygen_bond_distance_aromatic_linkinvent_7_9_3/rearranged_h_0069.sdf

> <i_m_source_file_index>
12

> <r_mmod_Potential_Energy-OPLS-2005>
-150.063629150391

> <r_mmod_Stretch_Energy-OPLS-2005>
90.3208160400391

> <r_mmod_Bend_Energy-OPLS-2005>
150.81217956543

> <r_mmod_Torsional_Energy-OPLS-2005>
231.888076782227

> <r_mmod_Improper_Torsional_Energy-OPLS-2005>
9.39498233795166

> <r_mmod_Van_der_Waal_Energy-OPLS-2005>
160.963638305664

> <r_mmod_Electrostatic_Energy-OPLS-2005>
-380.303527832031

> <r_mmod_Solvation_Energy-OPLS-2005>
-463.129943847656

> <b_mmod_Minimization_Converged-OPLS-2005>
0

> <r_mmod_RMS_Derivative-OPLS-2005>
0.219775184988976

$$$$
13
                    3D
 Structure written by MMmdl.
157165  0  0  1  0            999 V2000
  -30.6048  -14.7383   20.4644 C   0  0  0  0  0  0
  -30.4363  -12.4447   19.4951 C   0  0  0  0  0  0
  -29.5208  -12.4990   18.2505 C   0  0  0  0  0  0
  -28.0427  -12.3355   18.6540 C   0  0  0  0  0  0
  -27.6460  -13.2324   19.8578 C   0  0  2  0  0  0
  -28.6852  -13.1493   20.9995 C   0  0  0  0  0  0
  -25.2517  -13.8203   20.5693 C   0  0  0  0  0  0
  -24.1794  -13.0456   20.9201 C   0  0  0  0  0  0
  -24.6391  -11.6927   20.8734 C   0  0  0  0  0  0
  -23.9061  -10.4310   21.0409 C   0  0  0  0  0  0
  -24.3619   -9.4229   21.9176 C   0  0  0  0  0  0
  -23.6312   -8.2255   22.0737 C   0  0  0  0  0  0
  -22.4303   -8.0290   21.3523 C   0  0  0  0  0  0
  -21.9924   -9.0263   20.4628 C   0  0  0  0  0  0
  -22.7238  -10.2147   20.3049 C   0  0  0  0  0  0
  -21.6865   -6.0751   22.5275 C   0  0  0  0  0  0
  -21.4024   -6.5647   23.8215 C   0  0  0  0  0  0
  -21.3661   -5.6783   24.9167 C   0  0  0  0  0  0
  -21.6054   -4.3048   24.7202 C   0  0  0  0  0  0
  -21.8817   -3.8160   23.4321 C   0  0  0  0  0  0
  -21.9191   -4.6983   22.3389 C   0  0  0  0  0  0
  -22.7816  -13.5239   21.1858 C   0  0  0  0  0  0
  -22.1651   -4.2178   21.0964 F   0  0  0  0  0  0
  -21.5629   -3.4529   25.7712 F   0  0  0  0  0  0
  -29.9946  -13.5022   20.4356 N   0  0  0  0  0  0
  -26.2948  -12.9414   20.3278 N   0  0  0  0  0  0
  -25.9329  -11.6557   20.5761 N   0  0  0  0  0  0
  -22.0437  -12.8231   22.0408 N   0  0  0  0  0  0
  -25.4208  -15.1939   20.4132 N   0  0  0  0  0  0
  -31.7717  -14.8517   20.0772 O   0  0  0  0  0  0
  -21.6643   -6.8912   21.4249 O   0  0  0  0  0  0
  -22.3502  -14.5543   20.6710 O   0  0  0  0  0  0
  -24.6326  -31.8571   23.2005 C   0  0  0  0  0  0
  -25.9153  -32.4760   23.8355 C   0  0  1  0  0  0
  -27.2121  -27.2617   20.1317 C   0  0  0  0  0  0
  -25.5957  -33.8564   24.2289 N   0  0  0  0  0  0
  -23.4281  -30.4838   21.5417 C   0  0  2  0  0  0
  -24.8724  -28.9340   20.1085 C   0  0  0  0  0  0
  -22.7506  -29.4636   22.4892 C   0  0  0  0  0  0
  -18.0299  -28.1386   22.8460 C   0  0  0  0  0  0
  -24.1489  -36.7296   23.2641 C   0  0  0  0  0  0
  -25.9733  -30.7710   21.3788 C   0  0  0  0  0  0
  -26.0451  -29.3935   20.7222 C   0  0  0  0  0  0
  -27.2173  -28.5705   20.7238 C   0  0  0  0  0  0
  -26.0187  -26.8801   19.4741 C   0  0  0  0  0  0
  -24.8654  -27.6850   19.4722 C   0  0  0  0  0  0
  -23.6462  -29.8241   20.1557 C   0  0  0  0  0  0
  -25.4112  -36.3078   24.0340 C   0  0  1  0  0  0
  -20.5900  -28.3727   23.1230 C   0  0  2  0  0  0
  -20.6778  -26.9440   22.5384 C   0  0  0  0  0  0
  -19.5757  -26.6385   21.5182 C   0  0  0  0  0  0
  -18.1945  -26.7924   22.1603 C   0  0  0  0  0  0
  -19.1549  -28.8864   23.2843 C   0  0  0  0  0  0
  -18.9476  -30.1449   23.8887 C   0  0  0  0  0  0
  -17.6481  -30.6582   24.0561 C   0  0  0  0  0  0
  -25.9052  -34.9450   23.5112 C   0  0  0  0  0  0
  -16.5370  -29.9090   23.6313 C   0  0  0  0  0  0
  -16.7288  -28.6504   23.0337 C   0  0  0  0  0  0
  -26.4514  -31.6570   25.0741 C   0  0  0  0  0  0
  -25.3742  -31.3708   26.1466 C   0  0  0  0  0  0
  -27.0371  -30.2997   24.6205 C   0  0  0  0  0  0
  -27.6079  -32.4298   25.7515 C   0  0  0  0  0  0
  -27.5580  -37.1808   24.8469 C   0  0  0  0  0  0
  -21.4215  -29.3087   22.3629 N   0  0  0  0  0  0
  -26.4281  -37.3782   23.9417 N   0  0  0  0  0  0
  -24.6973  -31.0553   22.0968 N   0  0  0  0  0  0
  -23.4204  -28.8159   23.2981 O   0  0  0  0  0  0
  -28.2934  -26.3490   20.2109 O   0  0  0  0  0  0
  -26.5619  -34.8922   22.4675 O   0  0  0  0  0  0
  -23.5477  -32.1395   23.7297 O   0  0  0  0  0  0
  -29.4482  -18.1803   17.8600 C   0  0  0  0  0  0
  -29.6354  -18.4877   20.6125 C   0  0  0  0  0  0
  -29.3736  -19.4882   18.3888 C   0  0  0  0  0  0
  -29.4305  -19.7007   19.8119 C   0  0  0  0  0  0
  -29.7470  -17.1384   20.0570 C   0  0  0  0  0  0
  -29.6142  -17.0416   18.6557 C   0  0  0  0  0  0
  -29.2950  -20.5222   17.3377 C   0  0  0  0  0  0
  -28.6017  -22.1637   20.1997 C   0  0  0  0  0  0
  -29.0258  -23.6879   20.4727 C   0  0  0  0  0  0
  -28.0038  -24.8766   20.0560 C   0  0  0  0  0  0
  -30.2257  -20.5696   16.3858 N   0  0  0  0  0  0
  -29.4559  -21.0837   20.3870 N   0  0  0  0  0  0
  -29.8648  -15.8600   20.8057 N   0  0  0  0  0  0
  -28.2768  -21.3728   17.2516 N   0  3  0  0  0  0
  -27.4516  -21.9542   19.8049 O   0  0  0  0  0  0
  -29.6064  -15.8357   18.0402 F   0  0  0  0  0  0
  -31.4813  -12.5622   19.1992 H   0  0  0  0  0  0
  -30.3745  -11.4667   19.9763 H   0  0  0  0  0  0
  -29.8038  -11.7184   17.5426 H   0  0  0  0  0  0
  -29.6573  -13.4438   17.7243 H   0  0  0  0  0  0
  -27.8922  -11.2867   18.9117 H   0  0  0  0  0  0
  -27.3934  -12.5354   17.8015 H   0  0  0  0  0  0
  -27.6484  -14.2589   19.4865 H   0  0  0  0  0  0
  -28.7116  -12.1444   21.4253 H   0  0  0  0  0  0
  -28.4134  -13.8186   21.8171 H   0  0  0  0  0  0
  -25.2777   -9.5722   22.4727 H   0  0  0  0  0  0
  -24.0036   -7.4662   22.7456 H   0  0  0  0  0  0
  -21.0852   -8.8784   19.8940 H   0  0  0  0  0  0
  -22.3705  -10.9678   19.6152 H   0  0  0  0  0  0
  -21.2013   -7.6157   23.9730 H   0  0  0  0  0  0
  -21.1485   -6.0501   25.9068 H   0  0  0  0  0  0
  -22.0596   -2.7625   23.2793 H   0  0  0  0  0  0
  -22.4069  -11.9938   22.4869 H   0  0  0  0  0  0
  -21.1044  -13.1261   22.2563 H   0  0  0  0  0  0
  -24.6544  -15.8476   20.5279 H   0  0  0  0  0  0
  -26.2659  -15.6308   20.0697 H   0  0  0  0  0  0
  -26.7232  -32.5411   23.1109 H   0  0  0  0  0  0
  -25.0133  -33.9695   25.0455 H   0  0  0  0  0  0
  -22.7256  -31.3082   21.3994 H   0  0  0  0  0  0
  -23.3747  -35.9628   23.3286 H   0  0  0  0  0  0
  -24.3588  -36.8927   22.2057 H   0  0  0  0  0  0
  -23.7239  -37.6497   23.6664 H   0  0  0  0  0  0
  -26.1125  -31.5279   20.6055 H   0  0  0  0  0  0
  -26.8519  -30.8210   22.0109 H   0  0  0  0  0  0
  -28.1098  -28.9161   21.2272 H   0  0  0  0  0  0
  -25.9388  -25.9323   18.9648 H   0  0  0  0  0  0
  -23.9723  -27.3297   18.9775 H   0  0  0  0  0  0
  -23.7814  -30.6049   19.4061 H   0  0  0  0  0  0
  -22.7605  -29.2684   19.8415 H   0  0  0  0  0  0
  -25.1280  -36.1936   25.0831 H   0  0  0  0  0  0
  -20.9997  -28.3318   24.1346 H   0  0  0  0  0  0
  -20.5635  -26.2370   23.3615 H   0  0  0  0  0  0
  -21.6658  -26.7440   22.1215 H   0  0  0  0  0  0
  -19.6930  -25.6286   21.1238 H   0  0  0  0  0  0
  -19.6669  -27.3170   20.6687 H   0  0  0  0  0  0
  -17.4208  -26.6649   21.4013 H   0  0  0  0  0  0
  -18.0364  -26.0065   22.9003 H   0  0  0  0  0  0
  -19.7961  -30.7245   24.2272 H   0  0  0  0  0  0
  -17.5049  -31.6254   24.5180 H   0  0  0  0  0  0
  -15.5373  -30.3001   23.7623 H   0  0  0  0  0  0
  -15.8690  -28.0820   22.7056 H   0  0  0  0  0  0
  -24.5926  -30.7042   25.7802 H   0  0  0  0  0  0
  -24.8921  -32.2867   26.4891 H   0  0  0  0  0  0
  -25.8066  -30.8897   27.0250 H   0  0  0  0  0  0
  -26.2954  -29.6730   24.1240 H   0  0  0  0  0  0
  -27.4090  -29.7263   25.4707 H   0  0  0  0  0  0
  -27.8813  -30.4290   23.9431 H   0  0  0  0  0  0
  -27.2704  -33.3605   26.2087 H   0  0  0  0  0  0
  -28.3894  -32.6836   25.0341 H   0  0  0  0  0  0
  -28.0746  -31.8426   26.5433 H   0  0  0  0  0  0
  -28.2597  -38.0107   24.7518 H   0  0  0  0  0  0
  -28.1071  -36.2641   24.6270 H   0  0  0  0  0  0
  -27.2312  -37.1443   25.8876 H   0  0  0  0  0  0
  -20.9402  -29.8881   21.6896 H   0  0  0  0  0  0
  -26.0164  -38.2860   24.1391 H   0  0  0  0  0  0
  -29.3700  -18.0302   16.7923 H   0  0  0  0  0  0
  -29.7186  -18.5936   21.6842 H   0  0  0  0  0  0
  -29.9617  -23.8517   19.9380 H   0  0  0  0  0  0
  -29.2623  -23.7811   21.5321 H   0  0  0  0  0  0
  -27.0846  -24.6753   20.6078 H   0  0  0  0  0  0
  -27.7647  -24.7197   19.0044 H   0  0  0  0  0  0
  -31.0150  -19.9418   16.4393 H   0  0  0  0  0  0
  -30.2198  -21.2478   15.6409 H   0  0  0  0  0  0
  -30.2808  -21.3019   20.9321 H   0  0  0  0  0  0
  -29.0699  -15.6633   21.3937 H   0  0  0  0  0  0
  -27.6596  -21.4558   18.0601 H   0  0  0  0  0  0
  -28.1590  -22.0195   16.4885 H   0  0  0  0  0  0
  1 25  1  0  0  0
  1 30  2  0  0  0
  1 83  1  0  0  0
  2  3  1  0  0  0
  2 25  1  0  0  0
  2 87  1  0  0  0
  2 88  1  0  0  0
  3  4  1  0  0  0
  3 89  1  0  0  0
  3 90  1  0  0  0
  4  5  1  0  0  0
  4 91  1  0  0  0
  4 92  1  0  0  0
  5  6  1  0  0  0
  5 26  1  0  0  0
  5 93  1  0  0  0
  6 25  1  0  0  0
  6 94  1  0  0  0
  6 95  1  0  0  0
  7  8  2  0  0  0
  7 26  1  0  0  0
  7 29  1  0  0  0
  8  9  1  0  0  0
  8 22  1  0  0  0
  9 10  1  0  0  0
  9 27  2  0  0  0
 10 11  2  0  0  0
 10 15  1  0  0  0
 11 12  1  0  0  0
 11 96  1  0  0  0
 12 13  2  0  0  0
 12 97  1  0  0  0
 13 14  1  0  0  0
 13 31  1  0  0  0
 14 15  2  0  0  0
 14 98  1  0  0  0
 15 99  1  0  0  0
 16 17  2  0  0  0
 16 21  1  0  0  0
 16 31  1  0  0  0
 17 18  1  0  0  0
 17100  1  0  0  0
 18 19  2  0  0  0
 18101  1  0  0  0
 19 20  1  0  0  0
 19 24  1  0  0  0
 20 21  2  0  0  0
 20102  1  0  0  0
 21 23  1  0  0  0
 22 28  1  0  0  0
 22 32  2  0  0  0
 26 27  1  0  0  0
 28103  1  0  0  0
 28104  1  0  0  0
 29105  1  0  0  0
 29106  1  0  0  0
 33 34  1  0  0  0
 33 66  1  0  0  0
 33 70  2  0  0  0
 34 36  1  0  0  0
 34 59  1  0  0  0
 34107  1  0  0  0
 35 44  2  0  0  0
 35 45  1  0  0  0
 35 68  1  0  0  0
 36 56  1  0  0  0
 36108  1  0  0  0
 37 39  1  0  0  0
 37 47  1  0  0  0
 37 66  1  0  0  0
 37109  1  0  0  0
 38 43  2  0  0  0
 38 46  1  0  0  0
 38 47  1  0  0  0
 39 64  1  0  0  0
 39 67  2  0  0  0
 40 52  1  0  0  0
 40 53  2  0  0  0
 40 58  1  0  0  0
 41110  1  0  0  0
 41111  1  0  0  0
 41112  1  0  0  0
 41 48  1  0  0  0
 42 43  1  0  0  0
 42 66  1  0  0  0
 42113  1  0  0  0
 42114  1  0  0  0
 43 44  1  0  0  0
 44115  1  0  0  0
 45 46  2  0  0  0
 45116  1  0  0  0
 46117  1  0  0  0
 47118  1  0  0  0
 47119  1  0  0  0
 48 56  1  0  0  0
 48 65  1  0  0  0
 48120  1  0  0  0
 49 50  1  0  0  0
 49 53  1  0  0  0
 49 64  1  0  0  0
 49121  1  0  0  0
 50 51  1  0  0  0
 50122  1  0  0  0
 50123  1  0  0  0
 51 52  1  0  0  0
 51124  1  0  0  0
 51125  1  0  0  0
 52126  1  0  0  0
 52127  1  0  0  0
 53 54  1  0  0  0
 54 55  2  0  0  0
 54128  1  0  0  0
 55 57  1  0  0  0
 55129  1  0  0  0
 56 69  2  0  0  0
 57 58  2  0  0  0
 57130  1  0  0  0
 58131  1  0  0  0
 59 60  1  0  0  0
 59 61  1  0  0  0
 59 62  1  0  0  0
 60132  1  0  0  0
 60133  1  0  0  0
 60134  1  0  0  0
 61135  1  0  0  0
 61136  1  0  0  0
 61137  1  0  0  0
 62138  1  0  0  0
 62139  1  0  0  0
 62140  1  0  0  0
 63 65  1  0  0  0
 63141  1  0  0  0
 63142  1  0  0  0
 63143  1  0  0  0
 64144  1  0  0  0
 65145  1  0  0  0
 68 80  1  0  0  0
 71 73  2  0  0  0
 71 76  1  0  0  0
 71146  1  0  0  0
 72 74  2  0  0  0
 72 75  1  0  0  0
 72147  1  0  0  0
 73 74  1  0  0  0
 73 77  1  0  0  0
 74 82  1  0  0  0
 75 76  2  0  0  0
 75 83  1  0  0  0
 76 86  1  0  0  0
 77 81  1  0  0  0
 77 84  2  0  0  0
 78 79  1  0  0  0
 78 82  1  0  0  0
 78 85  2  0  0  0
 79 80  1  0  0  0
 79148  1  0  0  0
 79149  1  0  0  0
 80150  1  0  0  0
 80151  1  0  0  0
 81152  1  0  0  0
 81153  1  0  0  0
 82154  1  0  0  0
 83155  1  0  0  0
 84156  1  0  0  0
 84157  1  0  0  0
M  CHG  1  84   1
M  ISO  4   1 100  68 101  80 101  83 100
M  END
> <chiral flag>
0

> <version>
0

> <s_m_source_file>
/data/baiqing/PycharmProjects/Reinvent-master-3.2/result/LINK_invent/BTK/process_docking_weight1_custom_product_contain_oxygen_bond_distance_aromatic_linkinvent_7_9_3/rearranged_h_0069.sdf

> <i_m_source_file_index>
13

> <r_mmod_Potential_Energy-OPLS-2005>
-112.416015625

> <r_mmod_Stretch_Energy-OPLS-2005>
132.657775878906

> <r_mmod_Bend_Energy-OPLS-2005>
167.791519165039

> <r_mmod_Torsional_Energy-OPLS-2005>
286.45654296875

> <r_mmod_Improper_Torsional_Energy-OPLS-2005>
6.57376098632812

> <r_mmod_Van_der_Waal_Energy-OPLS-2005>
158.101745605469

> <r_mmod_Electrostatic_Energy-OPLS-2005>
-485.158081054688

> <r_mmod_Solvation_Energy-OPLS-2005>
-464.203033447266

> <b_mmod_Minimization_Converged-OPLS-2005>
0

> <r_mmod_RMS_Derivative-OPLS-2005>
2.44803619384766

$$$$
14
                    3D
 Structure written by MMmdl.
158167  0  0  1  0            999 V2000
  -30.5732  -14.7496   20.4469 C   0  0  0  0  0  0
  -30.4433  -12.4570   19.4486 C   0  0  0  0  0  0
  -29.5059  -12.5024   18.2204 C   0  0  0  0  0  0
  -28.0322  -12.3236   18.6418 C   0  0  0  0  0  0
  -27.6379  -13.2224   19.8427 C   0  0  2  0  0  0
  -28.6907  -13.1497   20.9701 C   0  0  0  0  0  0
  -25.2497  -13.8174   20.5672 C   0  0  0  0  0  0
  -24.1794  -13.0411   20.9210 C   0  0  0  0  0  0
  -24.6392  -11.6896   20.8752 C   0  0  0  0  0  0
  -23.9073  -10.4278   21.0413 C   0  0  0  0  0  0
  -24.3622   -9.4193   21.9190 C   0  0  0  0  0  0
  -23.6297   -8.2224   22.0753 C   0  0  0  0  0  0
  -22.4277   -8.0272   21.3550 C   0  0  0  0  0  0
  -21.9918   -9.0242   20.4644 C   0  0  0  0  0  0
  -22.7247  -10.2123   20.3057 C   0  0  0  0  0  0
  -21.6845   -6.0731   22.5278 C   0  0  0  0  0  0
  -21.4012   -6.5640   23.8210 C   0  0  0  0  0  0
  -21.3664   -5.6793   24.9173 C   0  0  0  0  0  0
  -21.6044   -4.3057   24.7225 C   0  0  0  0  0  0
  -21.8818   -3.8149   23.4347 C   0  0  0  0  0  0
  -21.9193   -4.6961   22.3404 C   0  0  0  0  0  0
  -22.7817  -13.5193   21.1886 C   0  0  0  0  0  0
  -22.1659   -4.2152   21.0980 F   0  0  0  0  0  0
  -21.5635   -3.4539   25.7739 F   0  0  0  0  0  0
  -29.9856  -13.5095   20.3766 N   0  0  0  0  0  0
  -26.2916  -12.9357   20.3257 N   0  0  0  0  0  0
  -25.9320  -11.6512   20.5741 N   0  0  0  0  0  0
  -22.0475  -12.8169   22.0440 N   0  0  0  0  0  0
  -25.4154  -15.1893   20.4081 N   0  0  0  0  0  0
  -31.7825  -14.8852   20.2442 O   0  0  0  0  0  0
  -21.6635   -6.8877   21.4243 O   0  0  0  0  0  0
  -22.3506  -14.5503   20.6747 O   0  0  0  0  0  0
  -24.6295  -31.8574   23.1965 C   0  0  0  0  0  0
  -25.9138  -32.4757   23.8300 C   0  0  1  0  0  0
  -27.2188  -27.2825   20.1306 C   0  0  0  0  0  0
  -25.5936  -33.8556   24.2222 N   0  0  0  0  0  0
  -23.4230  -30.4815   21.5422 C   0  0  2  0  0  0
  -24.8682  -28.9203   20.1158 C   0  0  0  0  0  0
  -22.7483  -29.4634   22.4936 C   0  0  0  0  0  0
  -18.0290  -28.1398   22.8480 C   0  0  0  0  0  0
  -24.1498  -36.7293   23.2637 C   0  0  0  0  0  0
  -25.9680  -30.7764   21.3707 C   0  0  0  0  0  0
  -26.0409  -29.4003   20.7132 C   0  0  0  0  0  0
  -27.2228  -28.5971   20.7015 C   0  0  0  0  0  0
  -26.0224  -26.8493   19.5230 C   0  0  0  0  0  0
  -24.8615  -27.6515   19.5102 C   0  0  0  0  0  0
  -23.6409  -29.8146   20.1584 C   0  0  0  0  0  0
  -25.4122  -36.3072   24.0318 C   0  0  1  0  0  0
  -20.5899  -28.3716   23.1276 C   0  0  2  0  0  0
  -20.6790  -26.9433   22.5417 C   0  0  0  0  0  0
  -19.5758  -26.6390   21.5225 C   0  0  0  0  0  0
  -18.1933  -26.7935   22.1628 C   0  0  0  0  0  0
  -19.1547  -28.8868   23.2871 C   0  0  0  0  0  0
  -18.9480  -30.1471   23.8888 C   0  0  0  0  0  0
  -17.6485  -30.6600   24.0569 C   0  0  0  0  0  0
  -25.9060  -34.9449   23.5073 C   0  0  0  0  0  0
  -16.5371  -29.9105   23.6331 C   0  0  0  0  0  0
  -16.7283  -28.6527   23.0333 C   0  0  0  0  0  0
  -26.4475  -31.6580   25.0709 C   0  0  0  0  0  0
  -25.3672  -31.3795   26.1415 C   0  0  0  0  0  0
  -27.0292  -30.2980   24.6206 C   0  0  0  0  0  0
  -27.6001  -32.4341   25.7503 C   0  0  0  0  0  0
  -27.5575  -37.1801   24.8461 C   0  0  0  0  0  0
  -21.4199  -29.3069   22.3674 N   0  0  0  0  0  0
  -26.4295  -37.3776   23.9412 N   0  0  0  0  0  0
  -24.6924  -31.0570   22.0918 N   0  0  0  0  0  0
  -23.4198  -28.8177   23.3024 O   0  0  0  0  0  0
  -28.3325  -26.4233   20.1095 O   0  0  0  0  0  0
  -26.5655  -34.8931   22.4661 O   0  0  0  0  0  0
  -23.5452  -32.1427   23.7269 O   0  0  0  0  0  0
  -29.0760  -19.7297   22.1345 C   0  0  0  0  0  0
  -29.6655  -18.4455   20.1575 C   0  0  0  0  0  0
  -29.3652  -17.2928   22.2812 C   0  0  0  0  0  0
  -29.3955  -19.7607   20.7549 C   0  0  0  0  0  0
  -29.0446  -18.5317   22.8754 C   0  0  0  0  0  0
  -29.6795  -17.1942   20.9095 C   0  0  0  0  0  0
  -30.4369  -22.7465   18.5816 C   0  0  0  0  0  0
  -29.6472  -23.7820   18.9250 C   0  0  0  0  0  0
  -30.3189  -21.3690   19.0811 C   0  0  0  0  0  0
  -28.6923  -22.3112   20.7121 C   0  0  0  0  0  0
  -28.5048  -23.6819   19.8903 C   0  0  1  0  0  0
  -28.2284  -25.0544   20.7064 C   0  0  0  0  0  0
  -29.4210  -21.1137   20.0872 N   0  0  0  0  0  0
  -28.6496  -18.5764   24.2126 N   0  0  0  0  0  0
  -29.7027  -15.8240   20.3474 N   0  0  0  0  0  0
  -31.0307  -20.4873   18.5911 O   0  0  0  0  0  0
  -31.4786  -12.6069   19.1409 H   0  0  0  0  0  0
  -30.4059  -11.4796   19.9313 H   0  0  0  0  0  0
  -29.7850  -11.7309   17.5026 H   0  0  0  0  0  0
  -29.6247  -13.4560   17.7029 H   0  0  0  0  0  0
  -27.8921  -11.2756   18.9064 H   0  0  0  0  0  0
  -27.3725  -12.5142   17.7956 H   0  0  0  0  0  0
  -27.6243  -14.2409   19.4573 H   0  0  0  0  0  0
  -28.7305  -12.1479   21.4007 H   0  0  0  0  0  0
  -28.4318  -13.8270   21.7866 H   0  0  0  0  0  0
  -25.2770   -9.5658   22.4763 H   0  0  0  0  0  0
  -24.0005   -7.4610   22.7464 H   0  0  0  0  0  0
  -21.0857   -8.8769   19.8941 H   0  0  0  0  0  0
  -22.3721  -10.9665   19.6164 H   0  0  0  0  0  0
  -21.1998   -7.6146   23.9717 H   0  0  0  0  0  0
  -21.1489   -6.0522   25.9078 H   0  0  0  0  0  0
  -22.0596   -2.7612   23.2844 H   0  0  0  0  0  0
  -22.4116  -11.9829   22.4801 H   0  0  0  0  0  0
  -21.1090  -13.1180   22.2656 H   0  0  0  0  0  0
  -24.6400  -15.8339   20.5162 H   0  0  0  0  0  0
  -26.2521  -15.6416   20.0651 H   0  0  0  0  0  0
  -26.7208  -32.5417   23.1035 H   0  0  0  0  0  0
  -25.0038  -33.9684   25.0340 H   0  0  0  0  0  0
  -22.7191  -31.3047   21.3979 H   0  0  0  0  0  0
  -23.3753  -35.9630   23.3298 H   0  0  0  0  0  0
  -24.3588  -36.8923   22.2049 H   0  0  0  0  0  0
  -23.7269  -37.6495   23.6672 H   0  0  0  0  0  0
  -26.1107  -31.5371   20.6020 H   0  0  0  0  0  0
  -26.8405  -30.8171   22.0111 H   0  0  0  0  0  0
  -28.1264  -28.9700   21.1621 H   0  0  0  0  0  0
  -25.9828  -25.8723   19.0602 H   0  0  0  0  0  0
  -23.9614  -27.2768   19.0432 H   0  0  0  0  0  0
  -23.7728  -30.5939   19.4074 H   0  0  0  0  0  0
  -22.7556  -29.2571   19.8478 H   0  0  0  0  0  0
  -25.1302  -36.1901   25.0809 H   0  0  0  0  0  0
  -20.9970  -28.3299   24.1406 H   0  0  0  0  0  0
  -20.5704  -26.2330   23.3636 H   0  0  0  0  0  0
  -21.6662  -26.7479   22.1199 H   0  0  0  0  0  0
  -19.6928  -25.6291   21.1260 H   0  0  0  0  0  0
  -19.6684  -27.3201   20.6751 H   0  0  0  0  0  0
  -17.4208  -26.6686   21.4021 H   0  0  0  0  0  0
  -18.0324  -26.0079   22.9023 H   0  0  0  0  0  0
  -19.7975  -30.7286   24.2235 H   0  0  0  0  0  0
  -17.5059  -31.6274   24.5202 H   0  0  0  0  0  0
  -15.5377  -30.3021   23.7672 H   0  0  0  0  0  0
  -15.8675  -28.0875   22.7025 H   0  0  0  0  0  0
  -24.5895  -30.7062   25.7807 H   0  0  0  0  0  0
  -24.8797  -32.2979   26.4684 H   0  0  0  0  0  0
  -25.7958  -30.9133   27.0294 H   0  0  0  0  0  0
  -26.2889  -29.6767   24.1157 H   0  0  0  0  0  0
  -27.3875  -29.7202   25.4737 H   0  0  0  0  0  0
  -27.8795  -30.4226   23.9506 H   0  0  0  0  0  0
  -27.2576  -33.3689   26.1953 H   0  0  0  0  0  0
  -28.3859  -32.6823   25.0363 H   0  0  0  0  0  0
  -28.0581  -31.8551   26.5524 H   0  0  0  0  0  0
  -28.2575  -38.0114   24.7506 H   0  0  0  0  0  0
  -28.1075  -36.2639   24.6268 H   0  0  0  0  0  0
  -27.2293  -37.1436   25.8863 H   0  0  0  0  0  0
  -20.9393  -29.8812   21.6886 H   0  0  0  0  0  0
  -26.0148  -38.2845   24.1412 H   0  0  0  0  0  0
  -28.8430  -20.6448   22.6574 H   0  0  0  0  0  0
  -29.8401  -18.3831   19.0926 H   0  0  0  0  0  0
  -29.3078  -16.3923   22.8770 H   0  0  0  0  0  0
  -31.2165  -22.9390   17.8592 H   0  0  0  0  0  0
  -29.8056  -24.7502   18.4704 H   0  0  0  0  0  0
  -27.7094  -21.9825   21.0532 H   0  0  0  0  0  0
  -29.2539  -22.5669   21.6100 H   0  0  0  0  0  0
  -27.6372  -23.5534   19.2422 H   0  0  0  0  0  0
  -27.2548  -24.9562   21.1903 H   0  0  0  0  0  0
  -28.9357  -25.0712   21.5375 H   0  0  0  0  0  0
  -28.1405  -19.4035   24.5131 H   0  0  0  0  0  0
  -28.2372  -17.7314   24.5991 H   0  0  0  0  0  0
  -28.7728  -15.4755   20.1791 H   0  0  0  0  0  0
  1 25  1  0  0  0
  1 30  2  0  0  0
  1 85  1  0  0  0
  2  3  1  0  0  0
  2 25  1  0  0  0
  2 87  1  0  0  0
  2 88  1  0  0  0
  3  4  1  0  0  0
  3 89  1  0  0  0
  3 90  1  0  0  0
  4  5  1  0  0  0
  4 91  1  0  0  0
  4 92  1  0  0  0
  5  6  1  0  0  0
  5 26  1  0  0  0
  5 93  1  0  0  0
  6 25  1  0  0  0
  6 94  1  0  0  0
  6 95  1  0  0  0
  7  8  2  0  0  0
  7 26  1  0  0  0
  7 29  1  0  0  0
  8  9  1  0  0  0
  8 22  1  0  0  0
  9 10  1  0  0  0
  9 27  2  0  0  0
 10 11  2  0  0  0
 10 15  1  0  0  0
 11 12  1  0  0  0
 11 96  1  0  0  0
 12 13  2  0  0  0
 12 97  1  0  0  0
 13 14  1  0  0  0
 13 31  1  0  0  0
 14 15  2  0  0  0
 14 98  1  0  0  0
 15 99  1  0  0  0
 16 17  2  0  0  0
 16 21  1  0  0  0
 16 31  1  0  0  0
 17 18  1  0  0  0
 17100  1  0  0  0
 18 19  2  0  0  0
 18101  1  0  0  0
 19 20  1  0  0  0
 19 24  1  0  0  0
 20 21  2  0  0  0
 20102  1  0  0  0
 21 23  1  0  0  0
 22 28  1  0  0  0
 22 32  2  0  0  0
 26 27  1  0  0  0
 28103  1  0  0  0
 28104  1  0  0  0
 29105  1  0  0  0
 29106  1  0  0  0
 33 34  1  0  0  0
 33 66  1  0  0  0
 33 70  2  0  0  0
 34 36  1  0  0  0
 34 59  1  0  0  0
 34107  1  0  0  0
 35 44  2  0  0  0
 35 45  1  0  0  0
 35 68  1  0  0  0
 36 56  1  0  0  0
 36108  1  0  0  0
 37 39  1  0  0  0
 37 47  1  0  0  0
 37 66  1  0  0  0
 37109  1  0  0  0
 38 43  2  0  0  0
 38 46  1  0  0  0
 38 47  1  0  0  0
 39 64  1  0  0  0
 39 67  2  0  0  0
 40 52  1  0  0  0
 40 53  2  0  0  0
 40 58  1  0  0  0
 41110  1  0  0  0
 41111  1  0  0  0
 41112  1  0  0  0
 41 48  1  0  0  0
 42 43  1  0  0  0
 42 66  1  0  0  0
 42113  1  0  0  0
 42114  1  0  0  0
 43 44  1  0  0  0
 44115  1  0  0  0
 45 46  2  0  0  0
 45116  1  0  0  0
 46117  1  0  0  0
 47118  1  0  0  0
 47119  1  0  0  0
 48 56  1  0  0  0
 48 65  1  0  0  0
 48120  1  0  0  0
 49 50  1  0  0  0
 49 53  1  0  0  0
 49 64  1  0  0  0
 49121  1  0  0  0
 50 51  1  0  0  0
 50122  1  0  0  0
 50123  1  0  0  0
 51 52  1  0  0  0
 51124  1  0  0  0
 51125  1  0  0  0
 52126  1  0  0  0
 52127  1  0  0  0
 53 54  1  0  0  0
 54 55  2  0  0  0
 54128  1  0  0  0
 55 57  1  0  0  0
 55129  1  0  0  0
 56 69  2  0  0  0
 57 58  2  0  0  0
 57130  1  0  0  0
 58131  1  0  0  0
 59 60  1  0  0  0
 59 61  1  0  0  0
 59 62  1  0  0  0
 60132  1  0  0  0
 60133  1  0  0  0
 60134  1  0  0  0
 61135  1  0  0  0
 61136  1  0  0  0
 61137  1  0  0  0
 62138  1  0  0  0
 62139  1  0  0  0
 62140  1  0  0  0
 63 65  1  0  0  0
 63141  1  0  0  0
 63142  1  0  0  0
 63143  1  0  0  0
 64144  1  0  0  0
 65145  1  0  0  0
 68 82  1  0  0  0
 71 74  2  0  0  0
 71 75  1  0  0  0
 71146  1  0  0  0
 72 74  1  0  0  0
 72 76  2  0  0  0
 72147  1  0  0  0
 73 75  2  0  0  0
 73 76  1  0  0  0
 73148  1  0  0  0
 74 83  1  0  0  0
 75 84  1  0  0  0
 76 85  1  0  0  0
 77 78  2  0  0  0
 77 79  1  0  0  0
 77149  1  0  0  0
 78 81  1  0  0  0
 78150  1  0  0  0
 79 83  1  0  0  0
 79 86  2  0  0  0
 80 81  1  0  0  0
 80 83  1  0  0  0
 80151  1  0  0  0
 80152  1  0  0  0
 81 82  1  0  0  0
 81153  1  0  0  0
 82154  1  0  0  0
 82155  1  0  0  0
 84156  1  0  0  0
 84157  1  0  0  0
 85158  1  0  0  0
M  ISO  4   1 100  68 101  82 101  85 100
M  END
> <chiral flag>
0

> <version>
0

> <s_m_source_file>
/data/baiqing/PycharmProjects/Reinvent-master-3.2/result/LINK_invent/BTK/process_docking_weight1_custom_product_contain_oxygen_bond_distance_aromatic_linkinvent_7_9_3/rearranged_h_0069.sdf

> <i_m_source_file_index>
14

> <r_mmod_Potential_Energy-OPLS-2005>
331.465209960938

> <r_mmod_Stretch_Energy-OPLS-2005>
129.635452270508

> <r_mmod_Bend_Energy-OPLS-2005>
182.277496337891

> <r_mmod_Torsional_Energy-OPLS-2005>
319.669677734375

> <r_mmod_Improper_Torsional_Energy-OPLS-2005>
19.5327472686768

> <r_mmod_Van_der_Waal_Energy-OPLS-2005>
148.533920288086

> <r_mmod_Electrostatic_Energy-OPLS-2005>
-312.123229980469

> <r_mmod_Solvation_Energy-OPLS-2005>
-239.065979003906

> <b_mmod_Minimization_Converged-OPLS-2005>
0

> <r_mmod_RMS_Derivative-OPLS-2005>
2.85278534889221

$$$$
15
                    3D
 Structure written by MMmdl.
152160  0  0  1  0            999 V2000
  -30.6155  -14.6567   20.4910 C   0  0  0  0  0  0
  -30.4405  -12.4016   19.4537 C   0  0  0  0  0  0
  -29.5084  -12.5066   18.2255 C   0  0  0  0  0  0
  -28.0313  -12.3429   18.6383 C   0  0  0  0  0  0
  -27.6516  -13.2180   19.8625 C   0  0  2  0  0  0
  -28.6981  -13.0809   20.9919 C   0  0  0  0  0  0
  -25.2542  -13.8163   20.5691 C   0  0  0  0  0  0
  -24.1811  -13.0420   20.9167 C   0  0  0  0  0  0
  -24.6392  -11.6898   20.8726 C   0  0  0  0  0  0
  -23.9065  -10.4283   21.0397 C   0  0  0  0  0  0
  -24.3616   -9.4203   21.9179 C   0  0  0  0  0  0
  -23.6290   -8.2240   22.0754 C   0  0  0  0  0  0
  -22.4272   -8.0278   21.3544 C   0  0  0  0  0  0
  -21.9905   -9.0251   20.4646 C   0  0  0  0  0  0
  -22.7235  -10.2127   20.3050 C   0  0  0  0  0  0
  -21.6852   -6.0733   22.5279 C   0  0  0  0  0  0
  -21.4014   -6.5637   23.8213 C   0  0  0  0  0  0
  -21.3659   -5.6791   24.9175 C   0  0  0  0  0  0
  -21.6044   -4.3053   24.7225 C   0  0  0  0  0  0
  -21.8820   -3.8145   23.4347 C   0  0  0  0  0  0
  -21.9193   -4.6961   22.3402 C   0  0  0  0  0  0
  -22.7836  -13.5216   21.1843 C   0  0  0  0  0  0
  -22.1662   -4.2147   21.0980 F   0  0  0  0  0  0
  -21.5628   -3.4537   25.7738 F   0  0  0  0  0  0
  -30.0124  -13.4264   20.4267 N   0  0  0  0  0  0
  -26.2984  -12.9356   20.3331 N   0  0  0  0  0  0
  -25.9326  -11.6506   20.5759 N   0  0  0  0  0  0
  -22.0486  -12.8211   22.0408 N   0  0  0  0  0  0
  -25.4197  -15.1892   20.4185 N   0  0  0  0  0  0
  -31.7839  -14.8154   20.1246 O   0  0  0  0  0  0
  -21.6637   -6.8876   21.4242 O   0  0  0  0  0  0
  -22.3517  -14.5526   20.6703 O   0  0  0  0  0  0
  -24.6259  -31.8596   23.2019 C   0  0  0  0  0  0
  -25.9106  -32.4778   23.8351 C   0  0  1  0  0  0
  -27.2257  -27.3166   20.1247 C   0  0  0  0  0  0
  -25.5921  -33.8579   24.2279 N   0  0  0  0  0  0
  -23.4201  -30.4820   21.5445 C   0  0  2  0  0  0
  -24.8677  -28.9336   20.1141 C   0  0  0  0  0  0
  -22.7473  -29.4622   22.4938 C   0  0  0  0  0  0
  -18.0286  -28.1385   22.8487 C   0  0  0  0  0  0
  -24.1489  -36.7295   23.2639 C   0  0  0  0  0  0
  -25.9608  -30.7896   21.3733 C   0  0  0  0  0  0
  -26.0361  -29.4153   20.7186 C   0  0  0  0  0  0
  -27.2197  -28.6192   20.7121 C   0  0  0  0  0  0
  -26.0389  -26.8898   19.4895 C   0  0  0  0  0  0
  -24.8709  -27.6761   19.4902 C   0  0  0  0  0  0
  -23.6357  -29.8143   20.1608 C   0  0  0  0  0  0
  -25.4114  -36.3085   24.0329 C   0  0  1  0  0  0
  -20.5885  -28.3689   23.1284 C   0  0  2  0  0  0
  -20.6775  -26.9413   22.5409 C   0  0  0  0  0  0
  -19.5750  -26.6385   21.5212 C   0  0  0  0  0  0
  -18.1931  -26.7927   22.1627 C   0  0  0  0  0  0
  -19.1538  -28.8854   23.2881 C   0  0  0  0  0  0
  -18.9461  -30.1457   23.8897 C   0  0  0  0  0  0
  -17.6461  -30.6587   24.0563 C   0  0  0  0  0  0
  -25.9050  -34.9452   23.5105 C   0  0  0  0  0  0
  -16.5352  -29.9086   23.6329 C   0  0  0  0  0  0
  -16.7273  -28.6503   23.0351 C   0  0  0  0  0  0
  -26.4492  -31.6588   25.0721 C   0  0  0  0  0  0
  -25.3727  -31.3725   26.1450 C   0  0  0  0  0  0
  -27.0336  -30.3013   24.6173 C   0  0  0  0  0  0
  -27.6053  -32.4322   25.7491 C   0  0  0  0  0  0
  -27.5578  -37.1805   24.8467 C   0  0  0  0  0  0
  -21.4187  -29.3043   22.3680 N   0  0  0  0  0  0
  -26.4294  -37.3777   23.9405 N   0  0  0  0  0  0
  -24.6877  -31.0605   22.0970 N   0  0  0  0  0  0
  -23.4196  -28.8162   23.3019 O   0  0  0  0  0  0
  -28.3457  -26.4730   20.1391 O   0  0  0  0  0  0
  -26.5620  -34.8919   22.4673 O   0  0  0  0  0  0
  -23.5422  -32.1394   23.7346 O   0  0  0  0  0  0
  -31.0547  -19.3145   20.2511 C   0  0  0  0  0  0
  -31.0803  -17.8996   20.4544 C   0  0  0  0  0  0
  -28.6531  -19.3216   20.3500 C   0  0  0  0  0  0
  -29.8447  -20.0703   20.1682 C   0  0  0  0  0  0
  -29.8835  -17.1516   20.5981 C   0  0  0  0  0  0
  -28.6778  -17.9072   20.5594 C   0  0  0  0  0  0
  -29.8777  -21.5398   19.7662 C   0  0  0  0  0  0
  -29.1464  -24.0218   19.8643 C   0  0  0  0  0  0
  -28.1516  -25.0493   20.5329 C   0  0  0  0  0  0
  -29.7921  -15.7042   20.8071 N   0  0  0  0  0  0
  -29.1077  -22.5813   20.2580 N   0  0  0  0  0  0
  -30.7690  -21.8112   18.8069 N   0  3  0  0  0  0
  -29.9485  -24.4192   19.0077 O   0  0  0  0  0  0
  -27.5037  -17.2455   20.6988 F   0  0  0  0  0  0
  -31.4809  -12.5313   19.1501 H   0  0  0  0  0  0
  -30.3810  -11.4079   19.9004 H   0  0  0  0  0  0
  -29.7745  -11.7509   17.4851 H   0  0  0  0  0  0
  -29.6478  -13.4731   17.7385 H   0  0  0  0  0  0
  -27.8713  -11.2903   18.8747 H   0  0  0  0  0  0
  -27.3761  -12.5669   17.7957 H   0  0  0  0  0  0
  -27.6635  -14.2512   19.5153 H   0  0  0  0  0  0
  -28.7129  -12.0608   21.3787 H   0  0  0  0  0  0
  -28.4426  -13.7163   21.8414 H   0  0  0  0  0  0
  -25.2763   -9.5680   22.4750 H   0  0  0  0  0  0
  -23.9999   -7.4633   22.7475 H   0  0  0  0  0  0
  -21.0835   -8.8770   19.8953 H   0  0  0  0  0  0
  -22.3696  -10.9666   19.6158 H   0  0  0  0  0  0
  -21.2007   -7.6146   23.9716 H   0  0  0  0  0  0
  -21.1479   -6.0520   25.9078 H   0  0  0  0  0  0
  -22.0599   -2.7607   23.2848 H   0  0  0  0  0  0
  -22.4104  -11.9871   22.4791 H   0  0  0  0  0  0
  -21.1109  -13.1244   22.2625 H   0  0  0  0  0  0
  -24.6526  -15.8351   20.5652 H   0  0  0  0  0  0
  -26.2866  -15.6648   20.1971 H   0  0  0  0  0  0
  -26.7174  -32.5450   23.1100 H   0  0  0  0  0  0
  -25.0066  -33.9724   25.0422 H   0  0  0  0  0  0
  -22.7140  -31.3024   21.4000 H   0  0  0  0  0  0
  -23.3747  -35.9633   23.3311 H   0  0  0  0  0  0
  -24.3579  -36.8906   22.2052 H   0  0  0  0  0  0
  -23.7249  -37.6503   23.6655 H   0  0  0  0  0  0
  -26.0910  -31.5514   20.6034 H   0  0  0  0  0  0
  -26.8416  -30.8406   22.0017 H   0  0  0  0  0  0
  -28.1180  -28.9859   21.1890 H   0  0  0  0  0  0
  -26.0016  -25.9364   18.9832 H   0  0  0  0  0  0
  -23.9781  -27.3047   19.0062 H   0  0  0  0  0  0
  -23.7552  -30.5895   19.4030 H   0  0  0  0  0  0
  -22.7557  -29.2433   19.8591 H   0  0  0  0  0  0
  -25.1295  -36.1939   25.0822 H   0  0  0  0  0  0
  -20.9978  -28.3263   24.1405 H   0  0  0  0  0  0
  -20.5678  -26.2298   23.3608 H   0  0  0  0  0  0
  -21.6644  -26.7445   22.1200 H   0  0  0  0  0  0
  -19.6911  -25.6296   21.1240 H   0  0  0  0  0  0
  -19.6684  -27.3196   20.6742 H   0  0  0  0  0  0
  -17.4198  -26.6670   21.4033 H   0  0  0  0  0  0
  -18.0336  -26.0071   22.9026 H   0  0  0  0  0  0
  -19.7937  -30.7273   24.2265 H   0  0  0  0  0  0
  -17.5015  -31.6268   24.5165 H   0  0  0  0  0  0
  -15.5353  -30.2987   23.7653 H   0  0  0  0  0  0
  -15.8674  -28.0822   22.7065 H   0  0  0  0  0  0
  -24.5899  -30.7078   25.7779 H   0  0  0  0  0  0
  -24.8923  -32.2891   26.4882 H   0  0  0  0  0  0
  -25.8054  -30.8897   27.0221 H   0  0  0  0  0  0
  -26.2909  -29.6762   24.1202 H   0  0  0  0  0  0
  -27.4042  -29.7272   25.4675 H   0  0  0  0  0  0
  -27.8774  -30.4303   23.9391 H   0  0  0  0  0  0
  -27.2667  -33.3625   26.2063 H   0  0  0  0  0  0
  -28.3865  -32.6876   25.0319 H   0  0  0  0  0  0
  -28.0717  -31.8449   26.5410 H   0  0  0  0  0  0
  -28.2604  -38.0094   24.7504 H   0  0  0  0  0  0
  -28.1067  -36.2625   24.6308 H   0  0  0  0  0  0
  -27.2294  -37.1472   25.8870 H   0  0  0  0  0  0
  -20.9364  -29.8767   21.6891 H   0  0  0  0  0  0
  -26.0177  -38.2855   24.1394 H   0  0  0  0  0  0
  -32.0028  -19.8209   20.1293 H   0  0  0  0  0  0
  -32.0355  -17.3961   20.4915 H   0  0  0  0  0  0
  -27.6950  -19.8156   20.2845 H   0  0  0  0  0  0
  -28.2880  -24.9873   21.6125 H   0  0  0  0  0  0
  -27.1421  -24.6907   20.3421 H   0  0  0  0  0  0
  -28.8648  -15.4061   21.0663 H   0  0  0  0  0  0
  -28.4674  -22.2678   20.9716 H   0  0  0  0  0  0
  -31.2946  -21.0728   18.3666 H   0  0  0  0  0  0
  -30.8580  -22.7668   18.4813 H   0  0  0  0  0  0
  1 25  1  0  0  0
  1 30  2  0  0  0
  1 80  1  0  0  0
  2  3  1  0  0  0
  2 25  1  0  0  0
  2 85  1  0  0  0
  2 86  1  0  0  0
  3  4  1  0  0  0
  3 87  1  0  0  0
  3 88  1  0  0  0
  4  5  1  0  0  0
  4 89  1  0  0  0
  4 90  1  0  0  0
  5  6  1  0  0  0
  5 26  1  0  0  0
  5 91  1  0  0  0
  6 25  1  0  0  0
  6 92  1  0  0  0
  6 93  1  0  0  0
  7  8  2  0  0  0
  7 26  1  0  0  0
  7 29  1  0  0  0
  8  9  1  0  0  0
  8 22  1  0  0  0
  9 10  1  0  0  0
  9 27  2  0  0  0
 10 11  2  0  0  0
 10 15  1  0  0  0
 11 12  1  0  0  0
 11 94  1  0  0  0
 12 13  2  0  0  0
 12 95  1  0  0  0
 13 14  1  0  0  0
 13 31  1  0  0  0
 14 15  2  0  0  0
 14 96  1  0  0  0
 15 97  1  0  0  0
 16 17  2  0  0  0
 16 21  1  0  0  0
 16 31  1  0  0  0
 17 18  1  0  0  0
 17 98  1  0  0  0
 18 19  2  0  0  0
 18 99  1  0  0  0
 19 20  1  0  0  0
 19 24  1  0  0  0
 20 21  2  0  0  0
 20100  1  0  0  0
 21 23  1  0  0  0
 22 28  1  0  0  0
 22 32  2  0  0  0
 26 27  1  0  0  0
 28101  1  0  0  0
 28102  1  0  0  0
 29103  1  0  0  0
 29104  1  0  0  0
 33 34  1  0  0  0
 33 66  1  0  0  0
 33 70  2  0  0  0
 34 36  1  0  0  0
 34 59  1  0  0  0
 34105  1  0  0  0
 35 44  2  0  0  0
 35 45  1  0  0  0
 35 68  1  0  0  0
 36 56  1  0  0  0
 36106  1  0  0  0
 37 39  1  0  0  0
 37 47  1  0  0  0
 37 66  1  0  0  0
 37107  1  0  0  0
 38 43  2  0  0  0
 38 46  1  0  0  0
 38 47  1  0  0  0
 39 64  1  0  0  0
 39 67  2  0  0  0
 40 52  1  0  0  0
 40 53  2  0  0  0
 40 58  1  0  0  0
 41108  1  0  0  0
 41109  1  0  0  0
 41110  1  0  0  0
 41 48  1  0  0  0
 42 43  1  0  0  0
 42 66  1  0  0  0
 42111  1  0  0  0
 42112  1  0  0  0
 43 44  1  0  0  0
 44113  1  0  0  0
 45 46  2  0  0  0
 45114  1  0  0  0
 46115  1  0  0  0
 47116  1  0  0  0
 47117  1  0  0  0
 48 56  1  0  0  0
 48 65  1  0  0  0
 48118  1  0  0  0
 49 50  1  0  0  0
 49 53  1  0  0  0
 49 64  1  0  0  0
 49119  1  0  0  0
 50 51  1  0  0  0
 50120  1  0  0  0
 50121  1  0  0  0
 51 52  1  0  0  0
 51122  1  0  0  0
 51123  1  0  0  0
 52124  1  0  0  0
 52125  1  0  0  0
 53 54  1  0  0  0
 54 55  2  0  0  0
 54126  1  0  0  0
 55 57  1  0  0  0
 55127  1  0  0  0
 56 69  2  0  0  0
 57 58  2  0  0  0
 57128  1  0  0  0
 58129  1  0  0  0
 59 60  1  0  0  0
 59 61  1  0  0  0
 59 62  1  0  0  0
 60130  1  0  0  0
 60131  1  0  0  0
 60132  1  0  0  0
 61133  1  0  0  0
 61134  1  0  0  0
 61135  1  0  0  0
 62136  1  0  0  0
 62137  1  0  0  0
 62138  1  0  0  0
 63 65  1  0  0  0
 63139  1  0  0  0
 63140  1  0  0  0
 63141  1  0  0  0
 64142  1  0  0  0
 65143  1  0  0  0
 68 79  1  0  0  0
 71 72  2  0  0  0
 71 74  1  0  0  0
 71144  1  0  0  0
 72 75  1  0  0  0
 72145  1  0  0  0
 73 74  2  0  0  0
 73 76  1  0  0  0
 73146  1  0  0  0
 74 77  1  0  0  0
 75 76  2  0  0  0
 75 80  1  0  0  0
 76 84  1  0  0  0
 77 81  1  0  0  0
 77 82  2  0  0  0
 78 79  1  0  0  0
 78 81  1  0  0  0
 78 83  2  0  0  0
 79147  1  0  0  0
 79148  1  0  0  0
 80149  1  0  0  0
 81150  1  0  0  0
 82151  1  0  0  0
 82152  1  0  0  0
M  CHG  1  82   1
M  ISO  4   1 100  68 101  79 101  80 100
M  END
> <chiral flag>
0

> <version>
0

> <s_m_source_file>
/data/baiqing/PycharmProjects/Reinvent-master-3.2/result/LINK_invent/BTK/process_docking_weight1_custom_product_contain_oxygen_bond_distance_aromatic_linkinvent_7_9_3/rearranged_h_0069.sdf

> <i_m_source_file_index>
15

> <r_mmod_Potential_Energy-OPLS-2005>
-295.271911621094

> <r_mmod_Stretch_Energy-OPLS-2005>
84.8024520874023

> <r_mmod_Bend_Energy-OPLS-2005>
146.015975952148

> <r_mmod_Torsional_Energy-OPLS-2005>
224.659088134766

> <r_mmod_Improper_Torsional_Energy-OPLS-2005>
4.950608253479

> <r_mmod_Van_der_Waal_Energy-OPLS-2005>
155.929885864258

> <r_mmod_Electrostatic_Energy-OPLS-2005>
-497.979583740234

> <r_mmod_Solvation_Energy-OPLS-2005>
-464.569702148438

> <b_mmod_Minimization_Converged-OPLS-2005>
0

> <r_mmod_RMS_Derivative-OPLS-2005>
0.166535586118698

$$$$
16
                    3D
 Structure written by MMmdl.
162171  0  0  1  0            999 V2000
  -30.5784  -14.7516   20.4332 C   0  0  0  0  0  0
  -30.4341  -12.4490   19.4774 C   0  0  0  0  0  0
  -29.5138  -12.5196   18.2391 C   0  0  0  0  0  0
  -28.0376  -12.3492   18.6493 C   0  0  0  0  0  0
  -27.6472  -13.2276   19.8678 C   0  0  2  0  0  0
  -28.6940  -13.1386   21.0008 C   0  0  0  0  0  0
  -25.2528  -13.8196   20.5720 C   0  0  0  0  0  0
  -24.1807  -13.0434   20.9172 C   0  0  0  0  0  0
  -24.6389  -11.6910   20.8720 C   0  0  0  0  0  0
  -23.9060  -10.4302   21.0359 C   0  0  0  0  0  0
  -24.3602   -9.4229   21.9152 C   0  0  0  0  0  0
  -23.6271   -8.2272   22.0750 C   0  0  0  0  0  0
  -22.4255   -8.0305   21.3554 C   0  0  0  0  0  0
  -21.9876   -9.0264   20.4623 C   0  0  0  0  0  0
  -22.7222  -10.2139   20.3015 C   0  0  0  0  0  0
  -21.6858   -6.0740   22.5277 C   0  0  0  0  0  0
  -21.4025   -6.5627   23.8214 C   0  0  0  0  0  0
  -21.3680   -5.6764   24.9165 C   0  0  0  0  0  0
  -21.6061   -4.3034   24.7215 C   0  0  0  0  0  0
  -21.8810   -3.8140   23.4327 C   0  0  0  0  0  0
  -21.9187   -4.6971   22.3386 C   0  0  0  0  0  0
  -22.7834  -13.5225   21.1838 C   0  0  0  0  0  0
  -22.1637   -4.2156   21.0963 F   0  0  0  0  0  0
  -21.5651   -3.4516   25.7728 F   0  0  0  0  0  0
  -29.9954  -13.5021   20.4253 N   0  0  0  0  0  0
  -26.2966  -12.9387   20.3362 N   0  0  0  0  0  0
  -25.9328  -11.6541   20.5773 N   0  0  0  0  0  0
  -22.0476  -12.8208   22.0390 N   0  0  0  0  0  0
  -25.4197  -15.1921   20.4190 N   0  0  0  0  0  0
  -31.7317  -14.8895   20.0188 O   0  0  0  0  0  0
  -21.6646   -6.8894   21.4240 O   0  0  0  0  0  0
  -22.3538  -14.5551   20.6704 O   0  0  0  0  0  0
  -24.6363  -31.8534   23.1976 C   0  0  0  0  0  0
  -25.9186  -32.4744   23.8317 C   0  0  1  0  0  0
  -27.2040  -27.2300   20.1189 C   0  0  0  0  0  0
  -25.5983  -33.8545   24.2261 N   0  0  0  0  0  0
  -23.4303  -30.4791   21.5434 C   0  0  2  0  0  0
  -24.8743  -28.9270   20.1072 C   0  0  0  0  0  0
  -22.7517  -29.4609   22.4915 C   0  0  0  0  0  0
  -18.0290  -28.1403   22.8481 C   0  0  0  0  0  0
  -24.1503  -36.7264   23.2632 C   0  0  0  0  0  0
  -25.9798  -30.7554   21.3808 C   0  0  0  0  0  0
  -26.0483  -29.3754   20.7244 C   0  0  0  0  0  0
  -27.2140  -28.5371   20.7255 C   0  0  0  0  0  0
  -26.0115  -26.8768   19.4447 C   0  0  0  0  0  0
  -24.8629  -27.6880   19.4554 C   0  0  0  0  0  0
  -23.6481  -29.8170   20.1584 C   0  0  0  0  0  0
  -25.4131  -36.3055   24.0322 C   0  0  1  0  0  0
  -20.5897  -28.3721   23.1255 C   0  0  2  0  0  0
  -20.6786  -26.9438   22.5389 C   0  0  0  0  0  0
  -19.5753  -26.6390   21.5206 C   0  0  0  0  0  0
  -18.1931  -26.7946   22.1617 C   0  0  0  0  0  0
  -19.1543  -28.8884   23.2866 C   0  0  0  0  0  0
  -18.9469  -30.1488   23.8890 C   0  0  0  0  0  0
  -17.6467  -30.6603   24.0560 C   0  0  0  0  0  0
  -25.9078  -34.9429   23.5088 C   0  0  0  0  0  0
  -16.5361  -29.9095   23.6337 C   0  0  0  0  0  0
  -16.7278  -28.6512   23.0363 C   0  0  0  0  0  0
  -26.4559  -31.6563   25.0699 C   0  0  0  0  0  0
  -25.3762  -31.3659   26.1391 C   0  0  0  0  0  0
  -27.0437  -30.3004   24.6154 C   0  0  0  0  0  0
  -27.6122  -32.4286   25.7472 C   0  0  0  0  0  0
  -27.5584  -37.1789   24.8469 C   0  0  0  0  0  0
  -21.4224  -29.3066   22.3655 N   0  0  0  0  0  0
  -26.4300  -37.3753   23.9405 N   0  0  0  0  0  0
  -24.7020  -31.0463   22.0976 N   0  0  0  0  0  0
  -23.4209  -28.8130   23.3007 O   0  0  0  0  0  0
  -28.2702  -26.2916   20.2006 O   0  0  0  0  0  0
  -26.5614  -34.8901   22.4640 O   0  0  0  0  0  0
  -23.5510  -32.1399   23.7243 O   0  0  0  0  0  0
  -28.3042  -19.3598   18.7364 C   0  0  0  0  0  0
  -29.6268  -18.4752   20.5815 C   0  0  0  0  0  0
  -28.7457  -16.9520   18.8962 C   0  0  0  0  0  0
  -29.0481  -19.6362   19.9053 C   0  0  0  0  0  0
  -28.1370  -18.0461   18.2398 C   0  0  0  0  0  0
  -29.4761  -17.1026   20.0979 C   0  0  0  0  0  0
  -28.2313  -22.0763   20.3027 C   0  0  0  0  0  0
  -26.2944  -18.4146   16.5907 C   0  0  0  0  0  0
  -30.2346  -23.2657   20.0784 C   0  0  0  0  0  0
  -30.4890  -21.7446   20.3360 C   0  0  0  0  0  0
  -28.7916  -23.5423   20.5282 C   0  0  1  0  0  0
  -25.6490  -17.8251   15.3406 C   0  0  0  0  0  0
  -28.0013  -24.8249   19.8998 C   0  0  0  0  0  0
  -29.1891  -21.0797   20.2684 N   0  0  0  0  0  0
  -27.3779  -17.7704   17.0643 N   0  0  0  0  0  0
  -29.8199  -15.8487   20.8255 N   0  0  0  0  0  0
  -27.0179  -21.8685   20.2024 O   0  0  0  0  0  0
  -25.8025  -19.4242   17.0977 O   0  0  0  0  0  0
  -31.4776  -12.5699   19.1808 H   0  0  0  0  0  0
  -30.3721  -11.4679   19.9473 H   0  0  0  0  0  0
  -29.7900  -11.7490   17.5177 H   0  0  0  0  0  0
  -29.6550  -13.4769   17.7338 H   0  0  0  0  0  0
  -27.8840  -11.2979   18.8921 H   0  0  0  0  0  0
  -27.3817  -12.5638   17.8042 H   0  0  0  0  0  0
  -27.6416  -14.2551   19.5137 H   0  0  0  0  0  0
  -28.7292  -12.1277   21.4079 H   0  0  0  0  0  0
  -28.4306  -13.7911   21.8351 H   0  0  0  0  0  0
  -25.2754   -9.5734   22.4712 H   0  0  0  0  0  0
  -23.9998   -7.4659   22.7445 H   0  0  0  0  0  0
  -21.0821   -8.8755   19.8899 H   0  0  0  0  0  0
  -22.3663  -10.9656   19.6108 H   0  0  0  0  0  0
  -21.2009   -7.6131   23.9736 H   0  0  0  0  0  0
  -21.1521   -6.0485   25.9072 H   0  0  0  0  0  0
  -22.0569   -2.7607   23.2819 H   0  0  0  0  0  0
  -22.4046  -11.9837   22.4744 H   0  0  0  0  0  0
  -21.1120  -13.1283   22.2612 H   0  0  0  0  0  0
  -24.6484  -15.8402   20.5358 H   0  0  0  0  0  0
  -26.2727  -15.6463   20.1204 H   0  0  0  0  0  0
  -26.7238  -32.5397   23.1036 H   0  0  0  0  0  0
  -25.0222  -33.9683   25.0467 H   0  0  0  0  0  0
  -22.7270  -31.3026   21.3971 H   0  0  0  0  0  0
  -23.3774  -35.9585   23.3278 H   0  0  0  0  0  0
  -24.3598  -36.8908   22.2052 H   0  0  0  0  0  0
  -23.7260  -37.6450   23.6685 H   0  0  0  0  0  0
  -26.1145  -31.5100   20.6051 H   0  0  0  0  0  0
  -26.8599  -30.8106   22.0095 H   0  0  0  0  0  0
  -28.1082  -28.8664   21.2341 H   0  0  0  0  0  0
  -25.9254  -25.9455   18.9063 H   0  0  0  0  0  0
  -23.9681  -27.3475   18.9505 H   0  0  0  0  0  0
  -23.7725  -30.5936   19.4025 H   0  0  0  0  0  0
  -22.7662  -29.2513   19.8540 H   0  0  0  0  0  0
  -25.1322  -36.1891   25.0813 H   0  0  0  0  0  0
  -20.9986  -28.3309   24.1381 H   0  0  0  0  0  0
  -20.5697  -26.2345   23.3599 H   0  0  0  0  0  0
  -21.6653  -26.7468   22.1188 H   0  0  0  0  0  0
  -19.6915  -25.6288   21.1269 H   0  0  0  0  0  0
  -19.6702  -27.3170   20.6711 H   0  0  0  0  0  0
  -17.4206  -26.6717   21.4005 H   0  0  0  0  0  0
  -18.0320  -26.0081   22.9009 H   0  0  0  0  0  0
  -19.7939  -30.7304   24.2268 H   0  0  0  0  0  0
  -17.5012  -31.6289   24.5143 H   0  0  0  0  0  0
  -15.5357  -30.2998   23.7656 H   0  0  0  0  0  0
  -15.8681  -28.0825   22.7096 H   0  0  0  0  0  0
  -24.6009  -30.6952   25.7668 H   0  0  0  0  0  0
  -24.8868  -32.2795   26.4775 H   0  0  0  0  0  0
  -25.8075  -30.8862   27.0192 H   0  0  0  0  0  0
  -26.3030  -29.6692   24.1236 H   0  0  0  0  0  0
  -27.4234  -29.7311   25.4648 H   0  0  0  0  0  0
  -27.8844  -30.4311   23.9337 H   0  0  0  0  0  0
  -27.2804  -33.3646   26.1972 H   0  0  0  0  0  0
  -28.3988  -32.6735   25.0319 H   0  0  0  0  0  0
  -28.0732  -31.8437   26.5444 H   0  0  0  0  0  0
  -28.2579  -38.0102   24.7539 H   0  0  0  0  0  0
  -28.1114  -36.2637   24.6301 H   0  0  0  0  0  0
  -27.2293  -37.1431   25.8865 H   0  0  0  0  0  0
  -20.9422  -29.8839   21.6894 H   0  0  0  0  0  0
  -26.0176  -38.2823   24.1402 H   0  0  0  0  0  0
  -27.8705  -20.1895   18.1974 H   0  0  0  0  0  0
  -30.1714  -18.6374   21.5006 H   0  0  0  0  0  0
  -28.5945  -15.9620   18.4934 H   0  0  0  0  0  0
  -30.3265  -23.4787   19.0119 H   0  0  0  0  0  0
  -30.9594  -23.8930   20.5981 H   0  0  0  0  0  0
  -30.9134  -21.5852   21.3282 H   0  0  0  0  0  0
  -31.1793  -21.3253   19.6009 H   0  0  0  0  0  0
  -28.7904  -23.6728   21.6105 H   0  0  0  0  0  0
  -25.6022  -16.7378   15.4007 H   0  0  0  0  0  0
  -26.2141  -18.1046   14.4516 H   0  0  0  0  0  0
  -24.6290  -18.1954   15.2241 H   0  0  0  0  0  0
  -26.9743  -24.6247   20.2067 H   0  0  0  0  0  0
  -28.0067  -24.7199   18.8137 H   0  0  0  0  0  0
  -27.6184  -16.9242   16.5666 H   0  0  0  0  0  0
  -29.0637  -15.5461   21.4233 H   0  0  0  0  0  0
  1 25  1  0  0  0
  1 30  2  0  0  0
  1 86  1  0  0  0
  2  3  1  0  0  0
  2 25  1  0  0  0
  2 89  1  0  0  0
  2 90  1  0  0  0
  3  4  1  0  0  0
  3 91  1  0  0  0
  3 92  1  0  0  0
  4  5  1  0  0  0
  4 93  1  0  0  0
  4 94  1  0  0  0
  5  6  1  0  0  0
  5 26  1  0  0  0
  5 95  1  0  0  0
  6 25  1  0  0  0
  6 96  1  0  0  0
  6 97  1  0  0  0
  7  8  2  0  0  0
  7 26  1  0  0  0
  7 29  1  0  0  0
  8  9  1  0  0  0
  8 22  1  0  0  0
  9 10  1  0  0  0
  9 27  2  0  0  0
 10 11  2  0  0  0
 10 15  1  0  0  0
 11 12  1  0  0  0
 11 98  1  0  0  0
 12 13  2  0  0  0
 12 99  1  0  0  0
 13 14  1  0  0  0
 13 31  1  0  0  0
 14 15  2  0  0  0
 14100  1  0  0  0
 15101  1  0  0  0
 16 17  2  0  0  0
 16 21  1  0  0  0
 16 31  1  0  0  0
 17 18  1  0  0  0
 17102  1  0  0  0
 18 19  2  0  0  0
 18103  1  0  0  0
 19 20  1  0  0  0
 19 24  1  0  0  0
 20 21  2  0  0  0
 20104  1  0  0  0
 21 23  1  0  0  0
 22 28  1  0  0  0
 22 32  2  0  0  0
 26 27  1  0  0  0
 28105  1  0  0  0
 28106  1  0  0  0
 29107  1  0  0  0
 29108  1  0  0  0
 33 34  1  0  0  0
 33 66  1  0  0  0
 33 70  2  0  0  0
 34 36  1  0  0  0
 34 59  1  0  0  0
 34109  1  0  0  0
 35 44  2  0  0  0
 35 45  1  0  0  0
 35 68  1  0  0  0
 36 56  1  0  0  0
 36110  1  0  0  0
 37 39  1  0  0  0
 37 47  1  0  0  0
 37 66  1  0  0  0
 37111  1  0  0  0
 38 43  2  0  0  0
 38 46  1  0  0  0
 38 47  1  0  0  0
 39 64  1  0  0  0
 39 67  2  0  0  0
 40 52  1  0  0  0
 40 53  2  0  0  0
 40 58  1  0  0  0
 41112  1  0  0  0
 41113  1  0  0  0
 41114  1  0  0  0
 41 48  1  0  0  0
 42 43  1  0  0  0
 42 66  1  0  0  0
 42115  1  0  0  0
 42116  1  0  0  0
 43 44  1  0  0  0
 44117  1  0  0  0
 45 46  2  0  0  0
 45118  1  0  0  0
 46119  1  0  0  0
 47120  1  0  0  0
 47121  1  0  0  0
 48 56  1  0  0  0
 48 65  1  0  0  0
 48122  1  0  0  0
 49 50  1  0  0  0
 49 53  1  0  0  0
 49 64  1  0  0  0
 49123  1  0  0  0
 50 51  1  0  0  0
 50124  1  0  0  0
 50125  1  0  0  0
 51 52  1  0  0  0
 51126  1  0  0  0
 51127  1  0  0  0
 52128  1  0  0  0
 52129  1  0  0  0
 53 54  1  0  0  0
 54 55  2  0  0  0
 54130  1  0  0  0
 55 57  1  0  0  0
 55131  1  0  0  0
 56 69  2  0  0  0
 57 58  2  0  0  0
 57132  1  0  0  0
 58133  1  0  0  0
 59 60  1  0  0  0
 59 61  1  0  0  0
 59 62  1  0  0  0
 60134  1  0  0  0
 60135  1  0  0  0
 60136  1  0  0  0
 61137  1  0  0  0
 61138  1  0  0  0
 61139  1  0  0  0
 62140  1  0  0  0
 62141  1  0  0  0
 62142  1  0  0  0
 63 65  1  0  0  0
 63143  1  0  0  0
 63144  1  0  0  0
 63145  1  0  0  0
 64146  1  0  0  0
 65147  1  0  0  0
 68 83  1  0  0  0
 71 74  2  0  0  0
 71 75  1  0  0  0
 71148  1  0  0  0
 72 74  1  0  0  0
 72 76  2  0  0  0
 72149  1  0  0  0
 73 75  2  0  0  0
 73 76  1  0  0  0
 73150  1  0  0  0
 74 84  1  0  0  0
 75 85  1  0  0  0
 76 86  1  0  0  0
 77 81  1  0  0  0
 77 84  1  0  0  0
 77 87  2  0  0  0
 78 82  1  0  0  0
 78 85  1  0  0  0
 78 88  2  0  0  0
 79 80  1  0  0  0
 79 81  1  0  0  0
 79151  1  0  0  0
 79152  1  0  0  0
 80 84  1  0  0  0
 80153  1  0  0  0
 80154  1  0  0  0
 81 83  1  0  0  0
 81155  1  0  0  0
 82156  1  0  0  0
 82157  1  0  0  0
 82158  1  0  0  0
 83159  1  0  0  0
 83160  1  0  0  0
 85161  1  0  0  0
 86162  1  0  0  0
M  ISO  4   1 100  68 101  83 101  86 100
M  END
> <chiral flag>
0

> <version>
0

> <s_m_source_file>
/data/baiqing/PycharmProjects/Reinvent-master-3.2/result/LINK_invent/BTK/process_docking_weight1_custom_product_contain_oxygen_bond_distance_aromatic_linkinvent_7_9_3/rearranged_h_0069.sdf

> <i_m_source_file_index>
16

> <r_mmod_Potential_Energy-OPLS-2005>
300.902557373047

> <r_mmod_Stretch_Energy-OPLS-2005>
134.374725341797

> <r_mmod_Bend_Energy-OPLS-2005>
212.625228881836

> <r_mmod_Torsional_Energy-OPLS-2005>
336.955963134766

> <r_mmod_Improper_Torsional_Energy-OPLS-2005>
7.07921981811523

> <r_mmod_Van_der_Waal_Energy-OPLS-2005>
133.813735961914

> <r_mmod_Electrostatic_Energy-OPLS-2005>
-366.225891113281

> <r_mmod_Solvation_Energy-OPLS-2005>
-256.918090820312

> <b_mmod_Minimization_Converged-OPLS-2005>
0

> <r_mmod_RMS_Derivative-OPLS-2005>
2.80028581619263

$$$$
17
                    3D
 Structure written by MMmdl.
167176  0  0  1  0            999 V2000
  -30.5942  -14.7489   20.4740 C   0  0  0  0  0  0
  -30.4287  -12.4428   19.5213 C   0  0  0  0  0  0
  -29.5310  -12.4763   18.2637 C   0  0  0  0  0  0
  -28.0470  -12.3286   18.6576 C   0  0  0  0  0  0
  -27.6408  -13.2324   19.8543 C   0  0  2  0  0  0
  -28.6700  -13.1610   21.0024 C   0  0  0  0  0  0
  -25.2472  -13.8215   20.5631 C   0  0  0  0  0  0
  -24.1754  -13.0440   20.9152 C   0  0  0  0  0  0
  -24.6348  -11.6934   20.8666 C   0  0  0  0  0  0
  -23.9037  -10.4306   21.0356 C   0  0  0  0  0  0
  -24.3592   -9.4244   21.9160 C   0  0  0  0  0  0
  -23.6274   -8.2277   22.0770 C   0  0  0  0  0  0
  -22.4262   -8.0290   21.3562 C   0  0  0  0  0  0
  -21.9878   -9.0251   20.4657 C   0  0  0  0  0  0
  -22.7203  -10.2128   20.3034 C   0  0  0  0  0  0
  -21.6874   -6.0712   22.5282 C   0  0  0  0  0  0
  -21.4033   -6.5626   23.8205 C   0  0  0  0  0  0
  -21.3667   -5.6802   24.9180 C   0  0  0  0  0  0
  -21.6028   -4.3057   24.7252 C   0  0  0  0  0  0
  -21.8819   -3.8128   23.4383 C   0  0  0  0  0  0
  -21.9202   -4.6928   22.3423 C   0  0  0  0  0  0
  -22.7783  -13.5208   21.1821 C   0  0  0  0  0  0
  -22.1643   -4.2085   21.1012 F   0  0  0  0  0  0
  -21.5646   -3.4565   25.7784 F   0  0  0  0  0  0
  -29.9778  -13.5164   20.4393 N   0  0  0  0  0  0
  -26.2894  -12.9417   20.3227 N   0  0  0  0  0  0
  -25.9271  -11.6565   20.5667 N   0  0  0  0  0  0
  -22.0467  -12.8198   22.0422 N   0  0  0  0  0  0
  -25.4102  -15.1937   20.4077 N   0  0  0  0  0  0
  -31.7900  -14.8359   20.1729 O   0  0  0  0  0  0
  -21.6673   -6.8848   21.4237 O   0  0  0  0  0  0
  -22.3418  -14.5469   20.6640 O   0  0  0  0  0  0
  -24.6327  -31.8574   23.2004 C   0  0  0  0  0  0
  -25.9144  -32.4772   23.8338 C   0  0  1  0  0  0
  -27.2121  -27.2714   20.1115 C   0  0  0  0  0  0
  -25.5940  -33.8565   24.2250 N   0  0  0  0  0  0
  -23.4266  -30.4838   21.5484 C   0  0  2  0  0  0
  -24.8672  -28.9367   20.1111 C   0  0  0  0  0  0
  -22.7494  -29.4630   22.4950 C   0  0  0  0  0  0
  -18.0288  -28.1413   22.8487 C   0  0  0  0  0  0
  -24.1482  -36.7306   23.2624 C   0  0  0  0  0  0
  -25.9727  -30.7729   21.3768 C   0  0  0  0  0  0
  -26.0437  -29.3975   20.7157 C   0  0  0  0  0  0
  -27.2203  -28.5797   20.7023 C   0  0  0  0  0  0
  -26.0054  -26.8814   19.4816 C   0  0  0  0  0  0
  -24.8522  -27.6849   19.4850 C   0  0  0  0  0  0
  -23.6393  -29.8228   20.1630 C   0  0  0  0  0  0
  -25.4099  -36.3070   24.0312 C   0  0  1  0  0  0
  -20.5892  -28.3731   23.1285 C   0  0  2  0  0  0
  -20.6789  -26.9463   22.5413 C   0  0  0  0  0  0
  -19.5763  -26.6409   21.5225 C   0  0  0  0  0  0
  -18.1933  -26.7962   22.1627 C   0  0  0  0  0  0
  -19.1540  -28.8894   23.2873 C   0  0  0  0  0  0
  -18.9457  -30.1491   23.8900 C   0  0  0  0  0  0
  -17.6450  -30.6613   24.0572 C   0  0  0  0  0  0
  -25.9061  -34.9454   23.5083 C   0  0  0  0  0  0
  -16.5342  -29.9107   23.6340 C   0  0  0  0  0  0
  -16.7277  -28.6529   23.0365 C   0  0  0  0  0  0
  -26.4498  -31.6605   25.0744 C   0  0  0  0  0  0
  -25.3709  -31.3757   26.1461 C   0  0  0  0  0  0
  -27.0339  -30.3018   24.6247 C   0  0  0  0  0  0
  -27.6067  -32.4340   25.7510 C   0  0  0  0  0  0
  -27.5601  -37.1762   24.8425 C   0  0  0  0  0  0
  -21.4212  -29.3052   22.3661 N   0  0  0  0  0  0
  -26.4250  -37.3803   23.9455 N   0  0  0  0  0  0
  -24.6973  -31.0546   22.0979 N   0  0  0  0  0  0
  -23.4194  -28.8161   23.3038 O   0  0  0  0  0  0
  -28.3047  -26.3696   20.1682 O   0  0  0  0  0  0
  -26.5642  -34.8933   22.4656 O   0  0  0  0  0  0
  -23.5477  -32.1393   23.7297 O   0  0  0  0  0  0
  -29.7879  -18.4682   17.8411 C   0  0  0  0  0  0
  -29.5619  -19.6870   18.4843 C   0  0  0  0  0  0
  -29.5658  -18.5067   20.6123 C   0  0  0  0  0  0
  -29.9133  -17.2556   18.5422 C   0  0  0  0  0  0
  -29.4280  -19.7747   19.8833 C   0  0  0  0  0  0
  -29.8195  -17.2123   19.9676 C   0  0  0  0  0  0
  -29.6773  -21.7017   21.5321 C   0  0  0  0  0  0
  -28.4969  -22.2775   19.6761 C   0  0  0  0  0  0
  -29.5608  -23.2648   21.5724 C   0  0  0  0  0  0
  -29.0740  -23.6866   20.1295 C   0  0  1  0  0  0
  -30.0618  -16.0409   17.6477 C   0  0  0  0  0  0
  -30.9481  -23.8553   21.9417 C   0  0  0  0  0  0
  -28.5608  -23.6770   22.6786 C   0  0  0  0  0  0
  -30.2444  -23.9935   19.1611 C   0  0  0  0  0  0
  -28.0149  -24.9102   19.9745 C   0  0  0  0  0  0
  -29.1841  -21.1538   20.4047 N   0  0  0  0  0  0
  -29.8191  -15.8896   20.6700 N   0  0  0  0  0  0
  -30.1666  -21.0611   22.4681 O   0  0  0  0  0  0
  -31.4814  -12.5499   19.2511 H   0  0  0  0  0  0
  -30.3415  -11.4717   20.0143 H   0  0  0  0  0  0
  -29.8188  -11.6803   17.5741 H   0  0  0  0  0  0
  -29.6876  -13.4020   17.7179 H   0  0  0  0  0  0
  -27.8931  -11.2835   18.9292 H   0  0  0  0  0  0
  -27.4003  -12.5114   17.7991 H   0  0  0  0  0  0
  -27.6384  -14.2551   19.4788 H   0  0  0  0  0  0
  -28.6997  -12.1605   21.4366 H   0  0  0  0  0  0
  -28.3945  -13.8308   21.8186 H   0  0  0  0  0  0
  -25.2729   -9.5771   22.4720 H   0  0  0  0  0  0
  -23.9985   -7.4683   22.7507 H   0  0  0  0  0  0
  -21.0811   -8.8756   19.8973 H   0  0  0  0  0  0
  -22.3618  -10.9643   19.6146 H   0  0  0  0  0  0
  -21.2027   -7.6135   23.9686 H   0  0  0  0  0  0
  -21.1476   -6.0561   25.9073 H   0  0  0  0  0  0
  -22.0577   -2.7576   23.2968 H   0  0  0  0  0  0
  -22.4114  -11.9871   22.4812 H   0  0  0  0  0  0
  -21.1084  -13.1216   22.2638 H   0  0  0  0  0  0
  -24.6298  -15.8342   20.5051 H   0  0  0  0  0  0
  -26.2519  -15.6528   20.0806 H   0  0  0  0  0  0
  -26.7222  -32.5418   23.1090 H   0  0  0  0  0  0
  -25.0062  -33.9699   25.0376 H   0  0  0  0  0  0
  -22.7236  -31.3069   21.4078 H   0  0  0  0  0  0
  -23.3788  -35.9590   23.3145 H   0  0  0  0  0  0
  -24.3600  -36.9088   22.2072 H   0  0  0  0  0  0
  -23.7167  -37.6422   23.6763 H   0  0  0  0  0  0
  -26.1106  -31.5317   20.6053 H   0  0  0  0  0  0
  -26.8493  -30.8181   22.0107 H   0  0  0  0  0  0
  -28.1230  -28.9276   21.1855 H   0  0  0  0  0  0
  -25.9003  -25.9289   18.9875 H   0  0  0  0  0  0
  -23.9523  -27.3255   19.0046 H   0  0  0  0  0  0
  -23.7624  -30.6017   19.4100 H   0  0  0  0  0  0
  -22.7541  -29.2612   19.8589 H   0  0  0  0  0  0
  -25.1259  -36.1898   25.0797 H   0  0  0  0  0  0
  -20.9976  -28.3325   24.1413 H   0  0  0  0  0  0
  -20.5747  -26.2337   23.3603 H   0  0  0  0  0  0
  -21.6651  -26.7523   22.1180 H   0  0  0  0  0  0
  -19.6925  -25.6315   21.1268 H   0  0  0  0  0  0
  -19.6697  -27.3206   20.6746 H   0  0  0  0  0  0
  -17.4201  -26.6723   21.4022 H   0  0  0  0  0  0
  -18.0319  -26.0110   22.9035 H   0  0  0  0  0  0
  -19.7928  -30.7318   24.2284 H   0  0  0  0  0  0
  -17.5001  -31.6298   24.5180 H   0  0  0  0  0  0
  -15.5347  -30.3010   23.7682 H   0  0  0  0  0  0
  -15.8676  -28.0854   22.7083 H   0  0  0  0  0  0
  -24.5866  -30.7141   25.7765 H   0  0  0  0  0  0
  -24.8920  -32.2923   26.4910 H   0  0  0  0  0  0
  -25.7985  -30.8897   27.0237 H   0  0  0  0  0  0
  -26.2921  -29.6773   24.1259 H   0  0  0  0  0  0
  -27.3982  -29.7293   25.4784 H   0  0  0  0  0  0
  -27.8821  -30.4281   23.9517 H   0  0  0  0  0  0
  -27.2707  -33.3663   26.2064 H   0  0  0  0  0  0
  -28.3884  -32.6857   25.0332 H   0  0  0  0  0  0
  -28.0738  -31.8482   26.5437 H   0  0  0  0  0  0
  -28.2470  -38.0208   24.7703 H   0  0  0  0  0  0
  -28.1241  -36.2755   24.5947 H   0  0  0  0  0  0
  -27.2364  -37.1052   25.8823 H   0  0  0  0  0  0
  -20.9412  -29.8754   21.6845 H   0  0  0  0  0  0
  -26.0118  -38.2836   24.1611 H   0  0  0  0  0  0
  -29.8431  -18.4713   16.7611 H   0  0  0  0  0  0
  -29.5179  -20.5611   17.8536 H   0  0  0  0  0  0
  -29.4554  -18.5281   21.6899 H   0  0  0  0  0  0
  -28.5027  -22.1875   18.5906 H   0  0  0  0  0  0
  -27.4414  -22.2266   19.9495 H   0  0  0  0  0  0
  -30.8901  -15.3981   17.9329 H   0  0  0  0  0  0
  -30.2634  -16.3448   16.6198 H   0  0  0  0  0  0
  -29.1271  -15.4841   17.6284 H   0  0  0  0  0  0
  -31.7433  -23.4578   21.3097 H   0  0  0  0  0  0
  -31.2358  -23.6146   22.9659 H   0  0  0  0  0  0
  -30.9629  -24.9412   21.8504 H   0  0  0  0  0  0
  -27.5671  -23.2616   22.5101 H   0  0  0  0  0  0
  -28.4675  -24.7622   22.7359 H   0  0  0  0  0  0
  -28.8854  -23.3410   23.6654 H   0  0  0  0  0  0
  -30.9795  -23.1891   19.1369 H   0  0  0  0  0  0
  -30.7582  -24.9149   19.4336 H   0  0  0  0  0  0
  -29.8949  -24.1210   18.1363 H   0  0  0  0  0  0
  -27.1358  -24.6708   20.5728 H   0  0  0  0  0  0
  -27.6855  -24.8283   18.9386 H   0  0  0  0  0  0
  -28.9721  -15.7096   21.1891 H   0  0  0  0  0  0
  1 25  1  0  0  0
  1 30  2  0  0  0
  1 87  1  0  0  0
  2  3  1  0  0  0
  2 25  1  0  0  0
  2 89  1  0  0  0
  2 90  1  0  0  0
  3  4  1  0  0  0
  3 91  1  0  0  0
  3 92  1  0  0  0
  4  5  1  0  0  0
  4 93  1  0  0  0
  4 94  1  0  0  0
  5  6  1  0  0  0
  5 26  1  0  0  0
  5 95  1  0  0  0
  6 25  1  0  0  0
  6 96  1  0  0  0
  6 97  1  0  0  0
  7  8  2  0  0  0
  7 26  1  0  0  0
  7 29  1  0  0  0
  8  9  1  0  0  0
  8 22  1  0  0  0
  9 10  1  0  0  0
  9 27  2  0  0  0
 10 11  2  0  0  0
 10 15  1  0  0  0
 11 12  1  0  0  0
 11 98  1  0  0  0
 12 13  2  0  0  0
 12 99  1  0  0  0
 13 14  1  0  0  0
 13 31  1  0  0  0
 14 15  2  0  0  0
 14100  1  0  0  0
 15101  1  0  0  0
 16 17  2  0  0  0
 16 21  1  0  0  0
 16 31  1  0  0  0
 17 18  1  0  0  0
 17102  1  0  0  0
 18 19  2  0  0  0
 18103  1  0  0  0
 19 20  1  0  0  0
 19 24  1  0  0  0
 20 21  2  0  0  0
 20104  1  0  0  0
 21 23  1  0  0  0
 22 28  1  0  0  0
 22 32  2  0  0  0
 26 27  1  0  0  0
 28105  1  0  0  0
 28106  1  0  0  0
 29107  1  0  0  0
 29108  1  0  0  0
 33 34  1  0  0  0
 33 66  1  0  0  0
 33 70  2  0  0  0
 34 36  1  0  0  0
 34 59  1  0  0  0
 34109  1  0  0  0
 35 44  2  0  0  0
 35 45  1  0  0  0
 35 68  1  0  0  0
 36 56  1  0  0  0
 36110  1  0  0  0
 37 39  1  0  0  0
 37 47  1  0  0  0
 37 66  1  0  0  0
 37111  1  0  0  0
 38 43  2  0  0  0
 38 46  1  0  0  0
 38 47  1  0  0  0
 39 64  1  0  0  0
 39 67  2  0  0  0
 40 52  1  0  0  0
 40 53  2  0  0  0
 40 58  1  0  0  0
 41112  1  0  0  0
 41113  1  0  0  0
 41114  1  0  0  0
 41 48  1  0  0  0
 42 43  1  0  0  0
 42 66  1  0  0  0
 42115  1  0  0  0
 42116  1  0  0  0
 43 44  1  0  0  0
 44117  1  0  0  0
 45 46  2  0  0  0
 45118  1  0  0  0
 46119  1  0  0  0
 47120  1  0  0  0
 47121  1  0  0  0
 48 56  1  0  0  0
 48 65  1  0  0  0
 48122  1  0  0  0
 49 50  1  0  0  0
 49 53  1  0  0  0
 49 64  1  0  0  0
 49123  1  0  0  0
 50 51  1  0  0  0
 50124  1  0  0  0
 50125  1  0  0  0
 51 52  1  0  0  0
 51126  1  0  0  0
 51127  1  0  0  0
 52128  1  0  0  0
 52129  1  0  0  0
 53 54  1  0  0  0
 54 55  2  0  0  0
 54130  1  0  0  0
 55 57  1  0  0  0
 55131  1  0  0  0
 56 69  2  0  0  0
 57 58  2  0  0  0
 57132  1  0  0  0
 58133  1  0  0  0
 59 60  1  0  0  0
 59 61  1  0  0  0
 59 62  1  0  0  0
 60134  1  0  0  0
 60135  1  0  0  0
 60136  1  0  0  0
 61137  1  0  0  0
 61138  1  0  0  0
 61139  1  0  0  0
 62140  1  0  0  0
 62141  1  0  0  0
 62142  1  0  0  0
 63 65  1  0  0  0
 63143  1  0  0  0
 63144  1  0  0  0
 63145  1  0  0  0
 64146  1  0  0  0
 65147  1  0  0  0
 68 85  1  0  0  0
 71 72  2  0  0  0
 71 74  1  0  0  0
 71148  1  0  0  0
 72 75  1  0  0  0
 72149  1  0  0  0
 73 75  2  0  0  0
 73 76  1  0  0  0
 73150  1  0  0  0
 74 76  2  0  0  0
 74 81  1  0  0  0
 75 86  1  0  0  0
 76 87  1  0  0  0
 77 79  1  0  0  0
 77 86  1  0  0  0
 77 88  2  0  0  0
 78 80  1  0  0  0
 78 86  1  0  0  0
 78151  1  0  0  0
 78152  1  0  0  0
 79 80  1  0  0  0
 79 82  1  0  0  0
 79 83  1  0  0  0
 80 84  1  0  0  0
 80 85  1  0  0  0
 81153  1  0  0  0
 81154  1  0  0  0
 81155  1  0  0  0
 82156  1  0  0  0
 82157  1  0  0  0
 82158  1  0  0  0
 83159  1  0  0  0
 83160  1  0  0  0
 83161  1  0  0  0
 84162  1  0  0  0
 84163  1  0  0  0
 84164  1  0  0  0
 85165  1  0  0  0
 85166  1  0  0  0
 87167  1  0  0  0
M  ISO  4   1 100  68 101  85 101  87 100
M  END
> <chiral flag>
0

> <version>
0

> <s_m_source_file>
/data/baiqing/PycharmProjects/Reinvent-master-3.2/result/LINK_invent/BTK/process_docking_weight1_custom_product_contain_oxygen_bond_distance_aromatic_linkinvent_7_9_3/rearranged_h_0069.sdf

> <i_m_source_file_index>
17

> <r_mmod_Potential_Energy-OPLS-2005>
352.722991943359

> <r_mmod_Stretch_Energy-OPLS-2005>
133.613815307617

> <r_mmod_Bend_Energy-OPLS-2005>
213.790756225586

> <r_mmod_Torsional_Energy-OPLS-2005>
325.438568115234

> <r_mmod_Improper_Torsional_Energy-OPLS-2005>
5.77047824859619

> <r_mmod_Van_der_Waal_Energy-OPLS-2005>
156.777755737305

> <r_mmod_Electrostatic_Energy-OPLS-2005>
-352.064239501953

> <r_mmod_Solvation_Energy-OPLS-2005>
-216.592346191406

> <b_mmod_Minimization_Converged-OPLS-2005>
0

> <r_mmod_RMS_Derivative-OPLS-2005>
4.29365968704224

$$$$
18
                    3D
 Structure written by MMmdl.
154162  0  0  1  0            999 V2000
  -30.6313  -14.7188   20.4487 C   0  0  0  0  0  0
  -30.4355  -12.4453   19.4308 C   0  0  0  0  0  0
  -29.4972  -12.4668   18.2063 C   0  0  0  0  0  0
  -28.0236  -12.3128   18.6356 C   0  0  0  0  0  0
  -27.6358  -13.2235   19.8308 C   0  0  2  0  0  0
  -28.6923  -13.1546   20.9494 C   0  0  0  0  0  0
  -25.2528  -13.8196   20.5751 C   0  0  0  0  0  0
  -24.1802  -13.0445   20.9261 C   0  0  0  0  0  0
  -24.6391  -11.6937   20.8761 C   0  0  0  0  0  0
  -23.9060  -10.4302   21.0392 C   0  0  0  0  0  0
  -24.3604   -9.4215   21.9166 C   0  0  0  0  0  0
  -23.6285   -8.2241   22.0719 C   0  0  0  0  0  0
  -22.4265   -8.0271   21.3518 C   0  0  0  0  0  0
  -21.9911   -9.0249   20.4618 C   0  0  0  0  0  0
  -22.7234  -10.2137   20.3045 C   0  0  0  0  0  0
  -21.6860   -6.0731   22.5289 C   0  0  0  0  0  0
  -21.3983   -6.5637   23.8224 C   0  0  0  0  0  0
  -21.3649   -5.6770   24.9190 C   0  0  0  0  0  0
  -21.6054   -4.3038   24.7228 C   0  0  0  0  0  0
  -21.8818   -3.8151   23.4344 C   0  0  0  0  0  0
  -21.9182   -4.6957   22.3409 C   0  0  0  0  0  0
  -22.7839  -13.5230   21.1912 C   0  0  0  0  0  0
  -22.1663   -4.2168   21.0982 F   0  0  0  0  0  0
  -21.5633   -3.4512   25.7727 F   0  0  0  0  0  0
  -29.9851  -13.5094   20.3502 N   0  0  0  0  0  0
  -26.2906  -12.9368   20.3236 N   0  0  0  0  0  0
  -25.9298  -11.6527   20.5733 N   0  0  0  0  0  0
  -22.0432  -12.8220   22.0447 N   0  0  0  0  0  0
  -25.4275  -15.1920   20.4273 N   0  0  0  0  0  0
  -31.8427  -14.7920   20.2285 O   0  0  0  0  0  0
  -21.6626   -6.8868   21.4245 O   0  0  0  0  0  0
  -22.3538  -14.5535   20.6732 O   0  0  0  0  0  0
  -24.6324  -31.8564   23.1971 C   0  0  0  0  0  0
  -25.9151  -32.4787   23.8316 C   0  0  1  0  0  0
  -27.2110  -27.2515   20.1658 C   0  0  0  0  0  0
  -25.5939  -33.8587   24.2244 N   0  0  0  0  0  0
  -23.4288  -30.4765   21.5361 C   0  0  2  0  0  0
  -24.8810  -28.9224   20.1065 C   0  0  0  0  0  0
  -22.7510  -29.4602   22.4868 C   0  0  0  0  0  0
  -18.0294  -28.1412   22.8517 C   0  0  0  0  0  0
  -24.1485  -36.7268   23.2633 C   0  0  0  0  0  0
  -25.9728  -30.7687   21.3769 C   0  0  0  0  0  0
  -26.0468  -29.3873   20.7269 C   0  0  0  0  0  0
  -27.2166  -28.5632   20.7461 C   0  0  0  0  0  0
  -26.0342  -26.8592   19.4938 C   0  0  0  0  0  0
  -24.8822  -27.6715   19.4666 C   0  0  0  0  0  0
  -23.6518  -29.8097   20.1509 C   0  0  0  0  0  0
  -25.4110  -36.3076   24.0327 C   0  0  1  0  0  0
  -20.5913  -28.3690   23.1285 C   0  0  2  0  0  0
  -20.6771  -26.9409   22.5416 C   0  0  0  0  0  0
  -19.5742  -26.6399   21.5233 C   0  0  0  0  0  0
  -18.1926  -26.7958   22.1653 C   0  0  0  0  0  0
  -19.1564  -28.8868   23.2902 C   0  0  0  0  0  0
  -18.9482  -30.1473   23.8912 C   0  0  0  0  0  0
  -17.6479  -30.6606   24.0574 C   0  0  0  0  0  0
  -25.9043  -34.9462   23.5073 C   0  0  0  0  0  0
  -16.5371  -29.9107   23.6347 C   0  0  0  0  0  0
  -16.7284  -28.6529   23.0363 C   0  0  0  0  0  0
  -26.4492  -31.6636   25.0733 C   0  0  0  0  0  0
  -25.3679  -31.3832   26.1424 C   0  0  0  0  0  0
  -27.0326  -30.3061   24.6211 C   0  0  0  0  0  0
  -27.6012  -32.4401   25.7509 C   0  0  0  0  0  0
  -27.5568  -37.1769   24.8455 C   0  0  0  0  0  0
  -21.4206  -29.3046   22.3663 N   0  0  0  0  0  0
  -26.4265  -37.3793   23.9438 N   0  0  0  0  0  0
  -24.6958  -31.0525   22.0929 N   0  0  0  0  0  0
  -23.4234  -28.8118   23.2939 O   0  0  0  0  0  0
  -28.2962  -26.3487   20.2231 O   0  0  0  0  0  0
  -26.5607  -34.8925   22.4639 O   0  0  0  0  0  0
  -23.5472  -32.1351   23.7282 O   0  0  0  0  0  0
  -29.6220  -18.4827   20.3687 C   0  0  0  0  0  0
  -31.1005  -17.3982   21.9613 C   0  0  0  0  0  0
  -30.7890  -19.8436   22.0313 C   0  0  0  0  0  0
  -30.1968  -17.2485   20.8922 C   0  0  0  0  0  0
  -29.8941  -19.8114   20.9171 C   0  0  0  0  0  0
  -31.3835  -18.6556   22.5204 C   0  0  0  0  0  0
  -28.8541  -22.2320   20.8645 C   0  0  0  0  0  0
  -31.1831  -21.1426   22.7204 C   0  0  0  0  0  0
  -28.9564  -23.6844   20.1841 C   0  0  0  0  0  0
  -28.0538  -24.9353   20.6999 C   0  0  0  0  0  0
  -29.4366  -21.0970   20.3034 N   0  0  0  0  0  0
  -29.8557  -15.8692   20.4651 N   0  0  0  0  0  0
  -28.2145  -22.1384   21.9154 O   0  0  0  0  0  0
  -32.2515  -18.7085   23.5604 F   0  0  0  0  0  0
  -31.4668  -12.5869   19.1067 H   0  0  0  0  0  0
  -30.4042  -11.4727   19.9247 H   0  0  0  0  0  0
  -29.7659  -11.6632   17.5182 H   0  0  0  0  0  0
  -29.6290  -13.3969   17.6538 H   0  0  0  0  0  0
  -27.8800  -11.2684   18.9108 H   0  0  0  0  0  0
  -27.3617  -12.4879   17.7873 H   0  0  0  0  0  0
  -27.6236  -14.2425   19.4435 H   0  0  0  0  0  0
  -28.7299  -12.1545   21.3831 H   0  0  0  0  0  0
  -28.4380  -13.8316   21.7632 H   0  0  0  0  0  0
  -25.2730   -9.5695   22.4755 H   0  0  0  0  0  0
  -23.9997   -7.4624   22.7425 H   0  0  0  0  0  0
  -21.0837   -8.8751   19.8930 H   0  0  0  0  0  0
  -22.3661  -10.9657   19.6161 H   0  0  0  0  0  0
  -21.1956   -7.6146   23.9726 H   0  0  0  0  0  0
  -21.1476   -6.0509   25.9089 H   0  0  0  0  0  0
  -22.0605   -2.7614   23.2843 H   0  0  0  0  0  0
  -22.3997  -11.9935   22.4945 H   0  0  0  0  0  0
  -21.1015  -13.1240   22.2515 H   0  0  0  0  0  0
  -24.6724  -15.8554   20.5735 H   0  0  0  0  0  0
  -26.2900  -15.6353   20.1397 H   0  0  0  0  0  0
  -26.7193  -32.5468   23.1026 H   0  0  0  0  0  0
  -25.0135  -33.9703   25.0425 H   0  0  0  0  0  0
  -22.7267  -31.2985   21.3889 H   0  0  0  0  0  0
  -23.3755  -35.9579   23.3293 H   0  0  0  0  0  0
  -24.3574  -36.8916   22.2040 H   0  0  0  0  0  0
  -23.7206  -37.6452   23.6675 H   0  0  0  0  0  0
  -26.1015  -31.5267   20.6040 H   0  0  0  0  0  0
  -26.8510  -30.8274   22.0064 H   0  0  0  0  0  0
  -28.1050  -28.9039   21.2549 H   0  0  0  0  0  0
  -25.9979  -25.9019   18.9935 H   0  0  0  0  0  0
  -23.9953  -27.3267   18.9511 H   0  0  0  0  0  0
  -23.7788  -30.5885   19.3959 H   0  0  0  0  0  0
  -22.7716  -29.2427   19.8414 H   0  0  0  0  0  0
  -25.1288  -36.1859   25.0809 H   0  0  0  0  0  0
  -21.0014  -28.3240   24.1406 H   0  0  0  0  0  0
  -20.5681  -26.2283   23.3604 H   0  0  0  0  0  0
  -21.6621  -26.7416   22.1201 H   0  0  0  0  0  0
  -19.6876  -25.6306   21.1261 H   0  0  0  0  0  0
  -19.6687  -27.3206   20.6767 H   0  0  0  0  0  0
  -17.4185  -26.6744   21.4056 H   0  0  0  0  0  0
  -18.0311  -26.0098   22.9049 H   0  0  0  0  0  0
  -19.7949  -30.7304   24.2289 H   0  0  0  0  0  0
  -17.5027  -31.6285   24.5163 H   0  0  0  0  0  0
  -15.5376  -30.3007   23.7661 H   0  0  0  0  0  0
  -15.8693  -28.0843   22.7069 H   0  0  0  0  0  0
  -24.5825  -30.7234   25.7737 H   0  0  0  0  0  0
  -24.8892  -32.3042   26.4778 H   0  0  0  0  0  0
  -25.7935  -30.9033   27.0242 H   0  0  0  0  0  0
  -26.2895  -29.6835   24.1206 H   0  0  0  0  0  0
  -27.3988  -29.7314   25.4718 H   0  0  0  0  0  0
  -27.8796  -30.4365   23.9464 H   0  0  0  0  0  0
  -27.2570  -33.3684   26.2062 H   0  0  0  0  0  0
  -28.3819  -32.6994   25.0364 H   0  0  0  0  0  0
  -28.0667  -31.8559   26.5452 H   0  0  0  0  0  0
  -28.2531  -38.0114   24.7578 H   0  0  0  0  0  0
  -28.1118  -36.2652   24.6182 H   0  0  0  0  0  0
  -27.2313  -37.1278   25.8861 H   0  0  0  0  0  0
  -20.9382  -29.8796   21.6892 H   0  0  0  0  0  0
  -26.0135  -38.2847   24.1518 H   0  0  0  0  0  0
  -28.9611  -18.4126   19.5184 H   0  0  0  0  0  0
  -31.5817  -16.5395   22.4041 H   0  0  0  0  0  0
  -31.5214  -21.8817   21.9977 H   0  0  0  0  0  0
  -31.9940  -21.0041   23.4343 H   0  0  0  0  0  0
  -30.3357  -21.5440   23.2755 H   0  0  0  0  0  0
  -28.8180  -23.5676   19.1085 H   0  0  0  0  0  0
  -29.9952  -23.9868   20.3218 H   0  0  0  0  0  0
  -27.0071  -24.6573   20.5690 H   0  0  0  0  0  0
  -28.1654  -24.9792   21.7860 H   0  0  0  0  0  0
  -29.7249  -21.2222   19.3413 H   0  0  0  0  0  0
  -28.8860  -15.7153   20.2337 H   0  0  0  0  0  0
  1 25  1  0  0  0
  1 30  2  0  0  0
  1 82  1  0  0  0
  2  3  1  0  0  0
  2 25  1  0  0  0
  2 85  1  0  0  0
  2 86  1  0  0  0
  3  4  1  0  0  0
  3 87  1  0  0  0
  3 88  1  0  0  0
  4  5  1  0  0  0
  4 89  1  0  0  0
  4 90  1  0  0  0
  5  6  1  0  0  0
  5 26  1  0  0  0
  5 91  1  0  0  0
  6 25  1  0  0  0
  6 92  1  0  0  0
  6 93  1  0  0  0
  7  8  2  0  0  0
  7 26  1  0  0  0
  7 29  1  0  0  0
  8  9  1  0  0  0
  8 22  1  0  0  0
  9 10  1  0  0  0
  9 27  2  0  0  0
 10 11  2  0  0  0
 10 15  1  0  0  0
 11 12  1  0  0  0
 11 94  1  0  0  0
 12 13  2  0  0  0
 12 95  1  0  0  0
 13 14  1  0  0  0
 13 31  1  0  0  0
 14 15  2  0  0  0
 14 96  1  0  0  0
 15 97  1  0  0  0
 16 17  2  0  0  0
 16 21  1  0  0  0
 16 31  1  0  0  0
 17 18  1  0  0  0
 17 98  1  0  0  0
 18 19  2  0  0  0
 18 99  1  0  0  0
 19 20  1  0  0  0
 19 24  1  0  0  0
 20 21  2  0  0  0
 20100  1  0  0  0
 21 23  1  0  0  0
 22 28  1  0  0  0
 22 32  2  0  0  0
 26 27  1  0  0  0
 28101  1  0  0  0
 28102  1  0  0  0
 29103  1  0  0  0
 29104  1  0  0  0
 33 34  1  0  0  0
 33 66  1  0  0  0
 33 70  2  0  0  0
 34 36  1  0  0  0
 34 59  1  0  0  0
 34105  1  0  0  0
 35 44  2  0  0  0
 35 45  1  0  0  0
 35 68  1  0  0  0
 36 56  1  0  0  0
 36106  1  0  0  0
 37 39  1  0  0  0
 37 47  1  0  0  0
 37 66  1  0  0  0
 37107  1  0  0  0
 38 43  2  0  0  0
 38 46  1  0  0  0
 38 47  1  0  0  0
 39 64  1  0  0  0
 39 67  2  0  0  0
 40 52  1  0  0  0
 40 53  2  0  0  0
 40 58  1  0  0  0
 41108  1  0  0  0
 41109  1  0  0  0
 41110  1  0  0  0
 41 48  1  0  0  0
 42 43  1  0  0  0
 42 66  1  0  0  0
 42111  1  0  0  0
 42112  1  0  0  0
 43 44  1  0  0  0
 44113  1  0  0  0
 45 46  2  0  0  0
 45114  1  0  0  0
 46115  1  0  0  0
 47116  1  0  0  0
 47117  1  0  0  0
 48 56  1  0  0  0
 48 65  1  0  0  0
 48118  1  0  0  0
 49 50  1  0  0  0
 49 53  1  0  0  0
 49 64  1  0  0  0
 49119  1  0  0  0
 50 51  1  0  0  0
 50120  1  0  0  0
 50121  1  0  0  0
 51 52  1  0  0  0
 51122  1  0  0  0
 51123  1  0  0  0
 52124  1  0  0  0
 52125  1  0  0  0
 53 54  1  0  0  0
 54 55  2  0  0  0
 54126  1  0  0  0
 55 57  1  0  0  0
 55127  1  0  0  0
 56 69  2  0  0  0
 57 58  2  0  0  0
 57128  1  0  0  0
 58129  1  0  0  0
 59 60  1  0  0  0
 59 61  1  0  0  0
 59 62  1  0  0  0
 60130  1  0  0  0
 60131  1  0  0  0
 60132  1  0  0  0
 61133  1  0  0  0
 61134  1  0  0  0
 61135  1  0  0  0
 62136  1  0  0  0
 62137  1  0  0  0
 62138  1  0  0  0
 63 65  1  0  0  0
 63139  1  0  0  0
 63140  1  0  0  0
 63141  1  0  0  0
 64142  1  0  0  0
 65143  1  0  0  0
 68 80  1  0  0  0
 71 74  2  0  0  0
 71 75  1  0  0  0
 71144  1  0  0  0
 72 74  1  0  0  0
 72 76  2  0  0  0
 72145  1  0  0  0
 73 75  2  0  0  0
 73 76  1  0  0  0
 73 78  1  0  0  0
 74 82  1  0  0  0
 75 81  1  0  0  0
 76 84  1  0  0  0
 77 79  1  0  0  0
 77 81  1  0  0  0
 77 83  2  0  0  0
 78146  1  0  0  0
 78147  1  0  0  0
 78148  1  0  0  0
 79 80  1  0  0  0
 79149  1  0  0  0
 79150  1  0  0  0
 80151  1  0  0  0
 80152  1  0  0  0
 81153  1  0  0  0
 82154  1  0  0  0
M  ISO  4   1 100  68 101  80 101  82 100
M  END
> <chiral flag>
0

> <version>
0

> <s_m_source_file>
/data/baiqing/PycharmProjects/Reinvent-master-3.2/result/LINK_invent/BTK/process_docking_weight1_custom_product_contain_oxygen_bond_distance_aromatic_linkinvent_7_9_3/rearranged_h_0069.sdf

> <i_m_source_file_index>
18

> <r_mmod_Potential_Energy-OPLS-2005>
191.581604003906

> <r_mmod_Stretch_Energy-OPLS-2005>
127.399795532227

> <r_mmod_Bend_Energy-OPLS-2005>
154.76953125

> <r_mmod_Torsional_Energy-OPLS-2005>
281.894165039062

> <r_mmod_Improper_Torsional_Energy-OPLS-2005>
9.1177453994751

> <r_mmod_Van_der_Waal_Energy-OPLS-2005>
142.193405151367

> <r_mmod_Electrostatic_Energy-OPLS-2005>
-379.675903320312

> <r_mmod_Solvation_Energy-OPLS-2005>
-233.211334228516

> <b_mmod_Minimization_Converged-OPLS-2005>
0

> <r_mmod_RMS_Derivative-OPLS-2005>
4.88482999801636

$$$$
19
                    3D
 Structure written by MMmdl.
162170  0  0  1  0            999 V2000
  -30.6107  -14.8854   20.4187 C   0  0  0  0  0  0
  -30.4281  -12.5613   19.4627 C   0  0  0  0  0  0
  -29.4992  -12.5039   18.2311 C   0  0  0  0  0  0
  -28.0344  -12.3121   18.6652 C   0  0  0  0  0  0
  -27.6260  -13.2490   19.8343 C   0  0  2  0  0  0
  -28.6826  -13.2778   20.9568 C   0  0  0  0  0  0
  -25.2435  -13.8218   20.5676 C   0  0  0  0  0  0
  -24.1773  -13.0445   20.9240 C   0  0  0  0  0  0
  -24.6401  -11.6937   20.8813 C   0  0  0  0  0  0
  -23.9091  -10.4300   21.0443 C   0  0  0  0  0  0
  -24.3640   -9.4199   21.9208 C   0  0  0  0  0  0
  -23.6304   -8.2236   22.0760 C   0  0  0  0  0  0
  -22.4289   -8.0284   21.3542 C   0  0  0  0  0  0
  -21.9936   -9.0265   20.4655 C   0  0  0  0  0  0
  -22.7268  -10.2138   20.3078 C   0  0  0  0  0  0
  -21.6860   -6.0736   22.5276 C   0  0  0  0  0  0
  -21.4019   -6.5644   23.8206 C   0  0  0  0  0  0
  -21.3658   -5.6797   24.9168 C   0  0  0  0  0  0
  -21.6040   -4.3058   24.7222 C   0  0  0  0  0  0
  -21.8822   -3.8148   23.4345 C   0  0  0  0  0  0
  -21.9195   -4.6965   22.3401 C   0  0  0  0  0  0
  -22.7795  -13.5219   21.1871 C   0  0  0  0  0  0
  -22.1663   -4.2152   21.0978 F   0  0  0  0  0  0
  -21.5624   -3.4543   25.7734 F   0  0  0  0  0  0
  -29.9424  -13.6745   20.3210 N   0  0  0  0  0  0
  -26.2893  -12.9465   20.3309 N   0  0  0  0  0  0
  -25.9343  -11.6595   20.5844 N   0  0  0  0  0  0
  -22.0448  -12.8197   22.0430 N   0  0  0  0  0  0
  -25.4019  -15.1907   20.3860 N   0  0  0  0  0  0
  -31.8372  -14.8555   20.3123 O   0  0  0  0  0  0
  -21.6639   -6.8878   21.4238 O   0  0  0  0  0  0
  -22.3482  -14.5519   20.6705 O   0  0  0  0  0  0
  -24.6410  -31.8467   23.1906 C   0  0  0  0  0  0
  -25.9195  -32.4707   23.8293 C   0  0  1  0  0  0
  -27.2143  -27.1685   20.1556 C   0  0  0  0  0  0
  -25.5954  -33.8516   24.2210 N   0  0  0  0  0  0
  -23.4439  -30.4680   21.5349 C   0  0  2  0  0  0
  -24.8937  -28.8918   20.1231 C   0  0  0  0  0  0
  -22.7547  -29.4584   22.4873 C   0  0  0  0  0  0
  -18.0338  -28.1353   22.8481 C   0  0  0  0  0  0
  -24.1492  -36.7271   23.2643 C   0  0  0  0  0  0
  -25.9984  -30.7288   21.3877 C   0  0  0  0  0  0
  -26.0706  -29.3378   20.7417 C   0  0  0  0  0  0
  -27.2388  -28.4889   20.7477 C   0  0  0  0  0  0
  -26.0158  -26.8102   19.5106 C   0  0  0  0  0  0
  -24.8745  -27.6365   19.4967 C   0  0  0  0  0  0
  -23.6718  -29.7945   20.1562 C   0  0  0  0  0  0
  -25.4120  -36.3046   24.0316 C   0  0  1  0  0  0
  -20.5938  -28.3705   23.1222 C   0  0  2  0  0  0
  -20.6840  -26.9430   22.5353 C   0  0  0  0  0  0
  -19.5794  -26.6382   21.5183 C   0  0  0  0  0  0
  -18.1984  -26.7896   22.1624 C   0  0  0  0  0  0
  -19.1582  -28.8836   23.2862 C   0  0  0  0  0  0
  -18.9489  -30.1429   23.8885 C   0  0  0  0  0  0
  -17.6484  -30.6552   24.0554 C   0  0  0  0  0  0
  -25.9072  -34.9419   23.5075 C   0  0  0  0  0  0
  -16.5376  -29.9057   23.6309 C   0  0  0  0  0  0
  -16.7317  -28.6473   23.0348 C   0  0  0  0  0  0
  -26.4532  -31.6558   25.0722 C   0  0  0  0  0  0
  -25.3721  -31.3741   26.1423 C   0  0  0  0  0  0
  -27.0392  -30.2953   24.6282 C   0  0  0  0  0  0
  -27.6059  -32.4325   25.7517 C   0  0  0  0  0  0
  -27.5574  -37.1792   24.8465 C   0  0  0  0  0  0
  -21.4248  -29.3062   22.3605 N   0  0  0  0  0  0
  -26.4283  -37.3752   23.9410 N   0  0  0  0  0  0
  -24.7138  -31.0356   22.0929 N   0  0  0  0  0  0
  -23.4182  -28.8138   23.3029 O   0  0  0  0  0  0
  -28.2565  -26.1968   20.0500 O   0  0  0  0  0  0
  -26.5654  -34.8909   22.4655 O   0  0  0  0  0  0
  -23.5533  -32.1334   23.7129 O   0  0  0  0  0  0
  -27.7536  -19.6058   21.3396 C   0  0  0  0  0  0
  -28.1919  -17.1712   21.3057 C   0  0  0  0  0  0
  -29.7277  -18.7316   20.2443 C   0  0  0  0  0  0
  -27.3916  -18.2780   21.6921 C   0  0  0  0  0  0
  -28.9340  -19.9154   20.6364 C   0  0  0  0  0  0
  -29.3724  -17.3255   20.5493 C   0  0  0  0  0  0
  -28.4978  -25.1819   21.0350 C   0  0  0  0  0  0
  -28.7034  -23.7779   21.1330 C   0  0  0  0  0  0
  -28.5764  -22.5583   20.2114 C   0  0  0  0  0  0
  -24.3273  -19.3674   23.2881 C   0  0  0  0  0  0
  -23.8160  -20.6193   23.9660 C   0  0  0  0  0  0
  -23.2337  -18.4099   22.8465 C   0  0  0  0  0  0
  -26.0989  -18.0060   22.4632 C   0  0  2  0  0  0
  -25.5791  -19.1935   23.1258 N   0  0  0  0  0  0
  -29.2949  -21.3891   20.5662 N   0  0  0  0  0  0
  -30.0182  -16.0861   19.9719 N   0  0  0  0  0  0
  -27.8601  -22.5534   19.2109 O   0  0  0  0  0  0
  -29.0307  -23.3981   22.3791 O   0  0  0  0  0  0
  -26.3232  -17.0858   23.4023 F   0  0  0  0  0  0
  -31.4594  -12.7085   19.1357 H   0  0  0  0  0  0
  -30.4150  -11.6169   20.0089 H   0  0  0  0  0  0
  -29.8002  -11.6948   17.5646 H   0  0  0  0  0  0
  -29.5905  -13.4273   17.6567 H   0  0  0  0  0  0
  -27.9182  -11.2717   18.9714 H   0  0  0  0  0  0
  -27.3659  -12.4549   17.8154 H   0  0  0  0  0  0
  -27.5886  -14.2517   19.4073 H   0  0  0  0  0  0
  -28.7758  -12.3027   21.4379 H   0  0  0  0  0  0
  -28.4101  -13.9878   21.7382 H   0  0  0  0  0  0
  -25.2781   -9.5663   22.4787 H   0  0  0  0  0  0
  -24.0010   -7.4625   22.7482 H   0  0  0  0  0  0
  -21.0865   -8.8791   19.8963 H   0  0  0  0  0  0
  -22.3738  -10.9681   19.6192 H   0  0  0  0  0  0
  -21.2021   -7.6155   23.9710 H   0  0  0  0  0  0
  -21.1474   -6.0526   25.9067 H   0  0  0  0  0  0
  -22.0607   -2.7612   23.2843 H   0  0  0  0  0  0
  -22.4092  -11.9859   22.4799 H   0  0  0  0  0  0
  -21.1068  -13.1200   22.2664 H   0  0  0  0  0  0
  -24.5952  -15.8021   20.3864 H   0  0  0  0  0  0
  -26.2194  -15.6024   19.9558 H   0  0  0  0  0  0
  -26.7256  -32.5331   23.1021 H   0  0  0  0  0  0
  -25.0062  -33.9637   25.0328 H   0  0  0  0  0  0
  -22.7461  -31.2937   21.3786 H   0  0  0  0  0  0
  -23.3748  -35.9608   23.3289 H   0  0  0  0  0  0
  -24.3574  -36.8917   22.2060 H   0  0  0  0  0  0
  -23.7251  -37.6468   23.6684 H   0  0  0  0  0  0
  -26.1483  -31.4782   20.6094 H   0  0  0  0  0  0
  -26.8708  -30.7841   22.0262 H   0  0  0  0  0  0
  -28.1464  -28.8295   21.2264 H   0  0  0  0  0  0
  -25.9595  -25.8481   19.0200 H   0  0  0  0  0  0
  -23.9766  -27.2880   19.0052 H   0  0  0  0  0  0
  -23.8133  -30.5674   19.3995 H   0  0  0  0  0  0
  -22.7870  -29.2383   19.8416 H   0  0  0  0  0  0
  -25.1302  -36.1875   25.0802 H   0  0  0  0  0  0
  -21.0021  -28.3286   24.1349 H   0  0  0  0  0  0
  -21.6697  -26.7482   22.1099 H   0  0  0  0  0  0
  -20.5775  -26.2344   23.3575 H   0  0  0  0  0  0
  -19.6991  -25.6307   21.1184 H   0  0  0  0  0  0
  -19.6677  -27.3220   20.6723 H   0  0  0  0  0  0
  -17.4247  -26.6628   21.4029 H   0  0  0  0  0  0
  -18.0414  -26.0036   22.9019 H   0  0  0  0  0  0
  -19.7974  -30.7256   24.2234 H   0  0  0  0  0  0
  -17.5026  -31.6225   24.5168 H   0  0  0  0  0  0
  -15.5373  -30.2959   23.7626 H   0  0  0  0  0  0
  -15.8737  -28.0791   22.7061 H   0  0  0  0  0  0
  -24.5895  -30.7093   25.7751 H   0  0  0  0  0  0
  -24.8914  -32.2920   26.4813 H   0  0  0  0  0  0
  -25.8014  -30.8939   27.0222 H   0  0  0  0  0  0
  -26.3001  -29.6677   24.1282 H   0  0  0  0  0  0
  -27.4008  -29.7255   25.4852 H   0  0  0  0  0  0
  -27.8914  -30.4196   23.9594 H   0  0  0  0  0  0
  -27.2635  -33.3627   26.2065 H   0  0  0  0  0  0
  -28.3894  -32.6879   25.0369 H   0  0  0  0  0  0
  -28.0698  -31.8468   26.5459 H   0  0  0  0  0  0
  -28.2587  -38.0096   24.7506 H   0  0  0  0  0  0
  -28.1079  -36.2623   24.6292 H   0  0  0  0  0  0
  -27.2296  -37.1442   25.8872 H   0  0  0  0  0  0
  -20.9469  -29.8712   21.6728 H   0  0  0  0  0  0
  -26.0154  -38.2826   24.1398 H   0  0  0  0  0  0
  -27.1291  -20.4278   21.6547 H   0  0  0  0  0  0
  -27.8474  -16.1785   21.5567 H   0  0  0  0  0  0
  -30.6328  -18.9072   19.6805 H   0  0  0  0  0  0
  -28.6055  -25.7158   21.9700 H   0  0  0  0  0  0
  -23.1061  -21.1324   23.3176 H   0  0  0  0  0  0
  -24.6319  -21.3076   24.1877 H   0  0  0  0  0  0
  -23.3158  -20.3645   24.9009 H   0  0  0  0  0  0
  -23.4142  -17.4097   23.2428 H   0  0  0  0  0  0
  -23.1893  -18.3598   21.7579 H   0  0  0  0  0  0
  -22.2580  -18.7411   23.2029 H   0  0  0  0  0  0
  -25.3935  -17.5665   21.7556 H   0  0  0  0  0  0
  -30.1457  -21.6082   21.0678 H   0  0  0  0  0  0
  -30.6487  -16.3890   19.2434 H   0  0  0  0  0  0
  -28.9542  -22.4516   22.4101 H   0  0  0  0  0  0
  1 25  1  0  0  0
  1 30  2  0  0  0
  1 86  1  0  0  0
  2  3  1  0  0  0
  2 25  1  0  0  0
  2 90  1  0  0  0
  2 91  1  0  0  0
  3  4  1  0  0  0
  3 92  1  0  0  0
  3 93  1  0  0  0
  4  5  1  0  0  0
  4 94  1  0  0  0
  4 95  1  0  0  0
  5  6  1  0  0  0
  5 26  1  0  0  0
  5 96  1  0  0  0
  6 25  1  0  0  0
  6 97  1  0  0  0
  6 98  1  0  0  0
  7  8  2  0  0  0
  7 26  1  0  0  0
  7 29  1  0  0  0
  8  9  1  0  0  0
  8 22  1  0  0  0
  9 10  1  0  0  0
  9 27  2  0  0  0
 10 11  2  0  0  0
 10 15  1  0  0  0
 11 12  1  0  0  0
 11 99  1  0  0  0
 12 13  2  0  0  0
 12100  1  0  0  0
 13 14  1  0  0  0
 13 31  1  0  0  0
 14 15  2  0  0  0
 14101  1  0  0  0
 15102  1  0  0  0
 16 17  2  0  0  0
 16 21  1  0  0  0
 16 31  1  0  0  0
 17 18  1  0  0  0
 17103  1  0  0  0
 18 19  2  0  0  0
 18104  1  0  0  0
 19 20  1  0  0  0
 19 24  1  0  0  0
 20 21  2  0  0  0
 20105  1  0  0  0
 21 23  1  0  0  0
 22 28  1  0  0  0
 22 32  2  0  0  0
 26 27  1  0  0  0
 28106  1  0  0  0
 28107  1  0  0  0
 29108  1  0  0  0
 29109  1  0  0  0
 33 34  1  0  0  0
 33 66  1  0  0  0
 33 70  2  0  0  0
 34 36  1  0  0  0
 34 59  1  0  0  0
 34110  1  0  0  0
 35 44  2  0  0  0
 35 45  1  0  0  0
 35 68  1  0  0  0
 36 56  1  0  0  0
 36111  1  0  0  0
 37 39  1  0  0  0
 37 47  1  0  0  0
 37 66  1  0  0  0
 37112  1  0  0  0
 38 43  2  0  0  0
 38 46  1  0  0  0
 38 47  1  0  0  0
 39 64  1  0  0  0
 39 67  2  0  0  0
 40 52  1  0  0  0
 40 53  2  0  0  0
 40 58  1  0  0  0
 41113  1  0  0  0
 41114  1  0  0  0
 41115  1  0  0  0
 41 48  1  0  0  0
 42 43  1  0  0  0
 42 66  1  0  0  0
 42116  1  0  0  0
 42117  1  0  0  0
 43 44  1  0  0  0
 44118  1  0  0  0
 45 46  2  0  0  0
 45119  1  0  0  0
 46120  1  0  0  0
 47121  1  0  0  0
 47122  1  0  0  0
 48 56  1  0  0  0
 48 65  1  0  0  0
 48123  1  0  0  0
 49 50  1  0  0  0
 49 53  1  0  0  0
 49 64  1  0  0  0
 49124  1  0  0  0
 50 51  1  0  0  0
 50125  1  0  0  0
 50126  1  0  0  0
 51 52  1  0  0  0
 51127  1  0  0  0
 51128  1  0  0  0
 52129  1  0  0  0
 52130  1  0  0  0
 53 54  1  0  0  0
 54 55  2  0  0  0
 54131  1  0  0  0
 55 57  1  0  0  0
 55132  1  0  0  0
 56 69  2  0  0  0
 57 58  2  0  0  0
 57133  1  0  0  0
 58134  1  0  0  0
 59 60  1  0  0  0
 59 61  1  0  0  0
 59 62  1  0  0  0
 60135  1  0  0  0
 60136  1  0  0  0
 60137  1  0  0  0
 61138  1  0  0  0
 61139  1  0  0  0
 61140  1  0  0  0
 62141  1  0  0  0
 62142  1  0  0  0
 62143  1  0  0  0
 63 65  1  0  0  0
 63144  1  0  0  0
 63145  1  0  0  0
 63146  1  0  0  0
 64147  1  0  0  0
 65148  1  0  0  0
 68 77  1  0  0  0
 71 74  2  0  0  0
 71 75  1  0  0  0
 71149  1  0  0  0
 72 74  1  0  0  0
 72 76  2  0  0  0
 72150  1  0  0  0
 73 75  2  0  0  0
 73 76  1  0  0  0
 73151  1  0  0  0
 74 83  1  0  0  0
 75 85  1  0  0  0
 76 86  1  0  0  0
 77 78  2  0  0  0
 77152  1  0  0  0
 78 79  1  0  0  0
 78 88  1  0  0  0
 79 85  1  0  0  0
 79 87  2  0  0  0
 80 81  1  0  0  0
 80 82  1  0  0  0
 80 84  2  0  0  0
 81153  1  0  0  0
 81154  1  0  0  0
 81155  1  0  0  0
 82156  1  0  0  0
 82157  1  0  0  0
 82158  1  0  0  0
 83 84  1  0  0  0
 83 89  1  0  0  0
 83159  1  0  0  0
 85160  1  0  0  0
 86161  1  0  0  0
 88162  1  0  0  0
M  ISO  4   1 100  68 101  77 101  86 100
M  END
> <chiral flag>
0

> <version>
0

> <s_m_source_file>
/data/baiqing/PycharmProjects/Reinvent-master-3.2/result/LINK_invent/BTK/process_docking_weight1_custom_product_contain_oxygen_bond_distance_aromatic_linkinvent_7_9_3/rearranged_h_0069.sdf

> <i_m_source_file_index>
19

> <r_mmod_Potential_Energy-OPLS-2005>
501.147064208984

> <r_mmod_Stretch_Energy-OPLS-2005>
184.743148803711

> <r_mmod_Bend_Energy-OPLS-2005>
315.601684570312

> <r_mmod_Torsional_Energy-OPLS-2005>
354.654022216797

> <r_mmod_Improper_Torsional_Energy-OPLS-2005>
33.7119522094727

> <r_mmod_Van_der_Waal_Energy-OPLS-2005>
129.583526611328

> <r_mmod_Electrostatic_Energy-OPLS-2005>
-451.945617675781

> <r_mmod_Solvation_Energy-OPLS-2005>
-229.099075317383

> <b_mmod_Minimization_Converged-OPLS-2005>
0

> <r_mmod_RMS_Derivative-OPLS-2005>
2.16171979904175

$$$$
20
                    3D
 Structure written by MMmdl.
153161  0  0  1  0            999 V2000
  -30.6151  -14.7786   20.4462 C   0  0  0  0  0  0
  -30.4281  -12.4779   19.4704 C   0  0  0  0  0  0
  -29.5070  -12.5042   18.2320 C   0  0  0  0  0  0
  -28.0346  -12.3237   18.6497 C   0  0  0  0  0  0
  -27.6344  -13.2359   19.8405 C   0  0  2  0  0  0
  -28.6816  -13.2018   20.9737 C   0  0  0  0  0  0
  -25.2482  -13.8204   20.5700 C   0  0  0  0  0  0
  -24.1788  -13.0438   20.9225 C   0  0  0  0  0  0
  -24.6390  -11.6920   20.8757 C   0  0  0  0  0  0
  -23.9072  -10.4293   21.0409 C   0  0  0  0  0  0
  -24.3624   -9.4207   21.9185 C   0  0  0  0  0  0
  -23.6298   -8.2241   22.0754 C   0  0  0  0  0  0
  -22.4278   -8.0281   21.3545 C   0  0  0  0  0  0
  -21.9915   -9.0255   20.4648 C   0  0  0  0  0  0
  -22.7245  -10.2133   20.3057 C   0  0  0  0  0  0
  -21.6854   -6.0735   22.5280 C   0  0  0  0  0  0
  -21.4013   -6.5639   23.8214 C   0  0  0  0  0  0
  -21.3661   -5.6792   24.9177 C   0  0  0  0  0  0
  -21.6045   -4.3055   24.7226 C   0  0  0  0  0  0
  -21.8819   -3.8146   23.4348 C   0  0  0  0  0  0
  -21.9194   -4.6963   22.3403 C   0  0  0  0  0  0
  -22.7808  -13.5216   21.1880 C   0  0  0  0  0  0
  -22.1662   -4.2148   21.0981 F   0  0  0  0  0  0
  -21.5632   -3.4540   25.7741 F   0  0  0  0  0  0
  -29.9725  -13.5588   20.3765 N   0  0  0  0  0  0
  -26.2902  -12.9416   20.3251 N   0  0  0  0  0  0
  -25.9318  -11.6556   20.5751 N   0  0  0  0  0  0
  -22.0454  -12.8204   22.0433 N   0  0  0  0  0  0
  -25.4142  -15.1932   20.4110 N   0  0  0  0  0  0
  -31.8258  -14.8074   20.2062 O   0  0  0  0  0  0
  -21.6642   -6.8877   21.4240 O   0  0  0  0  0  0
  -22.3489  -14.5519   20.6725 O   0  0  0  0  0  0
  -24.6328  -31.8529   23.1954 C   0  0  0  0  0  0
  -25.9145  -32.4741   23.8310 C   0  0  1  0  0  0
  -27.2188  -27.2472   20.1422 C   0  0  0  0  0  0
  -25.5934  -33.8543   24.2240 N   0  0  0  0  0  0
  -23.4304  -30.4733   21.5390 C   0  0  2  0  0  0
  -24.8782  -28.9105   20.1158 C   0  0  0  0  0  0
  -22.7509  -29.4591   22.4905 C   0  0  0  0  0  0
  -18.0293  -28.1389   22.8481 C   0  0  0  0  0  0
  -24.1488  -36.7276   23.2640 C   0  0  0  0  0  0
  -25.9760  -30.7631   21.3745 C   0  0  0  0  0  0
  -26.0507  -29.3815   20.7218 C   0  0  0  0  0  0
  -27.2284  -28.5645   20.7167 C   0  0  0  0  0  0
  -26.0253  -26.8379   19.5163 C   0  0  0  0  0  0
  -24.8705  -27.6474   19.5011 C   0  0  0  0  0  0
  -23.6503  -29.8013   20.1577 C   0  0  0  0  0  0
  -25.4117  -36.3062   24.0325 C   0  0  1  0  0  0
  -20.5897  -28.3699   23.1264 C   0  0  2  0  0  0
  -20.6779  -26.9415   22.5406 C   0  0  0  0  0  0
  -19.5757  -26.6385   21.5207 C   0  0  0  0  0  0
  -18.1938  -26.7932   22.1621 C   0  0  0  0  0  0
  -19.1548  -28.8863   23.2868 C   0  0  0  0  0  0
  -18.9467  -30.1461   23.8891 C   0  0  0  0  0  0
  -17.6465  -30.6589   24.0560 C   0  0  0  0  0  0
  -25.9057  -34.9431   23.5089 C   0  0  0  0  0  0
  -16.5357  -29.9083   23.6330 C   0  0  0  0  0  0
  -16.7279  -28.6501   23.0353 C   0  0  0  0  0  0
  -26.4510  -31.6574   25.0707 C   0  0  0  0  0  0
  -25.3728  -31.3727   26.1425 C   0  0  0  0  0  0
  -27.0356  -30.2988   24.6201 C   0  0  0  0  0  0
  -27.6060  -32.4315   25.7487 C   0  0  0  0  0  0
  -27.5579  -37.1794   24.8466 C   0  0  0  0  0  0
  -21.4214  -29.3043   22.3651 N   0  0  0  0  0  0
  -26.4290  -37.3763   23.9410 N   0  0  0  0  0  0
  -24.6991  -31.0483   22.0931 N   0  0  0  0  0  0
  -23.4203  -28.8137   23.3015 O   0  0  0  0  0  0
  -28.3103  -26.3506   20.1331 O   0  0  0  0  0  0
  -26.5630  -34.8913   22.4659 O   0  0  0  0  0  0
  -23.5474  -32.1353   23.7244 O   0  0  0  0  0  0
  -27.5373  -19.3206   18.7481 C   0  0  0  0  0  0
  -28.3285  -18.2702   19.2544 C   0  0  0  0  0  0
  -27.7170  -20.6541   19.1660 C   0  0  0  0  0  0
  -29.3364  -18.4955   20.2172 C   0  0  0  0  0  0
  -29.4875  -19.8976   20.6621 C   0  0  0  0  0  0
  -28.6876  -21.0094   20.1289 C   0  0  0  0  0  0
  -30.2750  -17.2796   20.5759 C   0  0  0  0  0  0
  -28.3831  -23.6413   19.9602 C   0  0  0  0  0  0
  -30.5313  -20.2343   21.7195 C   0  0  0  0  0  0
  -28.1703  -25.0021   20.8000 C   0  0  0  0  0  0
  -28.7461  -22.4390   20.5794 N   0  0  0  0  0  0
  -29.8512  -15.9484   20.5249 N   0  0  0  0  0  0
  -31.4361  -17.5557   20.8935 O   0  0  0  0  0  0
  -28.2174  -23.6954   18.7383 O   0  0  0  0  0  0
  -31.4681  -12.6005   19.1634 H   0  0  0  0  0  0
  -30.3769  -11.5106   19.9727 H   0  0  0  0  0  0
  -29.7953  -11.7222   17.5281 H   0  0  0  0  0  0
  -29.6270  -13.4509   17.7034 H   0  0  0  0  0  0
  -27.8995  -11.2770   18.9254 H   0  0  0  0  0  0
  -27.3750  -12.5003   17.7992 H   0  0  0  0  0  0
  -27.6167  -14.2502   19.4417 H   0  0  0  0  0  0
  -28.7291  -12.2134   21.4331 H   0  0  0  0  0  0
  -28.4150  -13.9001   21.7686 H   0  0  0  0  0  0
  -25.2769   -9.5686   22.4760 H   0  0  0  0  0  0
  -24.0010   -7.4632   22.7472 H   0  0  0  0  0  0
  -21.0848   -8.8775   19.8952 H   0  0  0  0  0  0
  -22.3704  -10.9672   19.6167 H   0  0  0  0  0  0
  -21.1999   -7.6145   23.9716 H   0  0  0  0  0  0
  -21.1485   -6.0522   25.9079 H   0  0  0  0  0  0
  -22.0595   -2.7608   23.2850 H   0  0  0  0  0  0
  -22.4075  -11.9871   22.4826 H   0  0  0  0  0  0
  -21.1069  -13.1221   22.2636 H   0  0  0  0  0  0
  -24.6409  -15.8400   20.5214 H   0  0  0  0  0  0
  -26.2498  -15.6381   20.0574 H   0  0  0  0  0  0
  -26.7209  -32.5393   23.1046 H   0  0  0  0  0  0
  -25.0080  -33.9670   25.0387 H   0  0  0  0  0  0
  -22.7279  -31.2957   21.3893 H   0  0  0  0  0  0
  -23.3751  -35.9606   23.3298 H   0  0  0  0  0  0
  -24.3577  -36.8906   22.2055 H   0  0  0  0  0  0
  -23.7238  -37.6474   23.6668 H   0  0  0  0  0  0
  -26.1127  -31.5207   20.6015 H   0  0  0  0  0  0
  -26.8538  -30.8169   22.0069 H   0  0  0  0  0  0
  -28.1320  -28.9241   21.1886 H   0  0  0  0  0  0
  -25.9823  -25.8665   19.0435 H   0  0  0  0  0  0
  -23.9727  -27.2818   19.0219 H   0  0  0  0  0  0
  -23.7783  -30.5739   19.3986 H   0  0  0  0  0  0
  -22.7680  -29.2357   19.8531 H   0  0  0  0  0  0
  -25.1298  -36.1905   25.0816 H   0  0  0  0  0  0
  -20.9992  -28.3280   24.1384 H   0  0  0  0  0  0
  -20.5670  -26.2309   23.3611 H   0  0  0  0  0  0
  -21.6648  -26.7432   22.1207 H   0  0  0  0  0  0
  -19.6915  -25.6292   21.1246 H   0  0  0  0  0  0
  -19.6695  -27.3186   20.6730 H   0  0  0  0  0  0
  -17.4205  -26.6672   21.4028 H   0  0  0  0  0  0
  -18.0342  -26.0078   22.9022 H   0  0  0  0  0  0
  -19.7942  -30.7279   24.2260 H   0  0  0  0  0  0
  -17.5018  -31.6270   24.5159 H   0  0  0  0  0  0
  -15.5356  -30.2981   23.7657 H   0  0  0  0  0  0
  -15.8681  -28.0814   22.7074 H   0  0  0  0  0  0
  -24.5911  -30.7067   25.7754 H   0  0  0  0  0  0
  -24.8909  -32.2895   26.4829 H   0  0  0  0  0  0
  -25.8042  -30.8922   27.0217 H   0  0  0  0  0  0
  -26.2939  -29.6732   24.1220 H   0  0  0  0  0  0
  -27.4028  -29.7256   25.4725 H   0  0  0  0  0  0
  -27.8821  -30.4257   23.9449 H   0  0  0  0  0  0
  -27.2670  -33.3624   26.2045 H   0  0  0  0  0  0
  -28.3886  -32.6861   25.0326 H   0  0  0  0  0  0
  -28.0712  -31.8451   26.5422 H   0  0  0  0  0  0
  -28.2593  -38.0094   24.7512 H   0  0  0  0  0  0
  -28.1080  -36.2625   24.6295 H   0  0  0  0  0  0
  -27.2298  -37.1448   25.8869 H   0  0  0  0  0  0
  -20.9403  -29.8761   21.6849 H   0  0  0  0  0  0
  -26.0168  -38.2838   24.1409 H   0  0  0  0  0  0
  -26.7796  -19.0999   18.0090 H   0  0  0  0  0  0
  -28.1717  -17.2768   18.8573 H   0  0  0  0  0  0
  -27.0668  -21.4060   18.7425 H   0  0  0  0  0  0
  -30.5147  -19.5031   22.5281 H   0  0  0  0  0  0
  -30.3682  -21.2089   22.1765 H   0  0  0  0  0  0
  -31.5280  -20.2395   21.2778 H   0  0  0  0  0  0
  -28.8865  -24.9871   21.6217 H   0  0  0  0  0  0
  -27.1902  -24.9355   21.2742 H   0  0  0  0  0  0
  -29.0327  -22.5606   21.5409 H   0  0  0  0  0  0
  -28.8566  -15.8199   20.4712 H   0  0  0  0  0  0
  1 25  1  0  0  0
  1 30  2  0  0  0
  1 82  1  0  0  0
  2  3  1  0  0  0
  2 25  1  0  0  0
  2 85  1  0  0  0
  2 86  1  0  0  0
  3  4  1  0  0  0
  3 87  1  0  0  0
  3 88  1  0  0  0
  4  5  1  0  0  0
  4 89  1  0  0  0
  4 90  1  0  0  0
  5  6  1  0  0  0
  5 26  1  0  0  0
  5 91  1  0  0  0
  6 25  1  0  0  0
  6 92  1  0  0  0
  6 93  1  0  0  0
  7  8  2  0  0  0
  7 26  1  0  0  0
  7 29  1  0  0  0
  8  9  1  0  0  0
  8 22  1  0  0  0
  9 10  1  0  0  0
  9 27  2  0  0  0
 10 11  2  0  0  0
 10 15  1  0  0  0
 11 12  1  0  0  0
 11 94  1  0  0  0
 12 13  2  0  0  0
 12 95  1  0  0  0
 13 14  1  0  0  0
 13 31  1  0  0  0
 14 15  2  0  0  0
 14 96  1  0  0  0
 15 97  1  0  0  0
 16 17  2  0  0  0
 16 21  1  0  0  0
 16 31  1  0  0  0
 17 18  1  0  0  0
 17 98  1  0  0  0
 18 19  2  0  0  0
 18 99  1  0  0  0
 19 20  1  0  0  0
 19 24  1  0  0  0
 20 21  2  0  0  0
 20100  1  0  0  0
 21 23  1  0  0  0
 22 28  1  0  0  0
 22 32  2  0  0  0
 26 27  1  0  0  0
 28101  1  0  0  0
 28102  1  0  0  0
 29103  1  0  0  0
 29104  1  0  0  0
 33 34  1  0  0  0
 33 66  1  0  0  0
 33 70  2  0  0  0
 34 36  1  0  0  0
 34 59  1  0  0  0
 34105  1  0  0  0
 35 44  2  0  0  0
 35 45  1  0  0  0
 35 68  1  0  0  0
 36 56  1  0  0  0
 36106  1  0  0  0
 37 39  1  0  0  0
 37 47  1  0  0  0
 37 66  1  0  0  0
 37107  1  0  0  0
 38 43  2  0  0  0
 38 46  1  0  0  0
 38 47  1  0  0  0
 39 64  1  0  0  0
 39 67  2  0  0  0
 40 52  1  0  0  0
 40 53  2  0  0  0
 40 58  1  0  0  0
 41108  1  0  0  0
 41109  1  0  0  0
 41110  1  0  0  0
 41 48  1  0  0  0
 42 43  1  0  0  0
 42 66  1  0  0  0
 42111  1  0  0  0
 42112  1  0  0  0
 43 44  1  0  0  0
 44113  1  0  0  0
 45 46  2  0  0  0
 45114  1  0  0  0
 46115  1  0  0  0
 47116  1  0  0  0
 47117  1  0  0  0
 48 56  1  0  0  0
 48 65  1  0  0  0
 48118  1  0  0  0
 49 50  1  0  0  0
 49 53  1  0  0  0
 49 64  1  0  0  0
 49119  1  0  0  0
 50 51  1  0  0  0
 50120  1  0  0  0
 50121  1  0  0  0
 51 52  1  0  0  0
 51122  1  0  0  0
 51123  1  0  0  0
 52124  1  0  0  0
 52125  1  0  0  0
 53 54  1  0  0  0
 54 55  2  0  0  0
 54126  1  0  0  0
 55 57  1  0  0  0
 55127  1  0  0  0
 56 69  2  0  0  0
 57 58  2  0  0  0
 57128  1  0  0  0
 58129  1  0  0  0
 59 60  1  0  0  0
 59 61  1  0  0  0
 59 62  1  0  0  0
 60130  1  0  0  0
 60131  1  0  0  0
 60132  1  0  0  0
 61133  1  0  0  0
 61134  1  0  0  0
 61135  1  0  0  0
 62136  1  0  0  0
 62137  1  0  0  0
 62138  1  0  0  0
 63 65  1  0  0  0
 63139  1  0  0  0
 63140  1  0  0  0
 63141  1  0  0  0
 64142  1  0  0  0
 65143  1  0  0  0
 68 80  1  0  0  0
 71 72  2  0  0  0
 71 73  1  0  0  0
 71144  1  0  0  0
 72 74  1  0  0  0
 72145  1  0  0  0
 73 76  2  0  0  0
 73146  1  0  0  0
 74 75  2  0  0  0
 74 77  1  0  0  0
 75 76  1  0  0  0
 75 79  1  0  0  0
 76 81  1  0  0  0
 77 82  1  0  0  0
 77 83  2  0  0  0
 78 80  1  0  0  0
 78 81  1  0  0  0
 78 84  2  0  0  0
 79147  1  0  0  0
 79148  1  0  0  0
 79149  1  0  0  0
 80150  1  0  0  0
 80151  1  0  0  0
 81152  1  0  0  0
 82153  1  0  0  0
M  ISO  4   1 100  68 101  80 101  82 100
M  END
> <chiral flag>
0

> <version>
0

> <s_m_source_file>
/data/baiqing/PycharmProjects/Reinvent-master-3.2/result/LINK_invent/BTK/process_docking_weight1_custom_product_contain_oxygen_bond_distance_aromatic_linkinvent_7_9_3/rearranged_h_0069.sdf

> <i_m_source_file_index>
20

> <r_mmod_Potential_Energy-OPLS-2005>
124.304100036621

> <r_mmod_Stretch_Energy-OPLS-2005>
143.041809082031

> <r_mmod_Bend_Energy-OPLS-2005>
167.110656738281

> <r_mmod_Torsional_Energy-OPLS-2005>
261.510070800781

> <r_mmod_Improper_Torsional_Energy-OPLS-2005>
6.87458801269531

> <r_mmod_Van_der_Waal_Energy-OPLS-2005>
140.302169799805

> <r_mmod_Electrostatic_Energy-OPLS-2005>
-439.330810546875

> <r_mmod_Solvation_Energy-OPLS-2005>
-252.802154541016

> <b_mmod_Minimization_Converged-OPLS-2005>
0

> <r_mmod_RMS_Derivative-OPLS-2005>
0.559409856796265

$$$$
21
                    3D
 Structure written by MMmdl.
153161  0  0  1  0            999 V2000
  -30.5127  -15.0412   20.3736 C   0  0  0  0  0  0
  -30.4230  -12.6469   19.5021 C   0  0  0  0  0  0
  -29.5164  -12.5827   18.2506 C   0  0  0  0  0  0
  -28.0550  -12.3378   18.6685 C   0  0  0  0  0  0
  -27.6234  -13.2616   19.8376 C   0  0  2  0  0  0
  -28.6657  -13.3299   20.9738 C   0  0  0  0  0  0
  -25.2451  -13.8227   20.5738 C   0  0  0  0  0  0
  -24.1777  -13.0434   20.9212 C   0  0  0  0  0  0
  -24.6410  -11.6920   20.8728 C   0  0  0  0  0  0
  -23.9084  -10.4289   21.0366 C   0  0  0  0  0  0
  -24.3630   -9.4227   21.9166 C   0  0  0  0  0  0
  -23.6310   -8.2258   22.0755 C   0  0  0  0  0  0
  -22.4299   -8.0283   21.3530 C   0  0  0  0  0  0
  -21.9926   -9.0261   20.4648 C   0  0  0  0  0  0
  -22.7239  -10.2145   20.3037 C   0  0  0  0  0  0
  -21.6880   -6.0742   22.5275 C   0  0  0  0  0  0
  -21.4021   -6.5640   23.8211 C   0  0  0  0  0  0
  -21.3663   -5.6799   24.9176 C   0  0  0  0  0  0
  -21.6043   -4.3057   24.7219 C   0  0  0  0  0  0
  -21.8812   -3.8143   23.4338 C   0  0  0  0  0  0
  -21.9190   -4.6960   22.3400 C   0  0  0  0  0  0
  -22.7806  -13.5223   21.1866 C   0  0  0  0  0  0
  -22.1667   -4.2135   21.0980 F   0  0  0  0  0  0
  -21.5639   -3.4542   25.7728 F   0  0  0  0  0  0
  -29.9270  -13.7648   20.3668 N   0  0  0  0  0  0
  -26.2872  -12.9471   20.3254 N   0  0  0  0  0  0
  -25.9350  -11.6571   20.5720 N   0  0  0  0  0  0
  -22.0444  -12.8243   22.0422 N   0  0  0  0  0  0
  -25.4091  -15.1960   20.4189 N   0  0  0  0  0  0
  -31.7250  -15.0589   20.1372 O   0  0  0  0  0  0
  -21.6660   -6.8884   21.4230 O   0  0  0  0  0  0
  -22.3488  -14.5513   20.6692 O   0  0  0  0  0  0
  -24.6519  -31.8360   23.1839 C   0  0  0  0  0  0
  -25.9247  -32.4657   23.8239 C   0  0  1  0  0  0
  -27.1957  -27.0522   20.1567 C   0  0  0  0  0  0
  -25.5962  -33.8459   24.2153 N   0  0  0  0  0  0
  -23.4597  -30.4570   21.5319 C   0  0  2  0  0  0
  -24.9025  -28.8697   20.1137 C   0  0  0  0  0  0
  -22.7606  -29.4519   22.4824 C   0  0  0  0  0  0
  -18.0311  -28.1397   22.8480 C   0  0  0  0  0  0
  -24.1500  -36.7232   23.2640 C   0  0  0  0  0  0
  -26.0252  -30.6805   21.3971 C   0  0  0  0  0  0
  -26.0877  -29.2859   20.7352 C   0  0  0  0  0  0
  -27.2371  -28.3951   20.7316 C   0  0  0  0  0  0
  -25.9835  -26.7584   19.4939 C   0  0  0  0  0  0
  -24.8683  -27.6230   19.4762 C   0  0  0  0  0  0
  -23.6860  -29.7835   20.1540 C   0  0  0  0  0  0
  -25.4137  -36.3009   24.0305 C   0  0  1  0  0  0
  -20.5944  -28.3721   23.1221 C   0  0  2  0  0  0
  -20.6789  -26.9412   22.5408 C   0  0  0  0  0  0
  -19.5779  -26.6368   21.5209 C   0  0  0  0  0  0
  -18.1959  -26.7936   22.1615 C   0  0  0  0  0  0
  -19.1572  -28.8871   23.2845 C   0  0  0  0  0  0
  -18.9464  -30.1473   23.8878 C   0  0  0  0  0  0
  -17.6461  -30.6591   24.0553 C   0  0  0  0  0  0
  -25.9092  -34.9383   23.5051 C   0  0  0  0  0  0
  -16.5356  -29.9082   23.6342 C   0  0  0  0  0  0
  -16.7292  -28.6494   23.0366 C   0  0  0  0  0  0
  -26.4509  -31.6570   25.0728 C   0  0  0  0  0  0
  -25.3658  -31.3796   26.1404 C   0  0  0  0  0  0
  -27.0348  -30.2937   24.6401 C   0  0  0  0  0  0
  -27.6066  -32.4321   25.7496 C   0  0  0  0  0  0
  -27.5592  -37.1768   24.8453 C   0  0  0  0  0  0
  -21.4284  -29.3045   22.3572 N   0  0  0  0  0  0
  -26.4296  -37.3729   23.9405 N   0  0  0  0  0  0
  -24.7343  -31.0140   22.0919 N   0  0  0  0  0  0
  -23.4215  -28.8050   23.2979 O   0  0  0  0  0  0
  -28.2177  -26.0115   20.1975 O   0  0  0  0  0  0
  -26.5676  -34.8884   22.4637 O   0  0  0  0  0  0
  -23.5630  -32.1243   23.7039 O   0  0  0  0  0  0
  -30.2683  -20.4877   18.8754 C   0  0  0  0  0  0
  -30.9381  -19.3501   18.3796 C   0  0  0  0  0  0
  -29.2043  -19.0173   20.4779 C   0  0  0  0  0  0
  -29.3615  -20.4279   19.9528 C   0  0  0  0  0  0
  -30.7877  -18.0462   18.9126 C   0  0  0  0  0  0
  -29.9212  -17.7655   20.0113 C   0  0  0  0  0  0
  -28.9014  -23.1767   20.0876 C   0  0  0  0  0  0
  -30.8330  -16.5646   17.0510 C   0  0  0  0  0  0
  -27.8634  -24.4691   20.3945 C   0  0  0  0  0  0
  -28.6462  -21.7692   20.3330 N   0  0  0  0  0  0
  -29.7459  -16.2675   20.4685 N   0  0  0  0  0  0
  -31.4957  -17.0349   18.2601 N   0  0  0  0  0  0
  -29.9974  -23.4991   19.6256 O   0  0  0  0  0  0
  -31.4630  -12.7823   19.2036 H   0  0  0  0  0  0
  -30.3919  -11.6938   20.0347 H   0  0  0  0  0  0
  -29.8571  -11.8071   17.5624 H   0  0  0  0  0  0
  -29.5845  -13.5243   17.7001 H   0  0  0  0  0  0
  -27.9657  -11.2946   18.9712 H   0  0  0  0  0  0
  -27.3878  -12.4647   17.8145 H   0  0  0  0  0  0
  -27.5744  -14.2610   19.4058 H   0  0  0  0  0  0
  -28.7777  -12.3655   21.4715 H   0  0  0  0  0  0
  -28.3568  -14.0413   21.7392 H   0  0  0  0  0  0
  -25.2765   -9.5736   22.4753 H   0  0  0  0  0  0
  -24.0026   -7.4662   22.7488 H   0  0  0  0  0  0
  -21.0856   -8.8758   19.8982 H   0  0  0  0  0  0
  -22.3653  -10.9680   19.6162 H   0  0  0  0  0  0
  -21.2013   -7.6143   23.9713 H   0  0  0  0  0  0
  -21.1513   -6.0525   25.9087 H   0  0  0  0  0  0
  -22.0586   -2.7591   23.2839 H   0  0  0  0  0  0
  -22.4069  -11.9918   22.4821 H   0  0  0  0  0  0
  -21.1050  -13.1265   22.2587 H   0  0  0  0  0  0
  -24.6270  -15.8380   20.4942 H   0  0  0  0  0  0
  -26.2610  -15.6430   20.1088 H   0  0  0  0  0  0
  -26.7321  -32.5194   23.0970 H   0  0  0  0  0  0
  -25.0045  -33.9551   25.0252 H   0  0  0  0  0  0
  -22.7688  -31.2881   21.3731 H   0  0  0  0  0  0
  -23.3780  -35.9549   23.3279 H   0  0  0  0  0  0
  -24.3599  -36.8882   22.2064 H   0  0  0  0  0  0
  -23.7218  -37.6400   23.6697 H   0  0  0  0  0  0
  -26.2006  -31.4304   20.6255 H   0  0  0  0  0  0
  -26.8905  -30.7251   22.0471 H   0  0  0  0  0  0
  -28.1436  -28.7049   21.2319 H   0  0  0  0  0  0
  -25.8592  -25.8149   18.9864 H   0  0  0  0  0  0
  -23.9625  -27.3054   18.9756 H   0  0  0  0  0  0
  -23.8224  -30.5506   19.3903 H   0  0  0  0  0  0
  -22.7978  -29.2257   19.8527 H   0  0  0  0  0  0
  -25.1338  -36.1849   25.0796 H   0  0  0  0  0  0
  -21.0042  -28.3309   24.1341 H   0  0  0  0  0  0
  -20.5661  -26.2322   23.3613 H   0  0  0  0  0  0
  -21.6647  -26.7402   22.1220 H   0  0  0  0  0  0
  -19.6935  -25.6266   21.1259 H   0  0  0  0  0  0
  -19.6750  -27.3145   20.6716 H   0  0  0  0  0  0
  -17.4229  -26.6677   21.4021 H   0  0  0  0  0  0
  -18.0378  -26.0088   22.9022 H   0  0  0  0  0  0
  -19.7932  -30.7301   24.2244 H   0  0  0  0  0  0
  -17.5005  -31.6274   24.5141 H   0  0  0  0  0  0
  -15.5359  -30.2967   23.7680 H   0  0  0  0  0  0
  -15.8687  -28.0800   22.7118 H   0  0  0  0  0  0
  -24.5890  -30.7089   25.7711 H   0  0  0  0  0  0
  -24.8760  -32.2973   26.4688 H   0  0  0  0  0  0
  -25.7895  -30.9059   27.0277 H   0  0  0  0  0  0
  -26.2960  -29.6673   24.1399 H   0  0  0  0  0  0
  -27.3861  -29.7262   25.5027 H   0  0  0  0  0  0
  -27.8933  -30.4096   23.9788 H   0  0  0  0  0  0
  -27.2723  -33.3695   26.1969 H   0  0  0  0  0  0
  -28.3934  -32.6764   25.0341 H   0  0  0  0  0  0
  -28.0687  -31.8495   26.5484 H   0  0  0  0  0  0
  -28.2587  -38.0086   24.7541 H   0  0  0  0  0  0
  -28.1110  -36.2619   24.6253 H   0  0  0  0  0  0
  -27.2314  -37.1379   25.8850 H   0  0  0  0  0  0
  -20.9497  -29.8704   21.6699 H   0  0  0  0  0  0
  -26.0170  -38.2796   24.1410 H   0  0  0  0  0  0
  -30.4394  -21.4195   18.3599 H   0  0  0  0  0  0
  -31.5904  -19.4901   17.5281 H   0  0  0  0  0  0
  -28.4832  -18.8872   21.2721 H   0  0  0  0  0  0
  -31.3003  -15.6408   16.7022 H   0  0  0  0  0  0
  -30.8903  -17.3024   16.2490 H   0  0  0  0  0  0
  -29.7806  -16.3491   17.2448 H   0  0  0  0  0  0
  -27.5765  -24.3656   21.4396 H   0  0  0  0  0  0
  -26.9583  -24.2321   19.8416 H   0  0  0  0  0  0
  -27.7723  -21.6327   20.8230 H   0  0  0  0  0  0
  -28.8192  -16.0823   20.8185 H   0  0  0  0  0  0
  -31.6991  -16.2571   18.9028 H   0  0  0  0  0  0
  1 25  1  0  0  0
  1 30  2  0  0  0
  1 81  1  0  0  0
  2  3  1  0  0  0
  2 25  1  0  0  0
  2 84  1  0  0  0
  2 85  1  0  0  0
  3  4  1  0  0  0
  3 86  1  0  0  0
  3 87  1  0  0  0
  4  5  1  0  0  0
  4 88  1  0  0  0
  4 89  1  0  0  0
  5  6  1  0  0  0
  5 26  1  0  0  0
  5 90  1  0  0  0
  6 25  1  0  0  0
  6 91  1  0  0  0
  6 92  1  0  0  0
  7  8  2  0  0  0
  7 26  1  0  0  0
  7 29  1  0  0  0
  8  9  1  0  0  0
  8 22  1  0  0  0
  9 10  1  0  0  0
  9 27  2  0  0  0
 10 11  2  0  0  0
 10 15  1  0  0  0
 11 12  1  0  0  0
 11 93  1  0  0  0
 12 13  2  0  0  0
 12 94  1  0  0  0
 13 14  1  0  0  0
 13 31  1  0  0  0
 14 15  2  0  0  0
 14 95  1  0  0  0
 15 96  1  0  0  0
 16 17  2  0  0  0
 16 21  1  0  0  0
 16 31  1  0  0  0
 17 18  1  0  0  0
 17 97  1  0  0  0
 18 19  2  0  0  0
 18 98  1  0  0  0
 19 20  1  0  0  0
 19 24  1  0  0  0
 20 21  2  0  0  0
 20 99  1  0  0  0
 21 23  1  0  0  0
 22 28  1  0  0  0
 22 32  2  0  0  0
 26 27  1  0  0  0
 28100  1  0  0  0
 28101  1  0  0  0
 29102  1  0  0  0
 29103  1  0  0  0
 33 34  1  0  0  0
 33 66  1  0  0  0
 33 70  2  0  0  0
 34 36  1  0  0  0
 34 59  1  0  0  0
 34104  1  0  0  0
 35 44  2  0  0  0
 35 45  1  0  0  0
 35 68  1  0  0  0
 36 56  1  0  0  0
 36105  1  0  0  0
 37 39  1  0  0  0
 37 47  1  0  0  0
 37 66  1  0  0  0
 37106  1  0  0  0
 38 43  2  0  0  0
 38 46  1  0  0  0
 38 47  1  0  0  0
 39 64  1  0  0  0
 39 67  2  0  0  0
 40 52  1  0  0  0
 40 53  2  0  0  0
 40 58  1  0  0  0
 41107  1  0  0  0
 41108  1  0  0  0
 41109  1  0  0  0
 41 48  1  0  0  0
 42 43  1  0  0  0
 42 66  1  0  0  0
 42110  1  0  0  0
 42111  1  0  0  0
 43 44  1  0  0  0
 44112  1  0  0  0
 45 46  2  0  0  0
 45113  1  0  0  0
 46114  1  0  0  0
 47115  1  0  0  0
 47116  1  0  0  0
 48 56  1  0  0  0
 48 65  1  0  0  0
 48117  1  0  0  0
 49 50  1  0  0  0
 49 53  1  0  0  0
 49 64  1  0  0  0
 49118  1  0  0  0
 50 51  1  0  0  0
 50119  1  0  0  0
 50120  1  0  0  0
 51 52  1  0  0  0
 51121  1  0  0  0
 51122  1  0  0  0
 52123  1  0  0  0
 52124  1  0  0  0
 53 54  1  0  0  0
 54 55  2  0  0  0
 54125  1  0  0  0
 55 57  1  0  0  0
 55126  1  0  0  0
 56 69  2  0  0  0
 57 58  2  0  0  0
 57127  1  0  0  0
 58128  1  0  0  0
 59 60  1  0  0  0
 59 61  1  0  0  0
 59 62  1  0  0  0
 60129  1  0  0  0
 60130  1  0  0  0
 60131  1  0  0  0
 61132  1  0  0  0
 61133  1  0  0  0
 61134  1  0  0  0
 62135  1  0  0  0
 62136  1  0  0  0
 62137  1  0  0  0
 63 65  1  0  0  0
 63138  1  0  0  0
 63139  1  0  0  0
 63140  1  0  0  0
 64141  1  0  0  0
 65142  1  0  0  0
 68 79  1  0  0  0
 71 72  2  0  0  0
 71 74  1  0  0  0
 71143  1  0  0  0
 72 75  1  0  0  0
 72144  1  0  0  0
 73 74  2  0  0  0
 73 76  1  0  0  0
 73145  1  0  0  0
 74 80  1  0  0  0
 75 76  2  0  0  0
 75 82  1  0  0  0
 76 81  1  0  0  0
 77 79  1  0  0  0
 77 80  1  0  0  0
 77 83  2  0  0  0
 78 82  1  0  0  0
 78146  1  0  0  0
 78147  1  0  0  0
 78148  1  0  0  0
 79149  1  0  0  0
 79150  1  0  0  0
 80151  1  0  0  0
 81152  1  0  0  0
 82153  1  0  0  0
M  ISO  4   1 100  68 101  79 101  81 100
M  END
> <chiral flag>
0

> <version>
0

> <s_m_source_file>
/data/baiqing/PycharmProjects/Reinvent-master-3.2/result/LINK_invent/BTK/process_docking_weight1_custom_product_contain_oxygen_bond_distance_aromatic_linkinvent_7_9_3/rearranged_h_0069.sdf

> <i_m_source_file_index>
21

> <r_mmod_Potential_Energy-OPLS-2005>
595.444030761719

> <r_mmod_Stretch_Energy-OPLS-2005>
350.735015869141

> <r_mmod_Bend_Energy-OPLS-2005>
277.541870117188

> <r_mmod_Torsional_Energy-OPLS-2005>
258.626068115234

> <r_mmod_Improper_Torsional_Energy-OPLS-2005>
10.0246067047119

> <r_mmod_Van_der_Waal_Energy-OPLS-2005>
144.252029418945

> <r_mmod_Electrostatic_Energy-OPLS-2005>
-453.955780029297

> <r_mmod_Solvation_Energy-OPLS-2005>
-259.452545166016

> <b_mmod_Minimization_Converged-OPLS-2005>
0

> <r_mmod_RMS_Derivative-OPLS-2005>
3.7626953125

$$$$
22
                    3D
 Structure written by MMmdl.
161170  0  0  1  0            999 V2000
  -30.6280  -14.7395   20.4267 C   0  0  0  0  0  0
  -30.4266  -12.4427   19.4833 C   0  0  0  0  0  0
  -29.5108  -12.5007   18.2419 C   0  0  0  0  0  0
  -28.0379  -12.3279   18.6563 C   0  0  0  0  0  0
  -27.6421  -13.2345   19.8528 C   0  0  2  0  0  0
  -28.6868  -13.1861   20.9900 C   0  0  0  0  0  0
  -25.2511  -13.8204   20.5699 C   0  0  0  0  0  0
  -24.1801  -13.0444   20.9201 C   0  0  0  0  0  0
  -24.6395  -11.6925   20.8751 C   0  0  0  0  0  0
  -23.9078  -10.4300   21.0402 C   0  0  0  0  0  0
  -24.3625   -9.4217   21.9182 C   0  0  0  0  0  0
  -23.6297   -8.2251   22.0766 C   0  0  0  0  0  0
  -22.4281   -8.0280   21.3550 C   0  0  0  0  0  0
  -21.9919   -9.0253   20.4652 C   0  0  0  0  0  0
  -22.7253  -10.2129   20.3055 C   0  0  0  0  0  0
  -21.6854   -6.0727   22.5274 C   0  0  0  0  0  0
  -21.4024   -6.5642   23.8205 C   0  0  0  0  0  0
  -21.3658   -5.6797   24.9168 C   0  0  0  0  0  0
  -21.6043   -4.3059   24.7225 C   0  0  0  0  0  0
  -21.8817   -3.8145   23.4349 C   0  0  0  0  0  0
  -21.9200   -4.6956   22.3403 C   0  0  0  0  0  0
  -22.7825  -13.5219   21.1847 C   0  0  0  0  0  0
  -22.1661   -4.2143   21.0974 F   0  0  0  0  0  0
  -21.5629   -3.4542   25.7737 F   0  0  0  0  0  0
  -29.9900  -13.5200   20.4032 N   0  0  0  0  0  0
  -26.2943  -12.9418   20.3309 N   0  0  0  0  0  0
  -25.9330  -11.6553   20.5772 N   0  0  0  0  0  0
  -22.0471  -12.8209   22.0400 N   0  0  0  0  0  0
  -25.4208  -15.1932   20.4127 N   0  0  0  0  0  0
  -31.8311  -14.7829   20.1484 O   0  0  0  0  0  0
  -21.6647   -6.8873   21.4237 O   0  0  0  0  0  0
  -22.3511  -14.5525   20.6697 O   0  0  0  0  0  0
  -24.6360  -31.8497   23.1945 C   0  0  0  0  0  0
  -25.9177  -32.4709   23.8288 C   0  0  1  0  0  0
  -27.2156  -27.2362   20.1059 C   0  0  0  0  0  0
  -25.5959  -33.8518   24.2182 N   0  0  0  0  0  0
  -23.4326  -30.4704   21.5399 C   0  0  2  0  0  0
  -24.8747  -28.9115   20.1098 C   0  0  0  0  0  0
  -22.7511  -29.4548   22.4902 C   0  0  0  0  0  0
  -18.0295  -28.1388   22.8492 C   0  0  0  0  0  0
  -24.1496  -36.7263   23.2630 C   0  0  0  0  0  0
  -25.9803  -30.7516   21.3780 C   0  0  0  0  0  0
  -26.0500  -29.3750   20.7132 C   0  0  0  0  0  0
  -27.2214  -28.5484   20.6981 C   0  0  0  0  0  0
  -26.0082  -26.8347   19.4938 C   0  0  0  0  0  0
  -24.8591  -27.6485   19.4959 C   0  0  0  0  0  0
  -23.6507  -29.8051   20.1569 C   0  0  0  0  0  0
  -25.4128  -36.3017   24.0294 C   0  0  1  0  0  0
  -20.5897  -28.3676   23.1287 C   0  0  2  0  0  0
  -20.6777  -26.9395   22.5406 C   0  0  0  0  0  0
  -19.5744  -26.6375   21.5223 C   0  0  0  0  0  0
  -18.1921  -26.7926   22.1634 C   0  0  0  0  0  0
  -19.1552  -28.8854   23.2871 C   0  0  0  0  0  0
  -18.9471  -30.1459   23.8873 C   0  0  0  0  0  0
  -17.6468  -30.6580   24.0570 C   0  0  0  0  0  0
  -25.9084  -34.9407   23.5036 C   0  0  0  0  0  0
  -16.5356  -29.9068   23.6363 C   0  0  0  0  0  0
  -16.7281  -28.6499   23.0363 C   0  0  0  0  0  0
  -26.4547  -31.6588   25.0729 C   0  0  0  0  0  0
  -25.3759  -31.3775   26.1446 C   0  0  0  0  0  0
  -27.0413  -30.2981   24.6284 C   0  0  0  0  0  0
  -27.6044  -32.4380   25.7540 C   0  0  0  0  0  0
  -27.5566  -37.1769   24.8451 C   0  0  0  0  0  0
  -21.4212  -29.3016   22.3665 N   0  0  0  0  0  0
  -26.4279  -37.3732   23.9411 N   0  0  0  0  0  0
  -24.7022  -31.0424   22.0935 N   0  0  0  0  0  0
  -23.4199  -28.8083   23.3007 O   0  0  0  0  0  0
  -28.3257  -26.3586   20.1709 O   0  0  0  0  0  0
  -26.5641  -34.8903   22.4601 O   0  0  0  0  0  0
  -23.5510  -32.1358   23.7220 O   0  0  0  0  0  0
  -29.4761  -18.5238   20.5014 C   0  0  0  0  0  0
  -31.1100  -17.4656   19.0543 C   0  0  0  0  0  0
  -30.8102  -19.9080   18.9888 C   0  0  0  0  0  0
  -29.7714  -19.8569   19.9646 C   0  0  0  0  0  0
  -30.1519  -17.2954   20.0784 C   0  0  0  0  0  0
  -31.4335  -18.7274   18.5316 C   0  0  0  0  0  0
  -29.5820  -21.8097   21.5045 C   0  0  0  0  0  0
  -29.2418  -23.3189   21.5018 C   0  0  0  0  0  0
  -28.4814  -22.2033   19.5497 C   0  0  0  0  0  0
  -28.2270  -23.5669   20.3665 C   0  0  1  0  0  0
  -31.3408  -21.2209   18.4255 C   0  0  0  0  0  0
  -26.7967  -23.5360   20.9373 C   0  0  0  0  0  0
  -28.3877  -24.9788   19.5593 C   0  0  0  0  0  0
  -29.1513  -21.1489   20.4098 N   0  0  0  0  0  0
  -29.8804  -15.9086   20.5771 N   0  0  0  0  0  0
  -30.2064  -21.2983   22.4402 O   0  0  0  0  0  0
  -32.3879  -18.7996   17.5713 F   0  0  0  0  0  0
  -31.4718  -12.5408   19.1855 H   0  0  0  0  0  0
  -30.3508  -11.4711   19.9743 H   0  0  0  0  0  0
  -29.7916  -11.7262   17.5279 H   0  0  0  0  0  0
  -29.6424  -13.4556   17.7298 H   0  0  0  0  0  0
  -27.8950  -11.2811   18.9239 H   0  0  0  0  0  0
  -27.3809  -12.5148   17.8063 H   0  0  0  0  0  0
  -27.6341  -14.2539   19.4660 H   0  0  0  0  0  0
  -28.7162  -12.1994   21.4541 H   0  0  0  0  0  0
  -28.4277  -13.8897   21.7836 H   0  0  0  0  0  0
  -25.2756   -9.5695   22.4772 H   0  0  0  0  0  0
  -23.9998   -7.4647   22.7499 H   0  0  0  0  0  0
  -21.0852   -8.8772   19.8954 H   0  0  0  0  0  0
  -22.3705  -10.9671   19.6172 H   0  0  0  0  0  0
  -21.2017   -7.6152   23.9707 H   0  0  0  0  0  0
  -21.1484   -6.0527   25.9067 H   0  0  0  0  0  0
  -22.0599   -2.7610   23.2851 H   0  0  0  0  0  0
  -22.4088  -11.9864   22.4779 H   0  0  0  0  0  0
  -21.1082  -13.1225   22.2597 H   0  0  0  0  0  0
  -24.6507  -15.8461   20.5161 H   0  0  0  0  0  0
  -26.2690  -15.6338   20.0818 H   0  0  0  0  0  0
  -26.7225  -32.5328   23.1001 H   0  0  0  0  0  0
  -25.0121  -33.9636   25.0330 H   0  0  0  0  0  0
  -22.7318  -31.2930   21.3910 H   0  0  0  0  0  0
  -23.3744  -35.9606   23.3282 H   0  0  0  0  0  0
  -24.3553  -36.8924   22.2045 H   0  0  0  0  0  0
  -23.7296  -37.6467   23.6707 H   0  0  0  0  0  0
  -26.1305  -31.5174   20.6152 H   0  0  0  0  0  0
  -26.8508  -30.7894   22.0213 H   0  0  0  0  0  0
  -28.1287  -28.8962   21.1731 H   0  0  0  0  0  0
  -25.9074  -25.8643   19.0355 H   0  0  0  0  0  0
  -23.9521  -27.2758   19.0398 H   0  0  0  0  0  0
  -23.7821  -30.5837   19.4038 H   0  0  0  0  0  0
  -22.7661  -29.2421   19.8542 H   0  0  0  0  0  0
  -25.1314  -36.1800   25.0780 H   0  0  0  0  0  0
  -20.9984  -28.3232   24.1417 H   0  0  0  0  0  0
  -20.5724  -26.2253   23.3588 H   0  0  0  0  0  0
  -21.6632  -26.7442   22.1168 H   0  0  0  0  0  0
  -19.6919  -25.6293   21.1237 H   0  0  0  0  0  0
  -19.6704  -27.3206   20.6767 H   0  0  0  0  0  0
  -17.4200  -26.6711   21.4021 H   0  0  0  0  0  0
  -18.0290  -26.0072   22.9028 H   0  0  0  0  0  0
  -19.7947  -30.7286   24.2214 H   0  0  0  0  0  0
  -17.5025  -31.6274   24.5143 H   0  0  0  0  0  0
  -15.5352  -30.2949   23.7721 H   0  0  0  0  0  0
  -15.8686  -28.0816   22.7072 H   0  0  0  0  0  0
  -24.5914  -30.7139   25.7807 H   0  0  0  0  0  0
  -24.8987  -32.2970   26.4858 H   0  0  0  0  0  0
  -25.8069  -30.8981   27.0243 H   0  0  0  0  0  0
  -26.3033  -29.6701   24.1284 H   0  0  0  0  0  0
  -27.4035  -29.7289   25.4860 H   0  0  0  0  0  0
  -27.8937  -30.4232   23.9595 H   0  0  0  0  0  0
  -27.2580  -33.3676   26.2085 H   0  0  0  0  0  0
  -28.3898  -32.6966   25.0423 H   0  0  0  0  0  0
  -28.0684  -31.8553   26.5511 H   0  0  0  0  0  0
  -28.2531  -38.0111   24.7498 H   0  0  0  0  0  0
  -28.1100  -36.2619   24.6261 H   0  0  0  0  0  0
  -27.2262  -37.1396   25.8846 H   0  0  0  0  0  0
  -20.9383  -29.8713   21.6868 H   0  0  0  0  0  0
  -26.0120  -38.2776   24.1457 H   0  0  0  0  0  0
  -28.7127  -18.4486   21.2620 H   0  0  0  0  0  0
  -31.6376  -16.6258   18.6315 H   0  0  0  0  0  0
  -30.1629  -23.8724   21.3269 H   0  0  0  0  0  0
  -28.8537  -23.6286   22.4720 H   0  0  0  0  0  0
  -29.0836  -22.4300   18.6762 H   0  0  0  0  0  0
  -27.5464  -21.8064   19.1521 H   0  0  0  0  0  0
  -31.3210  -22.0195   19.1648 H   0  0  0  0  0  0
  -30.7658  -21.5209   17.5498 H   0  0  0  0  0  0
  -32.3815  -21.1309   18.1152 H   0  0  0  0  0  0
  -26.6064  -22.6297   21.5124 H   0  0  0  0  0  0
  -26.0522  -23.5867   20.1412 H   0  0  0  0  0  0
  -26.6258  -24.3879   21.5977 H   0  0  0  0  0  0
  -27.7460  -24.9331   18.6791 H   0  0  0  0  0  0
  -29.3847  -24.9446   19.1173 H   0  0  0  0  0  0
  -28.9648  -15.7632   20.9753 H   0  0  0  0  0  0
  1 25  1  0  0  0
  1 30  2  0  0  0
  1 85  1  0  0  0
  2  3  1  0  0  0
  2 25  1  0  0  0
  2 88  1  0  0  0
  2 89  1  0  0  0
  3  4  1  0  0  0
  3 90  1  0  0  0
  3 91  1  0  0  0
  4  5  1  0  0  0
  4 92  1  0  0  0
  4 93  1  0  0  0
  5  6  1  0  0  0
  5 26  1  0  0  0
  5 94  1  0  0  0
  6 25  1  0  0  0
  6 95  1  0  0  0
  6 96  1  0  0  0
  7  8  2  0  0  0
  7 26  1  0  0  0
  7 29  1  0  0  0
  8  9  1  0  0  0
  8 22  1  0  0  0
  9 10  1  0  0  0
  9 27  2  0  0  0
 10 11  2  0  0  0
 10 15  1  0  0  0
 11 12  1  0  0  0
 11 97  1  0  0  0
 12 13  2  0  0  0
 12 98  1  0  0  0
 13 14  1  0  0  0
 13 31  1  0  0  0
 14 15  2  0  0  0
 14 99  1  0  0  0
 15100  1  0  0  0
 16 17  2  0  0  0
 16 21  1  0  0  0
 16 31  1  0  0  0
 17 18  1  0  0  0
 17101  1  0  0  0
 18 19  2  0  0  0
 18102  1  0  0  0
 19 20  1  0  0  0
 19 24  1  0  0  0
 20 21  2  0  0  0
 20103  1  0  0  0
 21 23  1  0  0  0
 22 28  1  0  0  0
 22 32  2  0  0  0
 26 27  1  0  0  0
 28104  1  0  0  0
 28105  1  0  0  0
 29106  1  0  0  0
 29107  1  0  0  0
 33 34  1  0  0  0
 33 66  1  0  0  0
 33 70  2  0  0  0
 34 36  1  0  0  0
 34 59  1  0  0  0
 34108  1  0  0  0
 35 44  2  0  0  0
 35 45  1  0  0  0
 35 68  1  0  0  0
 36 56  1  0  0  0
 36109  1  0  0  0
 37 39  1  0  0  0
 37 47  1  0  0  0
 37 66  1  0  0  0
 37110  1  0  0  0
 38 43  2  0  0  0
 38 46  1  0  0  0
 38 47  1  0  0  0
 39 64  1  0  0  0
 39 67  2  0  0  0
 40 52  1  0  0  0
 40 53  2  0  0  0
 40 58  1  0  0  0
 41111  1  0  0  0
 41112  1  0  0  0
 41113  1  0  0  0
 41 48  1  0  0  0
 42 43  1  0  0  0
 42 66  1  0  0  0
 42114  1  0  0  0
 42115  1  0  0  0
 43 44  1  0  0  0
 44116  1  0  0  0
 45 46  2  0  0  0
 45117  1  0  0  0
 46118  1  0  0  0
 47119  1  0  0  0
 47120  1  0  0  0
 48 56  1  0  0  0
 48 65  1  0  0  0
 48121  1  0  0  0
 49 50  1  0  0  0
 49 53  1  0  0  0
 49 64  1  0  0  0
 49122  1  0  0  0
 50 51  1  0  0  0
 50123  1  0  0  0
 50124  1  0  0  0
 51 52  1  0  0  0
 51125  1  0  0  0
 51126  1  0  0  0
 52127  1  0  0  0
 52128  1  0  0  0
 53 54  1  0  0  0
 54 55  2  0  0  0
 54129  1  0  0  0
 55 57  1  0  0  0
 55130  1  0  0  0
 56 69  2  0  0  0
 57 58  2  0  0  0
 57131  1  0  0  0
 58132  1  0  0  0
 59 60  1  0  0  0
 59 61  1  0  0  0
 59 62  1  0  0  0
 60133  1  0  0  0
 60134  1  0  0  0
 60135  1  0  0  0
 61136  1  0  0  0
 61137  1  0  0  0
 61138  1  0  0  0
 62139  1  0  0  0
 62140  1  0  0  0
 62141  1  0  0  0
 63 65  1  0  0  0
 63142  1  0  0  0
 63143  1  0  0  0
 63144  1  0  0  0
 64145  1  0  0  0
 65146  1  0  0  0
 68 83  1  0  0  0
 71 74  2  0  0  0
 71 75  1  0  0  0
 71147  1  0  0  0
 72 75  2  0  0  0
 72 76  1  0  0  0
 72148  1  0  0  0
 73 74  1  0  0  0
 73 76  2  0  0  0
 73 81  1  0  0  0
 74 84  1  0  0  0
 75 85  1  0  0  0
 76 87  1  0  0  0
 77 78  1  0  0  0
 77 84  1  0  0  0
 77 86  2  0  0  0
 78 80  1  0  0  0
 78149  1  0  0  0
 78150  1  0  0  0
 79 80  1  0  0  0
 79 84  1  0  0  0
 79151  1  0  0  0
 79152  1  0  0  0
 80 82  1  0  0  0
 80 83  1  0  0  0
 81153  1  0  0  0
 81154  1  0  0  0
 81155  1  0  0  0
 82156  1  0  0  0
 82157  1  0  0  0
 82158  1  0  0  0
 83159  1  0  0  0
 83160  1  0  0  0
 85161  1  0  0  0
M  ISO  4   1 100  68 101  83 101  85 100
M  END
> <chiral flag>
0

> <version>
0

> <s_m_source_file>
/data/baiqing/PycharmProjects/Reinvent-master-3.2/result/LINK_invent/BTK/process_docking_weight1_custom_product_contain_oxygen_bond_distance_aromatic_linkinvent_7_9_3/rearranged_h_0069.sdf

> <i_m_source_file_index>
22

> <r_mmod_Potential_Energy-OPLS-2005>
328.946014404297

> <r_mmod_Stretch_Energy-OPLS-2005>
139.856323242188

> <r_mmod_Bend_Energy-OPLS-2005>
207.912033081055

> <r_mmod_Torsional_Energy-OPLS-2005>
306.310699462891

> <r_mmod_Improper_Torsional_Energy-OPLS-2005>
5.94342184066772

> <r_mmod_Van_der_Waal_Energy-OPLS-2005>
141.59098815918

> <r_mmod_Electrostatic_Energy-OPLS-2005>
-341.144500732422

> <r_mmod_Solvation_Energy-OPLS-2005>
-222.177810668945

> <b_mmod_Minimization_Converged-OPLS-2005>
0

> <r_mmod_RMS_Derivative-OPLS-2005>
2.81121468544006

$$$$
23
                    3D
 Structure written by MMmdl.
149157  0  0  1  0            999 V2000
  -30.2257  -15.8396   20.3192 C   0  0  0  0  0  0
  -30.4108  -13.2370   19.5401 C   0  0  0  0  0  0
  -29.5587  -12.7032   18.3470 C   0  0  0  0  0  0
  -28.1480  -12.3056   18.7989 C   0  0  0  0  0  0
  -27.5896  -13.3277   19.8094 C   0  0  2  0  0  0
  -28.5911  -13.7498   20.9146 C   0  0  0  0  0  0
  -25.2291  -13.8308   20.5832 C   0  0  0  0  0  0
  -24.1698  -13.0433   20.9298 C   0  0  0  0  0  0
  -24.6425  -11.6952   20.8748 C   0  0  0  0  0  0
  -23.9129  -10.4298   21.0387 C   0  0  0  0  0  0
  -24.3663   -9.4205   21.9167 C   0  0  0  0  0  0
  -23.6315   -8.2253   22.0752 C   0  0  0  0  0  0
  -22.4296   -8.0294   21.3542 C   0  0  0  0  0  0
  -21.9938   -9.0271   20.4642 C   0  0  0  0  0  0
  -22.7294  -10.2138   20.3038 C   0  0  0  0  0  0
  -21.6864   -6.0740   22.5270 C   0  0  0  0  0  0
  -21.4034   -6.5643   23.8204 C   0  0  0  0  0  0
  -21.3652   -5.6793   24.9166 C   0  0  0  0  0  0
  -21.6039   -4.3055   24.7216 C   0  0  0  0  0  0
  -21.8818   -3.8151   23.4333 C   0  0  0  0  0  0
  -21.9199   -4.6969   22.3392 C   0  0  0  0  0  0
  -22.7708  -13.5146   21.1930 C   0  0  0  0  0  0
  -22.1668   -4.2153   21.0972 F   0  0  0  0  0  0
  -21.5615   -3.4538   25.7726 F   0  0  0  0  0  0
  -29.7307  -14.4369   20.2434 N   0  0  0  0  0  0
  -26.2766  -12.9681   20.3265 N   0  0  0  0  0  0
  -25.9385  -11.6725   20.5681 N   0  0  0  0  0  0
  -22.0392  -12.8103   22.0481 N   0  0  0  0  0  0
  -25.3858  -15.2056   20.4297 N   0  0  0  0  0  0
  -31.4666  -15.7356   20.1984 O   0  0  0  0  0  0
  -21.6652   -6.8893   21.4237 O   0  0  0  0  0  0
  -22.3375  -14.5441   20.6772 O   0  0  0  0  0  0
  -24.6970  -31.7832   23.1406 C   0  0  0  0  0  0
  -25.9476  -32.4390   23.8004 C   0  0  1  0  0  0
  -27.2348  -26.5546   20.2374 C   0  0  0  0  0  0
  -25.5996  -33.8225   24.1875 N   0  0  0  0  0  0
  -23.5311  -30.3766   21.4979 C   0  0  2  0  0  0
  -24.9905  -28.6843   20.1262 C   0  0  0  0  0  0
  -22.7827  -29.4214   22.4682 C   0  0  0  0  0  0
  -18.0347  -28.1420   22.8440 C   0  0  0  0  0  0
  -24.1508  -36.7126   23.2654 C   0  0  0  0  0  0
  -26.1168  -30.4639   21.4315 C   0  0  0  0  0  0
  -26.1779  -29.0109   20.7897 C   0  0  0  0  0  0
  -27.2744  -27.9767   20.8119 C   0  0  0  0  0  0
  -26.0181  -26.4769   19.5032 C   0  0  0  0  0  0
  -24.9573  -27.4446   19.4600 C   0  0  0  0  0  0
  -23.7952  -29.6593   20.1396 C   0  0  0  0  0  0
  -25.4162  -36.2860   24.0271 C   0  0  1  0  0  0
  -20.5987  -28.3789   23.1121 C   0  0  2  0  0  0
  -20.6809  -26.9439   22.5402 C   0  0  0  0  0  0
  -19.5789  -26.6360   21.5215 C   0  0  0  0  0  0
  -18.1971  -26.7940   22.1619 C   0  0  0  0  0  0
  -19.1615  -28.8931   23.2757 C   0  0  0  0  0  0
  -18.9514  -30.1510   23.8811 C   0  0  0  0  0  0
  -17.6504  -30.6600   24.0545 C   0  0  0  0  0  0
  -25.9147  -34.9246   23.4924 C   0  0  0  0  0  0
  -16.5395  -29.9076   23.6350 C   0  0  0  0  0  0
  -16.7326  -28.6500   23.0359 C   0  0  0  0  0  0
  -26.4606  -31.6487   25.0689 C   0  0  0  0  0  0
  -25.3618  -31.3808   26.1259 C   0  0  0  0  0  0
  -27.0583  -30.2814   24.6704 C   0  0  0  0  0  0
  -27.6020  -32.4392   25.7523 C   0  0  0  0  0  0
  -27.5571  -37.1718   24.8461 C   0  0  0  0  0  0
  -21.4463  -29.3011   22.3427 N   0  0  0  0  0  0
  -26.4278  -37.3631   23.9404 N   0  0  0  0  0  0
  -24.8064  -30.9121   22.0748 N   0  0  0  0  0  0
  -23.4202  -28.7846   23.3103 O   0  0  0  0  0  0
  -28.2262  -25.3056   20.2639 O   0  0  0  0  0  0
  -26.5814  -34.8848   22.4563 O   0  0  0  0  0  0
  -23.5956  -32.0975   23.6265 O   0  0  0  0  0  0
  -31.1738  -20.9624   20.5857 C   0  0  0  0  0  0
  -28.6313  -20.3998   20.2695 C   0  0  0  0  0  0
  -30.3061  -22.1154   20.5102 C   0  0  0  0  0  0
  -28.8829  -22.0374   20.3313 C   0  0  0  0  0  0
  -29.5560  -19.0309   20.3539 C   0  0  0  0  0  0
  -30.8591  -19.5622   20.5215 C   0  0  0  0  0  0
  -31.0052  -23.4013   20.6612 C   0  0  0  0  0  0
  -30.6833  -24.2600   21.6275 N   0  0  0  0  0  0
  -29.4474  -17.2464   20.3287 N   0  0  0  0  0  0
  -27.9824  -23.4518   20.2531 N   0  0  0  0  0  0
  -32.0407  -23.7054   19.8747 N   0  3  0  0  0  0
  -31.8904  -18.6943   20.6462 F   0  0  0  0  0  0
  -31.3822  -13.5342   19.1444 H   0  0  0  0  0  0
  -30.6324  -12.4380   20.2495 H   0  0  0  0  0  0
  -30.0542  -11.8562   17.8705 H   0  0  0  0  0  0
  -29.4865  -13.4832   17.5873 H   0  0  0  0  0  0
  -28.2082  -11.3249   19.2721 H   0  0  0  0  0  0
  -27.4820  -12.1981   17.9423 H   0  0  0  0  0  0
  -27.4237  -14.2192   19.2031 H   0  0  0  0  0  0
  -28.8991  -12.9051   21.5341 H   0  0  0  0  0  0
  -28.1156  -14.4635   21.5896 H   0  0  0  0  0  0
  -25.2801   -9.5685   22.4755 H   0  0  0  0  0  0
  -24.0008   -7.4651   22.7483 H   0  0  0  0  0  0
  -21.0862   -8.8803   19.8952 H   0  0  0  0  0  0
  -22.3746  -10.9680   19.6153 H   0  0  0  0  0  0
  -21.2049   -7.6158   23.9705 H   0  0  0  0  0  0
  -21.1468   -6.0528   25.9061 H   0  0  0  0  0  0
  -22.0603   -2.7610   23.2835 H   0  0  0  0  0  0
  -22.4056  -11.9778   22.4853 H   0  0  0  0  0  0
  -21.1001  -13.1085   22.2709 H   0  0  0  0  0  0
  -24.6131  -15.8522   20.5486 H   0  0  0  0  0  0
  -26.2223  -15.6489   20.0735 H   0  0  0  0  0  0
  -26.7570  -32.4817   23.0727 H   0  0  0  0  0  0
  -25.0002  -33.9241   24.9928 H   0  0  0  0  0  0
  -22.8660  -31.2186   21.2951 H   0  0  0  0  0  0
  -23.3778  -35.9448   23.3291 H   0  0  0  0  0  0
  -24.3567  -36.8812   22.2074 H   0  0  0  0  0  0
  -23.7275  -37.6299   23.6751 H   0  0  0  0  0  0
  -26.3370  -31.1761   20.6357 H   0  0  0  0  0  0
  -26.9619  -30.5388   22.1024 H   0  0  0  0  0  0
  -28.1716  -28.2413   21.3536 H   0  0  0  0  0  0
  -25.8420  -25.5544   18.9681 H   0  0  0  0  0  0
  -24.0686  -27.1869   18.9008 H   0  0  0  0  0  0
  -23.9884  -30.4141   19.3766 H   0  0  0  0  0  0
  -22.8969  -29.1359   19.8087 H   0  0  0  0  0  0
  -25.1383  -36.1607   25.0758 H   0  0  0  0  0  0
  -21.0054  -28.3418   24.1257 H   0  0  0  0  0  0
  -20.5662  -26.2419   23.3673 H   0  0  0  0  0  0
  -21.6671  -26.7356   22.1238 H   0  0  0  0  0  0
  -19.6947  -25.6246   21.1304 H   0  0  0  0  0  0
  -19.6732  -27.3124   20.6707 H   0  0  0  0  0  0
  -17.4240  -26.6664   21.4025 H   0  0  0  0  0  0
  -18.0363  -26.0101   22.9036 H   0  0  0  0  0  0
  -19.7989  -30.7339   24.2153 H   0  0  0  0  0  0
  -17.5052  -31.6268   24.5167 H   0  0  0  0  0  0
  -15.5392  -30.2956   23.7707 H   0  0  0  0  0  0
  -15.8721  -28.0789   22.7123 H   0  0  0  0  0  0
  -24.5932  -30.7014   25.7560 H   0  0  0  0  0  0
  -24.8647  -32.3001   26.4356 H   0  0  0  0  0  0
  -25.7766  -30.9228   27.0245 H   0  0  0  0  0  0
  -26.3327  -29.6371   24.1733 H   0  0  0  0  0  0
  -27.3989  -29.7343   25.5506 H   0  0  0  0  0  0
  -27.9313  -30.3928   24.0275 H   0  0  0  0  0  0
  -27.2532  -33.3778   26.1844 H   0  0  0  0  0  0
  -28.3951  -32.6817   25.0439 H   0  0  0  0  0  0
  -28.0554  -31.8697   26.5646 H   0  0  0  0  0  0
  -28.2535  -38.0064   24.7545 H   0  0  0  0  0  0
  -28.1124  -36.2590   24.6254 H   0  0  0  0  0  0
  -27.2281  -37.1302   25.8857 H   0  0  0  0  0  0
  -20.9805  -29.8644   21.6444 H   0  0  0  0  0  0
  -26.0097  -38.2672   24.1412 H   0  0  0  0  0  0
  -32.2243  -21.1621   20.7415 H   0  0  0  0  0  0
  -27.5866  -20.1625   20.1411 H   0  0  0  0  0  0
  -29.8314  -24.1036   22.1468 H   0  0  0  0  0  0
  -31.1784  -25.1240   21.7818 H   0  0  0  0  0  0
  -28.4705  -16.9975   20.3182 H   0  0  0  0  0  0
  -26.9797  -23.2906   20.1849 H   0  0  0  0  0  0
  -32.2825  -23.0865   19.1143 H   0  0  0  0  0  0
  -32.5330  -24.5821   19.9420 H   0  0  0  0  0  0
  1 25  1  0  0  0
  1 30  2  0  0  0
  1 79  1  0  0  0
  2  3  1  0  0  0
  2 25  1  0  0  0
  2 83  1  0  0  0
  2 84  1  0  0  0
  3  4  1  0  0  0
  3 85  1  0  0  0
  3 86  1  0  0  0
  4  5  1  0  0  0
  4 87  1  0  0  0
  4 88  1  0  0  0
  5  6  1  0  0  0
  5 26  1  0  0  0
  5 89  1  0  0  0
  6 25  1  0  0  0
  6 90  1  0  0  0
  6 91  1  0  0  0
  7  8  2  0  0  0
  7 26  1  0  0  0
  7 29  1  0  0  0
  8  9  1  0  0  0
  8 22  1  0  0  0
  9 10  1  0  0  0
  9 27  2  0  0  0
 10 11  2  0  0  0
 10 15  1  0  0  0
 11 12  1  0  0  0
 11 92  1  0  0  0
 12 13  2  0  0  0
 12 93  1  0  0  0
 13 14  1  0  0  0
 13 31  1  0  0  0
 14 15  2  0  0  0
 14 94  1  0  0  0
 15 95  1  0  0  0
 16 17  2  0  0  0
 16 21  1  0  0  0
 16 31  1  0  0  0
 17 18  1  0  0  0
 17 96  1  0  0  0
 18 19  2  0  0  0
 18 97  1  0  0  0
 19 20  1  0  0  0
 19 24  1  0  0  0
 20 21  2  0  0  0
 20 98  1  0  0  0
 21 23  1  0  0  0
 22 28  1  0  0  0
 22 32  2  0  0  0
 26 27  1  0  0  0
 28 99  1  0  0  0
 28100  1  0  0  0
 29101  1  0  0  0
 29102  1  0  0  0
 33 34  1  0  0  0
 33 66  1  0  0  0
 33 70  2  0  0  0
 34 36  1  0  0  0
 34 59  1  0  0  0
 34103  1  0  0  0
 35 44  2  0  0  0
 35 45  1  0  0  0
 35 68  1  0  0  0
 36 56  1  0  0  0
 36104  1  0  0  0
 37 39  1  0  0  0
 37 47  1  0  0  0
 37 66  1  0  0  0
 37105  1  0  0  0
 38 43  2  0  0  0
 38 46  1  0  0  0
 38 47  1  0  0  0
 39 64  1  0  0  0
 39 67  2  0  0  0
 40 52  1  0  0  0
 40 53  2  0  0  0
 40 58  1  0  0  0
 41106  1  0  0  0
 41107  1  0  0  0
 41108  1  0  0  0
 41 48  1  0  0  0
 42 43  1  0  0  0
 42 66  1  0  0  0
 42109  1  0  0  0
 42110  1  0  0  0
 43 44  1  0  0  0
 44111  1  0  0  0
 45 46  2  0  0  0
 45112  1  0  0  0
 46113  1  0  0  0
 47114  1  0  0  0
 47115  1  0  0  0
 48 56  1  0  0  0
 48 65  1  0  0  0
 48116  1  0  0  0
 49 50  1  0  0  0
 49 53  1  0  0  0
 49 64  1  0  0  0
 49117  1  0  0  0
 50 51  1  0  0  0
 50118  1  0  0  0
 50119  1  0  0  0
 51 52  1  0  0  0
 51120  1  0  0  0
 51121  1  0  0  0
 52122  1  0  0  0
 52123  1  0  0  0
 53 54  1  0  0  0
 54 55  2  0  0  0
 54124  1  0  0  0
 55 57  1  0  0  0
 55125  1  0  0  0
 56 69  2  0  0  0
 57 58  2  0  0  0
 57126  1  0  0  0
 58127  1  0  0  0
 59 60  1  0  0  0
 59 61  1  0  0  0
 59 62  1  0  0  0
 60128  1  0  0  0
 60129  1  0  0  0
 60130  1  0  0  0
 61131  1  0  0  0
 61132  1  0  0  0
 61133  1  0  0  0
 62134  1  0  0  0
 62135  1  0  0  0
 62136  1  0  0  0
 63 65  1  0  0  0
 63137  1  0  0  0
 63138  1  0  0  0
 63139  1  0  0  0
 64140  1  0  0  0
 65141  1  0  0  0
 68 80  1  0  0  0
 71 73  2  0  0  0
 71 76  1  0  0  0
 71142  1  0  0  0
 72 74  2  0  0  0
 72 75  1  0  0  0
 72143  1  0  0  0
 73 74  1  0  0  0
 73 77  1  0  0  0
 74 80  1  0  0  0
 75 76  2  0  0  0
 75 79  1  0  0  0
 76 82  1  0  0  0
 77 78  1  0  0  0
 77 81  2  0  0  0
 78144  1  0  0  0
 78145  1  0  0  0
 79146  1  0  0  0
 80147  1  0  0  0
 81148  1  0  0  0
 81149  1  0  0  0
M  CHG  1  81   1
M  ISO  4   1 100  68 101  79 100  80 101
M  END
> <chiral flag>
0

> <version>
0

> <s_m_source_file>
/data/baiqing/PycharmProjects/Reinvent-master-3.2/result/LINK_invent/BTK/process_docking_weight1_custom_product_contain_oxygen_bond_distance_aromatic_linkinvent_7_9_3/rearranged_h_0069.sdf

> <i_m_source_file_index>
23

> <r_mmod_Potential_Energy-OPLS-2005>
2725.515625

> <r_mmod_Stretch_Energy-OPLS-2005>
1337.31860351562

> <r_mmod_Bend_Energy-OPLS-2005>
690.113342285156

> <r_mmod_Torsional_Energy-OPLS-2005>
208.252883911133

> <r_mmod_Improper_Torsional_Energy-OPLS-2005>
5.13322973251343

> <r_mmod_Van_der_Waal_Energy-OPLS-2005>
136.179641723633

> <r_mmod_Electrostatic_Energy-OPLS-2005>
-413.859802246094

> <r_mmod_Solvation_Energy-OPLS-2005>
-460.100250244141

> <b_mmod_Minimization_Converged-OPLS-2005>
0

> <r_mmod_RMS_Derivative-OPLS-2005>
1.78211426734924

$$$$
24
                    3D
 Structure written by MMmdl.
165174  0  0  1  0            999 V2000
  -30.6154  -14.7099   20.4753 C   0  0  0  0  0  0
  -30.4337  -12.4297   19.4828 C   0  0  0  0  0  0
  -29.5147  -12.5155   18.2430 C   0  0  0  0  0  0
  -28.0378  -12.3469   18.6483 C   0  0  0  0  0  0
  -27.6500  -13.2304   19.8635 C   0  0  2  0  0  0
  -28.6910  -13.1308   21.0019 C   0  0  0  0  0  0
  -25.2537  -13.8198   20.5704 C   0  0  0  0  0  0
  -24.1810  -13.0445   20.9196 C   0  0  0  0  0  0
  -24.6392  -11.6924   20.8732 C   0  0  0  0  0  0
  -23.9060  -10.4301   21.0397 C   0  0  0  0  0  0
  -24.3610   -9.4218   21.9179 C   0  0  0  0  0  0
  -23.6291   -8.2250   22.0752 C   0  0  0  0  0  0
  -22.4274   -8.0283   21.3544 C   0  0  0  0  0  0
  -21.9906   -9.0253   20.4644 C   0  0  0  0  0  0
  -22.7229  -10.2136   20.3051 C   0  0  0  0  0  0
  -21.6855   -6.0736   22.5279 C   0  0  0  0  0  0
  -21.4015   -6.5639   23.8213 C   0  0  0  0  0  0
  -21.3661   -5.6790   24.9174 C   0  0  0  0  0  0
  -21.6048   -4.3054   24.7221 C   0  0  0  0  0  0
  -21.8820   -3.8147   23.4341 C   0  0  0  0  0  0
  -21.9193   -4.6963   22.3398 C   0  0  0  0  0  0
  -22.7831  -13.5236   21.1856 C   0  0  0  0  0  0
  -22.1664   -4.2150   21.0976 F   0  0  0  0  0  0
  -21.5628   -3.4538   25.7733 F   0  0  0  0  0  0
  -30.0040  -13.4764   20.4400 N   0  0  0  0  0  0
  -26.2973  -12.9404   20.3325 N   0  0  0  0  0  0
  -25.9329  -11.6545   20.5754 N   0  0  0  0  0  0
  -22.0467  -12.8228   22.0408 N   0  0  0  0  0  0
  -25.4247  -15.1921   20.4145 N   0  0  0  0  0  0
  -31.7688  -14.8412   20.0547 O   0  0  0  0  0  0
  -21.6641   -6.8878   21.4243 O   0  0  0  0  0  0
  -22.3524  -14.5545   20.6708 O   0  0  0  0  0  0
  -24.6308  -31.8561   23.2006 C   0  0  0  0  0  0
  -25.9140  -32.4756   23.8342 C   0  0  1  0  0  0
  -27.2160  -27.2631   20.1219 C   0  0  0  0  0  0
  -25.5940  -33.8561   24.2262 N   0  0  0  0  0  0
  -23.4267  -30.4809   21.5438 C   0  0  2  0  0  0
  -24.8735  -28.9336   20.1063 C   0  0  0  0  0  0
  -22.7500  -29.4607   22.4911 C   0  0  0  0  0  0
  -18.0291  -28.1385   22.8486 C   0  0  0  0  0  0
  -24.1494  -36.7281   23.2639 C   0  0  0  0  0  0
  -25.9738  -30.7670   21.3846 C   0  0  0  0  0  0
  -26.0437  -29.3912   20.7244 C   0  0  0  0  0  0
  -27.2140  -28.5657   20.7277 C   0  0  0  0  0  0
  -26.0287  -26.8912   19.4474 C   0  0  0  0  0  0
  -24.8717  -27.6917   19.4576 C   0  0  0  0  0  0
  -23.6443  -29.8192   20.1580 C   0  0  0  0  0  0
  -25.4120  -36.3069   24.0326 C   0  0  1  0  0  0
  -20.5896  -28.3696   23.1266 C   0  0  2  0  0  0
  -20.6779  -26.9414   22.5404 C   0  0  0  0  0  0
  -19.5754  -26.6382   21.5208 C   0  0  0  0  0  0
  -18.1936  -26.7927   22.1621 C   0  0  0  0  0  0
  -19.1547  -28.8857   23.2870 C   0  0  0  0  0  0
  -18.9466  -30.1456   23.8890 C   0  0  0  0  0  0
  -17.6466  -30.6586   24.0558 C   0  0  0  0  0  0
  -25.9062  -34.9440   23.5097 C   0  0  0  0  0  0
  -16.5356  -29.9083   23.6331 C   0  0  0  0  0  0
  -16.7277  -28.6499   23.0357 C   0  0  0  0  0  0
  -26.4507  -31.6582   25.0734 C   0  0  0  0  0  0
  -25.3726  -31.3731   26.1450 C   0  0  0  0  0  0
  -27.0357  -30.2994   24.6237 C   0  0  0  0  0  0
  -27.6061  -32.4323   25.7505 C   0  0  0  0  0  0
  -27.5581  -37.1795   24.8464 C   0  0  0  0  0  0
  -21.4207  -29.3043   22.3655 N   0  0  0  0  0  0
  -26.4291  -37.3769   23.9411 N   0  0  0  0  0  0
  -24.6958  -31.0528   22.0987 N   0  0  0  0  0  0
  -23.4202  -28.8149   23.3008 O   0  0  0  0  0  0
  -28.3078  -26.3641   20.2156 O   0  0  0  0  0  0
  -26.5632  -34.8912   22.4665 O   0  0  0  0  0  0
  -23.5458  -32.1391   23.7300 O   0  0  0  0  0  0
  -28.8621  -18.1850   18.1418 C   0  0  0  0  0  0
  -28.9402  -19.4636   18.7280 C   0  0  0  0  0  0
  -29.2326  -17.0259   18.8475 C   0  0  0  0  0  0
  -29.7481  -18.4269   20.7714 C   0  0  0  0  0  0
  -29.4124  -19.6560   20.0483 C   0  0  0  0  0  0
  -29.6779  -17.0953   20.1839 C   0  0  0  0  0  0
  -30.6589  -21.4497   21.2355 C   0  0  0  0  0  0
  -28.7148  -22.2117   19.9598 C   0  0  0  0  0  0
  -28.9061  -23.6867   20.5608 C   0  0  2  0  0  0
  -31.0719  -22.9616   21.3553 C   0  0  2  0  0  0
  -32.5163  -23.1141   20.8358 C   0  0  0  0  0  0
  -31.2171  -24.9283   23.0582 C   0  0  0  0  0  0
  -28.1566  -24.9168   19.8235 C   0  0  0  0  0  0
  -30.9763  -23.4244   22.8347 C   0  0  0  0  0  0
  -29.5629  -21.0749   20.5185 N   0  0  0  0  0  0
  -29.8827  -15.8091   20.8846 N   0  0  0  0  0  0
  -31.3731  -20.6302   21.8250 O   0  0  0  0  0  0
  -30.3112  -23.8506   20.5161 O   0  0  0  0  0  0
  -31.4775  -12.5434   19.1850 H   0  0  0  0  0  0
  -30.3652  -11.4437   19.9455 H   0  0  0  0  0  0
  -29.7926  -11.7533   17.5140 H   0  0  0  0  0  0
  -29.6537  -13.4779   17.7473 H   0  0  0  0  0  0
  -27.8815  -11.2955   18.8915 H   0  0  0  0  0  0
  -27.3857  -12.5633   17.8011 H   0  0  0  0  0  0
  -27.6562  -14.2599   19.5047 H   0  0  0  0  0  0
  -28.7120  -12.1230   21.4189 H   0  0  0  0  0  0
  -28.4246  -13.7921   21.8275 H   0  0  0  0  0  0
  -25.2752   -9.5703   22.4755 H   0  0  0  0  0  0
  -24.0004   -7.4642   22.7473 H   0  0  0  0  0  0
  -21.0836   -8.8762   19.8952 H   0  0  0  0  0  0
  -22.3676  -10.9667   19.6159 H   0  0  0  0  0  0
  -21.2005   -7.6150   23.9716 H   0  0  0  0  0  0
  -21.1490   -6.0520   25.9077 H   0  0  0  0  0  0
  -22.0596   -2.7609   23.2833 H   0  0  0  0  0  0
  -22.4070  -11.9889   22.4806 H   0  0  0  0  0  0
  -21.1089  -13.1271   22.2607 H   0  0  0  0  0  0
  -24.6595  -15.8476   20.5284 H   0  0  0  0  0  0
  -26.2791  -15.6331   20.0976 H   0  0  0  0  0  0
  -26.7206  -32.5406   23.1080 H   0  0  0  0  0  0
  -25.0083  -33.9699   25.0405 H   0  0  0  0  0  0
  -22.7225  -31.3031   21.4004 H   0  0  0  0  0  0
  -23.3757  -35.9611   23.3295 H   0  0  0  0  0  0
  -24.3584  -36.8913   22.2055 H   0  0  0  0  0  0
  -23.7243  -37.6479   23.6669 H   0  0  0  0  0  0
  -26.1171  -31.5296   20.6175 H   0  0  0  0  0  0
  -26.8496  -30.8113   22.0204 H   0  0  0  0  0  0
  -28.1044  -28.9057   21.2373 H   0  0  0  0  0  0
  -25.9493  -25.9632   18.9037 H   0  0  0  0  0  0
  -23.9807  -27.3429   18.9535 H   0  0  0  0  0  0
  -23.7676  -30.5978   19.4043 H   0  0  0  0  0  0
  -22.7625  -29.2529   19.8523 H   0  0  0  0  0  0
  -25.1302  -36.1913   25.0817 H   0  0  0  0  0  0
  -20.9988  -28.3274   24.1386 H   0  0  0  0  0  0
  -20.5676  -26.2308   23.3610 H   0  0  0  0  0  0
  -21.6648  -26.7437   22.1200 H   0  0  0  0  0  0
  -19.6917  -25.6290   21.1245 H   0  0  0  0  0  0
  -19.6693  -27.3186   20.6733 H   0  0  0  0  0  0
  -17.4206  -26.6673   21.4024 H   0  0  0  0  0  0
  -18.0337  -26.0068   22.9017 H   0  0  0  0  0  0
  -19.7942  -30.7272   24.2259 H   0  0  0  0  0  0
  -17.5021  -31.6268   24.5156 H   0  0  0  0  0  0
  -15.5356  -30.2982   23.7658 H   0  0  0  0  0  0
  -15.8678  -28.0811   22.7082 H   0  0  0  0  0  0
  -24.5914  -30.7067   25.7775 H   0  0  0  0  0  0
  -24.8903  -32.2897   26.4854 H   0  0  0  0  0  0
  -25.8042  -30.8924   27.0239 H   0  0  0  0  0  0
  -26.2947  -29.6735   24.1251 H   0  0  0  0  0  0
  -27.4014  -29.7267   25.4769 H   0  0  0  0  0  0
  -27.8838  -30.4256   23.9503 H   0  0  0  0  0  0
  -27.2673  -33.3630   26.2066 H   0  0  0  0  0  0
  -28.3878  -32.6870   25.0337 H   0  0  0  0  0  0
  -28.0723  -31.8460   26.5433 H   0  0  0  0  0  0
  -28.2589  -38.0101   24.7520 H   0  0  0  0  0  0
  -28.1085  -36.2630   24.6277 H   0  0  0  0  0  0
  -27.2300  -37.1428   25.8867 H   0  0  0  0  0  0
  -20.9393  -29.8764   21.6859 H   0  0  0  0  0  0
  -26.0168  -38.2843   24.1410 H   0  0  0  0  0  0
  -28.5084  -18.0916   17.1245 H   0  0  0  0  0  0
  -28.6563  -20.3018   18.1101 H   0  0  0  0  0  0
  -29.1329  -16.0700   18.3526 H   0  0  0  0  0  0
  -30.0712  -18.5003   21.7998 H   0  0  0  0  0  0
  -28.9248  -22.2864   18.8936 H   0  0  0  0  0  0
  -27.6656  -21.9276   20.0441 H   0  0  0  0  0  0
  -28.5677  -23.6925   21.5967 H   0  0  0  0  0  0
  -33.2295  -22.5832   21.4675 H   0  0  0  0  0  0
  -32.8251  -24.1580   20.7960 H   0  0  0  0  0  0
  -32.6142  -22.7147   19.8256 H   0  0  0  0  0  0
  -31.1101  -25.1822   24.1130 H   0  0  0  0  0  0
  -30.5020  -25.5352   22.5018 H   0  0  0  0  0  0
  -32.2198  -25.2280   22.7539 H   0  0  0  0  0  0
  -27.1140  -24.6284   19.9319 H   0  0  0  0  0  0
  -28.3731  -24.8592   18.7562 H   0  0  0  0  0  0
  -31.6944  -22.8632   23.4352 H   0  0  0  0  0  0
  -30.0010  -23.1625   23.2467 H   0  0  0  0  0  0
  -29.1037  -15.5501   21.4719 H   0  0  0  0  0  0
  1 25  1  0  0  0
  1 30  2  0  0  0
  1 86  1  0  0  0
  2  3  1  0  0  0
  2 25  1  0  0  0
  2 89  1  0  0  0
  2 90  1  0  0  0
  3  4  1  0  0  0
  3 91  1  0  0  0
  3 92  1  0  0  0
  4  5  1  0  0  0
  4 93  1  0  0  0
  4 94  1  0  0  0
  5  6  1  0  0  0
  5 26  1  0  0  0
  5 95  1  0  0  0
  6 25  1  0  0  0
  6 96  1  0  0  0
  6 97  1  0  0  0
  7  8  2  0  0  0
  7 26  1  0  0  0
  7 29  1  0  0  0
  8  9  1  0  0  0
  8 22  1  0  0  0
  9 10  1  0  0  0
  9 27  2  0  0  0
 10 11  2  0  0  0
 10 15  1  0  0  0
 11 12  1  0  0  0
 11 98  1  0  0  0
 12 13  2  0  0  0
 12 99  1  0  0  0
 13 14  1  0  0  0
 13 31  1  0  0  0
 14 15  2  0  0  0
 14100  1  0  0  0
 15101  1  0  0  0
 16 17  2  0  0  0
 16 21  1  0  0  0
 16 31  1  0  0  0
 17 18  1  0  0  0
 17102  1  0  0  0
 18 19  2  0  0  0
 18103  1  0  0  0
 19 20  1  0  0  0
 19 24  1  0  0  0
 20 21  2  0  0  0
 20104  1  0  0  0
 21 23  1  0  0  0
 22 28  1  0  0  0
 22 32  2  0  0  0
 26 27  1  0  0  0
 28105  1  0  0  0
 28106  1  0  0  0
 29107  1  0  0  0
 29108  1  0  0  0
 33 34  1  0  0  0
 33 66  1  0  0  0
 33 70  2  0  0  0
 34 36  1  0  0  0
 34 59  1  0  0  0
 34109  1  0  0  0
 35 44  2  0  0  0
 35 45  1  0  0  0
 35 68  1  0  0  0
 36 56  1  0  0  0
 36110  1  0  0  0
 37 39  1  0  0  0
 37 47  1  0  0  0
 37 66  1  0  0  0
 37111  1  0  0  0
 38 43  2  0  0  0
 38 46  1  0  0  0
 38 47  1  0  0  0
 39 64  1  0  0  0
 39 67  2  0  0  0
 40 52  1  0  0  0
 40 53  2  0  0  0
 40 58  1  0  0  0
 41112  1  0  0  0
 41113  1  0  0  0
 41114  1  0  0  0
 41 48  1  0  0  0
 42 43  1  0  0  0
 42 66  1  0  0  0
 42115  1  0  0  0
 42116  1  0  0  0
 43 44  1  0  0  0
 44117  1  0  0  0
 45 46  2  0  0  0
 45118  1  0  0  0
 46119  1  0  0  0
 47120  1  0  0  0
 47121  1  0  0  0
 48 56  1  0  0  0
 48 65  1  0  0  0
 48122  1  0  0  0
 49 50  1  0  0  0
 49 53  1  0  0  0
 49 64  1  0  0  0
 49123  1  0  0  0
 50 51  1  0  0  0
 50124  1  0  0  0
 50125  1  0  0  0
 51 52  1  0  0  0
 51126  1  0  0  0
 51127  1  0  0  0
 52128  1  0  0  0
 52129  1  0  0  0
 53 54  1  0  0  0
 54 55  2  0  0  0
 54130  1  0  0  0
 55 57  1  0  0  0
 55131  1  0  0  0
 56 69  2  0  0  0
 57 58  2  0  0  0
 57132  1  0  0  0
 58133  1  0  0  0
 59 60  1  0  0  0
 59 61  1  0  0  0
 59 62  1  0  0  0
 60134  1  0  0  0
 60135  1  0  0  0
 60136  1  0  0  0
 61137  1  0  0  0
 61138  1  0  0  0
 61139  1  0  0  0
 62140  1  0  0  0
 62141  1  0  0  0
 62142  1  0  0  0
 63 65  1  0  0  0
 63143  1  0  0  0
 63144  1  0  0  0
 63145  1  0  0  0
 64146  1  0  0  0
 65147  1  0  0  0
 68 83  1  0  0  0
 71 72  2  0  0  0
 71 73  1  0  0  0
 71148  1  0  0  0
 72 75  1  0  0  0
 72149  1  0  0  0
 73 76  2  0  0  0
 73150  1  0  0  0
 74 75  2  0  0  0
 74 76  1  0  0  0
 74151  1  0  0  0
 75 85  1  0  0  0
 76 86  1  0  0  0
 77 80  1  0  0  0
 77 85  1  0  0  0
 77 87  2  0  0  0
 78 79  1  0  0  0
 78 85  1  0  0  0
 78152  1  0  0  0
 78153  1  0  0  0
 79 83  1  0  0  0
 79 88  1  0  0  0
 79154  1  0  0  0
 80 81  1  0  0  0
 80 84  1  0  0  0
 80 88  1  0  0  0
 81155  1  0  0  0
 81156  1  0  0  0
 81157  1  0  0  0
 82 84  1  0  0  0
 82158  1  0  0  0
 82159  1  0  0  0
 82160  1  0  0  0
 83161  1  0  0  0
 83162  1  0  0  0
 84163  1  0  0  0
 84164  1  0  0  0
 86165  1  0  0  0
M  ISO  4   1 100  68 101  83 101  86 100
M  END
> <chiral flag>
0

> <version>
0

> <s_m_source_file>
/data/baiqing/PycharmProjects/Reinvent-master-3.2/result/LINK_invent/BTK/process_docking_weight1_custom_product_contain_oxygen_bond_distance_aromatic_linkinvent_7_9_3/rearranged_h_0069.sdf

> <i_m_source_file_index>
24

> <r_mmod_Potential_Energy-OPLS-2005>
316.364349365234

> <r_mmod_Stretch_Energy-OPLS-2005>
129.688629150391

> <r_mmod_Bend_Energy-OPLS-2005>
173.956878662109

> <r_mmod_Torsional_Energy-OPLS-2005>
299.687469482422

> <r_mmod_Improper_Torsional_Energy-OPLS-2005>
5.95007181167603

> <r_mmod_Van_der_Waal_Energy-OPLS-2005>
156.493835449219

> <r_mmod_Electrostatic_Energy-OPLS-2005>
-300.448547363281

> <r_mmod_Solvation_Energy-OPLS-2005>
-226.574340820312

> <b_mmod_Minimization_Converged-OPLS-2005>
0

> <r_mmod_RMS_Derivative-OPLS-2005>
0.628858923912048

$$$$
25
                    3D
 Structure written by MMmdl.
153161  0  0  1  0            999 V2000
  -30.6184  -14.7432   20.4366 C   0  0  0  0  0  0
  -30.4238  -12.4407   19.4972 C   0  0  0  0  0  0
  -29.5089  -12.4968   18.2506 C   0  0  0  0  0  0
  -28.0395  -12.3105   18.6685 C   0  0  0  0  0  0
  -27.6393  -13.2314   19.8517 C   0  0  2  0  0  0
  -28.6803  -13.1875   20.9949 C   0  0  0  0  0  0
  -25.2482  -13.8182   20.5699 C   0  0  0  0  0  0
  -24.1775  -13.0413   20.9181 C   0  0  0  0  0  0
  -24.6369  -11.6896   20.8727 C   0  0  0  0  0  0
  -23.9059  -10.4269   21.0390 C   0  0  0  0  0  0
  -24.3606   -9.4185   21.9162 C   0  0  0  0  0  0
  -23.6272   -8.2231   22.0740 C   0  0  0  0  0  0
  -22.4256   -8.0264   21.3538 C   0  0  0  0  0  0
  -21.9892   -9.0242   20.4648 C   0  0  0  0  0  0
  -22.7231  -10.2114   20.3051 C   0  0  0  0  0  0
  -21.6846   -6.0727   22.5272 C   0  0  0  0  0  0
  -21.4026   -6.5638   23.8207 C   0  0  0  0  0  0
  -21.3664   -5.6787   24.9169 C   0  0  0  0  0  0
  -21.6038   -4.3046   24.7227 C   0  0  0  0  0  0
  -21.8816   -3.8140   23.4348 C   0  0  0  0  0  0
  -21.9182   -4.6954   22.3399 C   0  0  0  0  0  0
  -22.7808  -13.5199   21.1842 C   0  0  0  0  0  0
  -22.1644   -4.2138   21.0974 F   0  0  0  0  0  0
  -21.5623   -3.4533   25.7743 F   0  0  0  0  0  0
  -29.9894  -13.5170   20.4205 N   0  0  0  0  0  0
  -26.2916  -12.9394   20.3288 N   0  0  0  0  0  0
  -25.9313  -11.6539   20.5776 N   0  0  0  0  0  0
  -22.0476  -12.8193   22.0412 N   0  0  0  0  0  0
  -25.4164  -15.1917   20.4157 N   0  0  0  0  0  0
  -31.7997  -14.8230   20.0835 O   0  0  0  0  0  0
  -21.6623   -6.8864   21.4236 O   0  0  0  0  0  0
  -22.3493  -14.5511   20.6690 O   0  0  0  0  0  0
  -24.6308  -31.8562   23.1970 C   0  0  0  0  0  0
  -25.9124  -32.4765   23.8312 C   0  0  1  0  0  0
  -27.2249  -27.2673   20.1267 C   0  0  0  0  0  0
  -25.5900  -33.8565   24.2241 N   0  0  0  0  0  0
  -23.4265  -30.4746   21.5424 C   0  0  2  0  0  0
  -24.8695  -28.9175   20.1050 C   0  0  0  0  0  0
  -22.7502  -29.4591   22.4952 C   0  0  0  0  0  0
  -18.0289  -28.1397   22.8504 C   0  0  0  0  0  0
  -24.1469  -36.7289   23.2650 C   0  0  0  0  0  0
  -25.9680  -30.7690   21.3720 C   0  0  0  0  0  0
  -26.0380  -29.3900   20.7165 C   0  0  0  0  0  0
  -27.2120  -28.5757   20.7189 C   0  0  0  0  0  0
  -26.0325  -26.8506   19.4951 C   0  0  0  0  0  0
  -24.8738  -27.6574   19.4811 C   0  0  0  0  0  0
  -23.6382  -29.8034   20.1582 C   0  0  0  0  0  0
  -25.4103  -36.3094   24.0341 C   0  0  1  0  0  0
  -20.5891  -28.3692   23.1296 C   0  0  2  0  0  0
  -20.6765  -26.9414   22.5433 C   0  0  0  0  0  0
  -19.5733  -26.6390   21.5240 C   0  0  0  0  0  0
  -18.1918  -26.7941   22.1645 C   0  0  0  0  0  0
  -19.1546  -28.8872   23.2894 C   0  0  0  0  0  0
  -18.9464  -30.1467   23.8909 C   0  0  0  0  0  0
  -17.6458  -30.6598   24.0579 C   0  0  0  0  0  0
  -25.9048  -34.9461   23.5108 C   0  0  0  0  0  0
  -16.5351  -29.9095   23.6332 C   0  0  0  0  0  0
  -16.7274  -28.6519   23.0360 C   0  0  0  0  0  0
  -26.4488  -31.6597   25.0712 C   0  0  0  0  0  0
  -25.3700  -31.3736   26.1438 C   0  0  0  0  0  0
  -27.0362  -30.3036   24.6180 C   0  0  0  0  0  0
  -27.6056  -32.4339   25.7461 C   0  0  0  0  0  0
  -27.5580  -37.1791   24.8473 C   0  0  0  0  0  0
  -21.4226  -29.3022   22.3679 N   0  0  0  0  0  0
  -26.4284  -37.3792   23.9422 N   0  0  0  0  0  0
  -24.6948  -31.0512   22.0933 N   0  0  0  0  0  0
  -23.4214  -28.8166   23.3074 O   0  0  0  0  0  0
  -28.3526  -26.4224   20.2214 O   0  0  0  0  0  0
  -26.5647  -34.8945   22.4694 O   0  0  0  0  0  0
  -23.5460  -32.1382   23.7262 O   0  0  0  0  0  0
  -29.4768  -18.5043   20.5049 C   0  0  0  0  0  0
  -30.4022  -17.2256   18.6527 C   0  0  0  0  0  0
  -29.9416  -17.2143   19.9878 C   0  0  0  0  0  0
  -29.4692  -19.7518   19.7378 C   0  0  0  0  0  0
  -29.8967  -19.6187   18.3826 C   0  0  0  0  0  0
  -30.3697  -18.3910   17.8709 C   0  0  0  0  0  0
  -29.2480  -22.3879   19.9437 C   0  0  0  0  0  0
  -28.3648  -23.6484   20.4100 C   0  0  0  0  0  0
  -28.4848  -25.0596   19.6048 C   0  0  0  0  0  0
  -29.8350  -20.6699   17.4693 N   0  0  0  0  0  0
  -28.9360  -21.0616   20.2505 N   0  0  0  0  0  0
  -29.8803  -15.8958   20.6841 N   0  0  0  0  0  0
  -30.2875  -22.6524   19.3359 O   0  0  0  0  0  0
  -30.7775  -18.3240   16.5788 F   0  0  0  0  0  0
  -30.3466  -11.4704   19.9907 H   0  0  0  0  0  0
  -31.4692  -12.5414   19.2031 H   0  0  0  0  0  0
  -29.7924  -11.7245   17.5347 H   0  0  0  0  0  0
  -29.6323  -13.4521   17.7391 H   0  0  0  0  0  0
  -27.9170  -11.2659   18.9606 H   0  0  0  0  0  0
  -27.3730  -12.4632   17.8193 H   0  0  0  0  0  0
  -27.6278  -14.2475   19.4549 H   0  0  0  0  0  0
  -28.4149  -13.8950   21.7820 H   0  0  0  0  0  0
  -28.7077  -12.2046   21.4660 H   0  0  0  0  0  0
  -25.2748   -9.5663   22.4740 H   0  0  0  0  0  0
  -23.9981   -7.4626   22.7457 H   0  0  0  0  0  0
  -21.0816   -8.8763   19.8963 H   0  0  0  0  0  0
  -22.3664  -10.9653   19.6171 H   0  0  0  0  0  0
  -21.2043   -7.6147   23.9715 H   0  0  0  0  0  0
  -21.1479   -6.0515   25.9068 H   0  0  0  0  0  0
  -22.0595   -2.7605   23.2849 H   0  0  0  0  0  0
  -22.4144  -11.9873   22.4778 H   0  0  0  0  0  0
  -21.1106  -13.1224   22.2658 H   0  0  0  0  0  0
  -24.6464  -15.8422   20.5299 H   0  0  0  0  0  0
  -26.2626  -15.6359   20.0836 H   0  0  0  0  0  0
  -26.7199  -32.5407   23.1058 H   0  0  0  0  0  0
  -24.9957  -33.9685   25.0329 H   0  0  0  0  0  0
  -22.7222  -31.2975   21.3996 H   0  0  0  0  0  0
  -23.3748  -35.9604   23.3325 H   0  0  0  0  0  0
  -24.3558  -36.8912   22.2065 H   0  0  0  0  0  0
  -23.7213  -37.6488   23.6663 H   0  0  0  0  0  0
  -26.1029  -31.5271   20.5990 H   0  0  0  0  0  0
  -26.8475  -30.8220   22.0016 H   0  0  0  0  0  0
  -28.1043  -28.9336   21.2119 H   0  0  0  0  0  0
  -25.9636  -25.8754   19.0366 H   0  0  0  0  0  0
  -23.9809  -27.2894   18.9934 H   0  0  0  0  0  0
  -23.7504  -30.5793   19.3993 H   0  0  0  0  0  0
  -22.7555  -29.2326   19.8626 H   0  0  0  0  0  0
  -25.1284  -36.1946   25.0834 H   0  0  0  0  0  0
  -20.9990  -28.3274   24.1413 H   0  0  0  0  0  0
  -20.5681  -26.2309   23.3649 H   0  0  0  0  0  0
  -21.6627  -26.7439   22.1217 H   0  0  0  0  0  0
  -19.6893  -25.6307   21.1262 H   0  0  0  0  0  0
  -19.6654  -27.3206   20.6776 H   0  0  0  0  0  0
  -17.4190  -26.6716   21.4040 H   0  0  0  0  0  0
  -18.0284  -26.0079   22.9029 H   0  0  0  0  0  0
  -19.7939  -30.7295   24.2282 H   0  0  0  0  0  0
  -17.5006  -31.6273   24.5178 H   0  0  0  0  0  0
  -15.5346  -30.3002   23.7646 H   0  0  0  0  0  0
  -15.8679  -28.0840   22.7058 H   0  0  0  0  0  0
  -24.5860  -30.7129   25.7725 H   0  0  0  0  0  0
  -24.8896  -32.2893   26.4906 H   0  0  0  0  0  0
  -25.7990  -30.8829   27.0184 H   0  0  0  0  0  0
  -26.2951  -29.6776   24.1201 H   0  0  0  0  0  0
  -27.4063  -29.7303   25.4686 H   0  0  0  0  0  0
  -27.8809  -30.4367   23.9417 H   0  0  0  0  0  0
  -27.2683  -33.3645   26.2041 H   0  0  0  0  0  0
  -28.3811  -32.6922   25.0238 H   0  0  0  0  0  0
  -28.0788  -31.8472   26.5345 H   0  0  0  0  0  0
  -28.2634  -38.0056   24.7527 H   0  0  0  0  0  0
  -28.1045  -36.2606   24.6283 H   0  0  0  0  0  0
  -27.2310  -37.1435   25.8880 H   0  0  0  0  0  0
  -20.9440  -29.8727   21.6853 H   0  0  0  0  0  0
  -26.0189  -38.2881   24.1397 H   0  0  0  0  0  0
  -29.1083  -18.5381   21.5204 H   0  0  0  0  0  0
  -30.7455  -16.3202   18.1755 H   0  0  0  0  0  0
  -28.6208  -23.8304   21.4528 H   0  0  0  0  0  0
  -27.3186  -23.3398   20.4179 H   0  0  0  0  0  0
  -27.8948  -24.9986   18.6912 H   0  0  0  0  0  0
  -29.5053  -25.0925   19.2279 H   0  0  0  0  0  0
  -30.0766  -21.5646   17.8971 H   0  0  0  0  0  0
  -30.3659  -20.5031   16.6220 H   0  0  0  0  0  0
  -28.1939  -20.9707   20.9306 H   0  0  0  0  0  0
  -29.0617  -15.7528   21.2578 H   0  0  0  0  0  0
  1 25  1  0  0  0
  1 30  2  0  0  0
  1 82  1  0  0  0
  2  3  1  0  0  0
  2 25  1  0  0  0
  2 85  1  0  0  0
  2 86  1  0  0  0
  3  4  1  0  0  0
  3 87  1  0  0  0
  3 88  1  0  0  0
  4  5  1  0  0  0
  4 89  1  0  0  0
  4 90  1  0  0  0
  5  6  1  0  0  0
  5 26  1  0  0  0
  5 91  1  0  0  0
  6 25  1  0  0  0
  6 92  1  0  0  0
  6 93  1  0  0  0
  7  8  2  0  0  0
  7 26  1  0  0  0
  7 29  1  0  0  0
  8  9  1  0  0  0
  8 22  1  0  0  0
  9 10  1  0  0  0
  9 27  2  0  0  0
 10 11  2  0  0  0
 10 15  1  0  0  0
 11 12  1  0  0  0
 11 94  1  0  0  0
 12 13  2  0  0  0
 12 95  1  0  0  0
 13 14  1  0  0  0
 13 31  1  0  0  0
 14 15  2  0  0  0
 14 96  1  0  0  0
 15 97  1  0  0  0
 16 17  2  0  0  0
 16 21  1  0  0  0
 16 31  1  0  0  0
 17 18  1  0  0  0
 17 98  1  0  0  0
 18 19  2  0  0  0
 18 99  1  0  0  0
 19 20  1  0  0  0
 19 24  1  0  0  0
 20 21  2  0  0  0
 20100  1  0  0  0
 21 23  1  0  0  0
 22 28  1  0  0  0
 22 32  2  0  0  0
 26 27  1  0  0  0
 28101  1  0  0  0
 28102  1  0  0  0
 29103  1  0  0  0
 29104  1  0  0  0
 33 34  1  0  0  0
 33 66  1  0  0  0
 33 70  2  0  0  0
 34 36  1  0  0  0
 34 59  1  0  0  0
 34105  1  0  0  0
 35 44  2  0  0  0
 35 45  1  0  0  0
 35 68  1  0  0  0
 36 56  1  0  0  0
 36106  1  0  0  0
 37 39  1  0  0  0
 37 47  1  0  0  0
 37 66  1  0  0  0
 37107  1  0  0  0
 38 43  2  0  0  0
 38 46  1  0  0  0
 38 47  1  0  0  0
 39 64  1  0  0  0
 39 67  2  0  0  0
 40 52  1  0  0  0
 40 53  2  0  0  0
 40 58  1  0  0  0
 41108  1  0  0  0
 41109  1  0  0  0
 41110  1  0  0  0
 41 48  1  0  0  0
 42 43  1  0  0  0
 42 66  1  0  0  0
 42111  1  0  0  0
 42112  1  0  0  0
 43 44  1  0  0  0
 44113  1  0  0  0
 45 46  2  0  0  0
 45114  1  0  0  0
 46115  1  0  0  0
 47116  1  0  0  0
 47117  1  0  0  0
 48 56  1  0  0  0
 48 65  1  0  0  0
 48118  1  0  0  0
 49 50  1  0  0  0
 49 53  1  0  0  0
 49 64  1  0  0  0
 49119  1  0  0  0
 50 51  1  0  0  0
 50120  1  0  0  0
 50121  1  0  0  0
 51 52  1  0  0  0
 51122  1  0  0  0
 51123  1  0  0  0
 52124  1  0  0  0
 52125  1  0  0  0
 53 54  1  0  0  0
 54 55  2  0  0  0
 54126  1  0  0  0
 55 57  1  0  0  0
 55127  1  0  0  0
 56 69  2  0  0  0
 57 58  2  0  0  0
 57128  1  0  0  0
 58129  1  0  0  0
 59 60  1  0  0  0
 59 61  1  0  0  0
 59 62  1  0  0  0
 60130  1  0  0  0
 60131  1  0  0  0
 60132  1  0  0  0
 61133  1  0  0  0
 61134  1  0  0  0
 61135  1  0  0  0
 62136  1  0  0  0
 62137  1  0  0  0
 62138  1  0  0  0
 63 65  1  0  0  0
 63139  1  0  0  0
 63140  1  0  0  0
 63141  1  0  0  0
 64142  1  0  0  0
 65143  1  0  0  0
 68 79  1  0  0  0
 71 73  2  0  0  0
 71 74  1  0  0  0
 71144  1  0  0  0
 72 73  1  0  0  0
 72 76  2  0  0  0
 72145  1  0  0  0
 73 82  1  0  0  0
 74 75  2  0  0  0
 74 81  1  0  0  0
 75 76  1  0  0  0
 75 80  1  0  0  0
 76 84  1  0  0  0
 77 78  1  0  0  0
 77 81  1  0  0  0
 77 83  2  0  0  0
 78 79  1  0  0  0
 78146  1  0  0  0
 78147  1  0  0  0
 79148  1  0  0  0
 79149  1  0  0  0
 80150  1  0  0  0
 80151  1  0  0  0
 81152  1  0  0  0
 82153  1  0  0  0
M  ISO  4   1 100  68 101  79 101  82 100
M  END
> <chiral flag>
0

> <version>
0

> <s_m_source_file>
/data/baiqing/PycharmProjects/Reinvent-master-3.2/result/LINK_invent/BTK/process_docking_weight1_custom_product_contain_oxygen_bond_distance_aromatic_linkinvent_7_9_3/rearranged_h_0069.sdf

> <i_m_source_file_index>
25

> <r_mmod_Potential_Energy-OPLS-2005>
125.67658996582

> <r_mmod_Stretch_Energy-OPLS-2005>
134.70915222168

> <r_mmod_Bend_Energy-OPLS-2005>
181.213958740234

> <r_mmod_Torsional_Energy-OPLS-2005>
254.069763183594

> <r_mmod_Improper_Torsional_Energy-OPLS-2005>
10.6635971069336

> <r_mmod_Van_der_Waal_Energy-OPLS-2005>
154.195068359375

> <r_mmod_Electrostatic_Energy-OPLS-2005>
-453.369995117188

> <r_mmod_Solvation_Energy-OPLS-2005>
-238.651443481445

> <b_mmod_Minimization_Converged-OPLS-2005>
0

> <r_mmod_RMS_Derivative-OPLS-2005>
2.90092730522156

$$$$
26
                    3D
 Structure written by MMmdl.
166175  0  0  1  0            999 V2000
  -30.6086  -14.7729   20.4236 C   0  0  0  0  0  0
  -30.4303  -12.4636   19.4868 C   0  0  0  0  0  0
  -29.5177  -12.5146   18.2413 C   0  0  0  0  0  0
  -28.0429  -12.3334   18.6498 C   0  0  0  0  0  0
  -27.6417  -13.2375   19.8469 C   0  0  2  0  0  0
  -28.6841  -13.1908   20.9862 C   0  0  0  0  0  0
  -25.2505  -13.8212   20.5681 C   0  0  0  0  0  0
  -24.1797  -13.0441   20.9188 C   0  0  0  0  0  0
  -24.6398  -11.6926   20.8724 C   0  0  0  0  0  0
  -23.9065  -10.4298   21.0385 C   0  0  0  0  0  0
  -24.3618   -9.4218   21.9164 C   0  0  0  0  0  0
  -23.6291   -8.2253   22.0757 C   0  0  0  0  0  0
  -22.4271   -8.0285   21.3552 C   0  0  0  0  0  0
  -21.9899   -9.0253   20.4656 C   0  0  0  0  0  0
  -22.7230  -10.2128   20.3049 C   0  0  0  0  0  0
  -21.6856   -6.0732   22.5281 C   0  0  0  0  0  0
  -21.4020   -6.5635   23.8215 C   0  0  0  0  0  0
  -21.3656   -5.6788   24.9175 C   0  0  0  0  0  0
  -21.6044   -4.3050   24.7231 C   0  0  0  0  0  0
  -21.8813   -3.8144   23.4349 C   0  0  0  0  0  0
  -21.9195   -4.6959   22.3408 C   0  0  0  0  0  0
  -22.7821  -13.5231   21.1841 C   0  0  0  0  0  0
  -22.1657   -4.2144   21.0986 F   0  0  0  0  0  0
  -21.5625   -3.4532   25.7741 F   0  0  0  0  0  0
  -29.9870  -13.5401   20.4070 N   0  0  0  0  0  0
  -26.2939  -12.9434   20.3254 N   0  0  0  0  0  0
  -25.9334  -11.6569   20.5724 N   0  0  0  0  0  0
  -22.0443  -12.8242   22.0403 N   0  0  0  0  0  0
  -25.4171  -15.1937   20.4111 N   0  0  0  0  0  0
  -31.7991  -14.8457   20.1065 O   0  0  0  0  0  0
  -21.6636   -6.8876   21.4246 O   0  0  0  0  0  0
  -22.3503  -14.5517   20.6657 O   0  0  0  0  0  0
  -24.6341  -31.8532   23.1917 C   0  0  0  0  0  0
  -25.9165  -32.4744   23.8278 C   0  0  1  0  0  0
  -27.2237  -27.2448   20.1254 C   0  0  0  0  0  0
  -25.5951  -33.8538   24.2231 N   0  0  0  0  0  0
  -23.4300  -30.4723   21.5380 C   0  0  2  0  0  0
  -24.8751  -28.9106   20.1077 C   0  0  0  0  0  0
  -22.7512  -29.4598   22.4916 C   0  0  0  0  0  0
  -18.0294  -28.1406   22.8489 C   0  0  0  0  0  0
  -24.1492  -36.7269   23.2638 C   0  0  0  0  0  0
  -25.9742  -30.7628   21.3673 C   0  0  0  0  0  0
  -26.0463  -29.3803   20.7146 C   0  0  0  0  0  0
  -27.2185  -28.5585   20.7127 C   0  0  0  0  0  0
  -26.0253  -26.8373   19.4999 C   0  0  0  0  0  0
  -24.8706  -27.6476   19.4924 C   0  0  0  0  0  0
  -23.6457  -29.7985   20.1564 C   0  0  0  0  0  0
  -25.4121  -36.3061   24.0325 C   0  0  1  0  0  0
  -20.5898  -28.3715   23.1279 C   0  0  2  0  0  0
  -20.6785  -26.9434   22.5418 C   0  0  0  0  0  0
  -19.5761  -26.6408   21.5220 C   0  0  0  0  0  0
  -18.1940  -26.7950   22.1624 C   0  0  0  0  0  0
  -19.1548  -28.8880   23.2875 C   0  0  0  0  0  0
  -18.9462  -30.1483   23.8898 C   0  0  0  0  0  0
  -17.6460  -30.6604   24.0574 C   0  0  0  0  0  0
  -25.9065  -34.9438   23.5081 C   0  0  0  0  0  0
  -16.5352  -29.9105   23.6337 C   0  0  0  0  0  0
  -16.7278  -28.6522   23.0354 C   0  0  0  0  0  0
  -26.4514  -31.6565   25.0669 C   0  0  0  0  0  0
  -25.3722  -31.3707   26.1373 C   0  0  0  0  0  0
  -27.0367  -30.2995   24.6137 C   0  0  0  0  0  0
  -27.6089  -32.4286   25.7449 C   0  0  0  0  0  0
  -27.5580  -37.1793   24.8473 C   0  0  0  0  0  0
  -21.4220  -29.3049   22.3661 N   0  0  0  0  0  0
  -26.4293  -37.3765   23.9412 N   0  0  0  0  0  0
  -24.6990  -31.0477   22.0897 N   0  0  0  0  0  0
  -23.4196  -28.8154   23.3037 O   0  0  0  0  0  0
  -28.3430  -26.3808   20.2138 O   0  0  0  0  0  0
  -26.5642  -34.8924   22.4657 O   0  0  0  0  0  0
  -23.5496  -32.1360   23.7221 O   0  0  0  0  0  0
  -30.6985  -17.4283   18.8012 C   0  0  0  0  0  0
  -29.4331  -18.5510   20.5520 C   0  0  0  0  0  0
  -30.8116  -18.6589   18.1089 C   0  0  0  0  0  0
  -29.5412  -19.8477   19.8787 C   0  0  0  0  0  0
  -30.0071  -17.3046   20.0318 C   0  0  0  0  0  0
  -30.2609  -19.8449   18.6591 C   0  0  0  0  0  0
  -28.4405  -22.2040   19.6529 C   0  0  0  0  0  0
  -31.5088  -18.6993   16.8044 C   0  0  0  0  0  0
  -32.8559  -20.0918   15.1963 C   0  0  0  0  0  0
  -29.2980  -23.2799   21.5541 C   0  0  0  0  0  0
  -29.3745  -21.7248   21.6783 C   0  0  0  0  0  0
  -28.2945  -23.5808   20.4283 C   0  0  1  0  0  0
  -33.2857  -21.5426   15.0154 C   0  0  0  0  0  0
  -28.4374  -24.9943   19.6200 C   0  0  0  0  0  0
  -29.0473  -21.1812   20.3608 N   0  0  0  0  0  0
  -29.8517  -15.9314   20.6211 N   0  0  0  0  0  0
  -32.1216  -19.8346   16.4003 N   0  0  0  0  0  0
  -31.5080  -17.6089   16.0229 N   0  3  0  0  0  0
  -27.9784  -22.0713   18.5170 O   0  0  0  0  0  0
  -33.1065  -19.2157   14.3604 O   0  0  0  0  0  0
  -30.5011  -21.0261   18.0320 F   0  0  0  0  0  0
  -31.4762  -12.5737   19.1917 H   0  0  0  0  0  0
  -30.3607  -11.4889   19.9737 H   0  0  0  0  0  0
  -29.8080  -11.7447   17.5249 H   0  0  0  0  0  0
  -29.6452  -13.4718   17.7328 H   0  0  0  0  0  0
  -27.9021  -11.2846   18.9147 H   0  0  0  0  0  0
  -27.3896  -12.5222   17.7962 H   0  0  0  0  0  0
  -27.6293  -14.2566   19.4588 H   0  0  0  0  0  0
  -28.7188  -12.2000   21.4407 H   0  0  0  0  0  0
  -28.4132  -13.8826   21.7854 H   0  0  0  0  0  0
  -25.2765   -9.5689   22.4732 H   0  0  0  0  0  0
  -23.9996   -7.4646   22.7482 H   0  0  0  0  0  0
  -21.0821   -8.8773   19.8970 H   0  0  0  0  0  0
  -22.3682  -10.9660   19.6156 H   0  0  0  0  0  0
  -21.2013   -7.6142   23.9721 H   0  0  0  0  0  0
  -21.1482   -6.0513   25.9076 H   0  0  0  0  0  0
  -22.0594   -2.7608   23.2853 H   0  0  0  0  0  0
  -22.4048  -11.9938   22.4853 H   0  0  0  0  0  0
  -21.1058  -13.1293   22.2565 H   0  0  0  0  0  0
  -24.6390  -15.8382   20.5045 H   0  0  0  0  0  0
  -26.2596  -15.6379   20.0695 H   0  0  0  0  0  0
  -26.7238  -32.5390   23.1025 H   0  0  0  0  0  0
  -25.0097  -33.9656   25.0378 H   0  0  0  0  0  0
  -22.7270  -31.2943   21.3897 H   0  0  0  0  0  0
  -23.3759  -35.9595   23.3299 H   0  0  0  0  0  0
  -24.3574  -36.8888   22.2051 H   0  0  0  0  0  0
  -23.7240  -37.6468   23.6657 H   0  0  0  0  0  0
  -26.1047  -31.5172   20.5890 H   0  0  0  0  0  0
  -26.8564  -30.8216   21.9931 H   0  0  0  0  0  0
  -28.1159  -28.9138   21.1995 H   0  0  0  0  0  0
  -25.9404  -25.8615   19.0473 H   0  0  0  0  0  0
  -23.9703  -27.2766   19.0221 H   0  0  0  0  0  0
  -23.7648  -30.5711   19.3954 H   0  0  0  0  0  0
  -22.7631  -29.2289   19.8593 H   0  0  0  0  0  0
  -25.1303  -36.1896   25.0816 H   0  0  0  0  0  0
  -20.9985  -28.3299   24.1400 H   0  0  0  0  0  0
  -20.5702  -26.2320   23.3612 H   0  0  0  0  0  0
  -21.6649  -26.7484   22.1195 H   0  0  0  0  0  0
  -19.6919  -25.6321   21.1245 H   0  0  0  0  0  0
  -19.6699  -27.3224   20.6749 H   0  0  0  0  0  0
  -17.4207  -26.6715   21.4020 H   0  0  0  0  0  0
  -18.0332  -26.0101   22.9025 H   0  0  0  0  0  0
  -19.7938  -30.7315   24.2252 H   0  0  0  0  0  0
  -17.5010  -31.6274   24.5196 H   0  0  0  0  0  0
  -15.5352  -30.3001   23.7670 H   0  0  0  0  0  0
  -15.8677  -28.0845   22.7060 H   0  0  0  0  0  0
  -24.5941  -30.7009   25.7688 H   0  0  0  0  0  0
  -24.8846  -32.2864   26.4735 H   0  0  0  0  0  0
  -25.8020  -30.8936   27.0192 H   0  0  0  0  0  0
  -26.2946  -29.6722   24.1183 H   0  0  0  0  0  0
  -27.4105  -29.7264   25.4634 H   0  0  0  0  0  0
  -27.8790  -30.4288   23.9334 H   0  0  0  0  0  0
  -27.2742  -33.3625   26.1977 H   0  0  0  0  0  0
  -28.3926  -32.6774   25.0277 H   0  0  0  0  0  0
  -28.0721  -31.8417   26.5390 H   0  0  0  0  0  0
  -28.2612  -38.0079   24.7518 H   0  0  0  0  0  0
  -28.1063  -36.2613   24.6309 H   0  0  0  0  0  0
  -27.2294  -37.1449   25.8876 H   0  0  0  0  0  0
  -20.9412  -29.8722   21.6826 H   0  0  0  0  0  0
  -26.0169  -38.2841   24.1399 H   0  0  0  0  0  0
  -31.1478  -16.5520   18.3558 H   0  0  0  0  0  0
  -28.8913  -18.5152   21.4839 H   0  0  0  0  0  0
  -30.2791  -23.6771   21.2890 H   0  0  0  0  0  0
  -29.0030  -23.7448   22.4953 H   0  0  0  0  0  0
  -28.6353  -21.3619   22.3951 H   0  0  0  0  0  0
  -30.3573  -21.3954   22.0169 H   0  0  0  0  0  0
  -27.2918  -23.5576   20.8565 H   0  0  0  0  0  0
  -33.9854  -21.8401   15.7968 H   0  0  0  0  0  0
  -32.4198  -22.2028   15.0509 H   0  0  0  0  0  0
  -33.7733  -21.6760   14.0501 H   0  0  0  0  0  0
  -27.8114  -24.9394   18.7315 H   0  0  0  0  0  0
  -29.4410  -24.9751   19.1955 H   0  0  0  0  0  0
  -28.9738  -15.7702   21.0940 H   0  0  0  0  0  0
  -31.9136  -20.5837   17.0517 H   0  0  0  0  0  0
  -30.9940  -16.7789   16.2697 H   0  0  0  0  0  0
  -32.0018  -17.6475   15.1399 H   0  0  0  0  0  0
  1 25  1  0  0  0
  1 30  2  0  0  0
  1 86  1  0  0  0
  2  3  1  0  0  0
  2 25  1  0  0  0
  2 92  1  0  0  0
  2 93  1  0  0  0
  3  4  1  0  0  0
  3 94  1  0  0  0
  3 95  1  0  0  0
  4  5  1  0  0  0
  4 96  1  0  0  0
  4 97  1  0  0  0
  5  6  1  0  0  0
  5 26  1  0  0  0
  5 98  1  0  0  0
  6 25  1  0  0  0
  6 99  1  0  0  0
  6100  1  0  0  0
  7  8  2  0  0  0
  7 26  1  0  0  0
  7 29  1  0  0  0
  8  9  1  0  0  0
  8 22  1  0  0  0
  9 10  1  0  0  0
  9 27  2  0  0  0
 10 11  2  0  0  0
 10 15  1  0  0  0
 11 12  1  0  0  0
 11101  1  0  0  0
 12 13  2  0  0  0
 12102  1  0  0  0
 13 14  1  0  0  0
 13 31  1  0  0  0
 14 15  2  0  0  0
 14103  1  0  0  0
 15104  1  0  0  0
 16 17  2  0  0  0
 16 21  1  0  0  0
 16 31  1  0  0  0
 17 18  1  0  0  0
 17105  1  0  0  0
 18 19  2  0  0  0
 18106  1  0  0  0
 19 20  1  0  0  0
 19 24  1  0  0  0
 20 21  2  0  0  0
 20107  1  0  0  0
 21 23  1  0  0  0
 22 28  1  0  0  0
 22 32  2  0  0  0
 26 27  1  0  0  0
 28108  1  0  0  0
 28109  1  0  0  0
 29110  1  0  0  0
 29111  1  0  0  0
 33 34  1  0  0  0
 33 66  1  0  0  0
 33 70  2  0  0  0
 34 36  1  0  0  0
 34 59  1  0  0  0
 34112  1  0  0  0
 35 44  2  0  0  0
 35 45  1  0  0  0
 35 68  1  0  0  0
 36 56  1  0  0  0
 36113  1  0  0  0
 37 39  1  0  0  0
 37 47  1  0  0  0
 37 66  1  0  0  0
 37114  1  0  0  0
 38 43  2  0  0  0
 38 46  1  0  0  0
 38 47  1  0  0  0
 39 64  1  0  0  0
 39 67  2  0  0  0
 40 52  1  0  0  0
 40 53  2  0  0  0
 40 58  1  0  0  0
 41115  1  0  0  0
 41116  1  0  0  0
 41117  1  0  0  0
 41 48  1  0  0  0
 42 43  1  0  0  0
 42 66  1  0  0  0
 42118  1  0  0  0
 42119  1  0  0  0
 43 44  1  0  0  0
 44120  1  0  0  0
 45 46  2  0  0  0
 45121  1  0  0  0
 46122  1  0  0  0
 47123  1  0  0  0
 47124  1  0  0  0
 48 56  1  0  0  0
 48 65  1  0  0  0
 48125  1  0  0  0
 49 50  1  0  0  0
 49 53  1  0  0  0
 49 64  1  0  0  0
 49126  1  0  0  0
 50 51  1  0  0  0
 50127  1  0  0  0
 50128  1  0  0  0
 51 52  1  0  0  0
 51129  1  0  0  0
 51130  1  0  0  0
 52131  1  0  0  0
 52132  1  0  0  0
 53 54  1  0  0  0
 54 55  2  0  0  0
 54133  1  0  0  0
 55 57  1  0  0  0
 55134  1  0  0  0
 56 69  2  0  0  0
 57 58  2  0  0  0
 57135  1  0  0  0
 58136  1  0  0  0
 59 60  1  0  0  0
 59 61  1  0  0  0
 59 62  1  0  0  0
 60137  1  0  0  0
 60138  1  0  0  0
 60139  1  0  0  0
 61140  1  0  0  0
 61141  1  0  0  0
 61142  1  0  0  0
 62143  1  0  0  0
 62144  1  0  0  0
 62145  1  0  0  0
 63 65  1  0  0  0
 63146  1  0  0  0
 63147  1  0  0  0
 63148  1  0  0  0
 64149  1  0  0  0
 65150  1  0  0  0
 68 84  1  0  0  0
 71 73  2  0  0  0
 71 75  1  0  0  0
 71151  1  0  0  0
 72 74  1  0  0  0
 72 75  2  0  0  0
 72152  1  0  0  0
 73 76  1  0  0  0
 73 78  1  0  0  0
 74 76  2  0  0  0
 74 85  1  0  0  0
 75 86  1  0  0  0
 76 91  1  0  0  0
 77 82  1  0  0  0
 77 85  1  0  0  0
 77 89  2  0  0  0
 78 87  1  0  0  0
 78 88  2  0  0  0
 79 83  1  0  0  0
 79 87  1  0  0  0
 79 90  2  0  0  0
 80 81  1  0  0  0
 80 82  1  0  0  0
 80153  1  0  0  0
 80154  1  0  0  0
 81 85  1  0  0  0
 81155  1  0  0  0
 81156  1  0  0  0
 82 84  1  0  0  0
 82157  1  0  0  0
 83158  1  0  0  0
 83159  1  0  0  0
 83160  1  0  0  0
 84161  1  0  0  0
 84162  1  0  0  0
 86163  1  0  0  0
 87164  1  0  0  0
 88165  1  0  0  0
 88166  1  0  0  0
M  CHG  1  88   1
M  ISO  4   1 100  68 101  84 101  86 100
M  END
> <chiral flag>
0

> <version>
0

> <s_m_source_file>
/data/baiqing/PycharmProjects/Reinvent-master-3.2/result/LINK_invent/BTK/process_docking_weight1_custom_product_contain_oxygen_bond_distance_aromatic_linkinvent_7_9_3/rearranged_h_0069.sdf

> <i_m_source_file_index>
26

> <r_mmod_Potential_Energy-OPLS-2005>
-40.3838653564453

> <r_mmod_Stretch_Energy-OPLS-2005>
141.578521728516

> <r_mmod_Bend_Energy-OPLS-2005>
230.407318115234

> <r_mmod_Torsional_Energy-OPLS-2005>
286.619384765625

> <r_mmod_Improper_Torsional_Energy-OPLS-2005>
5.63469982147217

> <r_mmod_Van_der_Waal_Energy-OPLS-2005>
157.113372802734

> <r_mmod_Electrostatic_Energy-OPLS-2005>
-497.39208984375

> <r_mmod_Solvation_Energy-OPLS-2005>
-459.105499267578

> <b_mmod_Minimization_Converged-OPLS-2005>
0

> <r_mmod_RMS_Derivative-OPLS-2005>
2.05711889266968

$$$$
27
                    3D
 Structure written by MMmdl.
166175  0  0  1  0            999 V2000
  -30.6223  -14.7462   20.4421 C   0  0  0  0  0  0
  -30.4244  -12.4433   19.4971 C   0  0  0  0  0  0
  -29.5162  -12.5099   18.2505 C   0  0  0  0  0  0
  -28.0358  -12.3542   18.6487 C   0  0  0  0  0  0
  -27.6446  -13.2404   19.8628 C   0  0  2  0  0  0
  -28.6878  -13.1746   21.0013 C   0  0  0  0  0  0
  -25.2492  -13.8225   20.5688 C   0  0  0  0  0  0
  -24.1786  -13.0458   20.9194 C   0  0  0  0  0  0
  -24.6384  -11.6939   20.8736 C   0  0  0  0  0  0
  -23.9079  -10.4307   21.0385 C   0  0  0  0  0  0
  -24.3645   -9.4238   21.9164 C   0  0  0  0  0  0
  -23.6311   -8.2280   22.0730 C   0  0  0  0  0  0
  -22.4289   -8.0299   21.3533 C   0  0  0  0  0  0
  -21.9931   -9.0262   20.4635 C   0  0  0  0  0  0
  -22.7255  -10.2138   20.3046 C   0  0  0  0  0  0
  -21.6860   -6.0762   22.5277 C   0  0  0  0  0  0
  -21.4026   -6.5653   23.8212 C   0  0  0  0  0  0
  -21.3665   -5.6798   24.9177 C   0  0  0  0  0  0
  -21.6055   -4.3068   24.7216 C   0  0  0  0  0  0
  -21.8821   -3.8176   23.4336 C   0  0  0  0  0  0
  -21.9200   -4.6988   22.3398 C   0  0  0  0  0  0
  -22.7821  -13.5229   21.1900 C   0  0  0  0  0  0
  -22.1647   -4.2193   21.0968 F   0  0  0  0  0  0
  -21.5637   -3.4533   25.7725 F   0  0  0  0  0  0
  -29.9946  -13.5159   20.4247 N   0  0  0  0  0  0
  -26.2949  -12.9445   20.3342 N   0  0  0  0  0  0
  -25.9330  -11.6579   20.5778 N   0  0  0  0  0  0
  -22.0505  -12.8169   22.0461 N   0  0  0  0  0  0
  -25.4149  -15.1952   20.4072 N   0  0  0  0  0  0
  -31.8028  -14.8296   20.0949 O   0  0  0  0  0  0
  -21.6643   -6.8895   21.4235 O   0  0  0  0  0  0
  -22.3499  -14.5567   20.6815 O   0  0  0  0  0  0
  -24.6330  -31.8553   23.1964 C   0  0  0  0  0  0
  -25.9156  -32.4753   23.8331 C   0  0  1  0  0  0
  -27.2472  -27.2707   20.1095 C   0  0  0  0  0  0
  -25.5948  -33.8556   24.2259 N   0  0  0  0  0  0
  -23.4302  -30.4746   21.5424 C   0  0  2  0  0  0
  -24.8792  -28.9195   20.1146 C   0  0  0  0  0  0
  -22.7515  -29.4600   22.4932 C   0  0  0  0  0  0
  -18.0289  -28.1406   22.8488 C   0  0  0  0  0  0
  -24.1476  -36.7272   23.2626 C   0  0  0  0  0  0
  -25.9768  -30.7666   21.3754 C   0  0  0  0  0  0
  -26.0527  -29.3893   20.7176 C   0  0  0  0  0  0
  -27.2346  -28.5787   20.7045 C   0  0  0  0  0  0
  -26.0409  -26.8676   19.4833 C   0  0  0  0  0  0
  -24.8790  -27.6645   19.4892 C   0  0  0  0  0  0
  -23.6482  -29.8046   20.1608 C   0  0  0  0  0  0
  -25.4096  -36.3064   24.0329 C   0  0  1  0  0  0
  -20.5895  -28.3726   23.1260 C   0  0  2  0  0  0
  -20.6784  -26.9440   22.5407 C   0  0  0  0  0  0
  -19.5746  -26.6395   21.5225 C   0  0  0  0  0  0
  -18.1924  -26.7949   22.1637 C   0  0  0  0  0  0
  -19.1544  -28.8880   23.2871 C   0  0  0  0  0  0
  -18.9464  -30.1479   23.8889 C   0  0  0  0  0  0
  -17.6465  -30.6603   24.0570 C   0  0  0  0  0  0
  -25.9063  -34.9444   23.5095 C   0  0  0  0  0  0
  -16.5356  -29.9098   23.6342 C   0  0  0  0  0  0
  -16.7279  -28.6520   23.0359 C   0  0  0  0  0  0
  -26.4510  -31.6577   25.0733 C   0  0  0  0  0  0
  -25.3718  -31.3733   26.1443 C   0  0  0  0  0  0
  -27.0363  -30.2994   24.6230 C   0  0  0  0  0  0
  -27.6066  -32.4324   25.7495 C   0  0  0  0  0  0
  -27.5604  -37.1723   24.8415 C   0  0  0  0  0  0
  -21.4225  -29.3065   22.3657 N   0  0  0  0  0  0
  -26.4235  -37.3804   23.9481 N   0  0  0  0  0  0
  -24.6997  -31.0502   22.0943 N   0  0  0  0  0  0
  -23.4207  -28.8170   23.3062 O   0  0  0  0  0  0
  -28.3632  -26.3921   20.1538 O   0  0  0  0  0  0
  -26.5637  -34.8927   22.4668 O   0  0  0  0  0  0
  -23.5480  -32.1392   23.7257 O   0  0  0  0  0  0
  -29.7511  -19.6036   18.4025 C   0  0  0  0  0  0
  -29.7122  -18.5338   20.5877 C   0  0  0  0  0  0
  -29.6299  -19.7715   19.8001 C   0  0  0  0  0  0
  -29.9290  -18.3412   17.8087 C   0  0  0  0  0  0
  -29.9054  -17.2031   19.9986 C   0  0  0  0  0  0
  -29.9949  -17.1654   18.5849 C   0  0  0  0  0  0
  -29.8968  -21.7436   21.4157 C   0  0  0  0  0  0
  -28.7964  -22.3088   19.5039 C   0  0  0  0  0  0
  -29.6299  -23.2864   21.5080 C   0  0  0  0  0  0
  -29.2579  -23.7360   20.0464 C   0  0  1  0  0  0
  -30.8745  -24.0261   22.0640 C   0  0  0  0  0  0
  -28.4702  -23.5168   22.5009 C   0  0  0  0  0  0
  -30.5073  -24.1295   19.2149 C   0  0  0  0  0  0
  -28.1627  -24.9338   19.8464 C   0  0  0  0  0  0
  -29.4393  -21.1840   20.2759 N   0  0  0  0  0  0
  -30.0181  -18.2540   16.4179 N   0  0  0  0  0  0
  -29.8882  -15.8937   20.7176 N   0  0  0  0  0  0
  -30.4693  -21.1279   22.3222 O   0  0  0  0  0  0
  -30.0895  -15.9837   17.9270 F   0  0  0  0  0  0
  -31.4709  -12.5415   19.2109 H   0  0  0  0  0  0
  -30.3359  -11.4688   19.9809 H   0  0  0  0  0  0
  -29.7961  -11.7358   17.5356 H   0  0  0  0  0  0
  -29.6664  -13.4603   17.7366 H   0  0  0  0  0  0
  -27.8700  -11.3031   18.8853 H   0  0  0  0  0  0
  -27.3922  -12.5771   17.7971 H   0  0  0  0  0  0
  -27.6397  -14.2673   19.4977 H   0  0  0  0  0  0
  -28.7157  -12.1804   21.4503 H   0  0  0  0  0  0
  -28.4251  -13.8620   21.8076 H   0  0  0  0  0  0
  -25.2785   -9.5723   22.4727 H   0  0  0  0  0  0
  -24.0025   -7.4663   22.7443 H   0  0  0  0  0  0
  -21.0880   -8.8790   19.8930 H   0  0  0  0  0  0
  -22.3707  -10.9673   19.6154 H   0  0  0  0  0  0
  -21.1997   -7.6156   23.9748 H   0  0  0  0  0  0
  -21.1480   -6.0517   25.9079 H   0  0  0  0  0  0
  -22.0591   -2.7632   23.2843 H   0  0  0  0  0  0
  -22.4119  -11.9762   22.4727 H   0  0  0  0  0  0
  -21.1152  -13.1183   22.2775 H   0  0  0  0  0  0
  -24.6446  -15.8458   20.5186 H   0  0  0  0  0  0
  -26.2634  -15.6405   20.0810 H   0  0  0  0  0  0
  -26.7234  -32.5398   23.1076 H   0  0  0  0  0  0
  -25.0106  -33.9695   25.0410 H   0  0  0  0  0  0
  -22.7283  -31.2975   21.3922 H   0  0  0  0  0  0
  -23.3808  -35.9513   23.3104 H   0  0  0  0  0  0
  -24.3625  -36.9097   22.2081 H   0  0  0  0  0  0
  -23.7113  -37.6363   23.6775 H   0  0  0  0  0  0
  -26.1146  -31.5242   20.6026 H   0  0  0  0  0  0
  -26.8538  -30.8189   22.0091 H   0  0  0  0  0  0
  -28.1342  -28.9371   21.1873 H   0  0  0  0  0  0
  -25.9599  -25.9134   18.9863 H   0  0  0  0  0  0
  -23.9818  -27.2980   19.0116 H   0  0  0  0  0  0
  -23.7678  -30.5789   19.4010 H   0  0  0  0  0  0
  -22.7673  -29.2346   19.8623 H   0  0  0  0  0  0
  -25.1244  -36.1866   25.0804 H   0  0  0  0  0  0
  -20.9981  -28.3308   24.1390 H   0  0  0  0  0  0
  -20.5715  -26.2340   23.3628 H   0  0  0  0  0  0
  -21.6650  -26.7479   22.1183 H   0  0  0  0  0  0
  -19.6922  -25.6302   21.1260 H   0  0  0  0  0  0
  -19.6685  -27.3200   20.6746 H   0  0  0  0  0  0
  -17.4208  -26.6718   21.4021 H   0  0  0  0  0  0
  -18.0310  -26.0081   22.9021 H   0  0  0  0  0  0
  -19.7936  -30.7302   24.2271 H   0  0  0  0  0  0
  -17.5007  -31.6277   24.5174 H   0  0  0  0  0  0
  -15.5352  -30.2996   23.7661 H   0  0  0  0  0  0
  -15.8683  -28.0826   22.7087 H   0  0  0  0  0  0
  -24.5889  -30.7093   25.7753 H   0  0  0  0  0  0
  -24.8908  -32.2905   26.4854 H   0  0  0  0  0  0
  -25.8011  -30.8911   27.0232 H   0  0  0  0  0  0
  -26.2961  -29.6735   24.1235 H   0  0  0  0  0  0
  -27.4023  -29.7268   25.4760 H   0  0  0  0  0  0
  -27.8836  -30.4275   23.9492 H   0  0  0  0  0  0
  -27.2693  -33.3649   26.2028 H   0  0  0  0  0  0
  -28.3882  -32.6848   25.0315 H   0  0  0  0  0  0
  -28.0719  -31.8479   26.5440 H   0  0  0  0  0  0
  -28.2400  -38.0233   24.7801 H   0  0  0  0  0  0
  -28.1323  -36.2805   24.5791 H   0  0  0  0  0  0
  -27.2404  -37.0820   25.8813 H   0  0  0  0  0  0
  -20.9431  -29.8763   21.6826 H   0  0  0  0  0  0
  -26.0092  -38.2813   24.1706 H   0  0  0  0  0  0
  -29.7273  -20.4578   17.7445 H   0  0  0  0  0  0
  -29.6117  -18.5999   21.6615 H   0  0  0  0  0  0
  -28.9713  -22.2483   18.4322 H   0  0  0  0  0  0
  -27.7184  -22.2052   19.6267 H   0  0  0  0  0  0
  -31.7823  -23.7944   21.5043 H   0  0  0  0  0  0
  -31.0751  -23.7553   23.1014 H   0  0  0  0  0  0
  -30.7305  -25.1072   22.0285 H   0  0  0  0  0  0
  -27.5598  -23.0011   22.1922 H   0  0  0  0  0  0
  -28.2379  -24.5787   22.5958 H   0  0  0  0  0  0
  -28.7262  -23.1603   23.4996 H   0  0  0  0  0  0
  -31.2968  -23.3794   19.2688 H   0  0  0  0  0  0
  -30.9298  -25.0760   19.5507 H   0  0  0  0  0  0
  -30.2638  -24.2519   18.1598 H   0  0  0  0  0  0
  -27.2487  -24.6148   20.3444 H   0  0  0  0  0  0
  -27.9255  -24.9081   18.7815 H   0  0  0  0  0  0
  -29.5664  -18.9812   15.8735 H   0  0  0  0  0  0
  -29.8814  -17.3283   16.0253 H   0  0  0  0  0  0
  -29.0428  -15.7230   21.2392 H   0  0  0  0  0  0
  1 25  1  0  0  0
  1 30  2  0  0  0
  1 87  1  0  0  0
  2  3  1  0  0  0
  2 25  1  0  0  0
  2 90  1  0  0  0
  2 91  1  0  0  0
  3  4  1  0  0  0
  3 92  1  0  0  0
  3 93  1  0  0  0
  4  5  1  0  0  0
  4 94  1  0  0  0
  4 95  1  0  0  0
  5  6  1  0  0  0
  5 26  1  0  0  0
  5 96  1  0  0  0
  6 25  1  0  0  0
  6 97  1  0  0  0
  6 98  1  0  0  0
  7  8  2  0  0  0
  7 26  1  0  0  0
  7 29  1  0  0  0
  8  9  1  0  0  0
  8 22  1  0  0  0
  9 10  1  0  0  0
  9 27  2  0  0  0
 10 11  2  0  0  0
 10 15  1  0  0  0
 11 12  1  0  0  0
 11 99  1  0  0  0
 12 13  2  0  0  0
 12100  1  0  0  0
 13 14  1  0  0  0
 13 31  1  0  0  0
 14 15  2  0  0  0
 14101  1  0  0  0
 15102  1  0  0  0
 16 17  2  0  0  0
 16 21  1  0  0  0
 16 31  1  0  0  0
 17 18  1  0  0  0
 17103  1  0  0  0
 18 19  2  0  0  0
 18104  1  0  0  0
 19 20  1  0  0  0
 19 24  1  0  0  0
 20 21  2  0  0  0
 20105  1  0  0  0
 21 23  1  0  0  0
 22 28  1  0  0  0
 22 32  2  0  0  0
 26 27  1  0  0  0
 28106  1  0  0  0
 28107  1  0  0  0
 29108  1  0  0  0
 29109  1  0  0  0
 33 34  1  0  0  0
 33 66  1  0  0  0
 33 70  2  0  0  0
 34 36  1  0  0  0
 34 59  1  0  0  0
 34110  1  0  0  0
 35 44  2  0  0  0
 35 45  1  0  0  0
 35 68  1  0  0  0
 36 56  1  0  0  0
 36111  1  0  0  0
 37 39  1  0  0  0
 37 47  1  0  0  0
 37 66  1  0  0  0
 37112  1  0  0  0
 38 43  2  0  0  0
 38 46  1  0  0  0
 38 47  1  0  0  0
 39 64  1  0  0  0
 39 67  2  0  0  0
 40 52  1  0  0  0
 40 53  2  0  0  0
 40 58  1  0  0  0
 41113  1  0  0  0
 41114  1  0  0  0
 41115  1  0  0  0
 41 48  1  0  0  0
 42 43  1  0  0  0
 42 66  1  0  0  0
 42116  1  0  0  0
 42117  1  0  0  0
 43 44  1  0  0  0
 44118  1  0  0  0
 45 46  2  0  0  0
 45119  1  0  0  0
 46120  1  0  0  0
 47121  1  0  0  0
 47122  1  0  0  0
 48 56  1  0  0  0
 48 65  1  0  0  0
 48123  1  0  0  0
 49 50  1  0  0  0
 49 53  1  0  0  0
 49 64  1  0  0  0
 49124  1  0  0  0
 50 51  1  0  0  0
 50125  1  0  0  0
 50126  1  0  0  0
 51 52  1  0  0  0
 51127  1  0  0  0
 51128  1  0  0  0
 52129  1  0  0  0
 52130  1  0  0  0
 53 54  1  0  0  0
 54 55  2  0  0  0
 54131  1  0  0  0
 55 57  1  0  0  0
 55132  1  0  0  0
 56 69  2  0  0  0
 57 58  2  0  0  0
 57133  1  0  0  0
 58134  1  0  0  0
 59 60  1  0  0  0
 59 61  1  0  0  0
 59 62  1  0  0  0
 60135  1  0  0  0
 60136  1  0  0  0
 60137  1  0  0  0
 61138  1  0  0  0
 61139  1  0  0  0
 61140  1  0  0  0
 62141  1  0  0  0
 62142  1  0  0  0
 62143  1  0  0  0
 63 65  1  0  0  0
 63144  1  0  0  0
 63145  1  0  0  0
 63146  1  0  0  0
 64147  1  0  0  0
 65148  1  0  0  0
 68 84  1  0  0  0
 71 73  2  0  0  0
 71 74  1  0  0  0
 71149  1  0  0  0
 72 73  1  0  0  0
 72 75  2  0  0  0
 72150  1  0  0  0
 73 85  1  0  0  0
 74 76  2  0  0  0
 74 86  1  0  0  0
 75 76  1  0  0  0
 75 87  1  0  0  0
 76 89  1  0  0  0
 77 79  1  0  0  0
 77 85  1  0  0  0
 77 88  2  0  0  0
 78 80  1  0  0  0
 78 85  1  0  0  0
 78151  1  0  0  0
 78152  1  0  0  0
 79 80  1  0  0  0
 79 81  1  0  0  0
 79 82  1  0  0  0
 80 83  1  0  0  0
 80 84  1  0  0  0
 81153  1  0  0  0
 81154  1  0  0  0
 81155  1  0  0  0
 82156  1  0  0  0
 82157  1  0  0  0
 82158  1  0  0  0
 83159  1  0  0  0
 83160  1  0  0  0
 83161  1  0  0  0
 84162  1  0  0  0
 84163  1  0  0  0
 86164  1  0  0  0
 86165  1  0  0  0
 87166  1  0  0  0
M  ISO  4   1 100  68 101  84 101  87 100
M  END
> <chiral flag>
0

> <version>
0

> <s_m_source_file>
/data/baiqing/PycharmProjects/Reinvent-master-3.2/result/LINK_invent/BTK/process_docking_weight1_custom_product_contain_oxygen_bond_distance_aromatic_linkinvent_7_9_3/rearranged_h_0069.sdf

> <i_m_source_file_index>
27

> <r_mmod_Potential_Energy-OPLS-2005>
352.827178955078

> <r_mmod_Stretch_Energy-OPLS-2005>
139.637435913086

> <r_mmod_Bend_Energy-OPLS-2005>
207.785140991211

> <r_mmod_Torsional_Energy-OPLS-2005>
319.222869873047

> <r_mmod_Improper_Torsional_Energy-OPLS-2005>
8.698655128479

> <r_mmod_Van_der_Waal_Energy-OPLS-2005>
148.326126098633

> <r_mmod_Electrostatic_Energy-OPLS-2005>
-321.322967529297

> <r_mmod_Solvation_Energy-OPLS-2005>
-230.613479614258

> <b_mmod_Minimization_Converged-OPLS-2005>
0

> <r_mmod_RMS_Derivative-OPLS-2005>
3.23549580574036

$$$$
28
                    3D
 Structure written by MMmdl.
157166  0  0  1  0            999 V2000
  -30.5071  -15.0029   20.3634 C   0  0  0  0  0  0
  -30.4406  -12.6122   19.5116 C   0  0  0  0  0  0
  -29.5293  -12.5227   18.2643 C   0  0  0  0  0  0
  -28.0571  -12.3144   18.6739 C   0  0  0  0  0  0
  -27.6271  -13.2511   19.8336 C   0  0  2  0  0  0
  -28.6660  -13.3008   20.9727 C   0  0  0  0  0  0
  -25.2447  -13.8216   20.5705 C   0  0  0  0  0  0
  -24.1742  -13.0445   20.9221 C   0  0  0  0  0  0
  -24.6358  -11.6937   20.8734 C   0  0  0  0  0  0
  -23.9034  -10.4295   21.0408 C   0  0  0  0  0  0
  -24.3595   -9.4216   21.9186 C   0  0  0  0  0  0
  -23.6296   -8.2237   22.0745 C   0  0  0  0  0  0
  -22.4273   -8.0261   21.3545 C   0  0  0  0  0  0
  -21.9893   -9.0237   20.4640 C   0  0  0  0  0  0
  -22.7206  -10.2132   20.3060 C   0  0  0  0  0  0
  -21.6842   -6.0715   22.5276 C   0  0  0  0  0  0
  -21.4013   -6.5627   23.8208 C   0  0  0  0  0  0
  -21.3662   -5.6779   24.9171 C   0  0  0  0  0  0
  -21.6047   -4.3043   24.7220 C   0  0  0  0  0  0
  -21.8815   -3.8135   23.4338 C   0  0  0  0  0  0
  -21.9191   -4.6950   22.3392 C   0  0  0  0  0  0
  -22.7749  -13.5226   21.1890 C   0  0  0  0  0  0
  -22.1663   -4.2125   21.0968 F   0  0  0  0  0  0
  -21.5654   -3.4533   25.7739 F   0  0  0  0  0  0
  -29.9392  -13.7247   20.3727 N   0  0  0  0  0  0
  -26.2861  -12.9465   20.3219 N   0  0  0  0  0  0
  -25.9300  -11.6586   20.5702 N   0  0  0  0  0  0
  -22.0377  -12.8236   22.0440 N   0  0  0  0  0  0
  -25.4154  -15.1926   20.4133 N   0  0  0  0  0  0
  -31.7107  -15.0631   20.0752 O   0  0  0  0  0  0
  -21.6643   -6.8862   21.4231 O   0  0  0  0  0  0
  -22.3446  -14.5536   20.6749 O   0  0  0  0  0  0
  -24.6491  -31.8370   23.1849 C   0  0  0  0  0  0
  -25.9252  -32.4643   23.8235 C   0  0  1  0  0  0
  -27.2213  -27.0789   20.1592 C   0  0  0  0  0  0
  -25.5992  -33.8451   24.2161 N   0  0  0  0  0  0
  -23.4567  -30.4566   21.5292 C   0  0  2  0  0  0
  -24.9106  -28.8730   20.1155 C   0  0  0  0  0  0
  -22.7598  -29.4516   22.4814 C   0  0  0  0  0  0
  -18.0313  -28.1398   22.8483 C   0  0  0  0  0  0
  -24.1513  -36.7221   23.2632 C   0  0  0  0  0  0
  -26.0175  -30.6917   21.3979 C   0  0  0  0  0  0
  -26.0906  -29.2985   20.7373 C   0  0  0  0  0  0
  -27.2455  -28.4195   20.7417 C   0  0  0  0  0  0
  -26.0166  -26.7766   19.4888 C   0  0  0  0  0  0
  -24.8873  -27.6258   19.4769 C   0  0  0  0  0  0
  -23.6942  -29.7849   20.1510 C   0  0  0  0  0  0
  -25.4137  -36.2977   24.0305 C   0  0  1  0  0  0
  -20.5932  -28.3731   23.1229 C   0  0  2  0  0  0
  -20.6814  -26.9432   22.5412 C   0  0  0  0  0  0
  -19.5787  -26.6386   21.5225 C   0  0  0  0  0  0
  -18.1957  -26.7939   22.1619 C   0  0  0  0  0  0
  -19.1568  -28.8883   23.2847 C   0  0  0  0  0  0
  -18.9479  -30.1478   23.8873 C   0  0  0  0  0  0
  -17.6476  -30.6598   24.0556 C   0  0  0  0  0  0
  -25.9098  -34.9361   23.5036 C   0  0  0  0  0  0
  -16.5369  -29.9092   23.6339 C   0  0  0  0  0  0
  -16.7290  -28.6509   23.0357 C   0  0  0  0  0  0
  -26.4560  -31.6512   25.0693 C   0  0  0  0  0  0
  -25.3730  -31.3720   26.1377 C   0  0  0  0  0  0
  -27.0446  -30.2889   24.6343 C   0  0  0  0  0  0
  -27.6095  -32.4264   25.7481 C   0  0  0  0  0  0
  -27.5584  -37.1754   24.8449 C   0  0  0  0  0  0
  -21.4279  -29.3045   22.3578 N   0  0  0  0  0  0
  -26.4279  -37.3717   23.9416 N   0  0  0  0  0  0
  -24.7268  -31.0190   22.0912 N   0  0  0  0  0  0
  -23.4205  -28.8061   23.2990 O   0  0  0  0  0  0
  -28.2623  -26.0565   20.1938 O   0  0  0  0  0  0
  -26.5684  -34.8872   22.4612 O   0  0  0  0  0  0
  -23.5607  -32.1266   23.7041 O   0  0  0  0  0  0
  -29.6102  -20.2655   18.6147 C   0  0  0  0  0  0
  -29.9979  -19.0784   17.9515 C   0  0  0  0  0  0
  -29.3422  -18.9289   20.6089 C   0  0  0  0  0  0
  -29.2556  -20.3013   19.9820 C   0  0  0  0  0  0
  -30.0742  -17.8121   18.5820 C   0  0  0  0  0  0
  -29.7609  -17.6417   19.9593 C   0  0  0  0  0  0
  -27.5700  -24.1921   21.7961 C   0  0  0  0  0  0
  -28.4871  -21.8070   21.8761 C   0  0  0  0  0  0
  -28.4520  -23.1986   22.5459 C   0  0  0  0  0  0
  -28.9257  -23.1468   19.8699 C   0  0  0  0  0  0
  -27.9922  -24.4937   20.3602 C   0  0  2  0  0  0
  -26.5573  -24.7319   22.3362 N   0  0  0  0  0  0
  -28.8518  -21.7026   20.5682 N   0  0  0  0  0  0
  -30.4075  -16.7205   17.7798 N   0  0  0  0  0  0
  -29.7204  -16.1917   20.5242 N   0  0  0  0  0  0
  -28.1950  -20.8380   22.5824 O   0  0  0  0  0  0
  -31.4749  -12.7704   19.2057 H   0  0  0  0  0  0
  -30.4395  -11.6718   20.0658 H   0  0  0  0  0  0
  -29.8601  -11.7100   17.6161 H   0  0  0  0  0  0
  -29.6217  -13.4335   17.6706 H   0  0  0  0  0  0
  -27.9410  -11.2742   18.9829 H   0  0  0  0  0  0
  -27.3987  -12.4486   17.8141 H   0  0  0  0  0  0
  -27.5897  -14.2502   19.3971 H   0  0  0  0  0  0
  -28.7582  -12.3315   21.4657 H   0  0  0  0  0  0
  -28.3514  -14.0088   21.7429 H   0  0  0  0  0  0
  -25.2739   -9.5755   22.4751 H   0  0  0  0  0  0
  -24.0033   -7.4649   22.7476 H   0  0  0  0  0  0
  -21.0823   -8.8756   19.8949 H   0  0  0  0  0  0
  -22.3652  -10.9677   19.6179 H   0  0  0  0  0  0
  -21.2001   -7.6135   23.9707 H   0  0  0  0  0  0
  -21.1492   -6.0502   25.9074 H   0  0  0  0  0  0
  -22.0594   -2.7600   23.2824 H   0  0  0  0  0  0
  -22.3971  -11.9932   22.4907 H   0  0  0  0  0  0
  -21.0993  -13.1294   22.2587 H   0  0  0  0  0  0
  -24.6570  -15.8517   20.5469 H   0  0  0  0  0  0
  -26.2598  -15.6299   20.0683 H   0  0  0  0  0  0
  -26.7304  -32.5243   23.0940 H   0  0  0  0  0  0
  -25.0114  -33.9549   25.0292 H   0  0  0  0  0  0
  -22.7599  -31.2823   21.3693 H   0  0  0  0  0  0
  -23.3792  -35.9535   23.3239 H   0  0  0  0  0  0
  -24.3603  -36.8916   22.2056 H   0  0  0  0  0  0
  -23.7265  -37.6394   23.6717 H   0  0  0  0  0  0
  -26.1864  -31.4454   20.6277 H   0  0  0  0  0  0
  -26.8810  -30.7382   22.0496 H   0  0  0  0  0  0
  -28.1407  -28.7419   21.2566 H   0  0  0  0  0  0
  -25.9142  -25.8349   18.9750 H   0  0  0  0  0  0
  -23.9901  -27.2932   18.9758 H   0  0  0  0  0  0
  -23.8508  -30.5596   19.3999 H   0  0  0  0  0  0
  -22.8083  -29.2380   19.8262 H   0  0  0  0  0  0
  -25.1326  -36.1763   25.0803 H   0  0  0  0  0  0
  -21.0013  -28.3341   24.1351 H   0  0  0  0  0  0
  -20.5745  -26.2332   23.3627 H   0  0  0  0  0  0
  -21.6675  -26.7467   22.1188 H   0  0  0  0  0  0
  -19.6956  -25.6291   21.1273 H   0  0  0  0  0  0
  -19.6733  -27.3185   20.6747 H   0  0  0  0  0  0
  -17.4240  -26.6689   21.4010 H   0  0  0  0  0  0
  -18.0343  -26.0081   22.9013 H   0  0  0  0  0  0
  -19.7953  -30.7309   24.2230 H   0  0  0  0  0  0
  -17.5026  -31.6275   24.5153 H   0  0  0  0  0  0
  -15.5365  -30.2976   23.7682 H   0  0  0  0  0  0
  -15.8690  -28.0820   22.7078 H   0  0  0  0  0  0
  -24.5924  -30.7058   25.7674 H   0  0  0  0  0  0
  -24.8915  -32.2921   26.4705 H   0  0  0  0  0  0
  -25.8001  -30.8939   27.0204 H   0  0  0  0  0  0
  -26.3089  -29.6558   24.1374 H   0  0  0  0  0  0
  -27.4046  -29.7232   25.4947 H   0  0  0  0  0  0
  -27.9003  -30.4073   23.9690 H   0  0  0  0  0  0
  -27.2708  -33.3584   26.2005 H   0  0  0  0  0  0
  -28.3953  -32.6774   25.0343 H   0  0  0  0  0  0
  -28.0719  -31.8413   26.5439 H   0  0  0  0  0  0
  -28.2532  -38.0113   24.7561 H   0  0  0  0  0  0
  -28.1147  -36.2645   24.6190 H   0  0  0  0  0  0
  -27.2311  -37.1293   25.8849 H   0  0  0  0  0  0
  -20.9486  -29.8714   21.6721 H   0  0  0  0  0  0
  -26.0122  -38.2764   24.1471 H   0  0  0  0  0  0
  -29.5835  -21.1676   18.0226 H   0  0  0  0  0  0
  -30.2209  -19.1493   16.8950 H   0  0  0  0  0  0
  -29.0761  -18.8375   21.6502 H   0  0  0  0  0  0
  -28.0964  -23.1015   23.5713 H   0  0  0  0  0  0
  -29.4703  -23.5809   22.6081 H   0  0  0  0  0  0
  -29.9769  -23.4369   19.9165 H   0  0  0  0  0  0
  -28.7384  -23.0156   18.8055 H   0  0  0  0  0  0
  -27.0901  -24.3217   19.7784 H   0  0  0  0  0  0
  -26.4179  -24.4247   23.2940 H   0  0  0  0  0  0
  -30.8179  -16.9175   16.8735 H   0  0  0  0  0  0
  -30.8780  -15.9511   18.2449 H   0  0  0  0  0  0
  -28.8251  -15.9709   20.9330 H   0  0  0  0  0  0
  1 25  1  0  0  0
  1 30  2  0  0  0
  1 85  1  0  0  0
  2  3  1  0  0  0
  2 25  1  0  0  0
  2 87  1  0  0  0
  2 88  1  0  0  0
  3  4  1  0  0  0
  3 89  1  0  0  0
  3 90  1  0  0  0
  4  5  1  0  0  0
  4 91  1  0  0  0
  4 92  1  0  0  0
  5  6  1  0  0  0
  5 26  1  0  0  0
  5 93  1  0  0  0
  6 25  1  0  0  0
  6 94  1  0  0  0
  6 95  1  0  0  0
  7  8  2  0  0  0
  7 26  1  0  0  0
  7 29  1  0  0  0
  8  9  1  0  0  0
  8 22  1  0  0  0
  9 10  1  0  0  0
  9 27  2  0  0  0
 10 11  2  0  0  0
 10 15  1  0  0  0
 11 12  1  0  0  0
 11 96  1  0  0  0
 12 13  2  0  0  0
 12 97  1  0  0  0
 13 14  1  0  0  0
 13 31  1  0  0  0
 14 15  2  0  0  0
 14 98  1  0  0  0
 15 99  1  0  0  0
 16 17  2  0  0  0
 16 21  1  0  0  0
 16 31  1  0  0  0
 17 18  1  0  0  0
 17100  1  0  0  0
 18 19  2  0  0  0
 18101  1  0  0  0
 19 20  1  0  0  0
 19 24  1  0  0  0
 20 21  2  0  0  0
 20102  1  0  0  0
 21 23  1  0  0  0
 22 28  1  0  0  0
 22 32  2  0  0  0
 26 27  1  0  0  0
 28103  1  0  0  0
 28104  1  0  0  0
 29105  1  0  0  0
 29106  1  0  0  0
 33 34  1  0  0  0
 33 66  1  0  0  0
 33 70  2  0  0  0
 34 36  1  0  0  0
 34 59  1  0  0  0
 34107  1  0  0  0
 35 44  2  0  0  0
 35 45  1  0  0  0
 35 68  1  0  0  0
 36 56  1  0  0  0
 36108  1  0  0  0
 37 39  1  0  0  0
 37 47  1  0  0  0
 37 66  1  0  0  0
 37109  1  0  0  0
 38 43  2  0  0  0
 38 46  1  0  0  0
 38 47  1  0  0  0
 39 64  1  0  0  0
 39 67  2  0  0  0
 40 52  1  0  0  0
 40 53  2  0  0  0
 40 58  1  0  0  0
 41110  1  0  0  0
 41111  1  0  0  0
 41112  1  0  0  0
 41 48  1  0  0  0
 42 43  1  0  0  0
 42 66  1  0  0  0
 42113  1  0  0  0
 42114  1  0  0  0
 43 44  1  0  0  0
 44115  1  0  0  0
 45 46  2  0  0  0
 45116  1  0  0  0
 46117  1  0  0  0
 47118  1  0  0  0
 47119  1  0  0  0
 48 56  1  0  0  0
 48 65  1  0  0  0
 48120  1  0  0  0
 49 50  1  0  0  0
 49 53  1  0  0  0
 49 64  1  0  0  0
 49121  1  0  0  0
 50 51  1  0  0  0
 50122  1  0  0  0
 50123  1  0  0  0
 51 52  1  0  0  0
 51124  1  0  0  0
 51125  1  0  0  0
 52126  1  0  0  0
 52127  1  0  0  0
 53 54  1  0  0  0
 54 55  2  0  0  0
 54128  1  0  0  0
 55 57  1  0  0  0
 55129  1  0  0  0
 56 69  2  0  0  0
 57 58  2  0  0  0
 57130  1  0  0  0
 58131  1  0  0  0
 59 60  1  0  0  0
 59 61  1  0  0  0
 59 62  1  0  0  0
 60132  1  0  0  0
 60133  1  0  0  0
 60134  1  0  0  0
 61135  1  0  0  0
 61136  1  0  0  0
 61137  1  0  0  0
 62138  1  0  0  0
 62139  1  0  0  0
 62140  1  0  0  0
 63 65  1  0  0  0
 63141  1  0  0  0
 63142  1  0  0  0
 63143  1  0  0  0
 64144  1  0  0  0
 65145  1  0  0  0
 68 81  1  0  0  0
 71 72  2  0  0  0
 71 74  1  0  0  0
 71146  1  0  0  0
 72 75  1  0  0  0
 72147  1  0  0  0
 73 74  2  0  0  0
 73 76  1  0  0  0
 73148  1  0  0  0
 74 83  1  0  0  0
 75 76  2  0  0  0
 75 84  1  0  0  0
 76 85  1  0  0  0
 77 79  1  0  0  0
 77 81  1  0  0  0
 77 82  2  0  0  0
 78 79  1  0  0  0
 78 83  1  0  0  0
 78 86  2  0  0  0
 79149  1  0  0  0
 79150  1  0  0  0
 80 81  1  0  0  0
 80 83  1  0  0  0
 80151  1  0  0  0
 80152  1  0  0  0
 81153  1  0  0  0
 82154  1  0  0  0
 84155  1  0  0  0
 84156  1  0  0  0
 85157  1  0  0  0
M  ISO  4   1 100  68 101  81 101  85 100
M  END
> <chiral flag>
0

> <version>
0

> <s_m_source_file>
/data/baiqing/PycharmProjects/Reinvent-master-3.2/result/LINK_invent/BTK/process_docking_weight1_custom_product_contain_oxygen_bond_distance_aromatic_linkinvent_7_9_3/rearranged_h_0069.sdf

> <i_m_source_file_index>
28

> <r_mmod_Potential_Energy-OPLS-2005>
577.357543945312

> <r_mmod_Stretch_Energy-OPLS-2005>
338.070709228516

> <r_mmod_Bend_Energy-OPLS-2005>
276.865417480469

> <r_mmod_Torsional_Energy-OPLS-2005>
282.831787109375

> <r_mmod_Improper_Torsional_Energy-OPLS-2005>
8.84317207336426

> <r_mmod_Van_der_Waal_Energy-OPLS-2005>
151.826263427734

> <r_mmod_Electrostatic_Energy-OPLS-2005>
-478.344818115234

> <r_mmod_Solvation_Energy-OPLS-2005>
-242.674621582031

> <b_mmod_Minimization_Converged-OPLS-2005>
0

> <r_mmod_RMS_Derivative-OPLS-2005>
4.17958688735962

$$$$
29
                    3D
 Structure written by MMmdl.
160169  0  0  1  0            999 V2000
  -30.7430  -14.5797   20.4922 C   0  0  0  0  0  0
  -30.4059  -12.3540   19.4346 C   0  0  0  0  0  0
  -29.4807  -12.4865   18.2095 C   0  0  0  0  0  0
  -28.0089  -12.3138   18.6305 C   0  0  0  0  0  0
  -27.6372  -13.1951   19.8504 C   0  0  2  0  0  0
  -28.7029  -13.1107   20.9682 C   0  0  0  0  0  0
  -25.2454  -13.8056   20.5645 C   0  0  0  0  0  0
  -24.1727  -13.0349   20.9138 C   0  0  0  0  0  0
  -24.6329  -11.6844   20.8750 C   0  0  0  0  0  0
  -23.9019  -10.4259   21.0417 C   0  0  0  0  0  0
  -24.3598   -9.4201   21.9195 C   0  0  0  0  0  0
  -23.6297   -8.2229   22.0745 C   0  0  0  0  0  0
  -22.4285   -8.0274   21.3531 C   0  0  0  0  0  0
  -21.9904   -9.0234   20.4630 C   0  0  0  0  0  0
  -22.7205  -10.2127   20.3053 C   0  0  0  0  0  0
  -21.6862   -6.0745   22.5284 C   0  0  0  0  0  0
  -21.4019   -6.5653   23.8217 C   0  0  0  0  0  0
  -21.3638   -5.6801   24.9179 C   0  0  0  0  0  0
  -21.6044   -4.3071   24.7229 C   0  0  0  0  0  0
  -21.8824   -3.8161   23.4353 C   0  0  0  0  0  0
  -21.9198   -4.6976   22.3411 C   0  0  0  0  0  0
  -22.7776  -13.5175   21.1841 C   0  0  0  0  0  0
  -22.1666   -4.2163   21.0984 F   0  0  0  0  0  0
  -21.5611   -3.4548   25.7734 F   0  0  0  0  0  0
  -30.0164  -13.4192   20.3817 N   0  0  0  0  0  0
  -26.2920  -12.9235   20.3394 N   0  0  0  0  0  0
  -25.9264  -11.6414   20.5841 N   0  0  0  0  0  0
  -22.0438  -12.8191   22.0435 N   0  0  0  0  0  0
  -25.4067  -15.1755   20.4078 N   0  0  0  0  0  0
  -31.9334  -14.5212   20.1960 O   0  0  0  0  0  0
  -21.6645   -6.8878   21.4236 O   0  0  0  0  0  0
  -22.3509  -14.5535   20.6760 O   0  0  0  0  0  0
  -24.6136  -31.8676   23.2096 C   0  0  0  0  0  0
  -25.9037  -32.4820   23.8384 C   0  0  1  0  0  0
  -27.2371  -27.4348   20.0987 C   0  0  0  0  0  0
  -25.5899  -33.8619   24.2318 N   0  0  0  0  0  0
  -23.4011  -30.4888   21.5508 C   0  0  2  0  0  0
  -24.8518  -28.9541   20.1144 C   0  0  0  0  0  0
  -22.7402  -29.4643   22.5008 C   0  0  0  0  0  0
  -18.0267  -28.1367   22.8497 C   0  0  0  0  0  0
  -24.1491  -36.7314   23.2638 C   0  0  0  0  0  0
  -25.9290  -30.8310   21.3651 C   0  0  0  0  0  0
  -26.0092  -29.4633   20.7178 C   0  0  0  0  0  0
  -27.2044  -28.7072   20.7191 C   0  0  0  0  0  0
  -26.0716  -26.9458   19.4785 C   0  0  0  0  0  0
  -24.8767  -27.6920   19.4936 C   0  0  0  0  0  0
  -23.6110  -29.8186   20.1656 C   0  0  0  0  0  0
  -25.4112  -36.3108   24.0333 C   0  0  1  0  0  0
  -20.5853  -28.3640   23.1335 C   0  0  2  0  0  0
  -20.6755  -26.9380   22.5428 C   0  0  0  0  0  0
  -19.5747  -26.6374   21.5218 C   0  0  0  0  0  0
  -18.1917  -26.7919   22.1614 C   0  0  0  0  0  0
  -19.1516  -28.8825   23.2912 C   0  0  0  0  0  0
  -18.9449  -30.1432   23.8916 C   0  0  0  0  0  0
  -17.6454  -30.6579   24.0560 C   0  0  0  0  0  0
  -25.9039  -34.9476   23.5124 C   0  0  0  0  0  0
  -16.5342  -29.9080   23.6328 C   0  0  0  0  0  0
  -16.7258  -28.6494   23.0355 C   0  0  0  0  0  0
  -26.4480  -31.6592   25.0702 C   0  0  0  0  0  0
  -25.3750  -31.3702   26.1454 C   0  0  0  0  0  0
  -27.0311  -30.3034   24.6066 C   0  0  0  0  0  0
  -27.6065  -32.4302   25.7455 C   0  0  0  0  0  0
  -27.5585  -37.1806   24.8460 C   0  0  0  0  0  0
  -21.4131  -29.3004   22.3743 N   0  0  0  0  0  0
  -26.4294  -37.3792   23.9409 N   0  0  0  0  0  0
  -24.6656  -31.0767   22.1006 N   0  0  0  0  0  0
  -23.4177  -28.8186   23.3048 O   0  0  0  0  0  0
  -28.3568  -26.6298   20.0988 O   0  0  0  0  0  0
  -26.5604  -34.8923   22.4686 O   0  0  0  0  0  0
  -23.5330  -32.1442   23.7491 O   0  0  0  0  0  0
  -30.5839  -20.2279   20.9604 C   0  0  0  0  0  0
  -30.4026  -18.8230   20.8953 C   0  0  0  0  0  0
  -28.2217  -20.5618   20.5722 C   0  0  0  0  0  0
  -28.0297  -19.1617   20.4806 C   0  0  0  0  0  0
  -29.4963  -21.1284   20.8113 C   0  0  0  0  0  0
  -29.1247  -18.2640   20.6503 C   0  0  0  0  0  0
  -28.8225  -23.5160   21.2975 C   0  0  0  0  0  0
  -30.8005  -24.6976   20.6822 C   0  0  0  0  0  0
  -31.0132  -23.1722   20.6511 C   0  0  0  0  0  0
  -29.5346  -24.8571   21.5155 C   0  0  1  0  0  0
  -26.6236  -18.6649   20.1763 C   0  0  0  0  0  0
  -28.7347  -26.1908   21.4099 C   0  0  0  0  0  0
  -30.2716  -15.7916   20.9030 N   0  5  0  0  0  0
  -29.6993  -22.5628   20.8860 N   0  0  0  0  0  0
  -27.6149  -23.3725   21.5153 O   0  0  0  0  0  0
  -27.7829  -16.1195   21.4229 O   0  0  0  0  0  0
  -28.5883  -16.2968   19.0397 O   0  0  0  0  0  0
  -28.8601  -16.4475   20.4791 S   0  0  0  0  0  0
  -31.4491  -12.4140   19.1214 H   0  0  0  0  0  0
  -30.2941  -11.3714   19.8942 H   0  0  0  0  0  0
  -29.7407  -11.7452   17.4525 H   0  0  0  0  0  0
  -29.6202  -13.4651   17.7461 H   0  0  0  0  0  0
  -27.8486  -11.2616   18.8703 H   0  0  0  0  0  0
  -27.3494  -12.5359   17.7910 H   0  0  0  0  0  0
  -27.6125  -14.2016   19.4598 H   0  0  0  0  0  0
  -28.7167  -12.1065   21.3973 H   0  0  0  0  0  0
  -28.4747  -13.7747   21.8001 H   0  0  0  0  0  0
  -25.2738   -9.5691   22.4779 H   0  0  0  0  0  0
  -24.0016   -7.4623   22.7471 H   0  0  0  0  0  0
  -21.0830   -8.8740   19.8950 H   0  0  0  0  0  0
  -22.3649  -10.9672   19.6174 H   0  0  0  0  0  0
  -21.2021   -7.6167   23.9718 H   0  0  0  0  0  0
  -21.1438   -6.0536   25.9072 H   0  0  0  0  0  0
  -22.0620   -2.7629   23.2848 H   0  0  0  0  0  0
  -22.4025  -11.9827   22.4819 H   0  0  0  0  0  0
  -21.1083  -13.1273   22.2692 H   0  0  0  0  0  0
  -24.6447  -15.7656   20.7211 H   0  0  0  0  0  0
  -26.3174  -15.5509   20.6986 H   0  0  0  0  0  0
  -26.7099  -32.5541   23.1139 H   0  0  0  0  0  0
  -25.0039  -33.9779   25.0456 H   0  0  0  0  0  0
  -22.6888  -31.3048   21.4122 H   0  0  0  0  0  0
  -23.3746  -35.9654   23.3309 H   0  0  0  0  0  0
  -24.3580  -36.8922   22.2048 H   0  0  0  0  0  0
  -23.7252  -37.6524   23.6649 H   0  0  0  0  0  0
  -26.0377  -31.5925   20.5923 H   0  0  0  0  0  0
  -26.8177  -30.8894   21.9804 H   0  0  0  0  0  0
  -28.0928  -29.0932   21.1985 H   0  0  0  0  0  0
  -26.0831  -25.9738   19.0045 H   0  0  0  0  0  0
  -23.9866  -27.2927   19.0276 H   0  0  0  0  0  0
  -23.7118  -30.5928   19.4041 H   0  0  0  0  0  0
  -22.7362  -29.2339   19.8744 H   0  0  0  0  0  0
  -25.1293  -36.1964   25.0827 H   0  0  0  0  0  0
  -20.9942  -28.3197   24.1458 H   0  0  0  0  0  0
  -20.5646  -26.2248   23.3610 H   0  0  0  0  0  0
  -21.6628  -26.7424   22.1228 H   0  0  0  0  0  0
  -19.6899  -25.6290   21.1233 H   0  0  0  0  0  0
  -19.6691  -27.3195   20.6758 H   0  0  0  0  0  0
  -17.4193  -26.6688   21.4002 H   0  0  0  0  0  0
  -18.0295  -26.0044   22.8996 H   0  0  0  0  0  0
  -19.7928  -30.7240   24.2288 H   0  0  0  0  0  0
  -17.5014  -31.6261   24.5154 H   0  0  0  0  0  0
  -15.5345  -30.2988   23.7647 H   0  0  0  0  0  0
  -15.8656  -28.0817   22.7070 H   0  0  0  0  0  0
  -24.5896  -30.7090   25.7777 H   0  0  0  0  0  0
  -24.8979  -32.2869   26.4928 H   0  0  0  0  0  0
  -25.8094  -30.8829   27.0191 H   0  0  0  0  0  0
  -26.2846  -29.6778   24.1158 H   0  0  0  0  0  0
  -27.4134  -29.7281   25.4507 H   0  0  0  0  0  0
  -27.8657  -30.4357   23.9178 H   0  0  0  0  0  0
  -27.2686  -33.3559   26.2122 H   0  0  0  0  0  0
  -28.3825  -32.6933   25.0256 H   0  0  0  0  0  0
  -28.0800  -31.8378   26.5294 H   0  0  0  0  0  0
  -28.2611  -38.0096   24.7507 H   0  0  0  0  0  0
  -28.1074  -36.2631   24.6283 H   0  0  0  0  0  0
  -27.2308  -37.1451   25.8864 H   0  0  0  0  0  0
  -20.9288  -29.8729   21.6971 H   0  0  0  0  0  0
  -26.0184  -38.2868   24.1416 H   0  0  0  0  0  0
  -31.5813  -20.6011   21.1421 H   0  0  0  0  0  0
  -31.2591  -18.1745   21.0157 H   0  0  0  0  0  0
  -27.3635  -21.2034   20.4300 H   0  0  0  0  0  0
  -30.6491  -25.0911   19.6762 H   0  0  0  0  0  0
  -31.6524  -25.2192   21.1188 H   0  0  0  0  0  0
  -31.6936  -22.8763   21.4511 H   0  0  0  0  0  0
  -31.4399  -22.8461   19.7018 H   0  0  0  0  0  0
  -29.8432  -24.7994   22.5608 H   0  0  0  0  0  0
  -26.2089  -18.1329   21.0325 H   0  0  0  0  0  0
  -26.6114  -18.0003   19.3124 H   0  0  0  0  0  0
  -25.9468  -19.4893   19.9490 H   0  0  0  0  0  0
  -29.3288  -26.9864   21.8607 H   0  0  0  0  0  0
  -27.8489  -26.0964   22.0409 H   0  0  0  0  0  0
  1 25  1  0  0  0
  1 30  2  0  0  0
  1 83  1  0  0  0
  2  3  1  0  0  0
  2 25  1  0  0  0
  2 89  1  0  0  0
  2 90  1  0  0  0
  3  4  1  0  0  0
  3 91  1  0  0  0
  3 92  1  0  0  0
  4  5  1  0  0  0
  4 93  1  0  0  0
  4 94  1  0  0  0
  5  6  1  0  0  0
  5 26  1  0  0  0
  5 95  1  0  0  0
  6 25  1  0  0  0
  6 96  1  0  0  0
  6 97  1  0  0  0
  7  8  2  0  0  0
  7 26  1  0  0  0
  7 29  1  0  0  0
  8  9  1  0  0  0
  8 22  1  0  0  0
  9 10  1  0  0  0
  9 27  2  0  0  0
 10 11  2  0  0  0
 10 15  1  0  0  0
 11 12  1  0  0  0
 11 98  1  0  0  0
 12 13  2  0  0  0
 12 99  1  0  0  0
 13 14  1  0  0  0
 13 31  1  0  0  0
 14 15  2  0  0  0
 14100  1  0  0  0
 15101  1  0  0  0
 16 17  2  0  0  0
 16 21  1  0  0  0
 16 31  1  0  0  0
 17 18  1  0  0  0
 17102  1  0  0  0
 18 19  2  0  0  0
 18103  1  0  0  0
 19 20  1  0  0  0
 19 24  1  0  0  0
 20 21  2  0  0  0
 20104  1  0  0  0
 21 23  1  0  0  0
 22 28  1  0  0  0
 22 32  2  0  0  0
 26 27  1  0  0  0
 28105  1  0  0  0
 28106  1  0  0  0
 29107  1  0  0  0
 29108  1  0  0  0
 33 34  1  0  0  0
 33 66  1  0  0  0
 33 70  2  0  0  0
 34 36  1  0  0  0
 34 59  1  0  0  0
 34109  1  0  0  0
 35 44  2  0  0  0
 35 45  1  0  0  0
 35 68  1  0  0  0
 36 56  1  0  0  0
 36110  1  0  0  0
 37 39  1  0  0  0
 37 47  1  0  0  0
 37 66  1  0  0  0
 37111  1  0  0  0
 38 43  2  0  0  0
 38 46  1  0  0  0
 38 47  1  0  0  0
 39 64  1  0  0  0
 39 67  2  0  0  0
 40 52  1  0  0  0
 40 53  2  0  0  0
 40 58  1  0  0  0
 41112  1  0  0  0
 41113  1  0  0  0
 41114  1  0  0  0
 41 48  1  0  0  0
 42 43  1  0  0  0
 42 66  1  0  0  0
 42115  1  0  0  0
 42116  1  0  0  0
 43 44  1  0  0  0
 44117  1  0  0  0
 45 46  2  0  0  0
 45118  1  0  0  0
 46119  1  0  0  0
 47120  1  0  0  0
 47121  1  0  0  0
 48 56  1  0  0  0
 48 65  1  0  0  0
 48122  1  0  0  0
 49 50  1  0  0  0
 49 53  1  0  0  0
 49 64  1  0  0  0
 49123  1  0  0  0
 50 51  1  0  0  0
 50124  1  0  0  0
 50125  1  0  0  0
 51 52  1  0  0  0
 51126  1  0  0  0
 51127  1  0  0  0
 52128  1  0  0  0
 52129  1  0  0  0
 53 54  1  0  0  0
 54 55  2  0  0  0
 54130  1  0  0  0
 55 57  1  0  0  0
 55131  1  0  0  0
 56 69  2  0  0  0
 57 58  2  0  0  0
 57132  1  0  0  0
 58133  1  0  0  0
 59 60  1  0  0  0
 59 61  1  0  0  0
 59 62  1  0  0  0
 60134  1  0  0  0
 60135  1  0  0  0
 60136  1  0  0  0
 61137  1  0  0  0
 61138  1  0  0  0
 61139  1  0  0  0
 62140  1  0  0  0
 62141  1  0  0  0
 62142  1  0  0  0
 63 65  1  0  0  0
 63143  1  0  0  0
 63144  1  0  0  0
 63145  1  0  0  0
 64146  1  0  0  0
 65147  1  0  0  0
 68 82  1  0  0  0
 71 72  2  0  0  0
 71 75  1  0  0  0
 71148  1  0  0  0
 72 76  1  0  0  0
 72149  1  0  0  0
 73 74  1  0  0  0
 73 75  2  0  0  0
 73150  1  0  0  0
 74 76  2  0  0  0
 74 81  1  0  0  0
 75 84  1  0  0  0
 76 88  1  0  0  0
 77 80  1  0  0  0
 77 84  1  0  0  0
 77 85  2  0  0  0
 78 79  1  0  0  0
 78 80  1  0  0  0
 78151  1  0  0  0
 78152  1  0  0  0
 79 84  1  0  0  0
 79153  1  0  0  0
 79154  1  0  0  0
 80 82  1  0  0  0
 80155  1  0  0  0
 81156  1  0  0  0
 81157  1  0  0  0
 81158  1  0  0  0
 82159  1  0  0  0
 82160  1  0  0  0
 83 88  1  0  0  0
 86 88  2  0  0  0
 87 88  2  0  0  0
M  CHG  1  83  -1
M  ISO  4   1 100  68 101  82 101  83 100
M  END
> <chiral flag>
0

> <version>
0

> <s_m_source_file>
/data/baiqing/PycharmProjects/Reinvent-master-3.2/result/LINK_invent/BTK/process_docking_weight1_custom_product_contain_oxygen_bond_distance_aromatic_linkinvent_7_9_3/rearranged_h_0069.sdf

> <i_m_source_file_index>
29

> <r_mmod_Potential_Energy-OPLS-2005>
-94.3420639038086

> <r_mmod_Stretch_Energy-OPLS-2005>
47.5672912597656

> <r_mmod_Bend_Energy-OPLS-2005>
174.244018554688

> <r_mmod_Torsional_Energy-OPLS-2005>
280.117584228516

> <r_mmod_Improper_Torsional_Energy-OPLS-2005>
6.01097059249878

> <r_mmod_Van_der_Waal_Energy-OPLS-2005>
147.624969482422

> <r_mmod_Electrostatic_Energy-OPLS-2005>
-359.418548583984

> <r_mmod_Solvation_Energy-OPLS-2005>
-424.447998046875

> <b_mmod_Minimization_Converged-OPLS-2005>
0

> <r_mmod_RMS_Derivative-OPLS-2005>
2.44437551498413

$$$$
30
                    3D
 Structure written by MMmdl.
163172  0  0  1  0            999 V2000
  -30.6201  -14.6445   20.4957 C   0  0  0  0  0  0
  -30.4388  -12.3923   19.4518 C   0  0  0  0  0  0
  -29.5071  -12.5050   18.2243 C   0  0  0  0  0  0
  -28.0305  -12.3446   18.6396 C   0  0  0  0  0  0
  -27.6518  -13.2173   19.8664 C   0  0  2  0  0  0
  -28.6996  -13.0766   20.9939 C   0  0  0  0  0  0
  -25.2540  -13.8175   20.5723 C   0  0  0  0  0  0
  -24.1799  -13.0423   20.9161 C   0  0  0  0  0  0
  -24.6384  -11.6899   20.8721 C   0  0  0  0  0  0
  -23.9065  -10.4280   21.0386 C   0  0  0  0  0  0
  -24.3617   -9.4206   21.9173 C   0  0  0  0  0  0
  -23.6286   -8.2247   22.0758 C   0  0  0  0  0  0
  -22.4264   -8.0290   21.3552 C   0  0  0  0  0  0
  -21.9887   -9.0254   20.4649 C   0  0  0  0  0  0
  -22.7226  -10.2128   20.3047 C   0  0  0  0  0  0
  -21.6862   -6.0727   22.5278 C   0  0  0  0  0  0
  -21.4018   -6.5626   23.8211 C   0  0  0  0  0  0
  -21.3654   -5.6787   24.9175 C   0  0  0  0  0  0
  -21.6046   -4.3050   24.7223 C   0  0  0  0  0  0
  -21.8817   -3.8135   23.4343 C   0  0  0  0  0  0
  -21.9192   -4.6950   22.3402 C   0  0  0  0  0  0
  -22.7824  -13.5218   21.1842 C   0  0  0  0  0  0
  -22.1663   -4.2137   21.0969 F   0  0  0  0  0  0
  -21.5619   -3.4530   25.7736 F   0  0  0  0  0  0
  -30.0135  -13.4169   20.4252 N   0  0  0  0  0  0
  -26.2983  -12.9368   20.3368 N   0  0  0  0  0  0
  -25.9325  -11.6516   20.5761 N   0  0  0  0  0  0
  -22.0472  -12.8236   22.0421 N   0  0  0  0  0  0
  -25.4163  -15.1928   20.4285 N   0  0  0  0  0  0
  -31.7914  -14.8012   20.1396 O   0  0  0  0  0  0
  -21.6648   -6.8875   21.4248 O   0  0  0  0  0  0
  -22.3508  -14.5520   20.6698 O   0  0  0  0  0  0
  -24.6271  -31.8594   23.2037 C   0  0  0  0  0  0
  -25.9114  -32.4774   23.8358 C   0  0  1  0  0  0
  -27.2251  -27.3163   20.1012 C   0  0  0  0  0  0
  -25.5924  -33.8574   24.2269 N   0  0  0  0  0  0
  -23.4209  -30.4847   21.5474 C   0  0  2  0  0  0
  -24.8655  -28.9425   20.1146 C   0  0  0  0  0  0
  -22.7476  -29.4619   22.4937 C   0  0  0  0  0  0
  -18.0293  -28.1401   22.8473 C   0  0  0  0  0  0
  -24.1488  -36.7295   23.2630 C   0  0  0  0  0  0
  -25.9646  -30.7881   21.3762 C   0  0  0  0  0  0
  -26.0383  -29.4171   20.7151 C   0  0  0  0  0  0
  -27.2206  -28.6160   20.6988 C   0  0  0  0  0  0
  -26.0181  -26.8960   19.4898 C   0  0  0  0  0  0
  -24.8561  -27.6857   19.4971 C   0  0  0  0  0  0
  -23.6362  -29.8245   20.1620 C   0  0  0  0  0  0
  -25.4103  -36.3074   24.0320 C   0  0  1  0  0  0
  -20.5888  -28.3699   23.1287 C   0  0  2  0  0  0
  -20.6789  -26.9421   22.5418 C   0  0  0  0  0  0
  -19.5768  -26.6397   21.5214 C   0  0  0  0  0  0
  -18.1944  -26.7949   22.1617 C   0  0  0  0  0  0
  -19.1543  -28.8869   23.2876 C   0  0  0  0  0  0
  -18.9463  -30.1469   23.8899 C   0  0  0  0  0  0
  -17.6462  -30.6593   24.0576 C   0  0  0  0  0  0
  -25.9047  -34.9450   23.5091 C   0  0  0  0  0  0
  -16.5360  -29.9091   23.6336 C   0  0  0  0  0  0
  -16.7276  -28.6522   23.0334 C   0  0  0  0  0  0
  -26.4483  -31.6582   25.0731 C   0  0  0  0  0  0
  -25.3717  -31.3768   26.1467 C   0  0  0  0  0  0
  -27.0304  -30.2988   24.6201 C   0  0  0  0  0  0
  -27.6056  -32.4303   25.7491 C   0  0  0  0  0  0
  -27.5585  -37.1780   24.8433 C   0  0  0  0  0  0
  -21.4192  -29.3043   22.3670 N   0  0  0  0  0  0
  -26.4268  -37.3779   23.9426 N   0  0  0  0  0  0
  -24.6899  -31.0600   22.0998 N   0  0  0  0  0  0
  -23.4195  -28.8151   23.3016 O   0  0  0  0  0  0
  -28.3499  -26.4685   20.1234 O   0  0  0  0  0  0
  -26.5617  -34.8915   22.4659 O   0  0  0  0  0  0
  -23.5429  -32.1404   23.7363 O   0  0  0  0  0  0
  -28.8119  -19.3156   20.1444 C   0  0  0  0  0  0
  -31.0082  -19.3163   21.1152 C   0  0  0  0  0  0
  -29.8999  -20.0866   20.6377 C   0  0  0  0  0  0
  -28.8165  -17.8865   20.1575 C   0  0  0  0  0  0
  -29.9192  -17.1372   20.6543 C   0  0  0  0  0  0
  -31.0215  -17.8878   21.1374 C   0  0  0  0  0  0
  -30.5899  -22.4011   21.4368 C   0  0  0  0  0  0
  -28.8536  -22.4115   19.9478 C   0  0  0  0  0  0
  -29.2820  -23.9266   20.0654 C   0  0  2  0  0  0
  -30.2115  -23.8984   21.2972 C   0  0  0  0  0  0
  -29.5099  -24.3586   22.5915 C   0  0  0  0  0  0
  -31.4712  -24.7614   21.0624 C   0  0  0  0  0  0
  -28.1114  -25.0099   19.9945 C   0  0  0  0  0  0
  -29.8540  -21.5708   20.6578 N   0  0  0  0  0  0
  -27.7027  -17.1996   19.6676 N   0  0  0  0  0  0
  -29.7781  -15.6874   20.7575 N   0  0  0  0  0  0
  -31.4845  -22.0576   22.2176 O   0  0  0  0  0  0
  -32.0889  -17.2524   21.6789 F   0  0  0  0  0  0
  -31.4822  -12.5154   19.1533 H   0  0  0  0  0  0
  -30.3702  -11.3983   19.8951 H   0  0  0  0  0  0
  -29.7669  -11.7528   17.4782 H   0  0  0  0  0  0
  -29.6513  -13.4739   17.7433 H   0  0  0  0  0  0
  -27.8662  -11.2914   18.8732 H   0  0  0  0  0  0
  -27.3761  -12.5742   17.7983 H   0  0  0  0  0  0
  -27.6641  -14.2491   19.5197 H   0  0  0  0  0  0
  -28.7107  -12.0565   21.3789 H   0  0  0  0  0  0
  -28.4503  -13.7131   21.8449 H   0  0  0  0  0  0
  -25.2762   -9.5670   22.4751 H   0  0  0  0  0  0
  -23.9992   -7.4630   22.7470 H   0  0  0  0  0  0
  -21.0817   -8.8777   19.8953 H   0  0  0  0  0  0
  -22.3692  -10.9670   19.6156 H   0  0  0  0  0  0
  -21.2026   -7.6140   23.9714 H   0  0  0  0  0  0
  -21.1474   -6.0510   25.9075 H   0  0  0  0  0  0
  -22.0600   -2.7594   23.2856 H   0  0  0  0  0  0
  -22.4100  -11.9911   22.4824 H   0  0  0  0  0  0
  -21.1099  -13.1294   22.2638 H   0  0  0  0  0  0
  -24.6339  -15.8259   20.5446 H   0  0  0  0  0  0
  -26.2821  -15.6918   20.2293 H   0  0  0  0  0  0
  -26.7186  -32.5439   23.1110 H   0  0  0  0  0  0
  -25.0060  -33.9712   25.0408 H   0  0  0  0  0  0
  -22.7152  -31.3060   21.4063 H   0  0  0  0  0  0
  -23.3762  -35.9610   23.3227 H   0  0  0  0  0  0
  -24.3611  -36.8987   22.2062 H   0  0  0  0  0  0
  -23.7220  -37.6463   23.6709 H   0  0  0  0  0  0
  -26.0959  -31.5525   20.6092 H   0  0  0  0  0  0
  -26.8460  -30.8349   22.0046 H   0  0  0  0  0  0
  -28.1212  -28.9739   21.1768 H   0  0  0  0  0  0
  -25.9274  -25.9412   18.9977 H   0  0  0  0  0  0
  -23.9547  -27.3154   19.0274 H   0  0  0  0  0  0
  -23.7614  -30.6034   19.4091 H   0  0  0  0  0  0
  -22.7543  -29.2593   19.8539 H   0  0  0  0  0  0
  -25.1274  -36.1913   25.0807 H   0  0  0  0  0  0
  -20.9977  -28.3290   24.1412 H   0  0  0  0  0  0
  -20.5707  -26.2295   23.3610 H   0  0  0  0  0  0
  -21.6661  -26.7468   22.1207 H   0  0  0  0  0  0
  -19.6932  -25.6313   21.1233 H   0  0  0  0  0  0
  -19.6713  -27.3210   20.6747 H   0  0  0  0  0  0
  -17.4212  -26.6689   21.4024 H   0  0  0  0  0  0
  -18.0335  -26.0100   22.9019 H   0  0  0  0  0  0
  -19.7938  -30.7288   24.2265 H   0  0  0  0  0  0
  -17.5016  -31.6274   24.5186 H   0  0  0  0  0  0
  -15.5358  -30.2991   23.7676 H   0  0  0  0  0  0
  -15.8677  -28.0855   22.7026 H   0  0  0  0  0  0
  -24.5836  -30.7168   25.7815 H   0  0  0  0  0  0
  -24.8982  -32.2967   26.4913 H   0  0  0  0  0  0
  -25.8024  -30.8923   27.0236 H   0  0  0  0  0  0
  -26.2879  -29.6760   24.1192 H   0  0  0  0  0  0
  -27.3935  -29.7223   25.4721 H   0  0  0  0  0  0
  -27.8779  -30.4244   23.9459 H   0  0  0  0  0  0
  -27.2672  -33.3598   26.2080 H   0  0  0  0  0  0
  -28.3857  -32.6859   25.0310 H   0  0  0  0  0  0
  -28.0720  -31.8418   26.5400 H   0  0  0  0  0  0
  -28.2529  -38.0149   24.7576 H   0  0  0  0  0  0
  -28.1154  -36.2687   24.6115 H   0  0  0  0  0  0
  -27.2338  -37.1263   25.8841 H   0  0  0  0  0  0
  -20.9370  -29.8750   21.6866 H   0  0  0  0  0  0
  -26.0134  -38.2828   24.1517 H   0  0  0  0  0  0
  -27.9438  -19.8287   19.7595 H   0  0  0  0  0  0
  -31.8888  -19.8031   21.5007 H   0  0  0  0  0  0
  -28.7748  -22.1115   18.9019 H   0  0  0  0  0  0
  -27.8776  -22.2533   20.4096 H   0  0  0  0  0  0
  -29.9097  -24.1219   19.1930 H   0  0  0  0  0  0
  -28.5997  -23.7884   22.7791 H   0  0  0  0  0  0
  -29.2376  -25.4127   22.5417 H   0  0  0  0  0  0
  -30.1587  -24.2369   23.4602 H   0  0  0  0  0  0
  -32.0142  -24.4499   20.1679 H   0  0  0  0  0  0
  -32.1642  -24.6956   21.9023 H   0  0  0  0  0  0
  -31.2109  -25.8127   20.9358 H   0  0  0  0  0  0
  -27.3439  -24.7280   20.7183 H   0  0  0  0  0  0
  -27.6777  -24.8402   19.0092 H   0  0  0  0  0  0
  -26.9780  -17.7965   19.2827 H   0  0  0  0  0  0
  -27.9366  -16.4780   18.9943 H   0  0  0  0  0  0
  -28.8179  -15.4063   20.8740 H   0  0  0  0  0  0
  1 25  1  0  0  0
  1 30  2  0  0  0
  1 86  1  0  0  0
  2  3  1  0  0  0
  2 25  1  0  0  0
  2 89  1  0  0  0
  2 90  1  0  0  0
  3  4  1  0  0  0
  3 91  1  0  0  0
  3 92  1  0  0  0
  4  5  1  0  0  0
  4 93  1  0  0  0
  4 94  1  0  0  0
  5  6  1  0  0  0
  5 26  1  0  0  0
  5 95  1  0  0  0
  6 25  1  0  0  0
  6 96  1  0  0  0
  6 97  1  0  0  0
  7  8  2  0  0  0
  7 26  1  0  0  0
  7 29  1  0  0  0
  8  9  1  0  0  0
  8 22  1  0  0  0
  9 10  1  0  0  0
  9 27  2  0  0  0
 10 11  2  0  0  0
 10 15  1  0  0  0
 11 12  1  0  0  0
 11 98  1  0  0  0
 12 13  2  0  0  0
 12 99  1  0  0  0
 13 14  1  0  0  0
 13 31  1  0  0  0
 14 15  2  0  0  0
 14100  1  0  0  0
 15101  1  0  0  0
 16 17  2  0  0  0
 16 21  1  0  0  0
 16 31  1  0  0  0
 17 18  1  0  0  0
 17102  1  0  0  0
 18 19  2  0  0  0
 18103  1  0  0  0
 19 20  1  0  0  0
 19 24  1  0  0  0
 20 21  2  0  0  0
 20104  1  0  0  0
 21 23  1  0  0  0
 22 28  1  0  0  0
 22 32  2  0  0  0
 26 27  1  0  0  0
 28105  1  0  0  0
 28106  1  0  0  0
 29107  1  0  0  0
 29108  1  0  0  0
 33 34  1  0  0  0
 33 66  1  0  0  0
 33 70  2  0  0  0
 34 36  1  0  0  0
 34 59  1  0  0  0
 34109  1  0  0  0
 35 44  2  0  0  0
 35 45  1  0  0  0
 35 68  1  0  0  0
 36 56  1  0  0  0
 36110  1  0  0  0
 37 39  1  0  0  0
 37 47  1  0  0  0
 37 66  1  0  0  0
 37111  1  0  0  0
 38 43  2  0  0  0
 38 46  1  0  0  0
 38 47  1  0  0  0
 39 64  1  0  0  0
 39 67  2  0  0  0
 40 52  1  0  0  0
 40 53  2  0  0  0
 40 58  1  0  0  0
 41112  1  0  0  0
 41113  1  0  0  0
 41114  1  0  0  0
 41 48  1  0  0  0
 42 43  1  0  0  0
 42 66  1  0  0  0
 42115  1  0  0  0
 42116  1  0  0  0
 43 44  1  0  0  0
 44117  1  0  0  0
 45 46  2  0  0  0
 45118  1  0  0  0
 46119  1  0  0  0
 47120  1  0  0  0
 47121  1  0  0  0
 48 56  1  0  0  0
 48 65  1  0  0  0
 48122  1  0  0  0
 49 50  1  0  0  0
 49 53  1  0  0  0
 49 64  1  0  0  0
 49123  1  0  0  0
 50 51  1  0  0  0
 50124  1  0  0  0
 50125  1  0  0  0
 51 52  1  0  0  0
 51126  1  0  0  0
 51127  1  0  0  0
 52128  1  0  0  0
 52129  1  0  0  0
 53 54  1  0  0  0
 54 55  2  0  0  0
 54130  1  0  0  0
 55 57  1  0  0  0
 55131  1  0  0  0
 56 69  2  0  0  0
 57 58  2  0  0  0
 57132  1  0  0  0
 58133  1  0  0  0
 59 60  1  0  0  0
 59 61  1  0  0  0
 59 62  1  0  0  0
 60134  1  0  0  0
 60135  1  0  0  0
 60136  1  0  0  0
 61137  1  0  0  0
 61138  1  0  0  0
 61139  1  0  0  0
 62140  1  0  0  0
 62141  1  0  0  0
 62142  1  0  0  0
 63 65  1  0  0  0
 63143  1  0  0  0
 63144  1  0  0  0
 63145  1  0  0  0
 64146  1  0  0  0
 65147  1  0  0  0
 68 83  1  0  0  0
 71 73  2  0  0  0
 71 74  1  0  0  0
 71148  1  0  0  0
 72 73  1  0  0  0
 72 76  2  0  0  0
 72149  1  0  0  0
 73 84  1  0  0  0
 74 75  2  0  0  0
 74 85  1  0  0  0
 75 76  1  0  0  0
 75 86  1  0  0  0
 76 88  1  0  0  0
 77 80  1  0  0  0
 77 84  1  0  0  0
 77 87  2  0  0  0
 78 79  1  0  0  0
 78 84  1  0  0  0
 78150  1  0  0  0
 78151  1  0  0  0
 79 80  1  0  0  0
 79 83  1  0  0  0
 79152  1  0  0  0
 80 81  1  0  0  0
 80 82  1  0  0  0
 81153  1  0  0  0
 81154  1  0  0  0
 81155  1  0  0  0
 82156  1  0  0  0
 82157  1  0  0  0
 82158  1  0  0  0
 83159  1  0  0  0
 83160  1  0  0  0
 85161  1  0  0  0
 85162  1  0  0  0
 86163  1  0  0  0
M  ISO  4   1 100  68 101  83 101  86 100
M  END
> <chiral flag>
0

> <version>
0

> <s_m_source_file>
/data/baiqing/PycharmProjects/Reinvent-master-3.2/result/LINK_invent/BTK/process_docking_weight1_custom_product_contain_oxygen_bond_distance_aromatic_linkinvent_7_9_3/rearranged_h_0069.sdf

> <i_m_source_file_index>
30

> <r_mmod_Potential_Energy-OPLS-2005>
79.7146835327148

> <r_mmod_Stretch_Energy-OPLS-2005>
83.2089233398438

> <r_mmod_Bend_Energy-OPLS-2005>
169.188949584961

> <r_mmod_Torsional_Energy-OPLS-2005>
293.457244873047

> <r_mmod_Improper_Torsional_Energy-OPLS-2005>
11.6340551376343

> <r_mmod_Van_der_Waal_Energy-OPLS-2005>
150.857604980469

> <r_mmod_Electrostatic_Energy-OPLS-2005>
-455.970306396484

> <r_mmod_Solvation_Energy-OPLS-2005>
-222.178375244141

> <b_mmod_Minimization_Converged-OPLS-2005>
0

> <r_mmod_RMS_Derivative-OPLS-2005>
2.37247633934021

$$$$
31
                    3D
 Structure written by MMmdl.
155163  0  0  1  0            999 V2000
  -30.6628  -14.4842   20.5987 C   0  0  0  0  0  0
  -30.4351  -12.3102   19.4517 C   0  0  0  0  0  0
  -29.5110  -12.4913   18.2291 C   0  0  0  0  0  0
  -28.0290  -12.3566   18.6283 C   0  0  0  0  0  0
  -27.6654  -13.1992   19.8787 C   0  0  2  0  0  0
  -28.6944  -12.9704   21.0089 C   0  0  0  0  0  0
  -25.2597  -13.8141   20.5644 C   0  0  0  0  0  0
  -24.1834  -13.0437   20.9151 C   0  0  0  0  0  0
  -24.6368  -11.6898   20.8708 C   0  0  0  0  0  0
  -23.9010  -10.4303   21.0405 C   0  0  0  0  0  0
  -24.3580   -9.4237   21.9187 C   0  0  0  0  0  0
  -23.6274   -8.2254   22.0755 C   0  0  0  0  0  0
  -22.4261   -8.0280   21.3537 C   0  0  0  0  0  0
  -21.9864   -9.0247   20.4635 C   0  0  0  0  0  0
  -22.7177  -10.2137   20.3058 C   0  0  0  0  0  0
  -21.6850   -6.0724   22.5271 C   0  0  0  0  0  0
  -21.4002   -6.5642   23.8204 C   0  0  0  0  0  0
  -21.3660   -5.6795   24.9159 C   0  0  0  0  0  0
  -21.6052   -4.3047   24.7214 C   0  0  0  0  0  0
  -21.8829   -3.8141   23.4338 C   0  0  0  0  0  0
  -21.9202   -4.6955   22.3386 C   0  0  0  0  0  0
  -22.7870  -13.5259   21.1831 C   0  0  0  0  0  0
  -22.1689   -4.2142   21.0958 F   0  0  0  0  0  0
  -21.5616   -3.4542   25.7732 F   0  0  0  0  0  0
  -30.0367  -13.2820   20.4824 N   0  0  0  0  0  0
  -26.3026  -12.9294   20.3330 N   0  0  0  0  0  0
  -25.9284  -11.6460   20.5716 N   0  0  0  0  0  0
  -22.0487  -12.8271   22.0382 N   0  0  0  0  0  0
  -25.4364  -15.1847   20.4064 N   0  0  0  0  0  0
  -31.7383  -14.7399   20.0437 O   0  0  0  0  0  0
  -21.6641   -6.8870   21.4233 O   0  0  0  0  0  0
  -22.3574  -14.5579   20.6698 O   0  0  0  0  0  0
  -24.6137  -31.8670   23.2115 C   0  0  0  0  0  0
  -25.9034  -32.4811   23.8402 C   0  0  1  0  0  0
  -27.2302  -27.4249   20.0806 C   0  0  0  0  0  0
  -25.5893  -33.8614   24.2337 N   0  0  0  0  0  0
  -23.4007  -30.4913   21.5535 C   0  0  2  0  0  0
  -24.8430  -28.9577   20.1156 C   0  0  0  0  0  0
  -22.7402  -29.4637   22.5005 C   0  0  0  0  0  0
  -18.0264  -28.1361   22.8488 C   0  0  0  0  0  0
  -24.1484  -36.7307   23.2639 C   0  0  0  0  0  0
  -25.9315  -30.8264   21.3677 C   0  0  0  0  0  0
  -26.0042  -29.4613   20.7119 C   0  0  0  0  0  0
  -27.1955  -28.6995   20.6965 C   0  0  0  0  0  0
  -26.0371  -26.9269   19.5046 C   0  0  0  0  0  0
  -24.8536  -27.6876   19.5165 C   0  0  0  0  0  0
  -23.6067  -29.8266   20.1671 C   0  0  0  0  0  0
  -25.4100  -36.3107   24.0343 C   0  0  1  0  0  0
  -20.5854  -28.3636   23.1333 C   0  0  2  0  0  0
  -20.6756  -26.9370   22.5438 C   0  0  0  0  0  0
  -19.5741  -26.6365   21.5223 C   0  0  0  0  0  0
  -18.1912  -26.7911   22.1616 C   0  0  0  0  0  0
  -19.1515  -28.8816   23.2903 C   0  0  0  0  0  0
  -18.9443  -30.1432   23.8903 C   0  0  0  0  0  0
  -17.6448  -30.6565   24.0565 C   0  0  0  0  0  0
  -25.9028  -34.9467   23.5137 C   0  0  0  0  0  0
  -16.5340  -29.9070   23.6325 C   0  0  0  0  0  0
  -16.7257  -28.6491   23.0338 C   0  0  0  0  0  0
  -26.4473  -31.6585   25.0718 C   0  0  0  0  0  0
  -25.3760  -31.3702   26.1487 C   0  0  0  0  0  0
  -27.0289  -30.3019   24.6094 C   0  0  0  0  0  0
  -27.6058  -32.4299   25.7467 C   0  0  0  0  0  0
  -27.5580  -37.1802   24.8457 C   0  0  0  0  0  0
  -21.4130  -29.3004   22.3740 N   0  0  0  0  0  0
  -26.4289  -37.3789   23.9406 N   0  0  0  0  0  0
  -24.6671  -31.0766   22.1021 N   0  0  0  0  0  0
  -23.4180  -28.8165   23.3026 O   0  0  0  0  0  0
  -28.4205  -26.7202   20.0967 O   0  0  0  0  0  0
  -26.5598  -34.8921   22.4704 O   0  0  0  0  0  0
  -23.5335  -32.1428   23.7513 O   0  0  0  0  0  0
  -28.7722  -18.9277   21.6804 C   0  0  0  0  0  0
  -28.8269  -18.3620   19.3233 C   0  0  0  0  0  0
  -29.2962  -17.6511   21.9938 C   0  0  0  0  0  0
  -29.3832  -17.0978   19.6316 C   0  0  0  0  0  0
  -28.5063  -19.2944   20.3403 C   0  0  0  0  0  0
  -29.6107  -16.7191   20.9775 C   0  0  0  0  0  0
  -27.8320  -20.6019   19.9998 C   0  0  0  0  0  0
  -28.6313  -25.5867   19.2347 C   0  0  0  0  0  0
  -28.9520  -24.2698   19.9894 C   0  0  0  0  0  0
  -28.2365  -21.7019   20.5688 N   0  0  0  0  0  0
  -26.7936  -20.4445   19.1015 N   0  0  0  0  0  0
  -30.0153  -15.3973   21.3523 N   0  0  0  0  0  0
  -26.6359  -23.2154   19.1255 O   0  0  0  0  0  0
  -26.8973  -23.6568   21.6018 O   0  0  0  0  0  0
  -27.4856  -23.2047   20.3299 S   0  0  0  0  0  0
  -31.4795  -12.4233   19.1563 H   0  0  0  0  0  0
  -30.3496  -11.2987   19.8516 H   0  0  0  0  0  0
  -29.7597  -11.7510   17.4676 H   0  0  0  0  0  0
  -29.6870  -13.4700   17.7811 H   0  0  0  0  0  0
  -27.8341  -11.3027   18.8298 H   0  0  0  0  0  0
  -27.3865  -12.6278   17.7904 H   0  0  0  0  0  0
  -27.7125  -14.2476   19.5838 H   0  0  0  0  0  0
  -28.6650  -11.9320   21.3427 H   0  0  0  0  0  0
  -28.4273  -13.5593   21.8871 H   0  0  0  0  0  0
  -25.2725   -9.5719   22.4759 H   0  0  0  0  0  0
  -23.9990   -7.4640   22.7468 H   0  0  0  0  0  0
  -21.0797   -8.8742   19.8940 H   0  0  0  0  0  0
  -22.3624  -10.9667   19.6162 H   0  0  0  0  0  0
  -21.1997   -7.6148   23.9703 H   0  0  0  0  0  0
  -21.1470   -6.0515   25.9059 H   0  0  0  0  0  0
  -22.0609   -2.7594   23.2840 H   0  0  0  0  0  0
  -22.4056  -11.9915   22.4784 H   0  0  0  0  0  0
  -21.1102  -13.1309   22.2550 H   0  0  0  0  0  0
  -24.6724  -15.8454   20.5026 H   0  0  0  0  0  0
  -26.2973  -15.6124   20.0914 H   0  0  0  0  0  0
  -26.7090  -32.5514   23.1151 H   0  0  0  0  0  0
  -25.0046  -33.9784   25.0483 H   0  0  0  0  0  0
  -22.6884  -31.3074   21.4180 H   0  0  0  0  0  0
  -23.3749  -35.9641   23.3310 H   0  0  0  0  0  0
  -24.3585  -36.8912   22.2055 H   0  0  0  0  0  0
  -23.7232  -37.6510   23.6649 H   0  0  0  0  0  0
  -26.0506  -31.5928   20.6011 H   0  0  0  0  0  0
  -26.8176  -30.8754   21.9887 H   0  0  0  0  0  0
  -28.0936  -29.0861   21.1580 H   0  0  0  0  0  0
  -25.9789  -25.9469   19.0579 H   0  0  0  0  0  0
  -23.9538  -27.2850   19.0722 H   0  0  0  0  0  0
  -23.7162  -30.6038   19.4102 H   0  0  0  0  0  0
  -22.7281  -29.2504   19.8708 H   0  0  0  0  0  0
  -25.1269  -36.1989   25.0838 H   0  0  0  0  0  0
  -20.9942  -28.3208   24.1457 H   0  0  0  0  0  0
  -20.5642  -26.2237   23.3618 H   0  0  0  0  0  0
  -21.6630  -26.7403   22.1241 H   0  0  0  0  0  0
  -19.6903  -25.6286   21.1221 H   0  0  0  0  0  0
  -19.6690  -27.3203   20.6780 H   0  0  0  0  0  0
  -17.4189  -26.6675   21.4009 H   0  0  0  0  0  0
  -18.0286  -26.0045   22.8993 H   0  0  0  0  0  0
  -19.7924  -30.7251   24.2257 H   0  0  0  0  0  0
  -17.5000  -31.6247   24.5165 H   0  0  0  0  0  0
  -15.5338  -30.2967   23.7647 H   0  0  0  0  0  0
  -15.8660  -28.0820   22.7032 H   0  0  0  0  0  0
  -24.5899  -30.7083   25.7839 H   0  0  0  0  0  0
  -24.9008  -32.2872   26.4980 H   0  0  0  0  0  0
  -25.8128  -30.8831   27.0211 H   0  0  0  0  0  0
  -26.2824  -29.6779   24.1162 H   0  0  0  0  0  0
  -27.4070  -29.7252   25.4544 H   0  0  0  0  0  0
  -27.8663  -30.4329   23.9236 H   0  0  0  0  0  0
  -27.2680  -33.3579   26.2095 H   0  0  0  0  0  0
  -28.3836  -32.6882   25.0269 H   0  0  0  0  0  0
  -28.0756  -31.8390   26.5338 H   0  0  0  0  0  0
  -28.2600  -38.0095   24.7507 H   0  0  0  0  0  0
  -28.1070  -36.2630   24.6268 H   0  0  0  0  0  0
  -27.2302  -37.1441   25.8862 H   0  0  0  0  0  0
  -20.9274  -29.8751   21.6999 H   0  0  0  0  0  0
  -26.0180  -38.2868   24.1422 H   0  0  0  0  0  0
  -28.5246  -19.6090   22.4820 H   0  0  0  0  0  0
  -28.6252  -18.6077   18.2896 H   0  0  0  0  0  0
  -29.4356  -17.3855   23.0322 H   0  0  0  0  0  0
  -29.5811  -16.4079   18.8235 H   0  0  0  0  0  0
  -27.8823  -25.4356   18.4609 H   0  0  0  0  0  0
  -29.5213  -25.8498   18.6622 H   0  0  0  0  0  0
  -29.4916  -24.4397   20.9177 H   0  0  0  0  0  0
  -29.6004  -23.6660   19.3576 H   0  0  0  0  0  0
  -26.4680  -19.5502   18.7540 H   0  0  0  0  0  0
  -26.2494  -21.2083   18.7132 H   0  0  0  0  0  0
  -29.4434  -14.9856   22.0749 H   0  0  0  0  0  0
  1 25  1  0  0  0
  1 30  2  0  0  0
  1 82  1  0  0  0
  2  3  1  0  0  0
  2 25  1  0  0  0
  2 86  1  0  0  0
  2 87  1  0  0  0
  3  4  1  0  0  0
  3 88  1  0  0  0
  3 89  1  0  0  0
  4  5  1  0  0  0
  4 90  1  0  0  0
  4 91  1  0  0  0
  5  6  1  0  0  0
  5 26  1  0  0  0
  5 92  1  0  0  0
  6 25  1  0  0  0
  6 93  1  0  0  0
  6 94  1  0  0  0
  7  8  2  0  0  0
  7 26  1  0  0  0
  7 29  1  0  0  0
  8  9  1  0  0  0
  8 22  1  0  0  0
  9 10  1  0  0  0
  9 27  2  0  0  0
 10 11  2  0  0  0
 10 15  1  0  0  0
 11 12  1  0  0  0
 11 95  1  0  0  0
 12 13  2  0  0  0
 12 96  1  0  0  0
 13 14  1  0  0  0
 13 31  1  0  0  0
 14 15  2  0  0  0
 14 97  1  0  0  0
 15 98  1  0  0  0
 16 17  2  0  0  0
 16 21  1  0  0  0
 16 31  1  0  0  0
 17 18  1  0  0  0
 17 99  1  0  0  0
 18 19  2  0  0  0
 18100  1  0  0  0
 19 20  1  0  0  0
 19 24  1  0  0  0
 20 21  2  0  0  0
 20101  1  0  0  0
 21 23  1  0  0  0
 22 28  1  0  0  0
 22 32  2  0  0  0
 26 27  1  0  0  0
 28102  1  0  0  0
 28103  1  0  0  0
 29104  1  0  0  0
 29105  1  0  0  0
 33 34  1  0  0  0
 33 66  1  0  0  0
 33 70  2  0  0  0
 34 36  1  0  0  0
 34 59  1  0  0  0
 34106  1  0  0  0
 35 44  2  0  0  0
 35 45  1  0  0  0
 35 68  1  0  0  0
 36 56  1  0  0  0
 36107  1  0  0  0
 37 39  1  0  0  0
 37 47  1  0  0  0
 37 66  1  0  0  0
 37108  1  0  0  0
 38 43  2  0  0  0
 38 46  1  0  0  0
 38 47  1  0  0  0
 39 64  1  0  0  0
 39 67  2  0  0  0
 40 52  1  0  0  0
 40 53  2  0  0  0
 40 58  1  0  0  0
 41109  1  0  0  0
 41110  1  0  0  0
 41111  1  0  0  0
 41 48  1  0  0  0
 42 43  1  0  0  0
 42 66  1  0  0  0
 42112  1  0  0  0
 42113  1  0  0  0
 43 44  1  0  0  0
 44114  1  0  0  0
 45 46  2  0  0  0
 45115  1  0  0  0
 46116  1  0  0  0
 47117  1  0  0  0
 47118  1  0  0  0
 48 56  1  0  0  0
 48 65  1  0  0  0
 48119  1  0  0  0
 49 50  1  0  0  0
 49 53  1  0  0  0
 49 64  1  0  0  0
 49120  1  0  0  0
 50 51  1  0  0  0
 50121  1  0  0  0
 50122  1  0  0  0
 51 52  1  0  0  0
 51123  1  0  0  0
 51124  1  0  0  0
 52125  1  0  0  0
 52126  1  0  0  0
 53 54  1  0  0  0
 54 55  2  0  0  0
 54127  1  0  0  0
 55 57  1  0  0  0
 55128  1  0  0  0
 56 69  2  0  0  0
 57 58  2  0  0  0
 57129  1  0  0  0
 58130  1  0  0  0
 59 60  1  0  0  0
 59 61  1  0  0  0
 59 62  1  0  0  0
 60131  1  0  0  0
 60132  1  0  0  0
 60133  1  0  0  0
 61134  1  0  0  0
 61135  1  0  0  0
 61136  1  0  0  0
 62137  1  0  0  0
 62138  1  0  0  0
 62139  1  0  0  0
 63 65  1  0  0  0
 63140  1  0  0  0
 63141  1  0  0  0
 63142  1  0  0  0
 64143  1  0  0  0
 65144  1  0  0  0
 68 78  1  0  0  0
 71 73  2  0  0  0
 71 75  1  0  0  0
 71145  1  0  0  0
 72 74  1  0  0  0
 72 75  2  0  0  0
 72146  1  0  0  0
 73 76  1  0  0  0
 73147  1  0  0  0
 74 76  2  0  0  0
 74148  1  0  0  0
 75 77  1  0  0  0
 76 82  1  0  0  0
 77 80  2  0  0  0
 77 81  1  0  0  0
 78 79  1  0  0  0
 78149  1  0  0  0
 78150  1  0  0  0
 79151  1  0  0  0
 79152  1  0  0  0
 79 85  1  0  0  0
 80 85  1  0  0  0
 81153  1  0  0  0
 81154  1  0  0  0
 82155  1  0  0  0
 83 85  2  0  0  0
 84 85  2  0  0  0
M  ISO  4   1 100  68 101  78 101  82 100
M  END
> <chiral flag>
0

> <version>
0

> <s_m_source_file>
/data/baiqing/PycharmProjects/Reinvent-master-3.2/result/LINK_invent/BTK/process_docking_weight1_custom_product_contain_oxygen_bond_distance_aromatic_linkinvent_7_9_3/rearranged_h_0069.sdf

> <i_m_source_file_index>
31

> <r_mmod_Potential_Energy-OPLS-2005>
-171.301452636719

> <r_mmod_Stretch_Energy-OPLS-2005>
40.9085426330566

> <r_mmod_Bend_Energy-OPLS-2005>
120.906410217285

> <r_mmod_Torsional_Energy-OPLS-2005>
245.999710083008

> <r_mmod_Improper_Torsional_Energy-OPLS-2005>
4.63827991485596

> <r_mmod_Van_der_Waal_Energy-OPLS-2005>
150.997375488281

> <r_mmod_Electrostatic_Energy-OPLS-2005>
-491.541839599609

> <r_mmod_Solvation_Energy-OPLS-2005>
-257.826080322266

> <b_mmod_Minimization_Converged-OPLS-2005>
0

> <r_mmod_RMS_Derivative-OPLS-2005>
2.65051531791687

$$$$
32
                    3D
 Structure written by MMmdl.
160168  0  0  1  0            999 V2000
  -31.6634  -13.6595   20.8676 C   0  0  0  0  0  0
  -31.0367  -13.4978   18.7580 C   0  0  0  0  0  0
  -29.6800  -12.4775   18.1311 C   0  0  0  0  0  0
  -27.9653  -12.3975   18.6307 C   0  0  0  0  0  0
  -27.0969  -13.4886   19.7460 C   0  0  2  0  0  0
  -27.8751  -14.6518   20.9738 C   0  0  0  0  0  0
  -24.9682  -13.8444   20.6250 C   0  0  0  0  0  0
  -23.9921  -13.0124   20.9989 C   0  0  0  0  0  0
  -24.5250  -11.6829   20.9252 C   0  0  0  0  0  0
  -23.8555  -10.4086   21.0616 C   0  0  0  0  0  0
  -24.3378   -9.4051   21.9262 C   0  0  0  0  0  0
  -23.6199   -8.2014   22.0735 C   0  0  0  0  0  0
  -22.4169   -8.0064   21.3531 C   0  0  0  0  0  0
  -21.9714   -8.9950   20.4598 C   0  0  0  0  0  0
  -22.6888  -10.1871   20.3089 C   0  0  0  0  0  0
  -21.6785   -6.0647   22.5305 C   0  0  0  0  0  0
  -21.3969   -6.5601   23.8234 C   0  0  0  0  0  0
  -21.3636   -5.6763   24.9211 C   0  0  0  0  0  0
  -21.6045   -4.3035   24.7252 C   0  0  0  0  0  0
  -21.8830   -3.8097   23.4391 C   0  0  0  0  0  0
  -21.9182   -4.6898   22.3438 C   0  0  0  0  0  0
  -22.6073  -13.4656   21.2495 C   0  0  0  0  0  0
  -22.1662   -4.2119   21.1009 F   0  0  0  0  0  0
  -21.5629   -3.4511   25.7765 F   0  0  0  0  0  0
  -30.8409  -14.5286   20.2891 N   0  0  0  0  0  0
  -25.9811  -12.9979   20.3256 N   0  0  0  0  0  0
  -25.7977  -11.6928   20.5767 N   0  0  0  0  0  0
  -21.9021  -12.7629   22.1176 N   0  0  0  0  0  0
  -25.0472  -15.2274   20.4316 N   0  0  0  0  0  0
  -32.3502  -14.6402   20.5657 O   0  0  0  0  0  0
  -21.6533   -6.8686   21.4238 O   0  0  0  0  0  0
  -22.1824  -14.4951   20.7236 O   0  0  0  0  0  0
  -24.6664  -31.8218   23.1710 C   0  0  0  0  0  0
  -25.9337  -32.4575   23.8177 C   0  0  1  0  0  0
  -27.1829  -26.9010   20.1391 C   0  0  0  0  0  0
  -25.5991  -33.8398   24.2074 N   0  0  0  0  0  0
  -23.4808  -30.4360   21.5240 C   0  0  2  0  0  0
  -24.9237  -28.8299   20.0987 C   0  0  0  0  0  0
  -22.7696  -29.4422   22.4802 C   0  0  0  0  0  0
  -18.0320  -28.1424   22.8462 C   0  0  0  0  0  0
  -24.1473  -36.7189   23.2643 C   0  0  0  0  0  0
  -26.0559  -30.6097   21.4123 C   0  0  0  0  0  0
  -26.1077  -29.2038   20.7441 C   0  0  0  0  0  0
  -27.2331  -28.2572   20.7458 C   0  0  0  0  0  0
  -25.9764  -26.6983   19.4357 C   0  0  0  0  0  0
  -24.8840  -27.6015   19.4243 C   0  0  0  0  0  0
  -23.7149  -29.7634   20.1442 C   0  0  0  0  0  0
  -25.4123  -36.2976   24.0303 C   0  0  1  0  0  0
  -20.5941  -28.3754   23.1192 C   0  0  2  0  0  0
  -20.6802  -26.9434   22.5407 C   0  0  0  0  0  0
  -19.5774  -26.6376   21.5229 C   0  0  0  0  0  0
  -18.1954  -26.7953   22.1629 C   0  0  0  0  0  0
  -19.1578  -28.8922   23.2804 C   0  0  0  0  0  0
  -18.9484  -30.1514   23.8833 C   0  0  0  0  0  0
  -17.6476  -30.6609   24.0547 C   0  0  0  0  0  0
  -25.9102  -34.9357   23.5024 C   0  0  0  0  0  0
  -16.5369  -29.9088   23.6349 C   0  0  0  0  0  0
  -16.7300  -28.6513   23.0364 C   0  0  0  0  0  0
  -26.4545  -31.6557   25.0745 C   0  0  0  0  0  0
  -25.3630  -31.3841   26.1370 C   0  0  0  0  0  0
  -27.0465  -30.2917   24.6567 C   0  0  0  0  0  0
  -27.6030  -32.4385   25.7534 C   0  0  0  0  0  0
  -27.5585  -37.1740   24.8458 C   0  0  0  0  0  0
  -21.4365  -29.3031   22.3552 N   0  0  0  0  0  0
  -26.4269  -37.3728   23.9434 N   0  0  0  0  0  0
  -24.7566  -30.9831   22.0884 N   0  0  0  0  0  0
  -23.4242  -28.7982   23.3029 O   0  0  0  0  0  0
  -28.1447  -25.7603   20.2315 O   0  0  0  0  0  0
  -26.5727  -34.8898   22.4627 O   0  0  0  0  0  0
  -23.5719  -32.1249   23.6753 O   0  0  0  0  0  0
  -29.6122  -16.2806   21.4856 C   0  0  0  0  0  0
  -29.2634  -16.4011   19.9714 C   0  0  0  0  0  0
  -29.0213  -14.7984   19.1247 C   0  0  0  0  0  0
  -29.3622  -13.1801   20.5228 C   0  0  0  0  0  0
  -28.6668  -20.9584   19.5695 C   0  0  0  0  0  0
  -28.6821  -15.0467   17.6426 C   0  0  0  0  0  0
  -30.5505  -18.2325   18.6796 C   0  0  0  0  0  0
  -30.6890  -11.4671   21.6519 C   0  0  0  0  0  0
  -28.4117  -22.5173   20.3582 C   0  0  0  0  0  0
  -28.0035  -24.1752   19.7331 C   0  0  0  0  0  0
  -29.1877  -18.0579   19.3740 C   0  0  2  0  0  0
  -28.8494  -19.5594   20.0635 N   0  0  0  0  0  0
  -30.5846  -12.7428   20.9531 N   0  0  0  0  0  0
  -28.7141  -21.0709   18.3446 O   0  0  0  0  0  0
  -29.7233  -14.4169   22.5229 S   0  0  0  0  0  0
  -31.2929  -14.2214   17.9875 H   0  0  0  0  0  0
  -31.9328  -12.8639   18.6948 H   0  0  0  0  0  0
  -30.0353  -11.4622   18.2961 H   0  0  0  0  0  0
  -29.7034  -12.5491   17.0465 H   0  0  0  0  0  0
  -27.3586  -12.3058   17.7292 H   0  0  0  0  0  0
  -27.8735  -11.4040   19.0731 H   0  0  0  0  0  0
  -26.6741  -14.1384   18.9747 H   0  0  0  0  0  0
  -27.4488  -14.2327   21.8973 H   0  0  0  0  0  0
  -27.3510  -15.6116   20.9862 H   0  0  0  0  0  0
  -25.2478   -9.5650   22.4882 H   0  0  0  0  0  0
  -23.9972   -7.4378   22.7398 H   0  0  0  0  0  0
  -21.0688   -8.8369   19.8860 H   0  0  0  0  0  0
  -22.3303  -10.9436   19.6260 H   0  0  0  0  0  0
  -21.1951   -7.6106   23.9741 H   0  0  0  0  0  0
  -21.1448   -6.0488   25.9119 H   0  0  0  0  0  0
  -22.0633   -2.7567   23.2876 H   0  0  0  0  0  0
  -22.2887  -11.9391   22.5533 H   0  0  0  0  0  0
  -20.9606  -13.0466   22.3493 H   0  0  0  0  0  0
  -24.2387  -15.8330   20.5272 H   0  0  0  0  0  0
  -25.8481  -15.6878   20.0169 H   0  0  0  0  0  0
  -26.7426  -32.5067   23.0895 H   0  0  0  0  0  0
  -25.0060  -33.9481   25.0173 H   0  0  0  0  0  0
  -22.7948  -31.2698   21.3593 H   0  0  0  0  0  0
  -23.3797  -35.9454   23.3232 H   0  0  0  0  0  0
  -24.3554  -36.8916   22.2072 H   0  0  0  0  0  0
  -23.7149  -37.6320   23.6745 H   0  0  0  0  0  0
  -26.2643  -31.3517   20.6384 H   0  0  0  0  0  0
  -26.9076  -30.6413   22.0814 H   0  0  0  0  0  0
  -28.1301  -28.5364   21.2805 H   0  0  0  0  0  0
  -25.8218  -25.7699   18.9091 H   0  0  0  0  0  0
  -23.9889  -27.3227   18.8838 H   0  0  0  0  0  0
  -23.8766  -30.5403   19.3957 H   0  0  0  0  0  0
  -22.8218  -29.2253   19.8186 H   0  0  0  0  0  0
  -25.1307  -36.1778   25.0795 H   0  0  0  0  0  0
  -21.0006  -28.3352   24.1322 H   0  0  0  0  0  0
  -20.5718  -26.2358   23.3646 H   0  0  0  0  0  0
  -21.6658  -26.7436   22.1182 H   0  0  0  0  0  0
  -19.6924  -25.6273   21.1301 H   0  0  0  0  0  0
  -19.6714  -27.3153   20.6736 H   0  0  0  0  0  0
  -17.4220  -26.6688   21.4035 H   0  0  0  0  0  0
  -18.0332  -26.0127   22.9056 H   0  0  0  0  0  0
  -19.7956  -30.7350   24.2169 H   0  0  0  0  0  0
  -17.5022  -31.6277   24.5166 H   0  0  0  0  0  0
  -15.5365  -30.2964   23.7727 H   0  0  0  0  0  0
  -15.8697  -28.0817   22.7120 H   0  0  0  0  0  0
  -24.5816  -30.7202   25.7659 H   0  0  0  0  0  0
  -24.8799  -32.3046   26.4653 H   0  0  0  0  0  0
  -25.7789  -30.9084   27.0257 H   0  0  0  0  0  0
  -26.3171  -29.6564   24.1533 H   0  0  0  0  0  0
  -27.3915  -29.7324   25.5274 H   0  0  0  0  0  0
  -27.9138  -30.4097   24.0071 H   0  0  0  0  0  0
  -27.2612  -33.3744   26.1963 H   0  0  0  0  0  0
  -28.3885  -32.6863   25.0386 H   0  0  0  0  0  0
  -28.0651  -31.8626   26.5561 H   0  0  0  0  0  0
  -28.2523  -38.0120   24.7631 H   0  0  0  0  0  0
  -28.1168  -36.2659   24.6123 H   0  0  0  0  0  0
  -27.2327  -37.1180   25.8862 H   0  0  0  0  0  0
  -20.9664  -29.8696   21.6642 H   0  0  0  0  0  0
  -26.0118  -38.2776   24.1506 H   0  0  0  0  0  0
  -29.7917  -17.1548   22.1002 H   0  0  0  0  0  0
  -29.5752  -15.1332   17.0281 H   0  0  0  0  0  0
  -28.1805  -16.0042   17.5338 H   0  0  0  0  0  0
  -28.0186  -14.3415   17.1543 H   0  0  0  0  0  0
  -30.7351  -17.4262   17.9674 H   0  0  0  0  0  0
  -31.3608  -18.1971   19.4081 H   0  0  0  0  0  0
  -30.6360  -19.1684   18.1295 H   0  0  0  0  0  0
  -29.9759  -11.4384   22.4775 H   0  0  0  0  0  0
  -31.6866  -11.3169   22.0658 H   0  0  0  0  0  0
  -30.4638  -10.6349   20.9820 H   0  0  0  0  0  0
  -29.3009  -22.6512   20.9759 H   0  0  0  0  0  0
  -27.6247  -22.3063   21.0840 H   0  0  0  0  0  0
  -28.5182  -24.2078   18.7737 H   0  0  0  0  0  0
  -26.9559  -24.0734   19.4543 H   0  0  0  0  0  0
  -28.4649  -18.0383   18.5590 H   0  0  0  0  0  0
  -28.7730  -19.4951   21.0689 H   0  0  0  0  0  0
  1 25  1  0  0  0
  1 30  2  0  0  0
  1 83  1  0  0  0
  2  3  1  0  0  0
  2 25  1  0  0  0
  2 86  1  0  0  0
  2 87  1  0  0  0
  3  4  1  0  0  0
  3 88  1  0  0  0
  3 89  1  0  0  0
  4  5  1  0  0  0
  4 90  1  0  0  0
  4 91  1  0  0  0
  5  6  1  0  0  0
  5 26  1  0  0  0
  5 92  1  0  0  0
  6 25  1  0  0  0
  6 93  1  0  0  0
  6 94  1  0  0  0
  7  8  2  0  0  0
  7 26  1  0  0  0
  7 29  1  0  0  0
  8  9  1  0  0  0
  8 22  1  0  0  0
  9 10  1  0  0  0
  9 27  2  0  0  0
 10 11  2  0  0  0
 10 15  1  0  0  0
 11 12  1  0  0  0
 11 95  1  0  0  0
 12 13  2  0  0  0
 12 96  1  0  0  0
 13 14  1  0  0  0
 13 31  1  0  0  0
 14 15  2  0  0  0
 14 97  1  0  0  0
 15 98  1  0  0  0
 16 17  2  0  0  0
 16 21  1  0  0  0
 16 31  1  0  0  0
 17 18  1  0  0  0
 17 99  1  0  0  0
 18 19  2  0  0  0
 18100  1  0  0  0
 19 20  1  0  0  0
 19 24  1  0  0  0
 20 21  2  0  0  0
 20101  1  0  0  0
 21 23  1  0  0  0
 22 28  1  0  0  0
 22 32  2  0  0  0
 26 27  1  0  0  0
 28102  1  0  0  0
 28103  1  0  0  0
 29104  1  0  0  0
 29105  1  0  0  0
 33 34  1  0  0  0
 33 66  1  0  0  0
 33 70  2  0  0  0
 34 36  1  0  0  0
 34 59  1  0  0  0
 34106  1  0  0  0
 35 44  2  0  0  0
 35 45  1  0  0  0
 35 68  1  0  0  0
 36 56  1  0  0  0
 36107  1  0  0  0
 37 39  1  0  0  0
 37 47  1  0  0  0
 37 66  1  0  0  0
 37108  1  0  0  0
 38 43  2  0  0  0
 38 46  1  0  0  0
 38 47  1  0  0  0
 39 64  1  0  0  0
 39 67  2  0  0  0
 40 52  1  0  0  0
 40 53  2  0  0  0
 40 58  1  0  0  0
 41109  1  0  0  0
 41110  1  0  0  0
 41111  1  0  0  0
 41 48  1  0  0  0
 42 43  1  0  0  0
 42 66  1  0  0  0
 42112  1  0  0  0
 42113  1  0  0  0
 43 44  1  0  0  0
 44114  1  0  0  0
 45 46  2  0  0  0
 45115  1  0  0  0
 46116  1  0  0  0
 47117  1  0  0  0
 47118  1  0  0  0
 48 56  1  0  0  0
 48 65  1  0  0  0
 48119  1  0  0  0
 49 50  1  0  0  0
 49 53  1  0  0  0
 49 64  1  0  0  0
 49120  1  0  0  0
 50 51  1  0  0  0
 50121  1  0  0  0
 50122  1  0  0  0
 51 52  1  0  0  0
 51123  1  0  0  0
 51124  1  0  0  0
 52125  1  0  0  0
 52126  1  0  0  0
 53 54  1  0  0  0
 54 55  2  0  0  0
 54127  1  0  0  0
 55 57  1  0  0  0
 55128  1  0  0  0
 56 69  2  0  0  0
 57 58  2  0  0  0
 57129  1  0  0  0
 58130  1  0  0  0
 59 60  1  0  0  0
 59 61  1  0  0  0
 59 62  1  0  0  0
 60131  1  0  0  0
 60132  1  0  0  0
 60133  1  0  0  0
 61134  1  0  0  0
 61135  1  0  0  0
 61136  1  0  0  0
 62137  1  0  0  0
 62138  1  0  0  0
 62139  1  0  0  0
 63 65  1  0  0  0
 63140  1  0  0  0
 63141  1  0  0  0
 63142  1  0  0  0
 64143  1  0  0  0
 65144  1  0  0  0
 68 80  1  0  0  0
 71 72  2  0  0  0
 71 85  1  0  0  0
 71145  1  0  0  0
 72 73  1  0  0  0
 72 81  1  0  0  0
 73 74  2  0  0  0
 73 76  1  0  0  0
 74 83  1  0  0  0
 74 85  1  0  0  0
 75 79  1  0  0  0
 75 82  1  0  0  0
 75 84  2  0  0  0
 76146  1  0  0  0
 76147  1  0  0  0
 76148  1  0  0  0
 77149  1  0  0  0
 77150  1  0  0  0
 77151  1  0  0  0
 77 81  1  0  0  0
 78 83  1  0  0  0
 78152  1  0  0  0
 78153  1  0  0  0
 78154  1  0  0  0
 79 80  1  0  0  0
 79155  1  0  0  0
 79156  1  0  0  0
 80157  1  0  0  0
 80158  1  0  0  0
 81 82  1  0  0  0
 81159  1  0  0  0
 82160  1  0  0  0
M  ISO  4   1 100  68 101  80 101  83 100
M  END
> <chiral flag>
0

> <version>
0

> <s_m_source_file>
/data/baiqing/PycharmProjects/Reinvent-master-3.2/result/LINK_invent/BTK/process_docking_weight1_custom_product_contain_oxygen_bond_distance_aromatic_linkinvent_7_9_3/rearranged_h_0069.sdf

> <i_m_source_file_index>
32

> <r_mmod_Potential_Energy-OPLS-2005>
12834.396484375

> <r_mmod_Stretch_Energy-OPLS-2005>
7142.26953125

> <r_mmod_Bend_Energy-OPLS-2005>
1377.57238769531

> <r_mmod_Torsional_Energy-OPLS-2005>
396.945922851562

> <r_mmod_Improper_Torsional_Energy-OPLS-2005>
37.0745277404785

> <r_mmod_Van_der_Waal_Energy-OPLS-2005>
3159.61450195312

> <r_mmod_Electrostatic_Energy-OPLS-2005>
-388.139587402344

> <r_mmod_Solvation_Energy-OPLS-2005>
-227.372009277344

> <b_mmod_Minimization_Converged-OPLS-2005>
0

> <r_mmod_RMS_Derivative-OPLS-2005>
9.71698474884033

$$$$
33
                    3D
 Structure written by MMmdl.
167176  0  0  1  0            999 V2000
  -30.6065  -14.7364   20.4660 C   0  0  0  0  0  0
  -30.4414  -12.4524   19.4520 C   0  0  0  0  0  0
  -29.5119  -12.5085   18.2201 C   0  0  0  0  0  0
  -28.0359  -12.3328   18.6369 C   0  0  0  0  0  0
  -27.6424  -13.2261   19.8440 C   0  0  2  0  0  0
  -28.6942  -13.1568   20.9718 C   0  0  0  0  0  0
  -25.2518  -13.8187   20.5683 C   0  0  0  0  0  0
  -24.1792  -13.0428   20.9218 C   0  0  0  0  0  0
  -24.6377  -11.6916   20.8758 C   0  0  0  0  0  0
  -23.9037  -10.4299   21.0416 C   0  0  0  0  0  0
  -24.3596   -9.4221   21.9187 C   0  0  0  0  0  0
  -23.6290   -8.2243   22.0747 C   0  0  0  0  0  0
  -22.4271   -8.0282   21.3542 C   0  0  0  0  0  0
  -21.9903   -9.0248   20.4637 C   0  0  0  0  0  0
  -22.7216  -10.2138   20.3056 C   0  0  0  0  0  0
  -21.6848   -6.0739   22.5284 C   0  0  0  0  0  0
  -21.4013   -6.5640   23.8215 C   0  0  0  0  0  0
  -21.3660   -5.6793   24.9174 C   0  0  0  0  0  0
  -21.6041   -4.3049   24.7223 C   0  0  0  0  0  0
  -21.8817   -3.8148   23.4342 C   0  0  0  0  0  0
  -21.9189   -4.6965   22.3402 C   0  0  0  0  0  0
  -22.7821  -13.5228   21.1874 C   0  0  0  0  0  0
  -22.1663   -4.2161   21.0979 F   0  0  0  0  0  0
  -21.5631   -3.4528   25.7728 F   0  0  0  0  0  0
  -29.9886  -13.5106   20.3771 N   0  0  0  0  0  0
  -26.2943  -12.9370   20.3265 N   0  0  0  0  0  0
  -25.9312  -11.6526   20.5746 N   0  0  0  0  0  0
  -22.0451  -12.8235   22.0440 N   0  0  0  0  0  0
  -25.4161  -15.1908   20.4115 N   0  0  0  0  0  0
  -31.8155  -14.8428   20.2424 O   0  0  0  0  0  0
  -21.6627   -6.8887   21.4248 O   0  0  0  0  0  0
  -22.3514  -14.5533   20.6715 O   0  0  0  0  0  0
  -24.6321  -31.8533   23.1940 C   0  0  0  0  0  0
  -25.9148  -32.4729   23.8279 C   0  0  1  0  0  0
  -27.2230  -27.2382   20.1645 C   0  0  0  0  0  0
  -25.5947  -33.8531   24.2219 N   0  0  0  0  0  0
  -23.4306  -30.4729   21.5386 C   0  0  2  0  0  0
  -24.8791  -28.9072   20.1160 C   0  0  0  0  0  0
  -22.7489  -29.4604   22.4912 C   0  0  0  0  0  0
  -18.0309  -28.1380   22.8512 C   0  0  0  0  0  0
  -24.1489  -36.7276   23.2644 C   0  0  0  0  0  0
  -25.9741  -30.7563   21.3792 C   0  0  0  0  0  0
  -26.0467  -29.3732   20.7346 C   0  0  0  0  0  0
  -27.2205  -28.5498   20.7541 C   0  0  0  0  0  0
  -26.0411  -26.8478   19.5027 C   0  0  0  0  0  0
  -24.8808  -27.6494   19.4905 C   0  0  0  0  0  0
  -23.6511  -29.7993   20.1575 C   0  0  0  0  0  0
  -25.4115  -36.3055   24.0325 C   0  0  1  0  0  0
  -20.5908  -28.3708   23.1283 C   0  0  2  0  0  0
  -20.6811  -26.9422   22.5442 C   0  0  0  0  0  0
  -19.5775  -26.6390   21.5257 C   0  0  0  0  0  0
  -18.1949  -26.7929   22.1648 C   0  0  0  0  0  0
  -19.1559  -28.8859   23.2896 C   0  0  0  0  0  0
  -18.9472  -30.1466   23.8898 C   0  0  0  0  0  0
  -17.6465  -30.6579   24.0577 C   0  0  0  0  0  0
  -25.9057  -34.9430   23.5075 C   0  0  0  0  0  0
  -16.5361  -29.9066   23.6350 C   0  0  0  0  0  0
  -16.7297  -28.6495   23.0359 C   0  0  0  0  0  0
  -26.4511  -31.6545   25.0669 C   0  0  0  0  0  0
  -25.3735  -31.3723   26.1399 C   0  0  0  0  0  0
  -27.0368  -30.2956   24.6171 C   0  0  0  0  0  0
  -27.6056  -32.4290   25.7437 C   0  0  0  0  0  0
  -27.5578  -37.1786   24.8456 C   0  0  0  0  0  0
  -21.4199  -29.3034   22.3627 N   0  0  0  0  0  0
  -26.4284  -37.3761   23.9402 N   0  0  0  0  0  0
  -24.6976  -31.0471   22.0934 N   0  0  0  0  0  0
  -23.4161  -28.8178   23.3062 O   0  0  0  0  0  0
  -28.3096  -26.3295   20.1890 O   0  0  0  0  0  0
  -26.5635  -34.8926   22.4647 O   0  0  0  0  0  0
  -23.5474  -32.1375   23.7233 O   0  0  0  0  0  0
  -30.2315  -18.3947   23.1755 C   0  0  0  0  0  0
  -30.2516  -17.2003   22.4390 C   0  0  0  0  0  0
  -29.6564  -18.4913   20.4559 C   0  0  0  0  0  0
  -29.9256  -19.6442   22.5868 C   0  0  0  0  0  0
  -29.6410  -19.7579   21.1909 C   0  0  0  0  0  0
  -29.9472  -17.1929   21.0669 C   0  0  0  0  0  0
  -30.5042  -21.8395   20.1095 C   0  0  0  0  0  0
  -28.3910  -22.1607   20.8683 C   0  0  0  0  0  0
  -30.2547  -23.3841   20.0445 C   0  0  0  0  0  0
  -28.6988  -23.5450   20.0988 C   0  0  1  0  0  0
  -29.9650  -20.8471   23.5161 C   0  0  0  0  0  0
  -30.8907  -23.9943   18.7721 C   0  0  0  0  0  0
  -30.9433  -24.0326   21.2687 C   0  0  0  0  0  0
  -28.0570  -23.4330   18.6924 C   0  0  0  0  0  0
  -28.0971  -24.9348   20.7401 C   0  0  0  0  0  0
  -29.4610  -21.1270   20.5869 N   0  0  0  0  0  0
  -29.7897  -15.8567   20.4513 N   0  0  0  0  0  0
  -31.5724  -21.3396   19.7383 O   0  0  0  0  0  0
  -31.4803  -12.5930   19.1493 H   0  0  0  0  0  0
  -30.3919  -11.4739   19.9337 H   0  0  0  0  0  0
  -29.7930  -11.7428   17.4977 H   0  0  0  0  0  0
  -29.6376  -13.4651   17.7097 H   0  0  0  0  0  0
  -27.8871  -11.2829   18.8925 H   0  0  0  0  0  0
  -27.3758  -12.5357   17.7924 H   0  0  0  0  0  0
  -27.6326  -14.2472   19.4637 H   0  0  0  0  0  0
  -28.7315  -12.1584   21.4100 H   0  0  0  0  0  0
  -28.4369  -13.8403   21.7834 H   0  0  0  0  0  0
  -25.2741   -9.5696   22.4762 H   0  0  0  0  0  0
  -24.0001   -7.4626   22.7459 H   0  0  0  0  0  0
  -21.0827   -8.8738   19.8956 H   0  0  0  0  0  0
  -22.3648  -10.9663   19.6158 H   0  0  0  0  0  0
  -21.2007   -7.6149   23.9725 H   0  0  0  0  0  0
  -21.1490   -6.0515   25.9078 H   0  0  0  0  0  0
  -22.0599   -2.7612   23.2820 H   0  0  0  0  0  0
  -22.4031  -11.9889   22.4832 H   0  0  0  0  0  0
  -21.1072  -13.1279   22.2632 H   0  0  0  0  0  0
  -24.6424  -15.8357   20.5315 H   0  0  0  0  0  0
  -26.2530  -15.6461   20.0713 H   0  0  0  0  0  0
  -26.7208  -32.5397   23.1009 H   0  0  0  0  0  0
  -25.0101  -33.9631   25.0375 H   0  0  0  0  0  0
  -22.7346  -31.3012   21.3903 H   0  0  0  0  0  0
  -23.3741  -35.9619   23.3296 H   0  0  0  0  0  0
  -24.3597  -36.8898   22.2062 H   0  0  0  0  0  0
  -23.7247  -37.6474   23.6681 H   0  0  0  0  0  0
  -26.1196  -31.5075   20.6011 H   0  0  0  0  0  0
  -26.8482  -30.8063   22.0154 H   0  0  0  0  0  0
  -28.1022  -28.8994   21.2726 H   0  0  0  0  0  0
  -26.0126  -25.8924   18.9983 H   0  0  0  0  0  0
  -23.9922  -27.2815   18.9959 H   0  0  0  0  0  0
  -23.7781  -30.5738   19.4005 H   0  0  0  0  0  0
  -22.7696  -29.2320   19.8538 H   0  0  0  0  0  0
  -25.1305  -36.1892   25.0819 H   0  0  0  0  0  0
  -21.0036  -28.3325   24.1388 H   0  0  0  0  0  0
  -20.5779  -26.2309   23.3649 H   0  0  0  0  0  0
  -21.6671  -26.7483   22.1195 H   0  0  0  0  0  0
  -19.6940  -25.6313   21.1260 H   0  0  0  0  0  0
  -19.6708  -27.3238   20.6816 H   0  0  0  0  0  0
  -17.4251  -26.6747   21.4013 H   0  0  0  0  0  0
  -18.0282  -26.0046   22.9003 H   0  0  0  0  0  0
  -19.7946  -30.7306   24.2234 H   0  0  0  0  0  0
  -17.5013  -31.6262   24.5174 H   0  0  0  0  0  0
  -15.5355  -30.2952   23.7663 H   0  0  0  0  0  0
  -15.8718  -28.0815   22.7026 H   0  0  0  0  0  0
  -24.5898  -30.7074   25.7746 H   0  0  0  0  0  0
  -24.8953  -32.2911   26.4808 H   0  0  0  0  0  0
  -25.8056  -30.8920   27.0185 H   0  0  0  0  0  0
  -26.2955  -29.6659   24.1234 H   0  0  0  0  0  0
  -27.4079  -29.7260   25.4698 H   0  0  0  0  0  0
  -27.8822  -30.4205   23.9399 H   0  0  0  0  0  0
  -27.2645  -33.3586   26.2004 H   0  0  0  0  0  0
  -28.3863  -32.6834   25.0256 H   0  0  0  0  0  0
  -28.0724  -31.8420   26.5355 H   0  0  0  0  0  0
  -28.2592  -38.0086   24.7519 H   0  0  0  0  0  0
  -28.1072  -36.2619   24.6257 H   0  0  0  0  0  0
  -27.2312  -37.1414   25.8864 H   0  0  0  0  0  0
  -20.9380  -29.8676   21.6766 H   0  0  0  0  0  0
  -26.0153  -38.2831   24.1405 H   0  0  0  0  0  0
  -30.4616  -18.3354   24.2311 H   0  0  0  0  0  0
  -30.4617  -16.2759   22.9609 H   0  0  0  0  0  0
  -29.4500  -18.5154   19.3955 H   0  0  0  0  0  0
  -27.4138  -21.7600   20.5960 H   0  0  0  0  0  0
  -28.3531  -22.3598   21.9352 H   0  0  0  0  0  0
  -30.3593  -20.5750   24.4959 H   0  0  0  0  0  0
  -28.9637  -21.2429   23.6801 H   0  0  0  0  0  0
  -30.6151  -21.6283   23.1289 H   0  0  0  0  0  0
  -30.6113  -23.4461   17.8707 H   0  0  0  0  0  0
  -31.9795  -23.9709   18.8282 H   0  0  0  0  0  0
  -30.5939  -25.0367   18.6407 H   0  0  0  0  0  0
  -30.4809  -23.7251   22.2070 H   0  0  0  0  0  0
  -30.8966  -25.1226   21.2242 H   0  0  0  0  0  0
  -31.9977  -23.7537   21.3166 H   0  0  0  0  0  0
  -28.4055  -22.5621   18.1350 H   0  0  0  0  0  0
  -28.2633  -24.3203   18.0896 H   0  0  0  0  0  0
  -26.9724  -23.3504   18.7640 H   0  0  0  0  0  0
  -28.4223  -24.9862   21.7794 H   0  0  0  0  0  0
  -27.0252  -24.7662   20.8367 H   0  0  0  0  0  0
  -28.8336  -15.6270   20.2296 H   0  0  0  0  0  0
  1 25  1  0  0  0
  1 30  2  0  0  0
  1 87  1  0  0  0
  2  3  1  0  0  0
  2 25  1  0  0  0
  2 89  1  0  0  0
  2 90  1  0  0  0
  3  4  1  0  0  0
  3 91  1  0  0  0
  3 92  1  0  0  0
  4  5  1  0  0  0
  4 93  1  0  0  0
  4 94  1  0  0  0
  5  6  1  0  0  0
  5 26  1  0  0  0
  5 95  1  0  0  0
  6 25  1  0  0  0
  6 96  1  0  0  0
  6 97  1  0  0  0
  7  8  2  0  0  0
  7 26  1  0  0  0
  7 29  1  0  0  0
  8  9  1  0  0  0
  8 22  1  0  0  0
  9 10  1  0  0  0
  9 27  2  0  0  0
 10 11  2  0  0  0
 10 15  1  0  0  0
 11 12  1  0  0  0
 11 98  1  0  0  0
 12 13  2  0  0  0
 12 99  1  0  0  0
 13 14  1  0  0  0
 13 31  1  0  0  0
 14 15  2  0  0  0
 14100  1  0  0  0
 15101  1  0  0  0
 16 17  2  0  0  0
 16 21  1  0  0  0
 16 31  1  0  0  0
 17 18  1  0  0  0
 17102  1  0  0  0
 18 19  2  0  0  0
 18103  1  0  0  0
 19 20  1  0  0  0
 19 24  1  0  0  0
 20 21  2  0  0  0
 20104  1  0  0  0
 21 23  1  0  0  0
 22 28  1  0  0  0
 22 32  2  0  0  0
 26 27  1  0  0  0
 28105  1  0  0  0
 28106  1  0  0  0
 29107  1  0  0  0
 29108  1  0  0  0
 33 34  1  0  0  0
 33 66  1  0  0  0
 33 70  2  0  0  0
 34 36  1  0  0  0
 34 59  1  0  0  0
 34109  1  0  0  0
 35 44  2  0  0  0
 35 45  1  0  0  0
 35 68  1  0  0  0
 36 56  1  0  0  0
 36110  1  0  0  0
 37 39  1  0  0  0
 37 47  1  0  0  0
 37 66  1  0  0  0
 37111  1  0  0  0
 38 43  2  0  0  0
 38 46  1  0  0  0
 38 47  1  0  0  0
 39 64  1  0  0  0
 39 67  2  0  0  0
 40 52  1  0  0  0
 40 53  2  0  0  0
 40 58  1  0  0  0
 41112  1  0  0  0
 41113  1  0  0  0
 41114  1  0  0  0
 41 48  1  0  0  0
 42 43  1  0  0  0
 42 66  1  0  0  0
 42115  1  0  0  0
 42116  1  0  0  0
 43 44  1  0  0  0
 44117  1  0  0  0
 45 46  2  0  0  0
 45118  1  0  0  0
 46119  1  0  0  0
 47120  1  0  0  0
 47121  1  0  0  0
 48 56  1  0  0  0
 48 65  1  0  0  0
 48122  1  0  0  0
 49 50  1  0  0  0
 49 53  1  0  0  0
 49 64  1  0  0  0
 49123  1  0  0  0
 50 51  1  0  0  0
 50124  1  0  0  0
 50125  1  0  0  0
 51 52  1  0  0  0
 51126  1  0  0  0
 51127  1  0  0  0
 52128  1  0  0  0
 52129  1  0  0  0
 53 54  1  0  0  0
 54 55  2  0  0  0
 54130  1  0  0  0
 55 57  1  0  0  0
 55131  1  0  0  0
 56 69  2  0  0  0
 57 58  2  0  0  0
 57132  1  0  0  0
 58133  1  0  0  0
 59 60  1  0  0  0
 59 61  1  0  0  0
 59 62  1  0  0  0
 60134  1  0  0  0
 60135  1  0  0  0
 60136  1  0  0  0
 61137  1  0  0  0
 61138  1  0  0  0
 61139  1  0  0  0
 62140  1  0  0  0
 62141  1  0  0  0
 62142  1  0  0  0
 63 65  1  0  0  0
 63143  1  0  0  0
 63144  1  0  0  0
 63145  1  0  0  0
 64146  1  0  0  0
 65147  1  0  0  0
 68 85  1  0  0  0
 71 72  2  0  0  0
 71 74  1  0  0  0
 71148  1  0  0  0
 72 76  1  0  0  0
 72149  1  0  0  0
 73 75  1  0  0  0
 73 76  2  0  0  0
 73150  1  0  0  0
 74 75  2  0  0  0
 74 81  1  0  0  0
 75 86  1  0  0  0
 76 87  1  0  0  0
 77 79  1  0  0  0
 77 86  1  0  0  0
 77 88  2  0  0  0
 78 80  1  0  0  0
 78 86  1  0  0  0
 78151  1  0  0  0
 78152  1  0  0  0
 79 80  1  0  0  0
 79 82  1  0  0  0
 79 83  1  0  0  0
 80 84  1  0  0  0
 80 85  1  0  0  0
 81153  1  0  0  0
 81154  1  0  0  0
 81155  1  0  0  0
 82156  1  0  0  0
 82157  1  0  0  0
 82158  1  0  0  0
 83159  1  0  0  0
 83160  1  0  0  0
 83161  1  0  0  0
 84162  1  0  0  0
 84163  1  0  0  0
 84164  1  0  0  0
 85165  1  0  0  0
 85166  1  0  0  0
 87167  1  0  0  0
M  ISO  4   1 100  68 101  85 101  87 100
M  END
> <chiral flag>
0

> <version>
0

> <s_m_source_file>
/data/baiqing/PycharmProjects/Reinvent-master-3.2/result/LINK_invent/BTK/process_docking_weight1_custom_product_contain_oxygen_bond_distance_aromatic_linkinvent_7_9_3/rearranged_h_0069.sdf

> <i_m_source_file_index>
33

> <r_mmod_Potential_Energy-OPLS-2005>
401.614349365234

> <r_mmod_Stretch_Energy-OPLS-2005>
140.941558837891

> <r_mmod_Bend_Energy-OPLS-2005>
205.651931762695

> <r_mmod_Torsional_Energy-OPLS-2005>
370.566741943359

> <r_mmod_Improper_Torsional_Energy-OPLS-2005>
12.3839998245239

> <r_mmod_Van_der_Waal_Energy-OPLS-2005>
133.900939941406

> <r_mmod_Electrostatic_Energy-OPLS-2005>
-332.049682617188

> <r_mmod_Solvation_Energy-OPLS-2005>
-223.062149047852

> <b_mmod_Minimization_Converged-OPLS-2005>
0

> <r_mmod_RMS_Derivative-OPLS-2005>
3.40713953971863

$$$$
34
                    3D
 Structure written by MMmdl.
155163  0  0  1  0            999 V2000
  -30.5821  -14.6831   20.4645 C   0  0  0  0  0  0
  -30.4478  -12.4117   19.4482 C   0  0  0  0  0  0
  -29.5111  -12.5007   18.2214 C   0  0  0  0  0  0
  -28.0339  -12.3323   18.6339 C   0  0  0  0  0  0
  -27.6505  -13.2090   19.8536 C   0  0  2  0  0  0
  -28.6988  -13.0769   20.9823 C   0  0  0  0  0  0
  -25.2568  -13.8143   20.5663 C   0  0  0  0  0  0
  -24.1837  -13.0422   20.9203 C   0  0  0  0  0  0
  -24.6399  -11.6888   20.8756 C   0  0  0  0  0  0
  -23.9058  -10.4281   21.0418 C   0  0  0  0  0  0
  -24.3617   -9.4197   21.9197 C   0  0  0  0  0  0
  -23.6290   -8.2230   22.0765 C   0  0  0  0  0  0
  -22.4276   -8.0274   21.3543 C   0  0  0  0  0  0
  -21.9906   -9.0254   20.4654 C   0  0  0  0  0  0
  -22.7232  -10.2130   20.3067 C   0  0  0  0  0  0
  -21.6844   -6.0730   22.5274 C   0  0  0  0  0  0
  -21.4009   -6.5633   23.8208 C   0  0  0  0  0  0
  -21.3658   -5.6791   24.9170 C   0  0  0  0  0  0
  -21.6045   -4.3056   24.7229 C   0  0  0  0  0  0
  -21.8817   -3.8142   23.4349 C   0  0  0  0  0  0
  -21.9185   -4.6957   22.3401 C   0  0  0  0  0  0
  -22.7854  -13.5224   21.1856 C   0  0  0  0  0  0
  -22.1663   -4.2143   21.0978 F   0  0  0  0  0  0
  -21.5637   -3.4535   25.7739 F   0  0  0  0  0  0
  -30.0081  -13.4372   20.4134 N   0  0  0  0  0  0
  -26.2972  -12.9296   20.3253 N   0  0  0  0  0  0
  -25.9320  -11.6466   20.5748 N   0  0  0  0  0  0
  -22.0485  -12.8231   22.0415 N   0  0  0  0  0  0
  -25.4286  -15.1870   20.4055 N   0  0  0  0  0  0
  -31.7563  -14.8675   20.1283 O   0  0  0  0  0  0
  -21.6642   -6.8870   21.4235 O   0  0  0  0  0  0
  -22.3535  -14.5538   20.6717 O   0  0  0  0  0  0
  -24.6259  -31.8585   23.2012 C   0  0  0  0  0  0
  -25.9100  -32.4767   23.8347 C   0  0  1  0  0  0
  -27.2265  -27.3166   20.1182 C   0  0  0  0  0  0
  -25.5921  -33.8568   24.2276 N   0  0  0  0  0  0
  -23.4207  -30.4797   21.5449 C   0  0  2  0  0  0
  -24.8696  -28.9309   20.1139 C   0  0  0  0  0  0
  -22.7475  -29.4608   22.4954 C   0  0  0  0  0  0
  -18.0274  -28.1366   22.8503 C   0  0  0  0  0  0
  -24.1492  -36.7289   23.2641 C   0  0  0  0  0  0
  -25.9611  -30.7879   21.3723 C   0  0  0  0  0  0
  -26.0380  -29.4136   20.7170 C   0  0  0  0  0  0
  -27.2240  -28.6183   20.7080 C   0  0  0  0  0  0
  -26.0372  -26.8827   19.4970 C   0  0  0  0  0  0
  -24.8704  -27.6708   19.4950 C   0  0  0  0  0  0
  -23.6362  -29.8108   20.1614 C   0  0  0  0  0  0
  -25.4117  -36.3072   24.0331 C   0  0  1  0  0  0
  -20.5875  -28.3685   23.1258 C   0  0  2  0  0  0
  -20.6777  -26.9412   22.5363 C   0  0  0  0  0  0
  -19.5711  -26.6332   21.5221 C   0  0  0  0  0  0
  -18.1924  -26.7886   22.1695 C   0  0  0  0  0  0
  -19.1537  -28.8854   23.2871 C   0  0  0  0  0  0
  -18.9464  -30.1462   23.8876 C   0  0  0  0  0  0
  -17.6460  -30.6581   24.0550 C   0  0  0  0  0  0
  -25.9048  -34.9443   23.5103 C   0  0  0  0  0  0
  -16.5351  -29.9073   23.6330 C   0  0  0  0  0  0
  -16.7276  -28.6492   23.0363 C   0  0  0  0  0  0
  -26.4489  -31.6584   25.0722 C   0  0  0  0  0  0
  -25.3727  -31.3720   26.1458 C   0  0  0  0  0  0
  -27.0327  -30.3012   24.6170 C   0  0  0  0  0  0
  -27.6046  -32.4322   25.7492 C   0  0  0  0  0  0
  -27.5576  -37.1806   24.8470 C   0  0  0  0  0  0
  -21.4187  -29.3056   22.3699 N   0  0  0  0  0  0
  -26.4295  -37.3765   23.9408 N   0  0  0  0  0  0
  -24.6879  -31.0598   22.0962 N   0  0  0  0  0  0
  -23.4193  -28.8121   23.3010 O   0  0  0  0  0  0
  -28.3320  -26.4538   20.1205 O   0  0  0  0  0  0
  -26.5617  -34.8919   22.4668 O   0  0  0  0  0  0
  -23.5428  -32.1386   23.7344 O   0  0  0  0  0  0
  -29.5726  -19.3070   21.8868 C   0  0  0  0  0  0
  -29.9430  -17.9320   21.8153 C   0  0  0  0  0  0
  -29.2782  -17.9040   19.5090 C   0  0  0  0  0  0
  -28.9670  -20.0186   20.8084 C   0  0  0  0  0  0
  -29.7499  -17.1692   20.6398 C   0  0  0  0  0  0
  -28.8988  -19.2932   19.5707 C   0  0  0  0  0  0
  -28.1175  -21.2284   21.2102 C   0  0  0  0  0  0
  -28.6445  -23.7253   20.1466 C   0  0  0  0  0  0
  -28.1430  -25.1284   20.7601 C   0  0  0  0  0  0
  -28.3546  -19.8587   18.4097 N   0  0  0  0  0  0
  -27.2205  -20.9257   22.1513 N   0  0  0  0  0  0
  -29.6991  -15.7046   20.7122 N   0  0  0  0  0  0
  -28.0052  -22.5653   20.8806 N   0  3  0  0  0  0
  -31.4859  -12.5565   19.1430 H   0  0  0  0  0  0
  -30.4023  -11.4208   19.9028 H   0  0  0  0  0  0
  -29.7828  -11.7417   17.4878 H   0  0  0  0  0  0
  -29.6461  -13.4619   17.7245 H   0  0  0  0  0  0
  -27.8747  -11.2804   18.8736 H   0  0  0  0  0  0
  -27.3795  -12.5532   17.7902 H   0  0  0  0  0  0
  -27.6621  -14.2389   19.4987 H   0  0  0  0  0  0
  -28.7212  -12.0567   21.3684 H   0  0  0  0  0  0
  -28.4424  -13.7069   21.8350 H   0  0  0  0  0  0
  -25.2764   -9.5665   22.4772 H   0  0  0  0  0  0
  -23.9994   -7.4613   22.7488 H   0  0  0  0  0  0
  -21.0830   -8.8765   19.8973 H   0  0  0  0  0  0
  -22.3685  -10.9673   19.6184 H   0  0  0  0  0  0
  -21.2012   -7.6140   23.9712 H   0  0  0  0  0  0
  -21.1482   -6.0523   25.9074 H   0  0  0  0  0  0
  -22.0605   -2.7603   23.2851 H   0  0  0  0  0  0
  -22.4093  -11.9892   22.4800 H   0  0  0  0  0  0
  -21.1110  -13.1274   22.2633 H   0  0  0  0  0  0
  -24.6549  -15.8338   20.5160 H   0  0  0  0  0  0
  -26.2489  -15.6222   20.0041 H   0  0  0  0  0  0
  -26.7166  -32.5452   23.1094 H   0  0  0  0  0  0
  -25.0081  -33.9713   25.0433 H   0  0  0  0  0  0
  -22.7127  -31.2982   21.4009 H   0  0  0  0  0  0
  -23.3746  -35.9628   23.3311 H   0  0  0  0  0  0
  -24.3584  -36.8891   22.2049 H   0  0  0  0  0  0
  -23.7257  -37.6500   23.6660 H   0  0  0  0  0  0
  -26.0903  -31.5505   20.6035 H   0  0  0  0  0  0
  -26.8399  -30.8403   22.0020 H   0  0  0  0  0  0
  -28.1237  -28.9836   21.1816 H   0  0  0  0  0  0
  -26.0062  -25.9126   19.0194 H   0  0  0  0  0  0
  -23.9751  -27.2948   19.0194 H   0  0  0  0  0  0
  -23.7538  -30.5841   19.4015 H   0  0  0  0  0  0
  -22.7557  -29.2387   19.8621 H   0  0  0  0  0  0
  -25.1295  -36.1915   25.0821 H   0  0  0  0  0  0
  -20.9940  -28.3228   24.1384 H   0  0  0  0  0  0
  -20.5763  -26.2296   23.3574 H   0  0  0  0  0  0
  -21.6613  -26.7492   22.1066 H   0  0  0  0  0  0
  -19.6862  -25.6210   21.1328 H   0  0  0  0  0  0
  -19.6594  -27.3070   20.6689 H   0  0  0  0  0  0
  -17.4145  -26.6564   21.4169 H   0  0  0  0  0  0
  -18.0366  -26.0071   22.9137 H   0  0  0  0  0  0
  -19.7936  -30.7290   24.2234 H   0  0  0  0  0  0
  -17.5007  -31.6258   24.5148 H   0  0  0  0  0  0
  -15.5344  -30.2957   23.7643 H   0  0  0  0  0  0
  -15.8687  -28.0778   22.7082 H   0  0  0  0  0  0
  -24.5911  -30.7053   25.7792 H   0  0  0  0  0  0
  -24.8923  -32.2885   26.4887 H   0  0  0  0  0  0
  -25.8070  -30.8900   27.0228 H   0  0  0  0  0  0
  -26.2899  -29.6774   24.1197 H   0  0  0  0  0  0
  -27.4017  -29.7247   25.4661 H   0  0  0  0  0  0
  -27.8769  -30.4278   23.9393 H   0  0  0  0  0  0
  -27.2645  -33.3614   26.2073 H   0  0  0  0  0  0
  -28.3859  -32.6894   25.0329 H   0  0  0  0  0  0
  -28.0723  -31.8455   26.5407 H   0  0  0  0  0  0
  -28.2600  -38.0095   24.7488 H   0  0  0  0  0  0
  -28.1059  -36.2620   24.6325 H   0  0  0  0  0  0
  -27.2292  -37.1486   25.8873 H   0  0  0  0  0  0
  -20.9388  -29.8814   21.6924 H   0  0  0  0  0  0
  -26.0167  -38.2839   24.1398 H   0  0  0  0  0  0
  -29.6325  -19.7869   22.8546 H   0  0  0  0  0  0
  -30.2712  -17.4367   22.7196 H   0  0  0  0  0  0
  -29.1043  -17.3621   18.5908 H   0  0  0  0  0  0
  -29.7321  -23.6532   20.1805 H   0  0  0  0  0  0
  -28.3564  -23.6686   19.0966 H   0  0  0  0  0  0
  -28.6433  -25.2283   21.7247 H   0  0  0  0  0  0
  -27.0931  -25.0091   21.0298 H   0  0  0  0  0  0
  -28.4219  -19.3714   17.5198 H   0  0  0  0  0  0
  -28.2578  -20.8653   18.3143 H   0  0  0  0  0  0
  -27.1593  -19.9624   22.4499 H   0  0  0  0  0  0
  -26.6814  -21.6038   22.6665 H   0  0  0  0  0  0
  -28.7855  -15.3479   20.9387 H   0  0  0  0  0  0
  -27.0773  -22.8804   21.1188 H   0  0  0  0  0  0
  1 25  1  0  0  0
  1 30  2  0  0  0
  1 82  1  0  0  0
  2  3  1  0  0  0
  2 25  1  0  0  0
  2 84  1  0  0  0
  2 85  1  0  0  0
  3  4  1  0  0  0
  3 86  1  0  0  0
  3 87  1  0  0  0
  4  5  1  0  0  0
  4 88  1  0  0  0
  4 89  1  0  0  0
  5  6  1  0  0  0
  5 26  1  0  0  0
  5 90  1  0  0  0
  6 25  1  0  0  0
  6 91  1  0  0  0
  6 92  1  0  0  0
  7  8  2  0  0  0
  7 26  1  0  0  0
  7 29  1  0  0  0
  8  9  1  0  0  0
  8 22  1  0  0  0
  9 10  1  0  0  0
  9 27  2  0  0  0
 10 11  2  0  0  0
 10 15  1  0  0  0
 11 12  1  0  0  0
 11 93  1  0  0  0
 12 13  2  0  0  0
 12 94  1  0  0  0
 13 14  1  0  0  0
 13 31  1  0  0  0
 14 15  2  0  0  0
 14 95  1  0  0  0
 15 96  1  0  0  0
 16 17  2  0  0  0
 16 21  1  0  0  0
 16 31  1  0  0  0
 17 18  1  0  0  0
 17 97  1  0  0  0
 18 19  2  0  0  0
 18 98  1  0  0  0
 19 20  1  0  0  0
 19 24  1  0  0  0
 20 21  2  0  0  0
 20 99  1  0  0  0
 21 23  1  0  0  0
 22 28  1  0  0  0
 22 32  2  0  0  0
 26 27  1  0  0  0
 28100  1  0  0  0
 28101  1  0  0  0
 29102  1  0  0  0
 29103  1  0  0  0
 33 34  1  0  0  0
 33 66  1  0  0  0
 33 70  2  0  0  0
 34 36  1  0  0  0
 34 59  1  0  0  0
 34104  1  0  0  0
 35 44  2  0  0  0
 35 45  1  0  0  0
 35 68  1  0  0  0
 36 56  1  0  0  0
 36105  1  0  0  0
 37 39  1  0  0  0
 37 47  1  0  0  0
 37 66  1  0  0  0
 37106  1  0  0  0
 38 43  2  0  0  0
 38 46  1  0  0  0
 38 47  1  0  0  0
 39 64  1  0  0  0
 39 67  2  0  0  0
 40 52  1  0  0  0
 40 53  2  0  0  0
 40 58  1  0  0  0
 41107  1  0  0  0
 41108  1  0  0  0
 41109  1  0  0  0
 41 48  1  0  0  0
 42 43  1  0  0  0
 42 66  1  0  0  0
 42110  1  0  0  0
 42111  1  0  0  0
 43 44  1  0  0  0
 44112  1  0  0  0
 45 46  2  0  0  0
 45113  1  0  0  0
 46114  1  0  0  0
 47115  1  0  0  0
 47116  1  0  0  0
 48 56  1  0  0  0
 48 65  1  0  0  0
 48117  1  0  0  0
 49 50  1  0  0  0
 49 53  1  0  0  0
 49 64  1  0  0  0
 49118  1  0  0  0
 50 51  1  0  0  0
 50119  1  0  0  0
 50120  1  0  0  0
 51 52  1  0  0  0
 51121  1  0  0  0
 51122  1  0  0  0
 52123  1  0  0  0
 52124  1  0  0  0
 53 54  1  0  0  0
 54 55  2  0  0  0
 54125  1  0  0  0
 55 57  1  0  0  0
 55126  1  0  0  0
 56 69  2  0  0  0
 57 58  2  0  0  0
 57127  1  0  0  0
 58128  1  0  0  0
 59 60  1  0  0  0
 59 61  1  0  0  0
 59 62  1  0  0  0
 60129  1  0  0  0
 60130  1  0  0  0
 60131  1  0  0  0
 61132  1  0  0  0
 61133  1  0  0  0
 61134  1  0  0  0
 62135  1  0  0  0
 62136  1  0  0  0
 62137  1  0  0  0
 63 65  1  0  0  0
 63138  1  0  0  0
 63139  1  0  0  0
 63140  1  0  0  0
 64141  1  0  0  0
 65142  1  0  0  0
 68 79  1  0  0  0
 71 72  2  0  0  0
 71 74  1  0  0  0
 71143  1  0  0  0
 72 75  1  0  0  0
 72144  1  0  0  0
 73 75  2  0  0  0
 73 76  1  0  0  0
 73145  1  0  0  0
 74 76  2  0  0  0
 74 77  1  0  0  0
 75 82  1  0  0  0
 76 80  1  0  0  0
 77 81  1  0  0  0
 77 83  2  0  0  0
 78 79  1  0  0  0
 78 83  1  0  0  0
 78146  1  0  0  0
 78147  1  0  0  0
 79148  1  0  0  0
 79149  1  0  0  0
 80150  1  0  0  0
 80151  1  0  0  0
 81152  1  0  0  0
 81153  1  0  0  0
 82154  1  0  0  0
 83155  1  0  0  0
M  CHG  1  83   1
M  ISO  4   1 100  68 101  79 101  82 100
M  END
> <chiral flag>
0

> <version>
0

> <s_m_source_file>
/data/baiqing/PycharmProjects/Reinvent-master-3.2/result/LINK_invent/BTK/process_docking_weight1_custom_product_contain_oxygen_bond_distance_aromatic_linkinvent_7_9_3/rearranged_h_0069.sdf

> <i_m_source_file_index>
34

> <r_mmod_Potential_Energy-OPLS-2005>
184.98291015625

> <r_mmod_Stretch_Energy-OPLS-2005>
88.494270324707

> <r_mmod_Bend_Energy-OPLS-2005>
229.985092163086

> <r_mmod_Torsional_Energy-OPLS-2005>
307.39111328125

> <r_mmod_Improper_Torsional_Energy-OPLS-2005>
14.481635093689

> <r_mmod_Van_der_Waal_Energy-OPLS-2005>
137.774612426758

> <r_mmod_Electrostatic_Energy-OPLS-2005>
-215.169692993164

> <r_mmod_Solvation_Energy-OPLS-2005>
-436.633880615234

> <b_mmod_Minimization_Converged-OPLS-2005>
0

> <r_mmod_RMS_Derivative-OPLS-2005>
2.39461541175842

$$$$
35
                    3D
 Structure written by MMmdl.
157166  0  0  1  0            999 V2000
  -30.6277  -14.6380   20.5219 C   0  0  0  0  0  0
  -30.4424  -12.3960   19.4585 C   0  0  0  0  0  0
  -29.5090  -12.5240   18.2318 C   0  0  0  0  0  0
  -28.0334  -12.3547   18.6454 C   0  0  0  0  0  0
  -27.6585  -13.2189   19.8794 C   0  0  2  0  0  0
  -28.7054  -13.0589   21.0061 C   0  0  0  0  0  0
  -25.2548  -13.8176   20.5704 C   0  0  0  0  0  0
  -24.1843  -13.0440   20.9198 C   0  0  0  0  0  0
  -24.6403  -11.6895   20.8751 C   0  0  0  0  0  0
  -23.9062  -10.4293   21.0411 C   0  0  0  0  0  0
  -24.3613   -9.4190   21.9184 C   0  0  0  0  0  0
  -23.6279   -8.2227   22.0762 C   0  0  0  0  0  0
  -22.4275   -8.0277   21.3544 C   0  0  0  0  0  0
  -21.9926   -9.0253   20.4629 C   0  0  0  0  0  0
  -22.7250  -10.2136   20.3047 C   0  0  0  0  0  0
  -21.6854   -6.0741   22.5274 C   0  0  0  0  0  0
  -21.4021   -6.5645   23.8209 C   0  0  0  0  0  0
  -21.3655   -5.6804   24.9176 C   0  0  0  0  0  0
  -21.6037   -4.3068   24.7223 C   0  0  0  0  0  0
  -21.8816   -3.8160   23.4337 C   0  0  0  0  0  0
  -21.9182   -4.6972   22.3389 C   0  0  0  0  0  0
  -22.7852  -13.5197   21.1860 C   0  0  0  0  0  0
  -22.1654   -4.2154   21.0967 F   0  0  0  0  0  0
  -21.5613   -3.4540   25.7730 F   0  0  0  0  0  0
  -30.0223  -13.4100   20.4454 N   0  0  0  0  0  0
  -26.3015  -12.9376   20.3416 N   0  0  0  0  0  0
  -25.9344  -11.6505   20.5802 N   0  0  0  0  0  0
  -22.0530  -12.8156   22.0397 N   0  0  0  0  0  0
  -25.4230  -15.1891   20.4053 N   0  0  0  0  0  0
  -31.7853  -14.8115   20.1266 O   0  0  0  0  0  0
  -21.6626   -6.8889   21.4249 O   0  0  0  0  0  0
  -22.3515  -14.5506   20.6693 O   0  0  0  0  0  0
  -24.6264  -31.8604   23.2006 C   0  0  0  0  0  0
  -25.9117  -32.4790   23.8334 C   0  0  1  0  0  0
  -27.2334  -27.3271   20.1091 C   0  0  0  0  0  0
  -25.5921  -33.8596   24.2244 N   0  0  0  0  0  0
  -23.4186  -30.4842   21.5446 C   0  0  2  0  0  0
  -24.8652  -28.9350   20.1133 C   0  0  0  0  0  0
  -22.7440  -29.4658   22.4943 C   0  0  0  0  0  0
  -18.0286  -28.1423   22.8501 C   0  0  0  0  0  0
  -24.1488  -36.7292   23.2630 C   0  0  0  0  0  0
  -25.9599  -30.7921   21.3697 C   0  0  0  0  0  0
  -26.0344  -29.4191   20.7134 C   0  0  0  0  0  0
  -27.2214  -28.6253   20.7029 C   0  0  0  0  0  0
  -26.0395  -26.8954   19.4852 C   0  0  0  0  0  0
  -24.8702  -27.6772   19.4905 C   0  0  0  0  0  0
  -23.6303  -29.8102   20.1640 C   0  0  0  0  0  0
  -25.4126  -36.3080   24.0306 C   0  0  1  0  0  0
  -20.5887  -28.3739   23.1291 C   0  0  2  0  0  0
  -20.6789  -26.9469   22.5423 C   0  0  0  0  0  0
  -19.5748  -26.6413   21.5226 C   0  0  0  0  0  0
  -18.1928  -26.7961   22.1632 C   0  0  0  0  0  0
  -19.1538  -28.8890   23.2895 C   0  0  0  0  0  0
  -18.9452  -30.1485   23.8926 C   0  0  0  0  0  0
  -17.6455  -30.6631   24.0578 C   0  0  0  0  0  0
  -25.9059  -34.9466   23.5066 C   0  0  0  0  0  0
  -16.5350  -29.9138   23.6341 C   0  0  0  0  0  0
  -16.7268  -28.6550   23.0369 C   0  0  0  0  0  0
  -26.4490  -31.6602   25.0704 C   0  0  0  0  0  0
  -25.3701  -31.3730   26.1401 C   0  0  0  0  0  0
  -27.0364  -30.3045   24.6146 C   0  0  0  0  0  0
  -27.6014  -32.4364   25.7489 C   0  0  0  0  0  0
  -27.5586  -37.1800   24.8464 C   0  0  0  0  0  0
  -21.4157  -29.3087   22.3678 N   0  0  0  0  0  0
  -26.4301  -37.3780   23.9401 N   0  0  0  0  0  0
  -24.6877  -31.0609   22.0958 N   0  0  0  0  0  0
  -23.4156  -28.8205   23.3034 O   0  0  0  0  0  0
  -28.3615  -26.4885   20.1588 O   0  0  0  0  0  0
  -26.5633  -34.8935   22.4641 O   0  0  0  0  0  0
  -23.5428  -32.1402   23.7340 O   0  0  0  0  0  0
  -30.9180  -19.3327   20.3996 C   0  0  0  0  0  0
  -31.0101  -17.9182   20.5788 C   0  0  0  0  0  0
  -28.6152  -17.8086   20.6150 C   0  0  0  0  0  0
  -28.5007  -19.2204   20.4081 C   0  0  0  0  0  0
  -29.6747  -20.0380   20.3120 C   0  0  0  0  0  0
  -29.8484  -17.1140   20.6904 C   0  0  0  0  0  0
  -30.2721  -23.6529   19.3278 C   0  0  0  0  0  0
  -30.3879  -22.1235   19.1421 C   0  0  0  0  0  0
  -27.1360  -19.7728   20.2226 C   0  0  0  0  0  0
  -28.8673  -22.5216   20.8620 C   0  0  0  0  0  0
  -29.2955  -23.9880   20.4443 C   0  0  2  0  0  0
  -28.1505  -25.0248   20.0366 C   0  0  0  0  0  0
  -26.0638  -19.2547   20.6597 N   0  0  0  0  0  0
  -29.6651  -21.5043   20.1011 N   0  0  0  0  0  0
  -29.8120  -15.6666   20.9086 N   0  0  0  0  0  0
  -30.9207  -24.4964   18.6965 O   0  0  0  0  0  0
  -31.0305  -21.5837   18.2308 O   0  0  0  0  0  0
  -31.4831  -12.5208   19.1565 H   0  0  0  0  0  0
  -30.3721  -11.3980   19.8925 H   0  0  0  0  0  0
  -29.7703  -11.7801   17.4757 H   0  0  0  0  0  0
  -29.6473  -13.5014   17.7661 H   0  0  0  0  0  0
  -27.8726  -11.2999   18.8701 H   0  0  0  0  0  0
  -27.3742  -12.5876   17.8068 H   0  0  0  0  0  0
  -27.6801  -14.2569   19.5533 H   0  0  0  0  0  0
  -28.7156  -12.0288   21.3648 H   0  0  0  0  0  0
  -28.4539  -13.6666   21.8767 H   0  0  0  0  0  0
  -25.2770   -9.5651   22.4745 H   0  0  0  0  0  0
  -23.9989   -7.4616   22.7475 H   0  0  0  0  0  0
  -21.0885   -8.8762   19.8888 H   0  0  0  0  0  0
  -22.3726  -10.9681   19.6154 H   0  0  0  0  0  0
  -21.2045   -7.6163   23.9717 H   0  0  0  0  0  0
  -21.1478   -6.0540   25.9082 H   0  0  0  0  0  0
  -22.0600   -2.7618   23.2836 H   0  0  0  0  0  0
  -22.4242  -11.9826   22.4725 H   0  0  0  0  0  0
  -21.1112  -13.1103   22.2608 H   0  0  0  0  0  0
  -24.6350  -15.8247   20.4651 H   0  0  0  0  0  0
  -26.2381  -15.6102   19.9835 H   0  0  0  0  0  0
  -26.7197  -32.5471   23.1094 H   0  0  0  0  0  0
  -25.0033  -33.9747   25.0360 H   0  0  0  0  0  0
  -22.7146  -31.3067   21.3961 H   0  0  0  0  0  0
  -23.3770  -35.9604   23.3282 H   0  0  0  0  0  0
  -24.3529  -36.8966   22.2046 H   0  0  0  0  0  0
  -23.7249  -37.6480   23.6699 H   0  0  0  0  0  0
  -26.0844  -31.5505   20.5960 H   0  0  0  0  0  0
  -26.8460  -30.8458   21.9918 H   0  0  0  0  0  0
  -28.1196  -28.9891   21.1852 H   0  0  0  0  0  0
  -25.9846  -25.9358   18.9959 H   0  0  0  0  0  0
  -23.9735  -27.2987   19.0182 H   0  0  0  0  0  0
  -23.7448  -30.5816   19.4024 H   0  0  0  0  0  0
  -22.7511  -29.2336   19.8677 H   0  0  0  0  0  0
  -25.1312  -36.1908   25.0796 H   0  0  0  0  0  0
  -20.9977  -28.3350   24.1406 H   0  0  0  0  0  0
  -20.5730  -26.2347   23.3615 H   0  0  0  0  0  0
  -21.6655  -26.7532   22.1204 H   0  0  0  0  0  0
  -19.6937  -25.6318   21.1262 H   0  0  0  0  0  0
  -19.6693  -27.3208   20.6744 H   0  0  0  0  0  0
  -17.4201  -26.6728   21.4039 H   0  0  0  0  0  0
  -18.0319  -26.0121   22.9037 H   0  0  0  0  0  0
  -19.7931  -30.7295   24.2323 H   0  0  0  0  0  0
  -17.5022  -31.6312   24.5188 H   0  0  0  0  0  0
  -15.5357  -30.3051   23.7668 H   0  0  0  0  0  0
  -15.8660  -28.0870   22.7080 H   0  0  0  0  0  0
  -24.5852  -30.7132   25.7683 H   0  0  0  0  0  0
  -24.8918  -32.2906   26.4840 H   0  0  0  0  0  0
  -25.7988  -30.8850   27.0159 H   0  0  0  0  0  0
  -26.2958  -29.6767   24.1174 H   0  0  0  0  0  0
  -27.4102  -29.7314   25.4641 H   0  0  0  0  0  0
  -27.8792  -30.4361   23.9357 H   0  0  0  0  0  0
  -27.2590  -33.3666   26.2037 H   0  0  0  0  0  0
  -28.3838  -32.6938   25.0338 H   0  0  0  0  0  0
  -28.0667  -31.8518   26.5433 H   0  0  0  0  0  0
  -28.2595  -38.0108   24.7549 H   0  0  0  0  0  0
  -28.1115  -36.2642   24.6288 H   0  0  0  0  0  0
  -27.2289  -37.1460   25.8863 H   0  0  0  0  0  0
  -20.9333  -29.8755   21.6849 H   0  0  0  0  0  0
  -26.0178  -38.2853   24.1421 H   0  0  0  0  0  0
  -31.8430  -19.8860   20.3247 H   0  0  0  0  0  0
  -31.9889  -17.4651   20.6410 H   0  0  0  0  0  0
  -27.7085  -17.2234   20.6760 H   0  0  0  0  0  0
  -27.0735  -20.6916   19.6336 H   0  0  0  0  0  0
  -27.7976  -22.4120   20.6969 H   0  0  0  0  0  0
  -29.0459  -22.3726   21.9297 H   0  0  0  0  0  0
  -29.8706  -24.4155   21.2653 H   0  0  0  0  0  0
  -27.2653  -24.7676   20.6235 H   0  0  0  0  0  0
  -27.8822  -24.8165   18.9996 H   0  0  0  0  0  0
  -26.2177  -18.4078   21.1969 H   0  0  0  0  0  0
  -28.9163  -15.3243   21.2199 H   0  0  0  0  0  0
  1 25  1  0  0  0
  1 30  2  0  0  0
  1 85  1  0  0  0
  2  3  1  0  0  0
  2 25  1  0  0  0
  2 88  1  0  0  0
  2 89  1  0  0  0
  3  4  1  0  0  0
  3 90  1  0  0  0
  3 91  1  0  0  0
  4  5  1  0  0  0
  4 92  1  0  0  0
  4 93  1  0  0  0
  5  6  1  0  0  0
  5 26  1  0  0  0
  5 94  1  0  0  0
  6 25  1  0  0  0
  6 95  1  0  0  0
  6 96  1  0  0  0
  7  8  2  0  0  0
  7 26  1  0  0  0
  7 29  1  0  0  0
  8  9  1  0  0  0
  8 22  1  0  0  0
  9 10  1  0  0  0
  9 27  2  0  0  0
 10 11  2  0  0  0
 10 15  1  0  0  0
 11 12  1  0  0  0
 11 97  1  0  0  0
 12 13  2  0  0  0
 12 98  1  0  0  0
 13 14  1  0  0  0
 13 31  1  0  0  0
 14 15  2  0  0  0
 14 99  1  0  0  0
 15100  1  0  0  0
 16 17  2  0  0  0
 16 21  1  0  0  0
 16 31  1  0  0  0
 17 18  1  0  0  0
 17101  1  0  0  0
 18 19  2  0  0  0
 18102  1  0  0  0
 19 20  1  0  0  0
 19 24  1  0  0  0
 20 21  2  0  0  0
 20103  1  0  0  0
 21 23  1  0  0  0
 22 28  1  0  0  0
 22 32  2  0  0  0
 26 27  1  0  0  0
 28104  1  0  0  0
 28105  1  0  0  0
 29106  1  0  0  0
 29107  1  0  0  0
 33 34  1  0  0  0
 33 66  1  0  0  0
 33 70  2  0  0  0
 34 36  1  0  0  0
 34 59  1  0  0  0
 34108  1  0  0  0
 35 44  2  0  0  0
 35 45  1  0  0  0
 35 68  1  0  0  0
 36 56  1  0  0  0
 36109  1  0  0  0
 37 39  1  0  0  0
 37 47  1  0  0  0
 37 66  1  0  0  0
 37110  1  0  0  0
 38 43  2  0  0  0
 38 46  1  0  0  0
 38 47  1  0  0  0
 39 64  1  0  0  0
 39 67  2  0  0  0
 40 52  1  0  0  0
 40 53  2  0  0  0
 40 58  1  0  0  0
 41111  1  0  0  0
 41112  1  0  0  0
 41113  1  0  0  0
 41 48  1  0  0  0
 42 43  1  0  0  0
 42 66  1  0  0  0
 42114  1  0  0  0
 42115  1  0  0  0
 43 44  1  0  0  0
 44116  1  0  0  0
 45 46  2  0  0  0
 45117  1  0  0  0
 46118  1  0  0  0
 47119  1  0  0  0
 47120  1  0  0  0
 48 56  1  0  0  0
 48 65  1  0  0  0
 48121  1  0  0  0
 49 50  1  0  0  0
 49 53  1  0  0  0
 49 64  1  0  0  0
 49122  1  0  0  0
 50 51  1  0  0  0
 50123  1  0  0  0
 50124  1  0  0  0
 51 52  1  0  0  0
 51125  1  0  0  0
 51126  1  0  0  0
 52127  1  0  0  0
 52128  1  0  0  0
 53 54  1  0  0  0
 54 55  2  0  0  0
 54129  1  0  0  0
 55 57  1  0  0  0
 55130  1  0  0  0
 56 69  2  0  0  0
 57 58  2  0  0  0
 57131  1  0  0  0
 58132  1  0  0  0
 59 60  1  0  0  0
 59 61  1  0  0  0
 59 62  1  0  0  0
 60133  1  0  0  0
 60134  1  0  0  0
 60135  1  0  0  0
 61136  1  0  0  0
 61137  1  0  0  0
 61138  1  0  0  0
 62139  1  0  0  0
 62140  1  0  0  0
 62141  1  0  0  0
 63 65  1  0  0  0
 63142  1  0  0  0
 63143  1  0  0  0
 63144  1  0  0  0
 64145  1  0  0  0
 65146  1  0  0  0
 68 82  1  0  0  0
 71 72  2  0  0  0
 71 75  1  0  0  0
 71147  1  0  0  0
 72 76  1  0  0  0
 72148  1  0  0  0
 73 74  1  0  0  0
 73 76  2  0  0  0
 73149  1  0  0  0
 74 75  2  0  0  0
 74 79  1  0  0  0
 75 84  1  0  0  0
 76 85  1  0  0  0
 77 78  1  0  0  0
 77 81  1  0  0  0
 77 86  2  0  0  0
 78 84  1  0  0  0
 78 87  2  0  0  0
 79 83  2  0  0  0
 79150  1  0  0  0
 80 81  1  0  0  0
 80 84  1  0  0  0
 80151  1  0  0  0
 80152  1  0  0  0
 81 82  1  0  0  0
 81153  1  0  0  0
 82154  1  0  0  0
 82155  1  0  0  0
 83156  1  0  0  0
 85157  1  0  0  0
M  ISO  4   1 100  68 101  82 101  85 100
M  END
> <chiral flag>
0

> <version>
0

> <s_m_source_file>
/data/baiqing/PycharmProjects/Reinvent-master-3.2/result/LINK_invent/BTK/process_docking_weight1_custom_product_contain_oxygen_bond_distance_aromatic_linkinvent_7_9_3/rearranged_h_0069.sdf

> <i_m_source_file_index>
35

> <r_mmod_Potential_Energy-OPLS-2005>
155.343139648438

> <r_mmod_Stretch_Energy-OPLS-2005>
85.5442733764648

> <r_mmod_Bend_Energy-OPLS-2005>
160.540878295898

> <r_mmod_Torsional_Energy-OPLS-2005>
272.267669677734

> <r_mmod_Improper_Torsional_Energy-OPLS-2005>
5.34956550598145

> <r_mmod_Van_der_Waal_Energy-OPLS-2005>
145.523818969727

> <r_mmod_Electrostatic_Energy-OPLS-2005>
-291.141662597656

> <r_mmod_Solvation_Energy-OPLS-2005>
-268.306976318359

> <b_mmod_Minimization_Converged-OPLS-2005>
0

> <r_mmod_RMS_Derivative-OPLS-2005>
4.07791137695312

$$$$
36
                    3D
 Structure written by MMmdl.
160169  0  0  1  0            999 V2000
  -30.4840  -15.0638   20.3609 C   0  0  0  0  0  0
  -30.4360  -12.6425   19.5336 C   0  0  0  0  0  0
  -29.5428  -12.5392   18.2754 C   0  0  0  0  0  0
  -28.0736  -12.3055   18.6821 C   0  0  0  0  0  0
  -27.6282  -13.2497   19.8392 C   0  0  2  0  0  0
  -28.6609  -13.3406   20.9901 C   0  0  0  0  0  0
  -25.2437  -13.8191   20.5653 C   0  0  0  0  0  0
  -24.1743  -13.0409   20.9226 C   0  0  0  0  0  0
  -24.6369  -11.6924   20.8716 C   0  0  0  0  0  0
  -23.9103  -10.4250   21.0405 C   0  0  0  0  0  0
  -24.3661   -9.4150   21.9205 C   0  0  0  0  0  0
  -23.6311   -8.2208   22.0802 C   0  0  0  0  0  0
  -22.4318   -8.0233   21.3602 C   0  0  0  0  0  0
  -21.9920   -9.0192   20.4739 C   0  0  0  0  0  0
  -22.7247  -10.2070   20.3100 C   0  0  0  0  0  0
  -21.6766   -6.0737   22.5287 C   0  0  0  0  0  0
  -21.3952   -6.5636   23.8226 C   0  0  0  0  0  0
  -21.3694   -5.6797   24.9182 C   0  0  0  0  0  0
  -21.6078   -4.3066   24.7218 C   0  0  0  0  0  0
  -21.8809   -3.8145   23.4331 C   0  0  0  0  0  0
  -21.9185   -4.6974   22.3387 C   0  0  0  0  0  0
  -22.7806  -13.5169   21.1989 C   0  0  0  0  0  0
  -22.1667   -4.2150   21.0947 F   0  0  0  0  0  0
  -21.5653   -3.4542   25.7715 F   0  0  0  0  0  0
  -29.9285  -13.7779   20.3814 N   0  0  0  0  0  0
  -26.2862  -12.9410   20.3223 N   0  0  0  0  0  0
  -25.9299  -11.6560   20.5755 N   0  0  0  0  0  0
  -22.0487  -12.8088   22.0536 N   0  0  0  0  0  0
  -25.4141  -15.1872   20.3989 N   0  0  0  0  0  0
  -31.6769  -15.1287   20.0243 O   0  0  0  0  0  0
  -21.6662   -6.8856   21.4257 O   0  0  0  0  0  0
  -22.3476  -14.5523   20.6922 O   0  0  0  0  0  0
  -24.6514  -31.8350   23.1849 C   0  0  0  0  0  0
  -25.9223  -32.4647   23.8252 C   0  0  1  0  0  0
  -27.2199  -27.0849   20.1456 C   0  0  0  0  0  0
  -25.5953  -33.8458   24.2150 N   0  0  0  0  0  0
  -23.4541  -30.4537   21.5327 C   0  0  2  0  0  0
  -24.9017  -28.8672   20.1150 C   0  0  0  0  0  0
  -22.7623  -29.4521   22.4942 C   0  0  0  0  0  0
  -18.0270  -28.1546   22.8502 C   0  0  0  0  0  0
  -24.1500  -36.7227   23.2641 C   0  0  0  0  0  0
  -26.0129  -30.6935   21.3852 C   0  0  0  0  0  0
  -26.0833  -29.3021   20.7279 C   0  0  0  0  0  0
  -27.2374  -28.4278   20.7258 C   0  0  0  0  0  0
  -26.0128  -26.7620   19.4861 C   0  0  0  0  0  0
  -24.8818  -27.6142   19.4755 C   0  0  0  0  0  0
  -23.6777  -29.7704   20.1582 C   0  0  0  0  0  0
  -25.4122  -36.3001   24.0323 C   0  0  1  0  0  0
  -20.5891  -28.3819   23.1336 C   0  0  2  0  0  0
  -20.6786  -26.9494   22.5597 C   0  0  0  0  0  0
  -19.5845  -26.6327   21.5411 C   0  0  0  0  0  0
  -18.1977  -26.8011   22.1780 C   0  0  0  0  0  0
  -19.1517  -28.9004   23.2898 C   0  0  0  0  0  0
  -18.9451  -30.1603   23.8907 C   0  0  0  0  0  0
  -17.6427  -30.6680   24.0577 C   0  0  0  0  0  0
  -25.9094  -34.9392   23.5064 C   0  0  0  0  0  0
  -16.5300  -29.9115   23.6503 C   0  0  0  0  0  0
  -16.7235  -28.6582   23.0479 C   0  0  0  0  0  0
  -26.4563  -31.6535   25.0690 C   0  0  0  0  0  0
  -25.3763  -31.3685   26.1393 C   0  0  0  0  0  0
  -27.0432  -30.2920   24.6296 C   0  0  0  0  0  0
  -27.6104  -32.4319   25.7446 C   0  0  0  0  0  0
  -27.5577  -37.1758   24.8476 C   0  0  0  0  0  0
  -21.4292  -29.3241   22.3850 N   0  0  0  0  0  0
  -26.4270  -37.3712   23.9453 N   0  0  0  0  0  0
  -24.7271  -31.0186   22.0866 N   0  0  0  0  0  0
  -23.4252  -28.7991   23.3012 O   0  0  0  0  0  0
  -28.2811  -26.0939   20.2495 O   0  0  0  0  0  0
  -26.5685  -34.8885   22.4650 O   0  0  0  0  0  0
  -23.5622  -32.1315   23.7009 O   0  0  0  0  0  0
  -27.4468  -18.7367   20.2842 C   0  0  0  0  0  0
  -29.2381  -17.4032   18.5665 C   0  0  0  0  0  0
  -28.8365  -18.8949   20.4033 C   0  0  0  0  0  0
  -26.9705  -18.1588   19.1014 C   0  0  0  0  0  0
  -29.5976  -17.6688   19.9136 C   0  0  0  0  0  0
  -27.8909  -17.5947   18.1810 C   0  0  0  0  0  0
  -29.9949  -21.1143   21.1337 C   0  0  0  0  0  0
  -29.8764  -22.6767   21.0422 C   0  0  0  0  0  0
  -28.2687  -21.6021   19.7686 C   0  0  0  0  0  0
  -28.4592  -23.0787   20.5111 C   0  0  1  0  0  0
  -27.4306  -23.1688   21.6696 C   0  0  0  0  0  0
  -28.3163  -24.6049   19.7149 C   0  0  0  0  0  0
  -29.1232  -20.4277   20.3626 N   0  0  0  0  0  0
  -25.5997  -18.2062   18.8422 N   0  0  0  0  0  0
  -29.7079  -16.2669   20.5928 N   0  0  0  0  0  0
  -30.8420  -20.5880   21.8661 O   0  0  0  0  0  0
  -27.4491  -17.1428   16.9826 F   0  0  0  0  0  0
  -31.4752  -12.7699   19.2358 H   0  0  0  0  0  0
  -30.4097  -11.7026   20.0914 H   0  0  0  0  0  0
  -29.8900  -11.7418   17.6217 H   0  0  0  0  0  0
  -29.6175  -13.4582   17.6902 H   0  0  0  0  0  0
  -27.9828  -11.2610   18.9888 H   0  0  0  0  0  0
  -27.4238  -12.4180   17.8125 H   0  0  0  0  0  0
  -27.5710  -14.2500   19.4004 H   0  0  0  0  0  0
  -28.7797  -12.3854   21.5069 H   0  0  0  0  0  0
  -28.3335  -14.0492   21.7461 H   0  0  0  0  0  0
  -25.2827   -9.5550   22.4761 H   0  0  0  0  0  0
  -24.0007   -7.4568   22.7421 H   0  0  0  0  0  0
  -21.0911   -8.8682   19.8988 H   0  0  0  0  0  0
  -22.3751  -10.9603   19.6169 H   0  0  0  0  0  0
  -21.1898   -7.6130   23.9690 H   0  0  0  0  0  0
  -21.1598   -6.0544   25.9089 H   0  0  0  0  0  0
  -22.0592   -2.7589   23.2797 H   0  0  0  0  0  0
  -22.4096  -11.9719   22.4813 H   0  0  0  0  0  0
  -21.1174  -13.1158   22.2934 H   0  0  0  0  0  0
  -24.6712  -15.8496   20.5744 H   0  0  0  0  0  0
  -26.2332  -15.6155   19.9813 H   0  0  0  0  0  0
  -26.7267  -32.5250   23.0961 H   0  0  0  0  0  0
  -25.0079  -33.9572   25.0279 H   0  0  0  0  0  0
  -22.7559  -31.2785   21.3760 H   0  0  0  0  0  0
  -23.3775  -35.9548   23.3285 H   0  0  0  0  0  0
  -24.3568  -36.8874   22.2059 H   0  0  0  0  0  0
  -23.7228  -37.6400   23.6695 H   0  0  0  0  0  0
  -26.1774  -31.4419   20.6130 H   0  0  0  0  0  0
  -26.8747  -30.7386   22.0312 H   0  0  0  0  0  0
  -28.1263  -28.7516   21.2415 H   0  0  0  0  0  0
  -25.8987  -25.8032   19.0003 H   0  0  0  0  0  0
  -23.9777  -27.2678   18.9844 H   0  0  0  0  0  0
  -23.8093  -30.5365   19.3932 H   0  0  0  0  0  0
  -22.7907  -29.2137   19.8569 H   0  0  0  0  0  0
  -25.1316  -36.1829   25.0801 H   0  0  0  0  0  0
  -20.9908  -28.3469   24.1479 H   0  0  0  0  0  0
  -20.5583  -26.2449   23.3850 H   0  0  0  0  0  0
  -21.6652  -26.7423   22.1450 H   0  0  0  0  0  0
  -19.6947  -25.6176   21.1663 H   0  0  0  0  0  0
  -19.6810  -27.3031   20.6859 H   0  0  0  0  0  0
  -17.4282  -26.6707   21.4164 H   0  0  0  0  0  0
  -18.0296  -26.0220   22.9211 H   0  0  0  0  0  0
  -19.7976  -30.7441   24.2326 H   0  0  0  0  0  0
  -17.5046  -31.6351   24.5209 H   0  0  0  0  0  0
  -15.5259  -30.2944   23.7944 H   0  0  0  0  0  0
  -15.8715  -28.0733   22.7450 H   0  0  0  0  0  0
  -24.5978  -30.6984   25.7726 H   0  0  0  0  0  0
  -24.8920  -32.2838   26.4817 H   0  0  0  0  0  0
  -25.8092  -30.8882   27.0181 H   0  0  0  0  0  0
  -26.3056  -29.6598   24.1332 H   0  0  0  0  0  0
  -27.4055  -29.7260   25.4901 H   0  0  0  0  0  0
  -27.8978  -30.4137   23.9618 H   0  0  0  0  0  0
  -27.2708  -33.3660   26.1946 H   0  0  0  0  0  0
  -28.3928  -32.6807   25.0253 H   0  0  0  0  0  0
  -28.0767  -31.8488   26.5408 H   0  0  0  0  0  0
  -28.2594  -38.0051   24.7520 H   0  0  0  0  0  0
  -28.1072  -36.2593   24.6327 H   0  0  0  0  0  0
  -27.2303  -37.1424   25.8866 H   0  0  0  0  0  0
  -20.9427  -29.9302   21.7379 H   0  0  0  0  0  0
  -26.0160  -38.2792   24.1413 H   0  0  0  0  0  0
  -26.7650  -19.3481   20.8653 H   0  0  0  0  0  0
  -29.8277  -16.7482   17.9530 H   0  0  0  0  0  0
  -30.6387  -22.9943   20.3266 H   0  0  0  0  0  0
  -30.1069  -23.1288   22.0089 H   0  0  0  0  0  0
  -28.5689  -21.7096   18.7284 H   0  0  0  0  0  0
  -27.2097  -21.3422   19.6898 H   0  0  0  0  0  0
  -27.4798  -22.3320   22.3676 H   0  0  0  0  0  0
  -26.4022  -23.2215   21.2958 H   0  0  0  0  0  0
  -27.5909  -24.0756   22.2590 H   0  0  0  0  0  0
  -27.5270  -24.4969   18.9745 H   0  0  0  0  0  0
  -29.2080  -24.6342   19.0854 H   0  0  0  0  0  0
  -25.2141  -17.4269   18.3146 H   0  0  0  0  0  0
  -25.0306  -18.4254   19.6557 H   0  0  0  0  0  0
  -28.9304  -16.0719   21.2117 H   0  0  0  0  0  0
  1 25  1  0  0  0
  1 30  2  0  0  0
  1 85  1  0  0  0
  2  3  1  0  0  0
  2 25  1  0  0  0
  2 88  1  0  0  0
  2 89  1  0  0  0
  3  4  1  0  0  0
  3 90  1  0  0  0
  3 91  1  0  0  0
  4  5  1  0  0  0
  4 92  1  0  0  0
  4 93  1  0  0  0
  5  6  1  0  0  0
  5 26  1  0  0  0
  5 94  1  0  0  0
  6 25  1  0  0  0
  6 95  1  0  0  0
  6 96  1  0  0  0
  7  8  2  0  0  0
  7 26  1  0  0  0
  7 29  1  0  0  0
  8  9  1  0  0  0
  8 22  1  0  0  0
  9 10  1  0  0  0
  9 27  2  0  0  0
 10 11  2  0  0  0
 10 15  1  0  0  0
 11 12  1  0  0  0
 11 97  1  0  0  0
 12 13  2  0  0  0
 12 98  1  0  0  0
 13 14  1  0  0  0
 13 31  1  0  0  0
 14 15  2  0  0  0
 14 99  1  0  0  0
 15100  1  0  0  0
 16 17  2  0  0  0
 16 21  1  0  0  0
 16 31  1  0  0  0
 17 18  1  0  0  0
 17101  1  0  0  0
 18 19  2  0  0  0
 18102  1  0  0  0
 19 20  1  0  0  0
 19 24  1  0  0  0
 20 21  2  0  0  0
 20103  1  0  0  0
 21 23  1  0  0  0
 22 28  1  0  0  0
 22 32  2  0  0  0
 26 27  1  0  0  0
 28104  1  0  0  0
 28105  1  0  0  0
 29106  1  0  0  0
 29107  1  0  0  0
 33 34  1  0  0  0
 33 66  1  0  0  0
 33 70  2  0  0  0
 34 36  1  0  0  0
 34 59  1  0  0  0
 34108  1  0  0  0
 35 44  2  0  0  0
 35 45  1  0  0  0
 35 68  1  0  0  0
 36 56  1  0  0  0
 36109  1  0  0  0
 37 39  1  0  0  0
 37 47  1  0  0  0
 37 66  1  0  0  0
 37110  1  0  0  0
 38 43  2  0  0  0
 38 46  1  0  0  0
 38 47  1  0  0  0
 39 64  1  0  0  0
 39 67  2  0  0  0
 40 52  1  0  0  0
 40 53  2  0  0  0
 40 58  1  0  0  0
 41111  1  0  0  0
 41112  1  0  0  0
 41113  1  0  0  0
 41 48  1  0  0  0
 42 43  1  0  0  0
 42 66  1  0  0  0
 42114  1  0  0  0
 42115  1  0  0  0
 43 44  1  0  0  0
 44116  1  0  0  0
 45 46  2  0  0  0
 45117  1  0  0  0
 46118  1  0  0  0
 47119  1  0  0  0
 47120  1  0  0  0
 48 56  1  0  0  0
 48 65  1  0  0  0
 48121  1  0  0  0
 49 50  1  0  0  0
 49 53  1  0  0  0
 49 64  1  0  0  0
 49122  1  0  0  0
 50 51  1  0  0  0
 50123  1  0  0  0
 50124  1  0  0  0
 51 52  1  0  0  0
 51125  1  0  0  0
 51126  1  0  0  0
 52127  1  0  0  0
 52128  1  0  0  0
 53 54  1  0  0  0
 54 55  2  0  0  0
 54129  1  0  0  0
 55 57  1  0  0  0
 55130  1  0  0  0
 56 69  2  0  0  0
 57 58  2  0  0  0
 57131  1  0  0  0
 58132  1  0  0  0
 59 60  1  0  0  0
 59 61  1  0  0  0
 59 62  1  0  0  0
 60133  1  0  0  0
 60134  1  0  0  0
 60135  1  0  0  0
 61136  1  0  0  0
 61137  1  0  0  0
 61138  1  0  0  0
 62139  1  0  0  0
 62140  1  0  0  0
 62141  1  0  0  0
 63 65  1  0  0  0
 63142  1  0  0  0
 63143  1  0  0  0
 63144  1  0  0  0
 64145  1  0  0  0
 65146  1  0  0  0
 68 82  1  0  0  0
 71 73  2  0  0  0
 71 74  1  0  0  0
 71147  1  0  0  0
 72 75  2  0  0  0
 72 76  1  0  0  0
 72148  1  0  0  0
 73 75  1  0  0  0
 73 83  1  0  0  0
 74 76  2  0  0  0
 74 84  1  0  0  0
 75 85  1  0  0  0
 76 87  1  0  0  0
 77 78  1  0  0  0
 77 83  1  0  0  0
 77 86  2  0  0  0
 78 80  1  0  0  0
 78149  1  0  0  0
 78150  1  0  0  0
 79 80  1  0  0  0
 79 83  1  0  0  0
 79151  1  0  0  0
 79152  1  0  0  0
 80 81  1  0  0  0
 80 82  1  0  0  0
 81153  1  0  0  0
 81154  1  0  0  0
 81155  1  0  0  0
 82156  1  0  0  0
 82157  1  0  0  0
 84158  1  0  0  0
 84159  1  0  0  0
 85160  1  0  0  0
M  ISO  4   1 100  68 101  82 101  85 100
M  END
> <chiral flag>
0

> <version>
0

> <s_m_source_file>
/data/baiqing/PycharmProjects/Reinvent-master-3.2/result/LINK_invent/BTK/process_docking_weight1_custom_product_contain_oxygen_bond_distance_aromatic_linkinvent_7_9_3/rearranged_h_0069.sdf

> <i_m_source_file_index>
36

> <r_mmod_Potential_Energy-OPLS-2005>
1074.18981933594

> <r_mmod_Stretch_Energy-OPLS-2005>
338.277557373047

> <r_mmod_Bend_Energy-OPLS-2005>
383.583709716797

> <r_mmod_Torsional_Energy-OPLS-2005>
535.964538574219

> <r_mmod_Improper_Torsional_Energy-OPLS-2005>
41.1203002929688

> <r_mmod_Van_der_Waal_Energy-OPLS-2005>
118.675689697266

> <r_mmod_Electrostatic_Energy-OPLS-2005>
-375.886901855469

> <r_mmod_Solvation_Energy-OPLS-2005>
-231.638427734375

> <b_mmod_Minimization_Converged-OPLS-2005>
0

> <r_mmod_RMS_Derivative-OPLS-2005>
12.6734313964844

$$$$
37
                    3D
 Structure written by MMmdl.
154162  0  0  1  0            999 V2000
  -30.6151  -14.6589   20.4885 C   0  0  0  0  0  0
  -30.4414  -12.4028   19.4527 C   0  0  0  0  0  0
  -29.5091  -12.5031   18.2242 C   0  0  0  0  0  0
  -28.0328  -12.3359   18.6375 C   0  0  0  0  0  0
  -27.6513  -13.2142   19.8584 C   0  0  2  0  0  0
  -28.6974  -13.0838   20.9890 C   0  0  0  0  0  0
  -25.2555  -13.8155   20.5668 C   0  0  0  0  0  0
  -24.1829  -13.0431   20.9208 C   0  0  0  0  0  0
  -24.6394  -11.6901   20.8750 C   0  0  0  0  0  0
  -23.9062  -10.4288   21.0414 C   0  0  0  0  0  0
  -24.3616   -9.4202   21.9186 C   0  0  0  0  0  0
  -23.6291   -8.2239   22.0755 C   0  0  0  0  0  0
  -22.4273   -8.0280   21.3545 C   0  0  0  0  0  0
  -21.9908   -9.0255   20.4648 C   0  0  0  0  0  0
  -22.7238  -10.2133   20.3059 C   0  0  0  0  0  0
  -21.6851   -6.0733   22.5278 C   0  0  0  0  0  0
  -21.4015   -6.5637   23.8213 C   0  0  0  0  0  0
  -21.3658   -5.6790   24.9174 C   0  0  0  0  0  0
  -21.6043   -4.3052   24.7224 C   0  0  0  0  0  0
  -21.8819   -3.8146   23.4345 C   0  0  0  0  0  0
  -21.9194   -4.6962   22.3401 C   0  0  0  0  0  0
  -22.7853  -13.5231   21.1862 C   0  0  0  0  0  0
  -22.1662   -4.2150   21.0978 F   0  0  0  0  0  0
  -21.5628   -3.4536   25.7737 F   0  0  0  0  0  0
  -30.0111  -13.4291   20.4228 N   0  0  0  0  0  0
  -26.2978  -12.9331   20.3289 N   0  0  0  0  0  0
  -25.9318  -11.6493   20.5750 N   0  0  0  0  0  0
  -22.0487  -12.8230   22.0417 N   0  0  0  0  0  0
  -25.4250  -15.1869   20.4020 N   0  0  0  0  0  0
  -31.7888  -14.8148   20.1374 O   0  0  0  0  0  0
  -21.6637   -6.8878   21.4240 O   0  0  0  0  0  0
  -22.3546  -14.5539   20.6706 O   0  0  0  0  0  0
  -24.6273  -31.8599   23.2025 C   0  0  0  0  0  0
  -25.9118  -32.4780   23.8353 C   0  0  1  0  0  0
  -27.2243  -27.3132   20.1125 C   0  0  0  0  0  0
  -25.5932  -33.8580   24.2281 N   0  0  0  0  0  0
  -23.4208  -30.4845   21.5463 C   0  0  2  0  0  0
  -24.8662  -28.9395   20.1136 C   0  0  0  0  0  0
  -22.7479  -29.4628   22.4939 C   0  0  0  0  0  0
  -18.0289  -28.1390   22.8487 C   0  0  0  0  0  0
  -24.1492  -36.7292   23.2640 C   0  0  0  0  0  0
  -25.9634  -30.7893   21.3741 C   0  0  0  0  0  0
  -26.0374  -29.4165   20.7150 C   0  0  0  0  0  0
  -27.2199  -28.6166   20.7021 C   0  0  0  0  0  0
  -26.0242  -26.8901   19.4935 C   0  0  0  0  0  0
  -24.8620  -27.6819   19.4947 C   0  0  0  0  0  0
  -23.6352  -29.8210   20.1617 C   0  0  0  0  0  0
  -25.4119  -36.3085   24.0328 C   0  0  1  0  0  0
  -20.5889  -28.3694   23.1283 C   0  0  2  0  0  0
  -20.6779  -26.9417   22.5410 C   0  0  0  0  0  0
  -19.5753  -26.6389   21.5213 C   0  0  0  0  0  0
  -18.1933  -26.7933   22.1625 C   0  0  0  0  0  0
  -19.1541  -28.8859   23.2880 C   0  0  0  0  0  0
  -18.9463  -30.1462   23.8896 C   0  0  0  0  0  0
  -17.6462  -30.6589   24.0567 C   0  0  0  0  0  0
  -25.9055  -34.9452   23.5104 C   0  0  0  0  0  0
  -16.5355  -29.9088   23.6331 C   0  0  0  0  0  0
  -16.7275  -28.6507   23.0348 C   0  0  0  0  0  0
  -26.4499  -31.6587   25.0723 C   0  0  0  0  0  0
  -25.3727  -31.3733   26.1447 C   0  0  0  0  0  0
  -27.0340  -30.3012   24.6176 C   0  0  0  0  0  0
  -27.6061  -32.4319   25.7491 C   0  0  0  0  0  0
  -27.5579  -37.1809   24.8471 C   0  0  0  0  0  0
  -21.4192  -29.3048   22.3677 N   0  0  0  0  0  0
  -26.4300  -37.3775   23.9400 N   0  0  0  0  0  0
  -24.6895  -31.0608   22.0979 N   0  0  0  0  0  0
  -23.4201  -28.8160   23.3014 O   0  0  0  0  0  0
  -28.3452  -26.4646   20.1472 O   0  0  0  0  0  0
  -26.5620  -34.8917   22.4669 O   0  0  0  0  0  0
  -23.5435  -32.1401   23.7349 O   0  0  0  0  0  0
  -31.1736  -19.3050   20.6330 C   0  0  0  0  0  0
  -31.1282  -17.8831   20.7486 C   0  0  0  0  0  0
  -28.7653  -17.9709   20.3485 C   0  0  0  0  0  0
  -30.0355  -20.1191   20.3311 C   0  0  0  0  0  0
  -29.9161  -17.1664   20.6035 C   0  0  0  0  0  0
  -28.8073  -19.3977   20.1910 C   0  0  0  0  0  0
  -30.2263  -21.6333   20.1536 C   0  0  0  0  0  0
  -29.3999  -24.0894   20.1795 C   0  0  0  0  0  0
  -28.1123  -24.9942   20.0981 C   0  0  0  0  0  0
  -27.6069  -20.0619   19.9011 N   0  0  0  0  0  0
  -29.7801  -15.7128   20.7636 N   0  0  0  0  0  0
  -29.2545  -22.6093   20.2839 N   0  0  0  0  0  0
  -31.4623  -22.0313   19.8157 N   0  3  0  0  0  0
  -30.5226  -24.6084   20.1129 O   0  0  0  0  0  0
  -31.4814  -12.5341   19.1485 H   0  0  0  0  0  0
  -30.3834  -11.4101   19.9020 H   0  0  0  0  0  0
  -29.7773  -11.7471   17.4849 H   0  0  0  0  0  0
  -29.6456  -13.4690   17.7354 H   0  0  0  0  0  0
  -27.8763  -11.2837   18.8782 H   0  0  0  0  0  0
  -27.3767  -12.5544   17.7943 H   0  0  0  0  0  0
  -27.6634  -14.2452   19.5055 H   0  0  0  0  0  0
  -28.7133  -12.0658   21.3813 H   0  0  0  0  0  0
  -28.4409  -13.7240   21.8347 H   0  0  0  0  0  0
  -25.2763   -9.5674   22.4758 H   0  0  0  0  0  0
  -24.0001   -7.4627   22.7471 H   0  0  0  0  0  0
  -21.0841   -8.8775   19.8952 H   0  0  0  0  0  0
  -22.3700  -10.9673   19.6169 H   0  0  0  0  0  0
  -21.2007   -7.6145   23.9715 H   0  0  0  0  0  0
  -21.1478   -6.0519   25.9076 H   0  0  0  0  0  0
  -22.0600   -2.7608   23.2844 H   0  0  0  0  0  0
  -22.4094  -11.9887   22.4805 H   0  0  0  0  0  0
  -21.1106  -13.1263   22.2619 H   0  0  0  0  0  0
  -24.6440  -15.8294   20.4826 H   0  0  0  0  0  0
  -26.2403  -15.6088   19.9796 H   0  0  0  0  0  0
  -26.7184  -32.5448   23.1099 H   0  0  0  0  0  0
  -25.0083  -33.9725   25.0428 H   0  0  0  0  0  0
  -22.7153  -31.3059   21.4043 H   0  0  0  0  0  0
  -23.3746  -35.9634   23.3328 H   0  0  0  0  0  0
  -24.3578  -36.8885   22.2049 H   0  0  0  0  0  0
  -23.7255  -37.6506   23.6644 H   0  0  0  0  0  0
  -26.0962  -31.5533   20.6070 H   0  0  0  0  0  0
  -26.8432  -30.8369   22.0040 H   0  0  0  0  0  0
  -28.1194  -28.9805   21.1785 H   0  0  0  0  0  0
  -25.9458  -25.9342   19.0008 H   0  0  0  0  0  0
  -23.9639  -27.3107   19.0202 H   0  0  0  0  0  0
  -23.7563  -30.5982   19.4063 H   0  0  0  0  0  0
  -22.7542  -29.2525   19.8583 H   0  0  0  0  0  0
  -25.1302  -36.1945   25.0822 H   0  0  0  0  0  0
  -20.9983  -28.3270   24.1404 H   0  0  0  0  0  0
  -20.5682  -26.2303   23.3608 H   0  0  0  0  0  0
  -21.6647  -26.7452   22.1201 H   0  0  0  0  0  0
  -19.6914  -25.6299   21.1243 H   0  0  0  0  0  0
  -19.6688  -27.3198   20.6742 H   0  0  0  0  0  0
  -17.4201  -26.6680   21.4028 H   0  0  0  0  0  0
  -18.0335  -26.0076   22.9023 H   0  0  0  0  0  0
  -19.7938  -30.7283   24.2260 H   0  0  0  0  0  0
  -17.5016  -31.6268   24.5172 H   0  0  0  0  0  0
  -15.5354  -30.2989   23.7659 H   0  0  0  0  0  0
  -15.8675  -28.0830   22.7059 H   0  0  0  0  0  0
  -24.5902  -30.7081   25.7777 H   0  0  0  0  0  0
  -24.8915  -32.2900   26.4864 H   0  0  0  0  0  0
  -25.8045  -30.8916   27.0228 H   0  0  0  0  0  0
  -26.2915  -29.6762   24.1201 H   0  0  0  0  0  0
  -27.4044  -29.7271   25.4680 H   0  0  0  0  0  0
  -27.8781  -30.4303   23.9397 H   0  0  0  0  0  0
  -27.2681  -33.3622   26.2068 H   0  0  0  0  0  0
  -28.3869  -32.6874   25.0313 H   0  0  0  0  0  0
  -28.0729  -31.8440   26.5405 H   0  0  0  0  0  0
  -28.2622  -38.0081   24.7488 H   0  0  0  0  0  0
  -28.1049  -36.2613   24.6339 H   0  0  0  0  0  0
  -27.2291  -37.1512   25.8874 H   0  0  0  0  0  0
  -20.9369  -29.8774   21.6891 H   0  0  0  0  0  0
  -26.0185  -38.2857   24.1375 H   0  0  0  0  0  0
  -32.1382  -19.7687   20.7785 H   0  0  0  0  0  0
  -32.0420  -17.3498   20.9711 H   0  0  0  0  0  0
  -27.8144  -17.4690   20.2478 H   0  0  0  0  0  0
  -27.4309  -24.7042   20.8985 H   0  0  0  0  0  0
  -27.6459  -24.7226   19.1524 H   0  0  0  0  0  0
  -26.7812  -19.4797   20.0119 H   0  0  0  0  0  0
  -27.5644  -20.4337   18.9554 H   0  0  0  0  0  0
  -28.8450  -15.4047   20.9766 H   0  0  0  0  0  0
  -28.3482  -22.1670   20.3965 H   0  0  0  0  0  0
  -32.1890  -21.3623   19.6188 H   0  0  0  0  0  0
  -31.6523  -23.0242   19.7464 H   0  0  0  0  0  0
  1 25  1  0  0  0
  1 30  2  0  0  0
  1 81  1  0  0  0
  2  3  1  0  0  0
  2 25  1  0  0  0
  2 85  1  0  0  0
  2 86  1  0  0  0
  3  4  1  0  0  0
  3 87  1  0  0  0
  3 88  1  0  0  0
  4  5  1  0  0  0
  4 89  1  0  0  0
  4 90  1  0  0  0
  5  6  1  0  0  0
  5 26  1  0  0  0
  5 91  1  0  0  0
  6 25  1  0  0  0
  6 92  1  0  0  0
  6 93  1  0  0  0
  7  8  2  0  0  0
  7 26  1  0  0  0
  7 29  1  0  0  0
  8  9  1  0  0  0
  8 22  1  0  0  0
  9 10  1  0  0  0
  9 27  2  0  0  0
 10 11  2  0  0  0
 10 15  1  0  0  0
 11 12  1  0  0  0
 11 94  1  0  0  0
 12 13  2  0  0  0
 12 95  1  0  0  0
 13 14  1  0  0  0
 13 31  1  0  0  0
 14 15  2  0  0  0
 14 96  1  0  0  0
 15 97  1  0  0  0
 16 17  2  0  0  0
 16 21  1  0  0  0
 16 31  1  0  0  0
 17 18  1  0  0  0
 17 98  1  0  0  0
 18 19  2  0  0  0
 18 99  1  0  0  0
 19 20  1  0  0  0
 19 24  1  0  0  0
 20 21  2  0  0  0
 20100  1  0  0  0
 21 23  1  0  0  0
 22 28  1  0  0  0
 22 32  2  0  0  0
 26 27  1  0  0  0
 28101  1  0  0  0
 28102  1  0  0  0
 29103  1  0  0  0
 29104  1  0  0  0
 33 34  1  0  0  0
 33 66  1  0  0  0
 33 70  2  0  0  0
 34 36  1  0  0  0
 34 59  1  0  0  0
 34105  1  0  0  0
 35 44  2  0  0  0
 35 45  1  0  0  0
 35 68  1  0  0  0
 36 56  1  0  0  0
 36106  1  0  0  0
 37 39  1  0  0  0
 37 47  1  0  0  0
 37 66  1  0  0  0
 37107  1  0  0  0
 38 43  2  0  0  0
 38 46  1  0  0  0
 38 47  1  0  0  0
 39 64  1  0  0  0
 39 67  2  0  0  0
 40 52  1  0  0  0
 40 53  2  0  0  0
 40 58  1  0  0  0
 41108  1  0  0  0
 41109  1  0  0  0
 41110  1  0  0  0
 41 48  1  0  0  0
 42 43  1  0  0  0
 42 66  1  0  0  0
 42111  1  0  0  0
 42112  1  0  0  0
 43 44  1  0  0  0
 44113  1  0  0  0
 45 46  2  0  0  0
 45114  1  0  0  0
 46115  1  0  0  0
 47116  1  0  0  0
 47117  1  0  0  0
 48 56  1  0  0  0
 48 65  1  0  0  0
 48118  1  0  0  0
 49 50  1  0  0  0
 49 53  1  0  0  0
 49 64  1  0  0  0
 49119  1  0  0  0
 50 51  1  0  0  0
 50120  1  0  0  0
 50121  1  0  0  0
 51 52  1  0  0  0
 51122  1  0  0  0
 51123  1  0  0  0
 52124  1  0  0  0
 52125  1  0  0  0
 53 54  1  0  0  0
 54 55  2  0  0  0
 54126  1  0  0  0
 55 57  1  0  0  0
 55127  1  0  0  0
 56 69  2  0  0  0
 57 58  2  0  0  0
 57128  1  0  0  0
 58129  1  0  0  0
 59 60  1  0  0  0
 59 61  1  0  0  0
 59 62  1  0  0  0
 60130  1  0  0  0
 60131  1  0  0  0
 60132  1  0  0  0
 61133  1  0  0  0
 61134  1  0  0  0
 61135  1  0  0  0
 62136  1  0  0  0
 62137  1  0  0  0
 62138  1  0  0  0
 63 65  1  0  0  0
 63139  1  0  0  0
 63140  1  0  0  0
 63141  1  0  0  0
 64142  1  0  0  0
 65143  1  0  0  0
 68 79  1  0  0  0
 71 72  2  0  0  0
 71 74  1  0  0  0
 71144  1  0  0  0
 72 75  1  0  0  0
 72145  1  0  0  0
 73 75  2  0  0  0
 73 76  1  0  0  0
 73146  1  0  0  0
 74 76  2  0  0  0
 74 77  1  0  0  0
 75 81  1  0  0  0
 76 80  1  0  0  0
 77 82  1  0  0  0
 77 83  2  0  0  0
 78 79  1  0  0  0
 78 82  1  0  0  0
 78 84  2  0  0  0
 79147  1  0  0  0
 79148  1  0  0  0
 80149  1  0  0  0
 80150  1  0  0  0
 81151  1  0  0  0
 82152  1  0  0  0
 83153  1  0  0  0
 83154  1  0  0  0
M  CHG  1  83   1
M  ISO  4   1 100  68 101  79 101  81 100
M  END
> <chiral flag>
0

> <version>
0

> <s_m_source_file>
/data/baiqing/PycharmProjects/Reinvent-master-3.2/result/LINK_invent/BTK/process_docking_weight1_custom_product_contain_oxygen_bond_distance_aromatic_linkinvent_7_9_3/rearranged_h_0069.sdf

> <i_m_source_file_index>
37

> <r_mmod_Potential_Energy-OPLS-2005>
-59.794620513916

> <r_mmod_Stretch_Energy-OPLS-2005>
90.7111740112305

> <r_mmod_Bend_Energy-OPLS-2005>
145.303558349609

> <r_mmod_Torsional_Energy-OPLS-2005>
230.414321899414

> <r_mmod_Improper_Torsional_Energy-OPLS-2005>
11.8798027038574

> <r_mmod_Van_der_Waal_Energy-OPLS-2005>
163.050445556641

> <r_mmod_Electrostatic_Energy-OPLS-2005>
-298.842834472656

> <r_mmod_Solvation_Energy-OPLS-2005>
-455.189056396484

> <b_mmod_Minimization_Converged-OPLS-2005>
0

> <r_mmod_RMS_Derivative-OPLS-2005>
0.414398461580276

$$$$
38
                    3D
 Structure written by MMmdl.
154163  0  0  1  0            999 V2000
  -30.6001  -14.7724   20.4574 C   0  0  0  0  0  0
  -30.4284  -12.4696   19.4908 C   0  0  0  0  0  0
  -29.5134  -12.5337   18.2468 C   0  0  0  0  0  0
  -28.0390  -12.3518   18.6521 C   0  0  0  0  0  0
  -27.6440  -13.2405   19.8626 C   0  0  2  0  0  0
  -28.6864  -13.1710   21.0018 C   0  0  0  0  0  0
  -25.2507  -13.8222   20.5713 C   0  0  0  0  0  0
  -24.1798  -13.0458   20.9179 C   0  0  0  0  0  0
  -24.6396  -11.6936   20.8716 C   0  0  0  0  0  0
  -23.9067  -10.4311   21.0369 C   0  0  0  0  0  0
  -24.3619   -9.4237   21.9161 C   0  0  0  0  0  0
  -23.6300   -8.2272   22.0749 C   0  0  0  0  0  0
  -22.4276   -8.0296   21.3548 C   0  0  0  0  0  0
  -21.9899   -9.0258   20.4636 C   0  0  0  0  0  0
  -22.7228  -10.2140   20.3032 C   0  0  0  0  0  0
  -21.6874   -6.0730   22.5271 C   0  0  0  0  0  0
  -21.4036   -6.5634   23.8204 C   0  0  0  0  0  0
  -21.3659   -5.6790   24.9165 C   0  0  0  0  0  0
  -21.6051   -4.3055   24.7227 C   0  0  0  0  0  0
  -21.8824   -3.8141   23.4348 C   0  0  0  0  0  0
  -21.9197   -4.6954   22.3396 C   0  0  0  0  0  0
  -22.7815  -13.5219   21.1836 C   0  0  0  0  0  0
  -22.1652   -4.2138   21.0973 F   0  0  0  0  0  0
  -21.5623   -3.4539   25.7742 F   0  0  0  0  0  0
  -29.9923  -13.5312   20.4343 N   0  0  0  0  0  0
  -26.2950  -12.9445   20.3332 N   0  0  0  0  0  0
  -25.9341  -11.6573   20.5761 N   0  0  0  0  0  0
  -22.0484  -12.8203   22.0402 N   0  0  0  0  0  0
  -25.4208  -15.1952   20.4183 N   0  0  0  0  0  0
  -31.7565  -14.8838   20.0386 O   0  0  0  0  0  0
  -21.6659   -6.8879   21.4237 O   0  0  0  0  0  0
  -22.3481  -14.5527   20.6688 O   0  0  0  0  0  0
  -24.6354  -31.8530   23.1999 C   0  0  0  0  0  0
  -25.9168  -32.4741   23.8341 C   0  0  1  0  0  0
  -27.2111  -27.2182   20.1342 C   0  0  0  0  0  0
  -25.5963  -33.8548   24.2261 N   0  0  0  0  0  0
  -23.4352  -30.4772   21.5428 C   0  0  2  0  0  0
  -24.8836  -28.9257   20.1078 C   0  0  0  0  0  0
  -22.7522  -29.4596   22.4893 C   0  0  0  0  0  0
  -18.0301  -28.1391   22.8484 C   0  0  0  0  0  0
  -24.1494  -36.7274   23.2639 C   0  0  0  0  0  0
  -25.9866  -30.7471   21.3951 C   0  0  0  0  0  0
  -26.0554  -29.3674   20.7361 C   0  0  0  0  0  0
  -27.2184  -28.5219   20.7497 C   0  0  0  0  0  0
  -26.0294  -26.8861   19.4295 C   0  0  0  0  0  0
  -24.8777  -27.6934   19.4433 C   0  0  0  0  0  0
  -23.6578  -29.8180   20.1569 C   0  0  0  0  0  0
  -25.4127  -36.3064   24.0317 C   0  0  1  0  0  0
  -20.5909  -28.3718   23.1251 C   0  0  2  0  0  0
  -20.6791  -26.9425   22.5407 C   0  0  0  0  0  0
  -19.5763  -26.6383   21.5216 C   0  0  0  0  0  0
  -18.1943  -26.7929   22.1627 C   0  0  0  0  0  0
  -19.1554  -28.8870   23.2862 C   0  0  0  0  0  0
  -18.9474  -30.1470   23.8880 C   0  0  0  0  0  0
  -17.6470  -30.6590   24.0564 C   0  0  0  0  0  0
  -25.9068  -34.9431   23.5088 C   0  0  0  0  0  0
  -16.5363  -29.9085   23.6336 C   0  0  0  0  0  0
  -16.7287  -28.6506   23.0356 C   0  0  0  0  0  0
  -26.4523  -31.6579   25.0739 C   0  0  0  0  0  0
  -25.3729  -31.3741   26.1449 C   0  0  0  0  0  0
  -27.0389  -30.2986   24.6280 C   0  0  0  0  0  0
  -27.6068  -32.4329   25.7517 C   0  0  0  0  0  0
  -27.5580  -37.1801   24.8467 C   0  0  0  0  0  0
  -21.4230  -29.3048   22.3620 N   0  0  0  0  0  0
  -26.4301  -37.3760   23.9400 N   0  0  0  0  0  0
  -24.7045  -31.0449   22.1011 N   0  0  0  0  0  0
  -23.4191  -28.8127   23.3007 O   0  0  0  0  0  0
  -28.2600  -26.2519   20.2079 O   0  0  0  0  0  0
  -26.5629  -34.8904   22.4652 O   0  0  0  0  0  0
  -23.5494  -32.1386   23.7257 O   0  0  0  0  0  0
  -28.9062  -19.5340   18.6254 C   0  0  0  0  0  0
  -29.6585  -18.5501   20.7226 C   0  0  0  0  0  0
  -29.3047  -17.1124   18.7845 C   0  0  0  0  0  0
  -29.2890  -19.7541   19.9675 C   0  0  0  0  0  0
  -28.9204  -18.2488   18.0432 C   0  0  0  0  0  0
  -29.6742  -17.1989   20.1452 C   0  0  0  0  0  0
  -30.1148  -23.4673   20.4723 C   0  0  0  0  0  0
  -28.6736  -23.6586   20.3138 C   0  0  0  0  0  0
  -30.4407  -21.9229   20.5233 C   0  0  0  0  0  0
  -27.9329  -24.8438   20.2386 C   0  0  0  0  0  0
  -28.1623  -22.1765   20.2560 C   0  0  0  0  0  0
  -29.3018  -21.1910   20.4088 N   0  0  0  0  0  0
  -28.5397  -18.0980   16.7099 N   0  0  0  0  0  0
  -29.8813  -15.8992   20.8550 N   0  0  0  0  0  0
  -30.9697  -24.3602   20.5534 O   0  0  0  0  0  0
  -31.5851  -21.4671   20.6556 O   0  0  0  0  0  0
  -31.4729  -12.5813   19.1953 H   0  0  0  0  0  0
  -30.3568  -11.4905   19.9670 H   0  0  0  0  0  0
  -29.7992  -11.7722   17.5205 H   0  0  0  0  0  0
  -29.6407  -13.4965   17.7481 H   0  0  0  0  0  0
  -27.8921  -11.3006   18.9022 H   0  0  0  0  0  0
  -27.3838  -12.5556   17.8035 H   0  0  0  0  0  0
  -27.6379  -14.2660   19.4929 H   0  0  0  0  0  0
  -28.7202  -12.1694   21.4334 H   0  0  0  0  0  0
  -28.4147  -13.8431   21.8172 H   0  0  0  0  0  0
  -25.2771   -9.5738   22.4719 H   0  0  0  0  0  0
  -24.0013   -7.4682   22.7486 H   0  0  0  0  0  0
  -21.0824   -8.8784   19.8947 H   0  0  0  0  0  0
  -22.3680  -10.9673   19.6139 H   0  0  0  0  0  0
  -21.2042   -7.6145   23.9706 H   0  0  0  0  0  0
  -21.1465   -6.0518   25.9065 H   0  0  0  0  0  0
  -22.0595   -2.7599   23.2862 H   0  0  0  0  0  0
  -22.4109  -11.9850   22.4757 H   0  0  0  0  0  0
  -21.1105  -13.1222   22.2634 H   0  0  0  0  0  0
  -24.6572  -15.8527   20.5351 H   0  0  0  0  0  0
  -26.2795  -15.6381   20.1178 H   0  0  0  0  0  0
  -26.7228  -32.5367   23.1067 H   0  0  0  0  0  0
  -25.0144  -33.9699   25.0431 H   0  0  0  0  0  0
  -22.7351  -31.3024   21.3969 H   0  0  0  0  0  0
  -23.3766  -35.9595   23.3298 H   0  0  0  0  0  0
  -24.3580  -36.8908   22.2055 H   0  0  0  0  0  0
  -23.7241  -37.6465   23.6675 H   0  0  0  0  0  0
  -26.1387  -31.5047   20.6251 H   0  0  0  0  0  0
  -26.8591  -30.7905   22.0348 H   0  0  0  0  0  0
  -28.1059  -28.8451   21.2748 H   0  0  0  0  0  0
  -25.9602  -25.9656   18.8683 H   0  0  0  0  0  0
  -23.9889  -27.3589   18.9259 H   0  0  0  0  0  0
  -23.7887  -30.5983   19.4062 H   0  0  0  0  0  0
  -22.7748  -29.2567   19.8458 H   0  0  0  0  0  0
  -25.1312  -36.1911   25.0810 H   0  0  0  0  0  0
  -21.0003  -28.3298   24.1369 H   0  0  0  0  0  0
  -20.5714  -26.2322   23.3616 H   0  0  0  0  0  0
  -21.6657  -26.7445   22.1191 H   0  0  0  0  0  0
  -19.6928  -25.6292   21.1257 H   0  0  0  0  0  0
  -19.6702  -27.3180   20.6733 H   0  0  0  0  0  0
  -17.4214  -26.6693   21.4020 H   0  0  0  0  0  0
  -18.0329  -26.0069   22.9019 H   0  0  0  0  0  0
  -19.7948  -30.7304   24.2232 H   0  0  0  0  0  0
  -17.5022  -31.6266   24.5173 H   0  0  0  0  0  0
  -15.5365  -30.2985   23.7670 H   0  0  0  0  0  0
  -15.8691  -28.0828   22.7071 H   0  0  0  0  0  0
  -24.5912  -30.7086   25.7770 H   0  0  0  0  0  0
  -24.8913  -32.2912   26.4844 H   0  0  0  0  0  0
  -25.8028  -30.8937   27.0247 H   0  0  0  0  0  0
  -26.2997  -29.6713   24.1286 H   0  0  0  0  0  0
  -27.4028  -29.7272   25.4833 H   0  0  0  0  0  0
  -27.8890  -30.4250   23.9573 H   0  0  0  0  0  0
  -27.2680  -33.3659   26.2034 H   0  0  0  0  0  0
  -28.3901  -32.6845   25.0351 H   0  0  0  0  0  0
  -28.0700  -31.8487   26.5480 H   0  0  0  0  0  0
  -28.2596  -38.0101   24.7511 H   0  0  0  0  0  0
  -28.1084  -36.2628   24.6306 H   0  0  0  0  0  0
  -27.2291  -37.1453   25.8870 H   0  0  0  0  0  0
  -20.9424  -29.8775   21.6826 H   0  0  0  0  0  0
  -26.0178  -38.2832   24.1401 H   0  0  0  0  0  0
  -28.6232  -20.3798   18.0145 H   0  0  0  0  0  0
  -29.9268  -18.6644   21.7637 H   0  0  0  0  0  0
  -29.2768  -16.1442   18.3037 H   0  0  0  0  0  0
  -26.8667  -24.6923   20.2031 H   0  0  0  0  0  0
  -27.6411  -22.0177   19.3125 H   0  0  0  0  0  0
  -27.4386  -22.0146   21.0547 H   0  0  0  0  0  0
  -27.9862  -18.8277   16.2717 H   0  0  0  0  0  0
  -28.3077  -17.1708   16.3656 H   0  0  0  0  0  0
  -29.1310  -15.6722   21.4916 H   0  0  0  0  0  0
  1 25  1  0  0  0
  1 30  2  0  0  0
  1 84  1  0  0  0
  2  3  1  0  0  0
  2 25  1  0  0  0
  2 87  1  0  0  0
  2 88  1  0  0  0
  3  4  1  0  0  0
  3 89  1  0  0  0
  3 90  1  0  0  0
  4  5  1  0  0  0
  4 91  1  0  0  0
  4 92  1  0  0  0
  5  6  1  0  0  0
  5 26  1  0  0  0
  5 93  1  0  0  0
  6 25  1  0  0  0
  6 94  1  0  0  0
  6 95  1  0  0  0
  7  8  2  0  0  0
  7 26  1  0  0  0
  7 29  1  0  0  0
  8  9  1  0  0  0
  8 22  1  0  0  0
  9 10  1  0  0  0
  9 27  2  0  0  0
 10 11  2  0  0  0
 10 15  1  0  0  0
 11 12  1  0  0  0
 11 96  1  0  0  0
 12 13  2  0  0  0
 12 97  1  0  0  0
 13 14  1  0  0  0
 13 31  1  0  0  0
 14 15  2  0  0  0
 14 98  1  0  0  0
 15 99  1  0  0  0
 16 17  2  0  0  0
 16 21  1  0  0  0
 16 31  1  0  0  0
 17 18  1  0  0  0
 17100  1  0  0  0
 18 19  2  0  0  0
 18101  1  0  0  0
 19 20  1  0  0  0
 19 24  1  0  0  0
 20 21  2  0  0  0
 20102  1  0  0  0
 21 23  1  0  0  0
 22 28  1  0  0  0
 22 32  2  0  0  0
 26 27  1  0  0  0
 28103  1  0  0  0
 28104  1  0  0  0
 29105  1  0  0  0
 29106  1  0  0  0
 33 34  1  0  0  0
 33 66  1  0  0  0
 33 70  2  0  0  0
 34 36  1  0  0  0
 34 59  1  0  0  0
 34107  1  0  0  0
 35 44  2  0  0  0
 35 45  1  0  0  0
 35 68  1  0  0  0
 36 56  1  0  0  0
 36108  1  0  0  0
 37 39  1  0  0  0
 37 47  1  0  0  0
 37 66  1  0  0  0
 37109  1  0  0  0
 38 43  2  0  0  0
 38 46  1  0  0  0
 38 47  1  0  0  0
 39 64  1  0  0  0
 39 67  2  0  0  0
 40 52  1  0  0  0
 40 53  2  0  0  0
 40 58  1  0  0  0
 41110  1  0  0  0
 41111  1  0  0  0
 41112  1  0  0  0
 41 48  1  0  0  0
 42 43  1  0  0  0
 42 66  1  0  0  0
 42113  1  0  0  0
 42114  1  0  0  0
 43 44  1  0  0  0
 44115  1  0  0  0
 45 46  2  0  0  0
 45116  1  0  0  0
 46117  1  0  0  0
 47118  1  0  0  0
 47119  1  0  0  0
 48 56  1  0  0  0
 48 65  1  0  0  0
 48120  1  0  0  0
 49 50  1  0  0  0
 49 53  1  0  0  0
 49 64  1  0  0  0
 49121  1  0  0  0
 50 51  1  0  0  0
 50122  1  0  0  0
 50123  1  0  0  0
 51 52  1  0  0  0
 51124  1  0  0  0
 51125  1  0  0  0
 52126  1  0  0  0
 52127  1  0  0  0
 53 54  1  0  0  0
 54 55  2  0  0  0
 54128  1  0  0  0
 55 57  1  0  0  0
 55129  1  0  0  0
 56 69  2  0  0  0
 57 58  2  0  0  0
 57130  1  0  0  0
 58131  1  0  0  0
 59 60  1  0  0  0
 59 61  1  0  0  0
 59 62  1  0  0  0
 60132  1  0  0  0
 60133  1  0  0  0
 60134  1  0  0  0
 61135  1  0  0  0
 61136  1  0  0  0
 61137  1  0  0  0
 62138  1  0  0  0
 62139  1  0  0  0
 62140  1  0  0  0
 63 65  1  0  0  0
 63141  1  0  0  0
 63142  1  0  0  0
 63143  1  0  0  0
 64144  1  0  0  0
 65145  1  0  0  0
 68 80  1  0  0  0
 71 74  2  0  0  0
 71 75  1  0  0  0
 71146  1  0  0  0
 72 74  1  0  0  0
 72 76  2  0  0  0
 72147  1  0  0  0
 73 75  2  0  0  0
 73 76  1  0  0  0
 73148  1  0  0  0
 74 82  1  0  0  0
 75 83  1  0  0  0
 76 84  1  0  0  0
 77 78  1  0  0  0
 77 79  1  0  0  0
 77 85  2  0  0  0
 78 80  2  0  0  0
 78 81  1  0  0  0
 79 82  1  0  0  0
 79 86  2  0  0  0
 80149  1  0  0  0
 81 82  1  0  0  0
 81150  1  0  0  0
 81151  1  0  0  0
 83152  1  0  0  0
 83153  1  0  0  0
 84154  1  0  0  0
M  ISO  4   1 100  68 101  80 101  84 100
M  END
> <chiral flag>
0

> <version>
0

> <s_m_source_file>
/data/baiqing/PycharmProjects/Reinvent-master-3.2/result/LINK_invent/BTK/process_docking_weight1_custom_product_contain_oxygen_bond_distance_aromatic_linkinvent_7_9_3/rearranged_h_0069.sdf

> <i_m_source_file_index>
38

> <r_mmod_Potential_Energy-OPLS-2005>
410.384521484375

> <r_mmod_Stretch_Energy-OPLS-2005>
140.641036987305

> <r_mmod_Bend_Energy-OPLS-2005>
210.802124023438

> <r_mmod_Torsional_Energy-OPLS-2005>
311.68798828125

> <r_mmod_Improper_Torsional_Energy-OPLS-2005>
8.96519470214844

> <r_mmod_Van_der_Waal_Energy-OPLS-2005>
132.465866088867

> <r_mmod_Electrostatic_Energy-OPLS-2005>
-231.223175048828

> <r_mmod_Solvation_Energy-OPLS-2005>
-272.586456298828

> <b_mmod_Minimization_Converged-OPLS-2005>
0

> <r_mmod_RMS_Derivative-OPLS-2005>
1.50873506069183

$$$$
39
                    3D
 Structure written by MMmdl.
156165  0  0  1  0            999 V2000
  -30.6139  -14.7643   20.4662 C   0  0  0  0  0  0
  -30.4384  -12.4658   19.4984 C   0  0  0  0  0  0
  -29.5305  -12.5180   18.2471 C   0  0  0  0  0  0
  -28.0533  -12.3404   18.6495 C   0  0  0  0  0  0
  -27.6507  -13.2402   19.8515 C   0  0  2  0  0  0
  -28.6882  -13.1737   20.9977 C   0  0  0  0  0  0
  -25.2570  -13.8208   20.5717 C   0  0  0  0  0  0
  -24.1820  -13.0489   20.9190 C   0  0  0  0  0  0
  -24.6395  -11.6957   20.8733 C   0  0  0  0  0  0
  -23.9068  -10.4335   21.0398 C   0  0  0  0  0  0
  -24.3614   -9.4261   21.9177 C   0  0  0  0  0  0
  -23.6307   -8.2263   22.0738 C   0  0  0  0  0  0
  -22.4268   -8.0291   21.3555 C   0  0  0  0  0  0
  -21.9918   -9.0269   20.4644 C   0  0  0  0  0  0
  -22.7248  -10.2156   20.3070 C   0  0  0  0  0  0
  -21.6816   -6.0744   22.5295 C   0  0  0  0  0  0
  -21.4015   -6.5662   23.8237 C   0  0  0  0  0  0
  -21.3666   -5.6797   24.9188 C   0  0  0  0  0  0
  -21.6045   -4.3063   24.7245 C   0  0  0  0  0  0
  -21.8815   -3.8164   23.4364 C   0  0  0  0  0  0
  -21.9201   -4.6979   22.3415 C   0  0  0  0  0  0
  -22.7856  -13.5284   21.1865 C   0  0  0  0  0  0
  -22.1668   -4.2179   21.0983 F   0  0  0  0  0  0
  -21.5624   -3.4542   25.7755 F   0  0  0  0  0  0
  -29.9958  -13.5281   20.4342 N   0  0  0  0  0  0
  -26.2998  -12.9451   20.3275 N   0  0  0  0  0  0
  -25.9346  -11.6591   20.5705 N   0  0  0  0  0  0
  -22.0429  -12.8281   22.0377 N   0  0  0  0  0  0
  -25.4301  -15.1890   20.4086 N   0  0  0  0  0  0
  -31.7798  -14.8644   20.0681 O   0  0  0  0  0  0
  -21.6652   -6.8878   21.4246 O   0  0  0  0  0  0
  -22.3576  -14.5585   20.6687 O   0  0  0  0  0  0
  -24.6354  -31.8528   23.2005 C   0  0  0  0  0  0
  -25.9181  -32.4724   23.8339 C   0  0  1  0  0  0
  -27.2106  -27.2350   20.1543 C   0  0  0  0  0  0
  -25.5968  -33.8524   24.2277 N   0  0  0  0  0  0
  -23.4330  -30.4798   21.5406 C   0  0  2  0  0  0
  -24.8837  -28.9376   20.1096 C   0  0  0  0  0  0
  -22.7533  -29.4601   22.4900 C   0  0  0  0  0  0
  -18.0304  -28.1378   22.8476 C   0  0  0  0  0  0
  -24.1492  -36.7287   23.2646 C   0  0  0  0  0  0
  -25.9817  -30.7612   21.3856 C   0  0  0  0  0  0
  -26.0551  -29.3843   20.7348 C   0  0  0  0  0  0
  -27.2235  -28.5435   20.7525 C   0  0  0  0  0  0
  -26.0258  -26.8931   19.4581 C   0  0  0  0  0  0
  -24.8811  -27.7042   19.4536 C   0  0  0  0  0  0
  -23.6512  -29.8197   20.1561 C   0  0  0  0  0  0
  -25.4108  -36.3071   24.0355 C   0  0  1  0  0  0
  -20.5905  -28.3705   23.1254 C   0  0  2  0  0  0
  -20.6784  -26.9414   22.5405 C   0  0  0  0  0  0
  -19.5751  -26.6381   21.5209 C   0  0  0  0  0  0
  -18.1939  -26.7914   22.1620 C   0  0  0  0  0  0
  -19.1551  -28.8854   23.2861 C   0  0  0  0  0  0
  -18.9474  -30.1451   23.8885 C   0  0  0  0  0  0
  -17.6462  -30.6576   24.0549 C   0  0  0  0  0  0
  -25.9039  -34.9434   23.5111 C   0  0  0  0  0  0
  -16.5355  -29.9062   23.6318 C   0  0  0  0  0  0
  -16.7289  -28.6480   23.0346 C   0  0  0  0  0  0
  -26.4516  -31.6547   25.0738 C   0  0  0  0  0  0
  -25.3721  -31.3723   26.1457 C   0  0  0  0  0  0
  -27.0371  -30.2954   24.6263 C   0  0  0  0  0  0
  -27.6072  -32.4290   25.7510 C   0  0  0  0  0  0
  -27.5573  -37.1807   24.8468 C   0  0  0  0  0  0
  -21.4226  -29.3066   22.3655 N   0  0  0  0  0  0
  -26.4298  -37.3764   23.9400 N   0  0  0  0  0  0
  -24.7020  -31.0499   22.0977 N   0  0  0  0  0  0
  -23.4215  -28.8125   23.3004 O   0  0  0  0  0  0
  -28.2565  -26.2689   20.2527 O   0  0  0  0  0  0
  -26.5592  -34.8939   22.4667 O   0  0  0  0  0  0
  -23.5488  -32.1389   23.7275 O   0  0  0  0  0  0
  -29.8100  -23.2164   21.4042 C   0  0  0  0  0  0
  -29.3530  -19.5991   18.5608 C   0  0  0  0  0  0
  -29.6343  -18.5480   20.7389 C   0  0  0  0  0  0
  -29.7008  -17.1756   18.7164 C   0  0  0  0  0  0
  -28.6839  -23.4966   20.5605 C   0  0  0  0  0  0
  -29.4236  -19.7739   19.9631 C   0  0  0  0  0  0
  -29.4705  -18.3362   17.9495 C   0  0  0  0  0  0
  -29.7921  -17.2209   20.1288 C   0  0  0  0  0  0
  -30.1470  -21.8771   21.3135 C   0  0  0  0  0  0
  -28.4267  -22.2302   20.0108 C   0  0  0  0  0  0
  -27.7944  -24.8329   20.4293 C   0  0  0  0  0  0
  -29.3140  -21.1920   20.4312 N   0  0  0  0  0  0
  -29.3574  -18.2332   16.5609 N   0  0  0  0  0  0
  -29.8952  -15.9025   20.8289 N   0  0  0  0  0  0
  -31.1592  -21.2169   21.9419 O   0  0  0  0  0  0
  -27.4171  -21.9133   19.1486 O   0  0  0  0  0  0
  -31.4841  -12.5763   19.2092 H   0  0  0  0  0  0
  -30.3700  -11.4947   19.9837 H   0  0  0  0  0  0
  -29.8344  -11.7490   17.5362 H   0  0  0  0  0  0
  -29.6580  -13.4705   17.7290 H   0  0  0  0  0  0
  -27.9082  -11.2944   18.9140 H   0  0  0  0  0  0
  -27.3983  -12.5342   17.7945 H   0  0  0  0  0  0
  -27.6541  -14.2636   19.4712 H   0  0  0  0  0  0
  -28.7222  -12.1758   21.4368 H   0  0  0  0  0  0
  -28.4165  -13.8496   21.8097 H   0  0  0  0  0  0
  -25.2759   -9.5774   22.4753 H   0  0  0  0  0  0
  -24.0069   -7.4668   22.7442 H   0  0  0  0  0  0
  -21.0860   -8.8797   19.8926 H   0  0  0  0  0  0
  -22.3718  -10.9697   19.6175 H   0  0  0  0  0  0
  -21.1982   -7.6164   23.9765 H   0  0  0  0  0  0
  -21.1483   -6.0498   25.9077 H   0  0  0  0  0  0
  -22.0575   -2.7646   23.2835 H   0  0  0  0  0  0
  -22.3994  -12.0027   22.4955 H   0  0  0  0  0  0
  -21.1007  -13.1345   22.2393 H   0  0  0  0  0  0
  -24.6723  -15.8539   20.5104 H   0  0  0  0  0  0
  -26.2835  -15.6197   20.0762 H   0  0  0  0  0  0
  -26.7236  -32.5365   23.1059 H   0  0  0  0  0  0
  -25.0107  -33.9613   25.0421 H   0  0  0  0  0  0
  -22.7328  -31.3048   21.3957 H   0  0  0  0  0  0
  -23.3751  -35.9618   23.3309 H   0  0  0  0  0  0
  -24.3586  -36.8897   22.2063 H   0  0  0  0  0  0
  -23.7285  -37.6521   23.6627 H   0  0  0  0  0  0
  -26.1298  -31.5214   20.6172 H   0  0  0  0  0  0
  -26.8529  -30.8067   22.0237 H   0  0  0  0  0  0
  -28.1064  -28.8724   21.2813 H   0  0  0  0  0  0
  -25.9277  -25.9768   18.8978 H   0  0  0  0  0  0
  -23.9988  -27.3662   18.9272 H   0  0  0  0  0  0
  -23.7652  -30.5915   19.3947 H   0  0  0  0  0  0
  -22.7707  -29.2474   19.8557 H   0  0  0  0  0  0
  -25.1294  -36.1914   25.0851 H   0  0  0  0  0  0
  -21.0017  -28.3294   24.1358 H   0  0  0  0  0  0
  -20.5692  -26.2312   23.3617 H   0  0  0  0  0  0
  -21.6659  -26.7411   22.1200 H   0  0  0  0  0  0
  -19.6904  -25.6293   21.1245 H   0  0  0  0  0  0
  -19.6682  -27.3189   20.6730 H   0  0  0  0  0  0
  -17.4213  -26.6679   21.4021 H   0  0  0  0  0  0
  -18.0315  -26.0048   22.9000 H   0  0  0  0  0  0
  -19.7957  -30.7275   24.2256 H   0  0  0  0  0  0
  -17.5018  -31.6255   24.5155 H   0  0  0  0  0  0
  -15.5362  -30.2949   23.7648 H   0  0  0  0  0  0
  -15.8693  -28.0789   22.7057 H   0  0  0  0  0  0
  -24.5897  -30.7056   25.7796 H   0  0  0  0  0  0
  -24.8902  -32.2902   26.4841 H   0  0  0  0  0  0
  -25.8053  -30.8937   27.0253 H   0  0  0  0  0  0
  -26.2962  -29.6687   24.1280 H   0  0  0  0  0  0
  -27.4020  -29.7253   25.4820 H   0  0  0  0  0  0
  -27.8862  -30.4219   23.9547 H   0  0  0  0  0  0
  -27.2671  -33.3606   26.2052 H   0  0  0  0  0  0
  -28.3894  -32.6821   25.0334 H   0  0  0  0  0  0
  -28.0699  -31.8420   26.5459 H   0  0  0  0  0  0
  -28.2615  -38.0074   24.7467 H   0  0  0  0  0  0
  -28.1051  -36.2617   24.6326 H   0  0  0  0  0  0
  -27.2281  -37.1514   25.8870 H   0  0  0  0  0  0
  -20.9410  -29.8816   21.6878 H   0  0  0  0  0  0
  -26.0186  -38.2859   24.1325 H   0  0  0  0  0  0
  -30.3085  -23.9371   22.0381 H   0  0  0  0  0  0
  -29.2080  -20.4694   17.9352 H   0  0  0  0  0  0
  -29.6847  -18.6322   21.8166 H   0  0  0  0  0  0
  -29.7645  -16.2257   18.2036 H   0  0  0  0  0  0
  -27.1413  -24.8310   21.3101 H   0  0  0  0  0  0
  -27.1601  -24.5634   19.5908 H   0  0  0  0  0  0
  -29.2609  -19.0598   15.9761 H   0  0  0  0  0  0
  -29.5573  -17.3755   16.0538 H   0  0  0  0  0  0
  -29.1404  -15.7207   21.4745 H   0  0  0  0  0  0
  -31.6237  -21.8426   22.4911 H   0  0  0  0  0  0
  -27.0280  -22.7236   18.8392 H   0  0  0  0  0  0
  1 25  1  0  0  0
  1 30  2  0  0  0
  1 84  1  0  0  0
  2  3  1  0  0  0
  2 25  1  0  0  0
  2 87  1  0  0  0
  2 88  1  0  0  0
  3  4  1  0  0  0
  3 89  1  0  0  0
  3 90  1  0  0  0
  4  5  1  0  0  0
  4 91  1  0  0  0
  4 92  1  0  0  0
  5  6  1  0  0  0
  5 26  1  0  0  0
  5 93  1  0  0  0
  6 25  1  0  0  0
  6 94  1  0  0  0
  6 95  1  0  0  0
  7  8  2  0  0  0
  7 26  1  0  0  0
  7 29  1  0  0  0
  8  9  1  0  0  0
  8 22  1  0  0  0
  9 10  1  0  0  0
  9 27  2  0  0  0
 10 11  2  0  0  0
 10 15  1  0  0  0
 11 12  1  0  0  0
 11 96  1  0  0  0
 12 13  2  0  0  0
 12 97  1  0  0  0
 13 14  1  0  0  0
 13 31  1  0  0  0
 14 15  2  0  0  0
 14 98  1  0  0  0
 15 99  1  0  0  0
 16 17  2  0  0  0
 16 21  1  0  0  0
 16 31  1  0  0  0
 17 18  1  0  0  0
 17100  1  0  0  0
 18 19  2  0  0  0
 18101  1  0  0  0
 19 20  1  0  0  0
 19 24  1  0  0  0
 20 21  2  0  0  0
 20102  1  0  0  0
 21 23  1  0  0  0
 22 28  1  0  0  0
 22 32  2  0  0  0
 26 27  1  0  0  0
 28103  1  0  0  0
 28104  1  0  0  0
 29105  1  0  0  0
 29106  1  0  0  0
 33 34  1  0  0  0
 33 66  1  0  0  0
 33 70  2  0  0  0
 34 36  1  0  0  0
 34 59  1  0  0  0
 34107  1  0  0  0
 35 44  2  0  0  0
 35 45  1  0  0  0
 35 68  1  0  0  0
 36 56  1  0  0  0
 36108  1  0  0  0
 37 39  1  0  0  0
 37 47  1  0  0  0
 37 66  1  0  0  0
 37109  1  0  0  0
 38 43  2  0  0  0
 38 46  1  0  0  0
 38 47  1  0  0  0
 39 64  1  0  0  0
 39 67  2  0  0  0
 40 52  1  0  0  0
 40 53  2  0  0  0
 40 58  1  0  0  0
 41110  1  0  0  0
 41111  1  0  0  0
 41112  1  0  0  0
 41 48  1  0  0  0
 42 43  1  0  0  0
 42 66  1  0  0  0
 42113  1  0  0  0
 42114  1  0  0  0
 43 44  1  0  0  0
 44115  1  0  0  0
 45 46  2  0  0  0
 45116  1  0  0  0
 46117  1  0  0  0
 47118  1  0  0  0
 47119  1  0  0  0
 48 56  1  0  0  0
 48 65  1  0  0  0
 48120  1  0  0  0
 49 50  1  0  0  0
 49 53  1  0  0  0
 49 64  1  0  0  0
 49121  1  0  0  0
 50 51  1  0  0  0
 50122  1  0  0  0
 50123  1  0  0  0
 51 52  1  0  0  0
 51124  1  0  0  0
 51125  1  0  0  0
 52126  1  0  0  0
 52127  1  0  0  0
 53 54  1  0  0  0
 54 55  2  0  0  0
 54128  1  0  0  0
 55 57  1  0  0  0
 55129  1  0  0  0
 56 69  2  0  0  0
 57 58  2  0  0  0
 57130  1  0  0  0
 58131  1  0  0  0
 59 60  1  0  0  0
 59 61  1  0  0  0
 59 62  1  0  0  0
 60132  1  0  0  0
 60133  1  0  0  0
 60134  1  0  0  0
 61135  1  0  0  0
 61136  1  0  0  0
 61137  1  0  0  0
 62138  1  0  0  0
 62139  1  0  0  0
 62140  1  0  0  0
 63 65  1  0  0  0
 63141  1  0  0  0
 63142  1  0  0  0
 63143  1  0  0  0
 64144  1  0  0  0
 65145  1  0  0  0
 68 81  1  0  0  0
 71 75  1  0  0  0
 71 79  2  0  0  0
 71146  1  0  0  0
 72 76  2  0  0  0
 72 77  1  0  0  0
 72147  1  0  0  0
 73 76  1  0  0  0
 73 78  2  0  0  0
 73148  1  0  0  0
 74 77  2  0  0  0
 74 78  1  0  0  0
 74149  1  0  0  0
 75 80  2  0  0  0
 75 81  1  0  0  0
 76 82  1  0  0  0
 77 83  1  0  0  0
 78 84  1  0  0  0
 79 82  1  0  0  0
 79 85  1  0  0  0
 80 82  1  0  0  0
 80 86  1  0  0  0
 81150  1  0  0  0
 81151  1  0  0  0
 83152  1  0  0  0
 83153  1  0  0  0
 84154  1  0  0  0
 85155  1  0  0  0
 86156  1  0  0  0
M  ISO  4   1 100  68 101  81 101  84 100
M  END
> <chiral flag>
0

> <version>
0

> <s_m_source_file>
/data/baiqing/PycharmProjects/Reinvent-master-3.2/result/LINK_invent/BTK/process_docking_weight1_custom_product_contain_oxygen_bond_distance_aromatic_linkinvent_7_9_3/rearranged_h_0069.sdf

> <i_m_source_file_index>
39

> <r_mmod_Potential_Energy-OPLS-2005>
299.934661865234

> <r_mmod_Stretch_Energy-OPLS-2005>
141.275253295898

> <r_mmod_Bend_Energy-OPLS-2005>
190.281265258789

> <r_mmod_Torsional_Energy-OPLS-2005>
270.635559082031

> <r_mmod_Improper_Torsional_Energy-OPLS-2005>
6.25952482223511

> <r_mmod_Van_der_Waal_Energy-OPLS-2005>
138.100143432617

> <r_mmod_Electrostatic_Energy-OPLS-2005>
-300.546356201172

> <r_mmod_Solvation_Energy-OPLS-2005>
-250.447143554688

> <b_mmod_Minimization_Converged-OPLS-2005>
0

> <r_mmod_RMS_Derivative-OPLS-2005>
5.31467866897583

$$$$
40
                    3D
 Structure written by MMmdl.
159168  0  0  1  0            999 V2000
  -30.5847  -14.7911   20.4624 C   0  0  0  0  0  0
  -30.4343  -12.4822   19.4792 C   0  0  0  0  0  0
  -29.5051  -12.4944   18.2469 C   0  0  0  0  0  0
  -28.0402  -12.2907   18.6809 C   0  0  0  0  0  0
  -27.6258  -13.2313   19.8389 C   0  0  2  0  0  0
  -28.6752  -13.2124   20.9724 C   0  0  0  0  0  0
  -25.2425  -13.8208   20.5731 C   0  0  0  0  0  0
  -24.1763  -13.0427   20.9261 C   0  0  0  0  0  0
  -24.6343  -11.6902   20.8757 C   0  0  0  0  0  0
  -23.9077  -10.4274   21.0448 C   0  0  0  0  0  0
  -24.3604   -9.4177   21.9187 C   0  0  0  0  0  0
  -23.6265   -8.2231   22.0770 C   0  0  0  0  0  0
  -22.4240   -8.0244   21.3573 C   0  0  0  0  0  0
  -21.9905   -9.0259   20.4712 C   0  0  0  0  0  0
  -22.7269  -10.2111   20.3120 C   0  0  0  0  0  0
  -21.6836   -6.0713   22.5265 C   0  0  0  0  0  0
  -21.4005   -6.5648   23.8193 C   0  0  0  0  0  0
  -21.3667   -5.6808   24.9178 C   0  0  0  0  0  0
  -21.6049   -4.3076   24.7230 C   0  0  0  0  0  0
  -21.8806   -3.8160   23.4356 C   0  0  0  0  0  0
  -21.9213   -4.6962   22.3418 C   0  0  0  0  0  0
  -22.7786  -13.5117   21.1903 C   0  0  0  0  0  0
  -22.1672   -4.2152   21.0994 F   0  0  0  0  0  0
  -21.5620   -3.4569   25.7763 F   0  0  0  0  0  0
  -29.9695  -13.5646   20.3738 N   0  0  0  0  0  0
  -26.2831  -12.9428   20.3272 N   0  0  0  0  0  0
  -25.9261  -11.6579   20.5767 N   0  0  0  0  0  0
  -22.0504  -12.8087   22.0478 N   0  0  0  0  0  0
  -25.4182  -15.1932   20.4087 N   0  0  0  0  0  0
  -31.8025  -14.8784   20.2672 O   0  0  0  0  0  0
  -21.6598   -6.8850   21.4230 O   0  0  0  0  0  0
  -22.3449  -14.5421   20.6787 O   0  0  0  0  0  0
  -24.6298  -31.8505   23.2003 C   0  0  0  0  0  0
  -25.9114  -32.4735   23.8373 C   0  0  1  0  0  0
  -27.2171  -27.2740   20.0805 C   0  0  0  0  0  0
  -25.5904  -33.8562   24.2243 N   0  0  0  0  0  0
  -23.4268  -30.4747   21.5419 C   0  0  2  0  0  0
  -24.8820  -28.9318   20.1067 C   0  0  0  0  0  0
  -22.7532  -29.4540   22.4878 C   0  0  0  0  0  0
  -18.0297  -28.1290   22.8507 C   0  0  0  0  0  0
  -24.1522  -36.7306   23.2621 C   0  0  0  0  0  0
  -25.9782  -30.7626   21.3903 C   0  0  0  0  0  0
  -26.0519  -29.3878   20.7242 C   0  0  0  0  0  0
  -27.2265  -28.5652   20.7072 C   0  0  0  0  0  0
  -26.0300  -26.9019   19.4215 C   0  0  0  0  0  0
  -24.8725  -27.6969   19.4438 C   0  0  0  0  0  0
  -23.6508  -29.8107   20.1595 C   0  0  0  0  0  0
  -25.4118  -36.3069   24.0335 C   0  0  1  0  0  0
  -20.5894  -28.3674   23.1259 C   0  0  2  0  0  0
  -20.6845  -26.9444   22.5220 C   0  0  0  0  0  0
  -19.5668  -26.6202   21.5235 C   0  0  0  0  0  0
  -18.1976  -26.7722   22.1912 C   0  0  0  0  0  0
  -19.1537  -28.8828   23.2817 C   0  0  0  0  0  0
  -18.9450  -30.1510   23.8660 C   0  0  0  0  0  0
  -17.6426  -30.6608   24.0372 C   0  0  0  0  0  0
  -25.9052  -34.9428   23.5090 C   0  0  0  0  0  0
  -16.5346  -29.9013   23.6240 C   0  0  0  0  0  0
  -16.7256  -28.6388   23.0389 C   0  0  0  0  0  0
  -26.4486  -31.6570   25.0749 C   0  0  0  0  0  0
  -25.3717  -31.3787   26.1473 C   0  0  0  0  0  0
  -27.0304  -30.2972   24.6264 C   0  0  0  0  0  0
  -27.6019  -32.4305   25.7499 C   0  0  0  0  0  0
  -27.5589  -37.1801   24.8462 C   0  0  0  0  0  0
  -21.4229  -29.3109   22.3804 N   0  0  0  0  0  0
  -26.4304  -37.3754   23.9409 N   0  0  0  0  0  0
  -24.6938  -31.0466   22.0981 N   0  0  0  0  0  0
  -23.4282  -28.7921   23.2827 O   0  0  0  0  0  0
  -28.3021  -26.3700   20.0561 O   0  0  0  0  0  0
  -26.5615  -34.8891   22.4661 O   0  0  0  0  0  0
  -23.5444  -32.1335   23.7263 O   0  0  0  0  0  0
  -29.9095  -19.8616   22.2529 C   0  0  0  0  0  0
  -30.3702  -17.4585   22.2560 C   0  0  0  0  0  0
  -29.5384  -18.5536   20.2440 C   0  0  0  0  0  0
  -30.2808  -18.6887   22.9443 C   0  0  0  0  0  0
  -29.5567  -19.8794   20.8754 C   0  0  0  0  0  0
  -29.9401  -17.3199   20.9194 C   0  0  0  0  0  0
  -29.1099  -22.4688   20.7929 C   0  0  0  0  0  0
  -30.5834  -18.7330   24.4241 C   0  0  0  0  0  0
  -28.3914  -22.7918   18.6013 C   0  0  0  0  0  0
  -29.1156  -21.4145   18.7891 C   0  0  0  0  0  0
  -28.8874  -23.6565   19.7872 C   0  0  1  0  0  0
  -28.0179  -24.9186   20.3369 C   0  0  0  0  0  0
  -29.2526  -21.2086   20.2307 N   0  0  0  0  0  0
  -29.9831  -19.6652   25.1607 N   0  0  0  0  0  0
  -29.7740  -15.9248   20.4185 N   0  0  0  0  0  0
  -29.1052  -22.7117   22.0003 O   0  0  0  0  0  0
  -31.2931  -17.8793   24.9505 O   0  0  0  0  0  0
  -31.4780  -12.6115   19.1825 H   0  0  0  0  0  0
  -30.3806  -11.5170   19.9896 H   0  0  0  0  0  0
  -29.8005  -11.7240   17.5374 H   0  0  0  0  0  0
  -29.5969  -13.4461   17.7264 H   0  0  0  0  0  0
  -27.9478  -11.2545   19.0049 H   0  0  0  0  0  0
  -27.3674  -12.3952   17.8320 H   0  0  0  0  0  0
  -27.5960  -14.2339   19.4059 H   0  0  0  0  0  0
  -28.7265  -12.2287   21.4485 H   0  0  0  0  0  0
  -28.4012  -13.9204   21.7552 H   0  0  0  0  0  0
  -25.2757   -9.5637   22.4725 H   0  0  0  0  0  0
  -24.0003   -7.4658   22.7471 H   0  0  0  0  0  0
  -21.0877   -8.8813   19.9003 H   0  0  0  0  0  0
  -22.3764  -10.9635   19.6230 H   0  0  0  0  0  0
  -21.1942   -7.6145   23.9695 H   0  0  0  0  0  0
  -21.1515   -6.0550   25.9058 H   0  0  0  0  0  0
  -22.0556   -2.7606   23.2874 H   0  0  0  0  0  0
  -22.4162  -11.9709   22.4797 H   0  0  0  0  0  0
  -21.1163  -13.1173   22.2762 H   0  0  0  0  0  0
  -24.6705  -15.8620   20.5541 H   0  0  0  0  0  0
  -26.2848  -15.6237   20.1164 H   0  0  0  0  0  0
  -26.7139  -32.5442   23.1099 H   0  0  0  0  0  0
  -25.0155  -33.9766   25.0438 H   0  0  0  0  0  0
  -22.7171  -31.2965   21.3895 H   0  0  0  0  0  0
  -23.3801  -35.9636   23.3287 H   0  0  0  0  0  0
  -24.3621  -36.8922   22.2036 H   0  0  0  0  0  0
  -23.7305  -37.6519   23.6645 H   0  0  0  0  0  0
  -26.1348  -31.5369   20.6377 H   0  0  0  0  0  0
  -26.8551  -30.7972   22.0302 H   0  0  0  0  0  0
  -28.1317  -28.8938   21.1935 H   0  0  0  0  0  0
  -25.9914  -25.9762   18.8629 H   0  0  0  0  0  0
  -23.9797  -27.3637   18.9360 H   0  0  0  0  0  0
  -23.7850  -30.5863   19.4076 H   0  0  0  0  0  0
  -22.7735  -29.2461   19.8426 H   0  0  0  0  0  0
  -25.1295  -36.1903   25.0836 H   0  0  0  0  0  0
  -20.9996  -28.3230   24.1375 H   0  0  0  0  0  0
  -20.6034  -26.2207   23.3332 H   0  0  0  0  0  0
  -21.6657  -26.7584   22.0825 H   0  0  0  0  0  0
  -19.6849  -25.6037   21.1476 H   0  0  0  0  0  0
  -19.6423  -27.2813   20.6610 H   0  0  0  0  0  0
  -17.4006  -26.6050   21.4687 H   0  0  0  0  0  0
  -18.0720  -26.0025   22.9548 H   0  0  0  0  0  0
  -19.7938  -30.7373   24.1873 H   0  0  0  0  0  0
  -17.5008  -31.6332   24.4810 H   0  0  0  0  0  0
  -15.5349  -30.2911   23.7549 H   0  0  0  0  0  0
  -15.8637  -28.0656   22.7292 H   0  0  0  0  0  0
  -24.5879  -30.7122   25.7863 H   0  0  0  0  0  0
  -24.8913  -32.2995   26.4804 H   0  0  0  0  0  0
  -25.8041  -30.9034   27.0297 H   0  0  0  0  0  0
  -26.2904  -29.6736   24.1248 H   0  0  0  0  0  0
  -27.3931  -29.7194   25.4782 H   0  0  0  0  0  0
  -27.8798  -30.4233   23.9553 H   0  0  0  0  0  0
  -27.2631  -33.3600   26.2098 H   0  0  0  0  0  0
  -28.3831  -32.6909   25.0338 H   0  0  0  0  0  0
  -28.0708  -31.8423   26.5401 H   0  0  0  0  0  0
  -28.2572  -38.0112   24.7452 H   0  0  0  0  0  0
  -28.1100  -36.2633   24.6327 H   0  0  0  0  0  0
  -27.2298  -37.1480   25.8857 H   0  0  0  0  0  0
  -20.9362  -29.9082   21.7313 H   0  0  0  0  0  0
  -26.0192  -38.2841   24.1395 H   0  0  0  0  0  0
  -29.9226  -20.7607   22.8411 H   0  0  0  0  0  0
  -30.6978  -16.5788   22.7899 H   0  0  0  0  0  0
  -29.1884  -18.4779   19.2239 H   0  0  0  0  0  0
  -27.3116  -22.6424   18.6618 H   0  0  0  0  0  0
  -28.6014  -23.2342   17.6222 H   0  0  0  0  0  0
  -30.1209  -21.4735   18.3716 H   0  0  0  0  0  0
  -28.6164  -20.5778   18.3007 H   0  0  0  0  0  0
  -29.8753  -24.0310   19.5171 H   0  0  0  0  0  0
  -28.1249  -24.8916   21.4222 H   0  0  0  0  0  0
  -26.9649  -24.6811   20.1975 H   0  0  0  0  0  0
  -29.3894  -20.3768   24.7515 H   0  0  0  0  0  0
  -30.1072  -19.6436   26.1626 H   0  0  0  0  0  0
  -28.8234  -15.7036   20.1675 H   0  0  0  0  0  0
  1 25  1  0  0  0
  1 30  2  0  0  0
  1 85  1  0  0  0
  2  3  1  0  0  0
  2 25  1  0  0  0
  2 88  1  0  0  0
  2 89  1  0  0  0
  3  4  1  0  0  0
  3 90  1  0  0  0
  3 91  1  0  0  0
  4  5  1  0  0  0
  4 92  1  0  0  0
  4 93  1  0  0  0
  5  6  1  0  0  0
  5 26  1  0  0  0
  5 94  1  0  0  0
  6 25  1  0  0  0
  6 95  1  0  0  0
  6 96  1  0  0  0
  7  8  2  0  0  0
  7 26  1  0  0  0
  7 29  1  0  0  0
  8  9  1  0  0  0
  8 22  1  0  0  0
  9 10  1  0  0  0
  9 27  2  0  0  0
 10 11  2  0  0  0
 10 15  1  0  0  0
 11 12  1  0  0  0
 11 97  1  0  0  0
 12 13  2  0  0  0
 12 98  1  0  0  0
 13 14  1  0  0  0
 13 31  1  0  0  0
 14 15  2  0  0  0
 14 99  1  0  0  0
 15100  1  0  0  0
 16 17  2  0  0  0
 16 21  1  0  0  0
 16 31  1  0  0  0
 17 18  1  0  0  0
 17101  1  0  0  0
 18 19  2  0  0  0
 18102  1  0  0  0
 19 20  1  0  0  0
 19 24  1  0  0  0
 20 21  2  0  0  0
 20103  1  0  0  0
 21 23  1  0  0  0
 22 28  1  0  0  0
 22 32  2  0  0  0
 26 27  1  0  0  0
 28104  1  0  0  0
 28105  1  0  0  0
 29106  1  0  0  0
 29107  1  0  0  0
 33 34  1  0  0  0
 33 66  1  0  0  0
 33 70  2  0  0  0
 34 36  1  0  0  0
 34 59  1  0  0  0
 34108  1  0  0  0
 35 44  2  0  0  0
 35 45  1  0  0  0
 35 68  1  0  0  0
 36 56  1  0  0  0
 36109  1  0  0  0
 37 39  1  0  0  0
 37 47  1  0  0  0
 37 66  1  0  0  0
 37110  1  0  0  0
 38 43  2  0  0  0
 38 46  1  0  0  0
 38 47  1  0  0  0
 39 64  1  0  0  0
 39 67  2  0  0  0
 40 52  1  0  0  0
 40 53  2  0  0  0
 40 58  1  0  0  0
 41111  1  0  0  0
 41112  1  0  0  0
 41113  1  0  0  0
 41 48  1  0  0  0
 42 43  1  0  0  0
 42 66  1  0  0  0
 42114  1  0  0  0
 42115  1  0  0  0
 43 44  1  0  0  0
 44116  1  0  0  0
 45 46  2  0  0  0
 45117  1  0  0  0
 46118  1  0  0  0
 47119  1  0  0  0
 47120  1  0  0  0
 48 56  1  0  0  0
 48 65  1  0  0  0
 48121  1  0  0  0
 49 50  1  0  0  0
 49 53  1  0  0  0
 49 64  1  0  0  0
 49122  1  0  0  0
 50 51  1  0  0  0
 50123  1  0  0  0
 50124  1  0  0  0
 51 52  1  0  0  0
 51125  1  0  0  0
 51126  1  0  0  0
 52127  1  0  0  0
 52128  1  0  0  0
 53 54  1  0  0  0
 54 55  2  0  0  0
 54129  1  0  0  0
 55 57  1  0  0  0
 55130  1  0  0  0
 56 69  2  0  0  0
 57 58  2  0  0  0
 57131  1  0  0  0
 58132  1  0  0  0
 59 60  1  0  0  0
 59 61  1  0  0  0
 59 62  1  0  0  0
 60133  1  0  0  0
 60134  1  0  0  0
 60135  1  0  0  0
 61136  1  0  0  0
 61137  1  0  0  0
 61138  1  0  0  0
 62139  1  0  0  0
 62140  1  0  0  0
 62141  1  0  0  0
 63 65  1  0  0  0
 63142  1  0  0  0
 63143  1  0  0  0
 63144  1  0  0  0
 64145  1  0  0  0
 65146  1  0  0  0
 68 82  1  0  0  0
 71 74  2  0  0  0
 71 75  1  0  0  0
 71147  1  0  0  0
 72 74  1  0  0  0
 72 76  2  0  0  0
 72148  1  0  0  0
 73 75  2  0  0  0
 73 76  1  0  0  0
 73149  1  0  0  0
 74 78  1  0  0  0
 75 83  1  0  0  0
 76 85  1  0  0  0
 77 81  1  0  0  0
 77 83  1  0  0  0
 77 86  2  0  0  0
 78 84  1  0  0  0
 78 87  2  0  0  0
 79 80  1  0  0  0
 79 81  1  0  0  0
 79150  1  0  0  0
 79151  1  0  0  0
 80 83  1  0  0  0
 80152  1  0  0  0
 80153  1  0  0  0
 81 82  1  0  0  0
 81154  1  0  0  0
 82155  1  0  0  0
 82156  1  0  0  0
 84157  1  0  0  0
 84158  1  0  0  0
 85159  1  0  0  0
M  ISO  4   1 100  68 101  82 101  85 100
M  END
> <chiral flag>
0

> <version>
0

> <s_m_source_file>
/data/baiqing/PycharmProjects/Reinvent-master-3.2/result/LINK_invent/BTK/process_docking_weight1_custom_product_contain_oxygen_bond_distance_aromatic_linkinvent_7_9_3/rearranged_h_0069.sdf

> <i_m_source_file_index>
40

> <r_mmod_Potential_Energy-OPLS-2005>
168.128128051758

> <r_mmod_Stretch_Energy-OPLS-2005>
129.839416503906

> <r_mmod_Bend_Energy-OPLS-2005>
214.428634643555

> <r_mmod_Torsional_Energy-OPLS-2005>
308.691253662109

> <r_mmod_Improper_Torsional_Energy-OPLS-2005>
10.9631090164185

> <r_mmod_Van_der_Waal_Energy-OPLS-2005>
152.260391235352

> <r_mmod_Electrostatic_Energy-OPLS-2005>
-491.411651611328

> <r_mmod_Solvation_Energy-OPLS-2005>
-259.076843261719

> <b_mmod_Minimization_Converged-OPLS-2005>
0

> <r_mmod_RMS_Derivative-OPLS-2005>
10.8715438842773

$$$$
41
                    3D
 Structure written by MMmdl.
169178  0  0  1  0            999 V2000
  -30.6558  -14.6378   20.4459 C   0  0  0  0  0  0
  -30.4198  -12.3804   19.4701 C   0  0  0  0  0  0
  -29.5062  -12.4932   18.2310 C   0  0  0  0  0  0
  -28.0282  -12.3414   18.6380 C   0  0  0  0  0  0
  -27.6456  -13.2284   19.8540 C   0  0  2  0  0  0
  -28.6876  -13.1295   20.9906 C   0  0  0  0  0  0
  -25.2524  -13.8204   20.5685 C   0  0  0  0  0  0
  -24.1809  -13.0449   20.9196 C   0  0  0  0  0  0
  -24.6391  -11.6925   20.8736 C   0  0  0  0  0  0
  -23.9066  -10.4295   21.0401 C   0  0  0  0  0  0
  -24.3616   -9.4211   21.9180 C   0  0  0  0  0  0
  -23.6290   -8.2248   22.0752 C   0  0  0  0  0  0
  -22.4274   -8.0280   21.3542 C   0  0  0  0  0  0
  -21.9906   -9.0256   20.4644 C   0  0  0  0  0  0
  -22.7237  -10.2135   20.3052 C   0  0  0  0  0  0
  -21.6854   -6.0732   22.5276 C   0  0  0  0  0  0
  -21.4016   -6.5638   23.8210 C   0  0  0  0  0  0
  -21.3659   -5.6787   24.9172 C   0  0  0  0  0  0
  -21.6047   -4.3050   24.7223 C   0  0  0  0  0  0
  -21.8820   -3.8143   23.4344 C   0  0  0  0  0  0
  -21.9193   -4.6959   22.3398 C   0  0  0  0  0  0
  -22.7827  -13.5231   21.1859 C   0  0  0  0  0  0
  -22.1664   -4.2144   21.0978 F   0  0  0  0  0  0
  -21.5624   -3.4534   25.7737 F   0  0  0  0  0  0
  -30.0037  -13.4346   20.4179 N   0  0  0  0  0  0
  -26.2950  -12.9406   20.3280 N   0  0  0  0  0  0
  -25.9321  -11.6549   20.5744 N   0  0  0  0  0  0
  -22.0473  -12.8222   22.0414 N   0  0  0  0  0  0
  -25.4222  -15.1929   20.4112 N   0  0  0  0  0  0
  -31.8532  -14.7063   20.1563 O   0  0  0  0  0  0
  -21.6642   -6.8877   21.4236 O   0  0  0  0  0  0
  -22.3510  -14.5535   20.6704 O   0  0  0  0  0  0
  -24.6249  -31.8603   23.2033 C   0  0  0  0  0  0
  -25.9100  -32.4782   23.8361 C   0  0  1  0  0  0
  -27.2196  -27.3310   20.1223 C   0  0  0  0  0  0
  -25.5919  -33.8582   24.2288 N   0  0  0  0  0  0
  -23.4187  -30.4837   21.5452 C   0  0  2  0  0  0
  -24.8657  -28.9401   20.1112 C   0  0  0  0  0  0
  -22.7472  -29.4620   22.4938 C   0  0  0  0  0  0
  -18.0288  -28.1384   22.8486 C   0  0  0  0  0  0
  -24.1489  -36.7298   23.2640 C   0  0  0  0  0  0
  -25.9584  -30.7958   21.3723 C   0  0  0  0  0  0
  -26.0340  -29.4236   20.7161 C   0  0  0  0  0  0
  -27.2184  -28.6303   20.7112 C   0  0  0  0  0  0
  -26.0363  -26.8989   19.4877 C   0  0  0  0  0  0
  -24.8677  -27.6824   19.4874 C   0  0  0  0  0  0
  -23.6332  -29.8188   20.1602 C   0  0  0  0  0  0
  -25.4112  -36.3086   24.0331 C   0  0  1  0  0  0
  -20.5887  -28.3684   23.1285 C   0  0  2  0  0  0
  -20.6775  -26.9408   22.5409 C   0  0  0  0  0  0
  -19.5751  -26.6382   21.5211 C   0  0  0  0  0  0
  -18.1932  -26.7926   22.1625 C   0  0  0  0  0  0
  -19.1540  -28.8851   23.2882 C   0  0  0  0  0  0
  -18.9462  -30.1453   23.8899 C   0  0  0  0  0  0
  -17.6463  -30.6583   24.0565 C   0  0  0  0  0  0
  -25.9045  -34.9452   23.5110 C   0  0  0  0  0  0
  -16.5355  -29.9084   23.6327 C   0  0  0  0  0  0
  -16.7276  -28.6502   23.0347 C   0  0  0  0  0  0
  -26.4489  -31.6587   25.0725 C   0  0  0  0  0  0
  -25.3729  -31.3723   26.1458 C   0  0  0  0  0  0
  -27.0329  -30.3013   24.6166 C   0  0  0  0  0  0
  -27.6052  -32.4318   25.7493 C   0  0  0  0  0  0
  -27.5575  -37.1811   24.8468 C   0  0  0  0  0  0
  -21.4187  -29.3038   22.3679 N   0  0  0  0  0  0
  -26.4295  -37.3774   23.9400 N   0  0  0  0  0  0
  -24.6862  -31.0626   22.0977 N   0  0  0  0  0  0
  -23.4199  -28.8160   23.3013 O   0  0  0  0  0  0
  -28.3194  -26.4689   20.1449 O   0  0  0  0  0  0
  -26.5612  -34.8916   22.4675 O   0  0  0  0  0  0
  -23.5415  -32.1393   23.7368 O   0  0  0  0  0  0
  -30.4419  -19.3687   18.2224 C   0  0  0  0  0  0
  -30.7033  -16.9748   18.5688 C   0  0  0  0  0  0
  -29.6231  -18.3531   20.2704 C   0  0  0  0  0  0
  -30.8881  -18.1146   17.7760 C   0  0  0  0  0  0
  -29.7874  -19.5549   19.4705 C   0  0  0  0  0  0
  -30.0895  -17.0463   19.8405 C   0  0  0  0  0  0
  -29.0922  -21.3914   21.1089 C   0  0  0  0  0  0
  -28.9500  -22.7064   21.4640 C   0  0  0  0  0  0
  -28.6781  -23.2674   19.0778 C   0  0  0  0  0  0
  -29.4122  -21.9269   18.7586 C   0  0  0  0  0  0
  -29.0356  -23.8971   20.4498 C   0  0  2  0  0  0
  -31.5646  -17.9869   16.4243 C   0  0  0  0  0  0
  -30.4876  -24.4138   20.4457 C   0  0  0  0  0  0
  -27.2740  -23.0975   23.3474 C   0  0  0  0  0  0
  -28.7538  -23.0445   22.9358 C   0  0  0  0  0  0
  -28.0870  -25.1507   20.7731 C   0  0  0  0  0  0
  -29.3488  -20.8961   19.8242 N   0  0  0  0  0  0
  -29.9065  -15.7862   20.5792 N   0  0  0  0  0  0
  -31.4669  -12.4698   19.1747 H   0  0  0  0  0  0
  -30.3257  -11.3968   19.9330 H   0  0  0  0  0  0
  -29.7700  -11.7321   17.4957 H   0  0  0  0  0  0
  -29.6584  -13.4573   17.7428 H   0  0  0  0  0  0
  -27.8625  -11.2910   18.8799 H   0  0  0  0  0  0
  -27.3789  -12.5627   17.7900 H   0  0  0  0  0  0
  -27.6515  -14.2561   19.4907 H   0  0  0  0  0  0
  -28.6898  -12.1308   21.4291 H   0  0  0  0  0  0
  -28.4434  -13.8180   21.8010 H   0  0  0  0  0  0
  -25.2762   -9.5683   22.4758 H   0  0  0  0  0  0
  -23.9995   -7.4638   22.7472 H   0  0  0  0  0  0
  -21.0836   -8.8777   19.8951 H   0  0  0  0  0  0
  -22.3696  -10.9674   19.6160 H   0  0  0  0  0  0
  -21.2015   -7.6145   23.9714 H   0  0  0  0  0  0
  -21.1479   -6.0518   25.9075 H   0  0  0  0  0  0
  -22.0600   -2.7602   23.2851 H   0  0  0  0  0  0
  -22.4086  -11.9887   22.4808 H   0  0  0  0  0  0
  -21.1087  -13.1244   22.2619 H   0  0  0  0  0  0
  -24.6541  -15.8467   20.5213 H   0  0  0  0  0  0
  -26.2688  -15.6311   20.0708 H   0  0  0  0  0  0
  -26.7170  -32.5461   23.1115 H   0  0  0  0  0  0
  -25.0066  -33.9728   25.0432 H   0  0  0  0  0  0
  -22.7118  -31.3036   21.4027 H   0  0  0  0  0  0
  -23.3738  -35.9647   23.3327 H   0  0  0  0  0  0
  -24.3576  -36.8889   22.2049 H   0  0  0  0  0  0
  -23.7262  -37.6517   23.6644 H   0  0  0  0  0  0
  -26.0870  -31.5594   20.6039 H   0  0  0  0  0  0
  -26.8401  -30.8462   21.9998 H   0  0  0  0  0  0
  -28.1165  -28.9940   21.1908 H   0  0  0  0  0  0
  -26.0080  -25.9360   18.9974 H   0  0  0  0  0  0
  -23.9739  -27.3084   19.0070 H   0  0  0  0  0  0
  -23.7517  -30.5954   19.4037 H   0  0  0  0  0  0
  -22.7537  -29.2474   19.8578 H   0  0  0  0  0  0
  -25.1295  -36.1946   25.0825 H   0  0  0  0  0  0
  -20.9982  -28.3260   24.1404 H   0  0  0  0  0  0
  -20.5675  -26.2294   23.3607 H   0  0  0  0  0  0
  -21.6645  -26.7435   22.1207 H   0  0  0  0  0  0
  -19.6912  -25.6295   21.1235 H   0  0  0  0  0  0
  -19.6686  -27.3195   20.6744 H   0  0  0  0  0  0
  -17.4199  -26.6671   21.4031 H   0  0  0  0  0  0
  -18.0335  -26.0070   22.9023 H   0  0  0  0  0  0
  -19.7938  -30.7269   24.2269 H   0  0  0  0  0  0
  -17.5016  -31.6262   24.5170 H   0  0  0  0  0  0
  -15.5355  -30.2987   23.7647 H   0  0  0  0  0  0
  -15.8677  -28.0824   22.7057 H   0  0  0  0  0  0
  -24.5900  -30.7073   25.7792 H   0  0  0  0  0  0
  -24.8926  -32.2891   26.4888 H   0  0  0  0  0  0
  -25.8061  -30.8900   27.0229 H   0  0  0  0  0  0
  -26.2901  -29.6767   24.1190 H   0  0  0  0  0  0
  -27.4034  -29.7262   25.4662 H   0  0  0  0  0  0
  -27.8767  -30.4304   23.9383 H   0  0  0  0  0  0
  -27.2664  -33.3613   26.2082 H   0  0  0  0  0  0
  -28.3858  -32.6886   25.0319 H   0  0  0  0  0  0
  -28.0725  -31.8437   26.5402 H   0  0  0  0  0  0
  -28.2615  -38.0085   24.7478 H   0  0  0  0  0  0
  -28.1049  -36.2616   24.6341 H   0  0  0  0  0  0
  -27.2290  -37.1515   25.8871 H   0  0  0  0  0  0
  -20.9361  -29.8766   21.6898 H   0  0  0  0  0  0
  -26.0180  -38.2856   24.1378 H   0  0  0  0  0  0
  -30.6371  -20.1906   17.5521 H   0  0  0  0  0  0
  -31.0401  -16.0301   18.1658 H   0  0  0  0  0  0
  -29.1252  -18.4300   21.2251 H   0  0  0  0  0  0
  -29.0375  -20.6176   21.8622 H   0  0  0  0  0  0
  -27.6049  -23.0724   19.0549 H   0  0  0  0  0  0
  -28.8595  -23.9857   18.2771 H   0  0  0  0  0  0
  -30.4600  -22.1459   18.5477 H   0  0  0  0  0  0
  -28.9768  -21.5325   17.8392 H   0  0  0  0  0  0
  -32.0718  -18.9114   16.1460 H   0  0  0  0  0  0
  -30.8298  -17.7552   15.6527 H   0  0  0  0  0  0
  -32.3100  -17.1909   16.4344 H   0  0  0  0  0  0
  -31.2040  -23.6106   20.2709 H   0  0  0  0  0  0
  -30.7445  -24.8750   21.3997 H   0  0  0  0  0  0
  -30.6397  -25.1645   19.6697 H   0  0  0  0  0  0
  -27.1785  -23.2804   24.4180 H   0  0  0  0  0  0
  -26.7734  -22.1533   23.1302 H   0  0  0  0  0  0
  -26.7247  -23.8845   22.8331 H   0  0  0  0  0  0
  -29.2685  -23.9729   23.1835 H   0  0  0  0  0  0
  -29.2484  -22.2780   23.5346 H   0  0  0  0  0  0
  -28.1678  -25.3837   21.8330 H   0  0  0  0  0  0
  -27.0560  -24.8225   20.6443 H   0  0  0  0  0  0
  -29.0157  -15.6714   21.0388 H   0  0  0  0  0  0
  1 25  1  0  0  0
  1 30  2  0  0  0
  1 88  1  0  0  0
  2  3  1  0  0  0
  2 25  1  0  0  0
  2 89  1  0  0  0
  2 90  1  0  0  0
  3  4  1  0  0  0
  3 91  1  0  0  0
  3 92  1  0  0  0
  4  5  1  0  0  0
  4 93  1  0  0  0
  4 94  1  0  0  0
  5  6  1  0  0  0
  5 26  1  0  0  0
  5 95  1  0  0  0
  6 25  1  0  0  0
  6 96  1  0  0  0
  6 97  1  0  0  0
  7  8  2  0  0  0
  7 26  1  0  0  0
  7 29  1  0  0  0
  8  9  1  0  0  0
  8 22  1  0  0  0
  9 10  1  0  0  0
  9 27  2  0  0  0
 10 11  2  0  0  0
 10 15  1  0  0  0
 11 12  1  0  0  0
 11 98  1  0  0  0
 12 13  2  0  0  0
 12 99  1  0  0  0
 13 14  1  0  0  0
 13 31  1  0  0  0
 14 15  2  0  0  0
 14100  1  0  0  0
 15101  1  0  0  0
 16 17  2  0  0  0
 16 21  1  0  0  0
 16 31  1  0  0  0
 17 18  1  0  0  0
 17102  1  0  0  0
 18 19  2  0  0  0
 18103  1  0  0  0
 19 20  1  0  0  0
 19 24  1  0  0  0
 20 21  2  0  0  0
 20104  1  0  0  0
 21 23  1  0  0  0
 22 28  1  0  0  0
 22 32  2  0  0  0
 26 27  1  0  0  0
 28105  1  0  0  0
 28106  1  0  0  0
 29107  1  0  0  0
 29108  1  0  0  0
 33 34  1  0  0  0
 33 66  1  0  0  0
 33 70  2  0  0  0
 34 36  1  0  0  0
 34 59  1  0  0  0
 34109  1  0  0  0
 35 44  2  0  0  0
 35 45  1  0  0  0
 35 68  1  0  0  0
 36 56  1  0  0  0
 36110  1  0  0  0
 37 39  1  0  0  0
 37 47  1  0  0  0
 37 66  1  0  0  0
 37111  1  0  0  0
 38 43  2  0  0  0
 38 46  1  0  0  0
 38 47  1  0  0  0
 39 64  1  0  0  0
 39 67  2  0  0  0
 40 52  1  0  0  0
 40 53  2  0  0  0
 40 58  1  0  0  0
 41112  1  0  0  0
 41113  1  0  0  0
 41114  1  0  0  0
 41 48  1  0  0  0
 42 43  1  0  0  0
 42 66  1  0  0  0
 42115  1  0  0  0
 42116  1  0  0  0
 43 44  1  0  0  0
 44117  1  0  0  0
 45 46  2  0  0  0
 45118  1  0  0  0
 46119  1  0  0  0
 47120  1  0  0  0
 47121  1  0  0  0
 48 56  1  0  0  0
 48 65  1  0  0  0
 48122  1  0  0  0
 49 50  1  0  0  0
 49 53  1  0  0  0
 49 64  1  0  0  0
 49123  1  0  0  0
 50 51  1  0  0  0
 50124  1  0  0  0
 50125  1  0  0  0
 51 52  1  0  0  0
 51126  1  0  0  0
 51127  1  0  0  0
 52128  1  0  0  0
 52129  1  0  0  0
 53 54  1  0  0  0
 54 55  2  0  0  0
 54130  1  0  0  0
 55 57  1  0  0  0
 55131  1  0  0  0
 56 69  2  0  0  0
 57 58  2  0  0  0
 57132  1  0  0  0
 58133  1  0  0  0
 59 60  1  0  0  0
 59 61  1  0  0  0
 59 62  1  0  0  0
 60134  1  0  0  0
 60135  1  0  0  0
 60136  1  0  0  0
 61137  1  0  0  0
 61138  1  0  0  0
 61139  1  0  0  0
 62140  1  0  0  0
 62141  1  0  0  0
 62142  1  0  0  0
 63 65  1  0  0  0
 63143  1  0  0  0
 63144  1  0  0  0
 63145  1  0  0  0
 64146  1  0  0  0
 65147  1  0  0  0
 68 86  1  0  0  0
 71 74  2  0  0  0
 71 75  1  0  0  0
 71148  1  0  0  0
 72 74  1  0  0  0
 72 76  2  0  0  0
 72149  1  0  0  0
 73 75  2  0  0  0
 73 76  1  0  0  0
 73150  1  0  0  0
 74 82  1  0  0  0
 75 87  1  0  0  0
 76 88  1  0  0  0
 77 78  2  0  0  0
 77 87  1  0  0  0
 77151  1  0  0  0
 78 81  1  0  0  0
 78 85  1  0  0  0
 79 80  1  0  0  0
 79 81  1  0  0  0
 79152  1  0  0  0
 79153  1  0  0  0
 80 87  1  0  0  0
 80154  1  0  0  0
 80155  1  0  0  0
 81 83  1  0  0  0
 81 86  1  0  0  0
 82156  1  0  0  0
 82157  1  0  0  0
 82158  1  0  0  0
 83159  1  0  0  0
 83160  1  0  0  0
 83161  1  0  0  0
 84 85  1  0  0  0
 84162  1  0  0  0
 84163  1  0  0  0
 84164  1  0  0  0
 85165  1  0  0  0
 85166  1  0  0  0
 86167  1  0  0  0
 86168  1  0  0  0
 88169  1  0  0  0
M  ISO  4   1 100  68 101  86 101  88 100
M  END
> <chiral flag>
0

> <version>
0

> <s_m_source_file>
/data/baiqing/PycharmProjects/Reinvent-master-3.2/result/LINK_invent/BTK/process_docking_weight1_custom_product_contain_oxygen_bond_distance_aromatic_linkinvent_7_9_3/rearranged_h_0069.sdf

> <i_m_source_file_index>
41

> <r_mmod_Potential_Energy-OPLS-2005>
180.687774658203

> <r_mmod_Stretch_Energy-OPLS-2005>
90.1661148071289

> <r_mmod_Bend_Energy-OPLS-2005>
142.361312866211

> <r_mmod_Torsional_Energy-OPLS-2005>
276.931823730469

> <r_mmod_Improper_Torsional_Energy-OPLS-2005>
6.30409526824951

> <r_mmod_Van_der_Waal_Energy-OPLS-2005>
166.563339233398

> <r_mmod_Electrostatic_Energy-OPLS-2005>
-352.553924560547

> <r_mmod_Solvation_Energy-OPLS-2005>
-199.924987792969

> <b_mmod_Minimization_Converged-OPLS-2005>
0

> <r_mmod_RMS_Derivative-OPLS-2005>
0.698570370674133

$$$$
42
                    3D
 Structure written by MMmdl.
169178  0  0  1  0            999 V2000
  -30.5666  -14.7851   20.4232 C   0  0  0  0  0  0
  -30.4454  -12.4782   19.4399 C   0  0  0  0  0  0
  -29.5022  -12.4915   18.2146 C   0  0  0  0  0  0
  -28.0321  -12.3063   18.6411 C   0  0  0  0  0  0
  -27.6365  -13.2169   19.8332 C   0  0  2  0  0  0
  -28.6947  -13.1734   20.9562 C   0  0  0  0  0  0
  -25.2548  -13.8149   20.5660 C   0  0  0  0  0  0
  -24.1832  -13.0458   20.9199 C   0  0  0  0  0  0
  -24.6390  -11.6920   20.8723 C   0  0  0  0  0  0
  -23.9063  -10.4317   21.0393 C   0  0  0  0  0  0
  -24.3619   -9.4246   21.9179 C   0  0  0  0  0  0
  -23.6308   -8.2275   22.0747 C   0  0  0  0  0  0
  -22.4294   -8.0295   21.3532 C   0  0  0  0  0  0
  -21.9927   -9.0268   20.4633 C   0  0  0  0  0  0
  -22.7235  -10.2157   20.3052 C   0  0  0  0  0  0
  -21.6870   -6.0742   22.5266 C   0  0  0  0  0  0
  -21.4014   -6.5642   23.8195 C   0  0  0  0  0  0
  -21.3653   -5.6792   24.9152 C   0  0  0  0  0  0
  -21.6042   -4.3056   24.7204 C   0  0  0  0  0  0
  -21.8832   -3.8154   23.4329 C   0  0  0  0  0  0
  -21.9201   -4.6972   22.3389 C   0  0  0  0  0  0
  -22.7863  -13.5269   21.1852 C   0  0  0  0  0  0
  -22.1665   -4.2163   21.0966 F   0  0  0  0  0  0
  -21.5640   -3.4534   25.7713 F   0  0  0  0  0  0
  -29.9777  -13.5428   20.3500 N   0  0  0  0  0  0
  -26.2930  -12.9320   20.3200 N   0  0  0  0  0  0
  -25.9308  -11.6501   20.5710 N   0  0  0  0  0  0
  -22.0495  -12.8262   22.0379 N   0  0  0  0  0  0
  -25.4300  -15.1869   20.4053 N   0  0  0  0  0  0
  -31.7886  -14.9014   20.3012 O   0  0  0  0  0  0
  -21.6654   -6.8897   21.4236 O   0  0  0  0  0  0
  -22.3552  -14.5587   20.6715 O   0  0  0  0  0  0
  -24.6307  -31.8519   23.1938 C   0  0  0  0  0  0
  -25.9123  -32.4741   23.8302 C   0  0  1  0  0  0
  -27.2272  -27.2273   20.1252 C   0  0  0  0  0  0
  -25.5904  -33.8545   24.2222 N   0  0  0  0  0  0
  -23.4324  -30.4728   21.5334 C   0  0  2  0  0  0
  -24.8866  -28.9123   20.0992 C   0  0  0  0  0  0
  -22.7500  -29.4577   22.4834 C   0  0  0  0  0  0
  -18.0294  -28.1358   22.8488 C   0  0  0  0  0  0
  -24.1495  -36.7299   23.2649 C   0  0  0  0  0  0
  -25.9800  -30.7497   21.3847 C   0  0  0  0  0  0
  -26.0520  -29.3688   20.7253 C   0  0  0  0  0  0
  -27.2172  -28.5314   20.7402 C   0  0  0  0  0  0
  -26.0408  -26.8456   19.4649 C   0  0  0  0  0  0
  -24.8855  -27.6606   19.4602 C   0  0  0  0  0  0
  -23.6590  -29.8085   20.1463 C   0  0  0  0  0  0
  -25.4118  -36.3064   24.0319 C   0  0  1  0  0  0
  -20.5911  -28.3689   23.1271 C   0  0  2  0  0  0
  -20.6760  -26.9384   22.5449 C   0  0  0  0  0  0
  -19.5765  -26.6423   21.5228 C   0  0  0  0  0  0
  -18.1963  -26.7871   22.1689 C   0  0  0  0  0  0
  -19.1558  -28.8824   23.2889 C   0  0  0  0  0  0
  -18.9466  -30.1409   23.8892 C   0  0  0  0  0  0
  -17.6475  -30.6574   24.0504 C   0  0  0  0  0  0
  -25.9049  -34.9432   23.5076 C   0  0  0  0  0  0
  -16.5382  -29.9100   23.6198 C   0  0  0  0  0  0
  -16.7300  -28.6509   23.0251 C   0  0  0  0  0  0
  -26.4489  -31.6608   25.0729 C   0  0  0  0  0  0
  -25.3726  -31.3758   26.1466 C   0  0  0  0  0  0
  -27.0351  -30.3015   24.6274 C   0  0  0  0  0  0
  -27.6026  -32.4373   25.7512 C   0  0  0  0  0  0
  -27.5566  -37.1801   24.8446 C   0  0  0  0  0  0
  -21.4206  -29.2996   22.3580 N   0  0  0  0  0  0
  -26.4286  -37.3757   23.9396 N   0  0  0  0  0  0
  -24.6999  -31.0435   22.0935 N   0  0  0  0  0  0
  -23.4205  -28.8162   23.2980 O   0  0  0  0  0  0
  -28.3019  -26.3053   20.2603 O   0  0  0  0  0  0
  -26.5639  -34.8905   22.4653 O   0  0  0  0  0  0
  -23.5438  -32.1363   23.7210 O   0  0  0  0  0  0
  -28.3246  -19.4967   22.0550 C   0  0  0  0  0  0
  -28.9531  -17.1260   22.0788 C   0  0  0  0  0  0
  -29.4198  -18.5034   20.1258 C   0  0  0  0  0  0
  -28.2921  -18.2234   22.6777 C   0  0  0  0  0  0
  -28.8562  -19.7033   20.7577 C   0  0  0  0  0  0
  -29.4958  -17.1940   20.7846 C   0  0  0  0  0  0
  -27.2481  -21.3819   19.8405 C   0  0  0  0  0  0
  -25.9099  -18.2672   23.6009 C   0  0  0  0  0  0
  -27.0236  -22.9037   19.6603 C   0  0  0  0  0  0
  -29.2492  -22.3868   20.2262 C   0  0  0  0  0  0
  -28.4148  -23.4836   19.3696 C   0  0  1  0  0  0
  -24.9250  -18.2285   24.7592 C   0  0  0  0  0  0
  -28.7500  -23.1487   17.8808 C   0  0  0  0  0  0
  -27.5477  -16.6254   24.5774 C   0  0  0  0  0  0
  -28.5793  -25.1478   19.3371 C   0  0  0  0  0  0
  -27.4081  -18.0221   23.9253 C   0  0  1  0  0  0
  -28.5304  -21.0414   20.1337 N   0  0  0  0  0  0
  -29.7253  -15.8633   20.1574 N   0  0  0  0  0  0
  -26.3207  -20.5831   19.6781 O   0  0  0  0  0  0
  -25.4895  -18.4565   22.4561 O   0  0  0  0  0  0
  -27.8034  -18.9081   24.8420 F   0  0  0  0  0  0
  -31.4762  -12.6393   19.1209 H   0  0  0  0  0  0
  -30.4176  -11.5086   19.9399 H   0  0  0  0  0  0
  -29.7882  -11.7013   17.5179 H   0  0  0  0  0  0
  -29.6052  -13.4304   17.6692 H   0  0  0  0  0  0
  -27.8991  -11.2592   18.9187 H   0  0  0  0  0  0
  -27.3684  -12.4916   17.7952 H   0  0  0  0  0  0
  -27.6195  -14.2260   19.4265 H   0  0  0  0  0  0
  -28.7508  -12.1838   21.4126 H   0  0  0  0  0  0
  -28.4310  -13.8710   21.7516 H   0  0  0  0  0  0
  -25.2772   -9.5747   22.4736 H   0  0  0  0  0  0
  -24.0017   -7.4691   22.7499 H   0  0  0  0  0  0
  -21.0853   -8.8817   19.8940 H   0  0  0  0  0  0
  -22.3708  -10.9700   19.6165 H   0  0  0  0  0  0
  -21.1994   -7.6149   23.9698 H   0  0  0  0  0  0
  -21.1451   -6.0511   25.9049 H   0  0  0  0  0  0
  -22.0617   -2.7623   23.2812 H   0  0  0  0  0  0
  -22.4123  -11.9917   22.4762 H   0  0  0  0  0  0
  -21.1068  -13.1221   22.2477 H   0  0  0  0  0  0
  -24.6913  -15.8565   20.5847 H   0  0  0  0  0  0
  -26.2761  -15.6234   20.0652 H   0  0  0  0  0  0
  -26.7203  -32.5391   23.1050 H   0  0  0  0  0  0
  -25.0001  -33.9691   25.0333 H   0  0  0  0  0  0
  -22.7318  -31.2968   21.3820 H   0  0  0  0  0  0
  -23.3738  -35.9647   23.3298 H   0  0  0  0  0  0
  -24.3573  -36.8942   22.2063 H   0  0  0  0  0  0
  -23.7273  -37.6499   23.6697 H   0  0  0  0  0  0
  -26.1273  -31.5125   20.6185 H   0  0  0  0  0  0
  -26.8517  -30.8000   22.0259 H   0  0  0  0  0  0
  -28.1002  -28.8601   21.2709 H   0  0  0  0  0  0
  -25.9736  -25.8751   18.9935 H   0  0  0  0  0  0
  -23.9941  -27.3093   18.9603 H   0  0  0  0  0  0
  -23.7961  -30.5879   19.3939 H   0  0  0  0  0  0
  -22.7772  -29.2499   19.8292 H   0  0  0  0  0  0
  -25.1306  -36.1889   25.0807 H   0  0  0  0  0  0
  -21.0028  -28.3296   24.1389 H   0  0  0  0  0  0
  -20.5568  -26.2339   23.3684 H   0  0  0  0  0  0
  -21.6631  -26.7344   22.1274 H   0  0  0  0  0  0
  -19.6956  -25.6372   21.1164 H   0  0  0  0  0  0
  -19.6664  -27.3361   20.6859 H   0  0  0  0  0  0
  -17.4178  -26.6491   21.4160 H   0  0  0  0  0  0
  -18.0513  -26.0047   22.9169 H   0  0  0  0  0  0
  -19.7939  -30.7235   24.2283 H   0  0  0  0  0  0
  -17.4975  -31.6238   24.5121 H   0  0  0  0  0  0
  -15.5376  -30.3035   23.7421 H   0  0  0  0  0  0
  -15.8703  -28.0909   22.6841 H   0  0  0  0  0  0
  -24.5899  -30.7110   25.7801 H   0  0  0  0  0  0
  -24.8936  -32.2935   26.4887 H   0  0  0  0  0  0
  -25.8062  -30.8941   27.0247 H   0  0  0  0  0  0
  -26.2953  -29.6754   24.1285 H   0  0  0  0  0  0
  -27.3989  -29.7289   25.4819 H   0  0  0  0  0  0
  -27.8849  -30.4261   23.9564 H   0  0  0  0  0  0
  -27.2610  -33.3671   26.2071 H   0  0  0  0  0  0
  -28.3849  -32.6948   25.0364 H   0  0  0  0  0  0
  -28.0704  -31.8540   26.5453 H   0  0  0  0  0  0
  -28.2563  -38.0113   24.7476 H   0  0  0  0  0  0
  -28.1086  -36.2636   24.6294 H   0  0  0  0  0  0
  -27.2287  -37.1468   25.8850 H   0  0  0  0  0  0
  -20.9404  -29.8663   21.6718 H   0  0  0  0  0  0
  -26.0156  -38.2823   24.1395 H   0  0  0  0  0  0
  -27.7873  -20.3049   22.5326 H   0  0  0  0  0  0
  -28.9270  -16.1606   22.5594 H   0  0  0  0  0  0
  -29.7254  -18.5678   19.0919 H   0  0  0  0  0  0
  -26.6270  -23.3042   20.5926 H   0  0  0  0  0  0
  -26.3001  -23.1144   18.8741 H   0  0  0  0  0  0
  -29.3103  -22.6847   21.2741 H   0  0  0  0  0  0
  -30.2750  -22.2901   19.8693 H   0  0  0  0  0  0
  -25.4005  -18.5958   25.6679 H   0  0  0  0  0  0
  -24.5945  -17.2020   24.9165 H   0  0  0  0  0  0
  -24.0535  -18.8451   24.5450 H   0  0  0  0  0  0
  -28.7227  -22.0876   17.6357 H   0  0  0  0  0  0
  -29.7487  -23.4953   17.6099 H   0  0  0  0  0  0
  -28.0535  -23.6290   17.1938 H   0  0  0  0  0  0
  -26.9699  -16.5511   25.5002 H   0  0  0  0  0  0
  -28.5836  -16.4022   24.8351 H   0  0  0  0  0  0
  -27.1892  -15.8330   23.9154 H   0  0  0  0  0  0
  -28.1207  -25.4786   18.4035 H   0  0  0  0  0  0
  -29.6425  -25.2982   19.1458 H   0  0  0  0  0  0
  -28.8575  -15.4832   19.8189 H   0  0  0  0  0  0
  1 25  1  0  0  0
  1 30  2  0  0  0
  1 88  1  0  0  0
  2  3  1  0  0  0
  2 25  1  0  0  0
  2 92  1  0  0  0
  2 93  1  0  0  0
  3  4  1  0  0  0
  3 94  1  0  0  0
  3 95  1  0  0  0
  4  5  1  0  0  0
  4 96  1  0  0  0
  4 97  1  0  0  0
  5  6  1  0  0  0
  5 26  1  0  0  0
  5 98  1  0  0  0
  6 25  1  0  0  0
  6 99  1  0  0  0
  6100  1  0  0  0
  7  8  2  0  0  0
  7 26  1  0  0  0
  7 29  1  0  0  0
  8  9  1  0  0  0
  8 22  1  0  0  0
  9 10  1  0  0  0
  9 27  2  0  0  0
 10 11  2  0  0  0
 10 15  1  0  0  0
 11 12  1  0  0  0
 11101  1  0  0  0
 12 13  2  0  0  0
 12102  1  0  0  0
 13 14  1  0  0  0
 13 31  1  0  0  0
 14 15  2  0  0  0
 14103  1  0  0  0
 15104  1  0  0  0
 16 17  2  0  0  0
 16 21  1  0  0  0
 16 31  1  0  0  0
 17 18  1  0  0  0
 17105  1  0  0  0
 18 19  2  0  0  0
 18106  1  0  0  0
 19 20  1  0  0  0
 19 24  1  0  0  0
 20 21  2  0  0  0
 20107  1  0  0  0
 21 23  1  0  0  0
 22 28  1  0  0  0
 22 32  2  0  0  0
 26 27  1  0  0  0
 28108  1  0  0  0
 28109  1  0  0  0
 29110  1  0  0  0
 29111  1  0  0  0
 33 34  1  0  0  0
 33 66  1  0  0  0
 33 70  2  0  0  0
 34 36  1  0  0  0
 34 59  1  0  0  0
 34112  1  0  0  0
 35 44  2  0  0  0
 35 45  1  0  0  0
 35 68  1  0  0  0
 36 56  1  0  0  0
 36113  1  0  0  0
 37 39  1  0  0  0
 37 47  1  0  0  0
 37 66  1  0  0  0
 37114  1  0  0  0
 38 43  2  0  0  0
 38 46  1  0  0  0
 38 47  1  0  0  0
 39 64  1  0  0  0
 39 67  2  0  0  0
 40 52  1  0  0  0
 40 53  2  0  0  0
 40 58  1  0  0  0
 41115  1  0  0  0
 41116  1  0  0  0
 41117  1  0  0  0
 41 48  1  0  0  0
 42 43  1  0  0  0
 42 66  1  0  0  0
 42118  1  0  0  0
 42119  1  0  0  0
 43 44  1  0  0  0
 44120  1  0  0  0
 45 46  2  0  0  0
 45121  1  0  0  0
 46122  1  0  0  0
 47123  1  0  0  0
 47124  1  0  0  0
 48 56  1  0  0  0
 48 65  1  0  0  0
 48125  1  0  0  0
 49 50  1  0  0  0
 49 53  1  0  0  0
 49 64  1  0  0  0
 49126  1  0  0  0
 50 51  1  0  0  0
 50127  1  0  0  0
 50128  1  0  0  0
 51 52  1  0  0  0
 51129  1  0  0  0
 51130  1  0  0  0
 52131  1  0  0  0
 52132  1  0  0  0
 53 54  1  0  0  0
 54 55  2  0  0  0
 54133  1  0  0  0
 55 57  1  0  0  0
 55134  1  0  0  0
 56 69  2  0  0  0
 57 58  2  0  0  0
 57135  1  0  0  0
 58136  1  0  0  0
 59 60  1  0  0  0
 59 61  1  0  0  0
 59 62  1  0  0  0
 60137  1  0  0  0
 60138  1  0  0  0
 60139  1  0  0  0
 61140  1  0  0  0
 61141  1  0  0  0
 61142  1  0  0  0
 62143  1  0  0  0
 62144  1  0  0  0
 62145  1  0  0  0
 63 65  1  0  0  0
 63146  1  0  0  0
 63147  1  0  0  0
 63148  1  0  0  0
 64149  1  0  0  0
 65150  1  0  0  0
 68 85  1  0  0  0
 71 74  2  0  0  0
 71 75  1  0  0  0
 71151  1  0  0  0
 72 74  1  0  0  0
 72 76  2  0  0  0
 72152  1  0  0  0
 73 75  2  0  0  0
 73 76  1  0  0  0
 73153  1  0  0  0
 74 86  1  0  0  0
 75 87  1  0  0  0
 76 88  1  0  0  0
 77 79  1  0  0  0
 77 87  1  0  0  0
 77 89  2  0  0  0
 78 82  1  0  0  0
 78 86  1  0  0  0
 78 90  2  0  0  0
 79 81  1  0  0  0
 79154  1  0  0  0
 79155  1  0  0  0
 80 81  1  0  0  0
 80 87  1  0  0  0
 80156  1  0  0  0
 80157  1  0  0  0
 81 83  1  0  0  0
 81 85  1  0  0  0
 82158  1  0  0  0
 82159  1  0  0  0
 82160  1  0  0  0
 83161  1  0  0  0
 83162  1  0  0  0
 83163  1  0  0  0
 84164  1  0  0  0
 84165  1  0  0  0
 84166  1  0  0  0
 84 86  1  0  0  0
 85167  1  0  0  0
 85168  1  0  0  0
 86 91  1  0  0  0
 88169  1  0  0  0
M  ISO  4   1 100  68 101  85 101  88 100
M  END
> <chiral flag>
0

> <version>
0

> <s_m_source_file>
/data/baiqing/PycharmProjects/Reinvent-master-3.2/result/LINK_invent/BTK/process_docking_weight1_custom_product_contain_oxygen_bond_distance_aromatic_linkinvent_7_9_3/rearranged_h_0069.sdf

> <i_m_source_file_index>
42

> <r_mmod_Potential_Energy-OPLS-2005>
565.561584472656

> <r_mmod_Stretch_Energy-OPLS-2005>
161.650787353516

> <r_mmod_Bend_Energy-OPLS-2005>
314.107452392578

> <r_mmod_Torsional_Energy-OPLS-2005>
370.669403076172

> <r_mmod_Improper_Torsional_Energy-OPLS-2005>
24.2575302124023

> <r_mmod_Van_der_Waal_Energy-OPLS-2005>
135.365447998047

> <r_mmod_Electrostatic_Energy-OPLS-2005>
-323.29833984375

> <r_mmod_Solvation_Energy-OPLS-2005>
-235.343811035156

> <b_mmod_Minimization_Converged-OPLS-2005>
0

> <r_mmod_RMS_Derivative-OPLS-2005>
4.92390012741089

$$$$
43
                    3D
 Structure written by MMmdl.
145153  0  0  1  0            999 V2000
  -30.4876  -15.0876   20.3963 C   0  0  0  0  0  0
  -30.4436  -12.6823   19.5086 C   0  0  0  0  0  0
  -29.5281  -12.5510   18.2673 C   0  0  0  0  0  0
  -28.0671  -12.3087   18.6893 C   0  0  0  0  0  0
  -27.6226  -13.2580   19.8314 C   0  0  2  0  0  0
  -28.6632  -13.3440   20.9680 C   0  0  0  0  0  0
  -25.2433  -13.8225   20.5718 C   0  0  0  0  0  0
  -24.1767  -13.0435   20.9240 C   0  0  0  0  0  0
  -24.6396  -11.6925   20.8755 C   0  0  0  0  0  0
  -23.9083  -10.4292   21.0406 C   0  0  0  0  0  0
  -24.3631   -9.4207   21.9183 C   0  0  0  0  0  0
  -23.6303   -8.2244   22.0753 C   0  0  0  0  0  0
  -22.4285   -8.0283   21.3545 C   0  0  0  0  0  0
  -21.9922   -9.0257   20.4647 C   0  0  0  0  0  0
  -22.7252  -10.2135   20.3056 C   0  0  0  0  0  0
  -21.6855   -6.0737   22.5279 C   0  0  0  0  0  0
  -21.4016   -6.5640   23.8212 C   0  0  0  0  0  0
  -21.3660   -5.6792   24.9175 C   0  0  0  0  0  0
  -21.6045   -4.3055   24.7225 C   0  0  0  0  0  0
  -21.8819   -3.8147   23.4345 C   0  0  0  0  0  0
  -21.9193   -4.6964   22.3402 C   0  0  0  0  0  0
  -22.7785  -13.5199   21.1893 C   0  0  0  0  0  0
  -22.1661   -4.2150   21.0980 F   0  0  0  0  0  0
  -21.5629   -3.4540   25.7737 F   0  0  0  0  0  0
  -29.9202  -13.8002   20.3579 N   0  0  0  0  0  0
  -26.2858  -12.9471   20.3224 N   0  0  0  0  0  0
  -25.9329  -11.6591   20.5725 N   0  0  0  0  0  0
  -22.0439  -12.8189   22.0451 N   0  0  0  0  0  0
  -25.4076  -15.1958   20.4140 N   0  0  0  0  0  0
  -31.7023  -15.1328   20.1592 O   0  0  0  0  0  0
  -21.6644   -6.8884   21.4243 O   0  0  0  0  0  0
  -22.3467  -14.5501   20.6732 O   0  0  0  0  0  0
  -24.6528  -31.8347   23.1806 C   0  0  0  0  0  0
  -25.9258  -32.4645   23.8227 C   0  0  1  0  0  0
  -27.2161  -27.0373   20.1664 C   0  0  0  0  0  0
  -25.5968  -33.8456   24.2135 N   0  0  0  0  0  0
  -23.4619  -30.4516   21.5277 C   0  0  2  0  0  0
  -24.9131  -28.8614   20.1113 C   0  0  0  0  0  0
  -22.7617  -29.4501   22.4820 C   0  0  0  0  0  0
  -18.0315  -28.1403   22.8472 C   0  0  0  0  0  0
  -24.1495  -36.7233   23.2646 C   0  0  0  0  0  0
  -26.0253  -30.6768   21.3954 C   0  0  0  0  0  0
  -26.0949  -29.2786   20.7368 C   0  0  0  0  0  0
  -27.2455  -28.3858   20.7426 C   0  0  0  0  0  0
  -26.0055  -26.7481   19.4973 C   0  0  0  0  0  0
  -24.8874  -27.6132   19.4732 C   0  0  0  0  0  0
  -23.6951  -29.7764   20.1498 C   0  0  0  0  0  0
  -25.4132  -36.3002   24.0306 C   0  0  1  0  0  0
  -20.5933  -28.3740   23.1210 C   0  0  2  0  0  0
  -20.6795  -26.9432   22.5403 C   0  0  0  0  0  0
  -19.5769  -26.6379   21.5214 C   0  0  0  0  0  0
  -18.1951  -26.7938   22.1624 C   0  0  0  0  0  0
  -19.1574  -28.8891   23.2830 C   0  0  0  0  0  0
  -18.9487  -30.1483   23.8861 C   0  0  0  0  0  0
  -17.6481  -30.6596   24.0557 C   0  0  0  0  0  0
  -25.9088  -34.9381   23.5035 C   0  0  0  0  0  0
  -16.5371  -29.9085   23.6340 C   0  0  0  0  0  0
  -16.7297  -28.6506   23.0358 C   0  0  0  0  0  0
  -26.4540  -31.6552   25.0713 C   0  0  0  0  0  0
  -25.3694  -31.3778   26.1388 C   0  0  0  0  0  0
  -27.0419  -30.2930   24.6380 C   0  0  0  0  0  0
  -27.6049  -32.4341   25.7507 C   0  0  0  0  0  0
  -27.5571  -37.1781   24.8468 C   0  0  0  0  0  0
  -21.4298  -29.3048   22.3570 N   0  0  0  0  0  0
  -26.4291  -37.3722   23.9398 N   0  0  0  0  0  0
  -24.7338  -31.0115   22.0888 N   0  0  0  0  0  0
  -23.4214  -28.8057   23.3014 O   0  0  0  0  0  0
  -28.2345  -25.9834   20.2378 O   0  0  0  0  0  0
  -26.5684  -34.8894   22.4621 O   0  0  0  0  0  0
  -23.5623  -32.1267   23.6965 O   0  0  0  0  0  0
  -28.8719  -19.0076   20.3939 C   0  0  0  0  0  0
  -31.1187  -18.4470   20.3978 C   0  0  0  0  0  0
  -29.8802  -17.8512   20.4236 C   0  0  0  0  0  0
  -29.3066  -20.3987   20.3477 C   0  0  0  0  0  0
  -28.9525  -23.1088   20.3062 C   0  0  0  0  0  0
  -27.8853  -24.4236   20.1188 C   0  0  0  0  0  0
  -29.6769  -16.2896   20.4898 N   0  0  0  0  0  0
  -28.6079  -21.6961   20.2834 N   0  0  0  0  0  0
  -30.1370  -23.4101   20.4750 O   0  0  0  0  0  0
  -31.0656  -20.2376   20.3514 S   0  0  0  0  0  0
  -31.4704  -12.8651   19.1889 H   0  0  0  0  0  0
  -30.4711  -11.7480   20.0717 H   0  0  0  0  0  0
  -29.8735  -11.7414   17.6229 H   0  0  0  0  0  0
  -29.5895  -13.4635   17.6722 H   0  0  0  0  0  0
  -27.9894  -11.2733   19.0230 H   0  0  0  0  0  0
  -27.4006  -12.4039   17.8313 H   0  0  0  0  0  0
  -27.5662  -14.2468   19.3753 H   0  0  0  0  0  0
  -28.7858  -12.3821   21.4679 H   0  0  0  0  0  0
  -28.3371  -14.0511   21.7323 H   0  0  0  0  0  0
  -25.2774   -9.5682   22.4762 H   0  0  0  0  0  0
  -24.0009   -7.4634   22.7472 H   0  0  0  0  0  0
  -21.0851   -8.8780   19.8956 H   0  0  0  0  0  0
  -22.3708  -10.9676   19.6170 H   0  0  0  0  0  0
  -21.2010   -7.6150   23.9717 H   0  0  0  0  0  0
  -21.1481   -6.0523   25.9078 H   0  0  0  0  0  0
  -22.0597   -2.7610   23.2843 H   0  0  0  0  0  0
  -22.4066  -11.9858   22.4847 H   0  0  0  0  0  0
  -21.1054  -13.1207   22.2654 H   0  0  0  0  0  0
  -24.6327  -15.8413   20.5221 H   0  0  0  0  0  0
  -26.2390  -15.6372   20.0448 H   0  0  0  0  0  0
  -26.7325  -32.5216   23.0948 H   0  0  0  0  0  0
  -25.0075  -33.9553   25.0258 H   0  0  0  0  0  0
  -22.7694  -31.2806   21.3665 H   0  0  0  0  0  0
  -23.3755  -35.9569   23.3313 H   0  0  0  0  0  0
  -24.3569  -36.8867   22.2059 H   0  0  0  0  0  0
  -23.7263  -37.6433   23.6689 H   0  0  0  0  0  0
  -26.1951  -31.4263   20.6211 H   0  0  0  0  0  0
  -26.8897  -30.7274   22.0458 H   0  0  0  0  0  0
  -28.1424  -28.7014   21.2571 H   0  0  0  0  0  0
  -25.8829  -25.7969   19.0033 H   0  0  0  0  0  0
  -23.9880  -27.2889   18.9679 H   0  0  0  0  0  0
  -23.8422  -30.5490   19.3943 H   0  0  0  0  0  0
  -22.8070  -29.2260   19.8345 H   0  0  0  0  0  0
  -25.1332  -36.1816   25.0800 H   0  0  0  0  0  0
  -21.0023  -28.3340   24.1333 H   0  0  0  0  0  0
  -20.5684  -26.2358   23.3634 H   0  0  0  0  0  0
  -21.6660  -26.7425   22.1205 H   0  0  0  0  0  0
  -19.6929  -25.6281   21.1268 H   0  0  0  0  0  0
  -19.6705  -27.3169   20.6727 H   0  0  0  0  0  0
  -17.4219  -26.6679   21.4028 H   0  0  0  0  0  0
  -18.0349  -26.0089   22.9031 H   0  0  0  0  0  0
  -19.7961  -30.7309   24.2213 H   0  0  0  0  0  0
  -17.5033  -31.6272   24.5166 H   0  0  0  0  0  0
  -15.5370  -30.2975   23.7686 H   0  0  0  0  0  0
  -15.8698  -28.0813   22.7090 H   0  0  0  0  0  0
  -24.5884  -30.7115   25.7705 H   0  0  0  0  0  0
  -24.8871  -32.2973   26.4717 H   0  0  0  0  0  0
  -25.7949  -30.9013   27.0229 H   0  0  0  0  0  0
  -26.3064  -29.6630   24.1364 H   0  0  0  0  0  0
  -27.3958  -29.7262   25.5002 H   0  0  0  0  0  0
  -27.9004  -30.4128   23.9768 H   0  0  0  0  0  0
  -27.2623  -33.3665   26.2006 H   0  0  0  0  0  0
  -28.3901  -32.6867   25.0370 H   0  0  0  0  0  0
  -28.0673  -31.8524   26.5492 H   0  0  0  0  0  0
  -28.2596  -38.0067   24.7481 H   0  0  0  0  0  0
  -28.1058  -36.2593   24.6341 H   0  0  0  0  0  0
  -27.2280  -37.1482   25.8870 H   0  0  0  0  0  0
  -20.9530  -29.8750   21.6725 H   0  0  0  0  0  0
  -26.0147  -38.2791   24.1381 H   0  0  0  0  0  0
  -27.8194  -18.7620   20.4045 H   0  0  0  0  0  0
  -32.0847  -17.9561   20.4088 H   0  0  0  0  0  0
  -27.0635  -24.2389   20.8111 H   0  0  0  0  0  0
  -27.4642  -24.2785   19.1247 H   0  0  0  0  0  0
  -28.7077  -16.0365   20.6076 H   0  0  0  0  0  0
  -27.6066  -21.5876   20.1861 H   0  0  0  0  0  0
  1 25  1  0  0  0
  1 30  2  0  0  0
  1 77  1  0  0  0
  2  3  1  0  0  0
  2 25  1  0  0  0
  2 81  1  0  0  0
  2 82  1  0  0  0
  3  4  1  0  0  0
  3 83  1  0  0  0
  3 84  1  0  0  0
  4  5  1  0  0  0
  4 85  1  0  0  0
  4 86  1  0  0  0
  5  6  1  0  0  0
  5 26  1  0  0  0
  5 87  1  0  0  0
  6 25  1  0  0  0
  6 88  1  0  0  0
  6 89  1  0  0  0
  7  8  2  0  0  0
  7 26  1  0  0  0
  7 29  1  0  0  0
  8  9  1  0  0  0
  8 22  1  0  0  0
  9 10  1  0  0  0
  9 27  2  0  0  0
 10 11  2  0  0  0
 10 15  1  0  0  0
 11 12  1  0  0  0
 11 90  1  0  0  0
 12 13  2  0  0  0
 12 91  1  0  0  0
 13 14  1  0  0  0
 13 31  1  0  0  0
 14 15  2  0  0  0
 14 92  1  0  0  0
 15 93  1  0  0  0
 16 17  2  0  0  0
 16 21  1  0  0  0
 16 31  1  0  0  0
 17 18  1  0  0  0
 17 94  1  0  0  0
 18 19  2  0  0  0
 18 95  1  0  0  0
 19 20  1  0  0  0
 19 24  1  0  0  0
 20 21  2  0  0  0
 20 96  1  0  0  0
 21 23  1  0  0  0
 22 28  1  0  0  0
 22 32  2  0  0  0
 26 27  1  0  0  0
 28 97  1  0  0  0
 28 98  1  0  0  0
 29 99  1  0  0  0
 29100  1  0  0  0
 33 34  1  0  0  0
 33 66  1  0  0  0
 33 70  2  0  0  0
 34 36  1  0  0  0
 34 59  1  0  0  0
 34101  1  0  0  0
 35 44  2  0  0  0
 35 45  1  0  0  0
 35 68  1  0  0  0
 36 56  1  0  0  0
 36102  1  0  0  0
 37 39  1  0  0  0
 37 47  1  0  0  0
 37 66  1  0  0  0
 37103  1  0  0  0
 38 43  2  0  0  0
 38 46  1  0  0  0
 38 47  1  0  0  0
 39 64  1  0  0  0
 39 67  2  0  0  0
 40 52  1  0  0  0
 40 53  2  0  0  0
 40 58  1  0  0  0
 41104  1  0  0  0
 41105  1  0  0  0
 41106  1  0  0  0
 41 48  1  0  0  0
 42 43  1  0  0  0
 42 66  1  0  0  0
 42107  1  0  0  0
 42108  1  0  0  0
 43 44  1  0  0  0
 44109  1  0  0  0
 45 46  2  0  0  0
 45110  1  0  0  0
 46111  1  0  0  0
 47112  1  0  0  0
 47113  1  0  0  0
 48 56  1  0  0  0
 48 65  1  0  0  0
 48114  1  0  0  0
 49 50  1  0  0  0
 49 53  1  0  0  0
 49 64  1  0  0  0
 49115  1  0  0  0
 50 51  1  0  0  0
 50116  1  0  0  0
 50117  1  0  0  0
 51 52  1  0  0  0
 51118  1  0  0  0
 51119  1  0  0  0
 52120  1  0  0  0
 52121  1  0  0  0
 53 54  1  0  0  0
 54 55  2  0  0  0
 54122  1  0  0  0
 55 57  1  0  0  0
 55123  1  0  0  0
 56 69  2  0  0  0
 57 58  2  0  0  0
 57124  1  0  0  0
 58125  1  0  0  0
 59 60  1  0  0  0
 59 61  1  0  0  0
 59 62  1  0  0  0
 60126  1  0  0  0
 60127  1  0  0  0
 60128  1  0  0  0
 61129  1  0  0  0
 61130  1  0  0  0
 61131  1  0  0  0
 62132  1  0  0  0
 62133  1  0  0  0
 62134  1  0  0  0
 63 65  1  0  0  0
 63135  1  0  0  0
 63136  1  0  0  0
 63137  1  0  0  0
 64138  1  0  0  0
 65139  1  0  0  0
 68 76  1  0  0  0
 71 73  1  0  0  0
 71 74  2  0  0  0
 71140  1  0  0  0
 72 73  2  0  0  0
 72 80  1  0  0  0
 72141  1  0  0  0
 73 77  1  0  0  0
 74 78  1  0  0  0
 74 80  1  0  0  0
 75 76  1  0  0  0
 75 78  1  0  0  0
 75 79  2  0  0  0
 76142  1  0  0  0
 76143  1  0  0  0
 77144  1  0  0  0
 78145  1  0  0  0
M  ISO  4   1 100  68 101  76 101  77 100
M  END
> <chiral flag>
0

> <version>
0

> <s_m_source_file>
/data/baiqing/PycharmProjects/Reinvent-master-3.2/result/LINK_invent/BTK/process_docking_weight1_custom_product_contain_oxygen_bond_distance_aromatic_linkinvent_7_9_3/rearranged_h_0069.sdf

> <i_m_source_file_index>
43

> <r_mmod_Potential_Energy-OPLS-2005>
670.207824707031

> <r_mmod_Stretch_Energy-OPLS-2005>
352.199951171875

> <r_mmod_Bend_Energy-OPLS-2005>
296.709320068359

> <r_mmod_Torsional_Energy-OPLS-2005>
210.659317016602

> <r_mmod_Improper_Torsional_Energy-OPLS-2005>
4.47786474227905

> <r_mmod_Van_der_Waal_Energy-OPLS-2005>
109.201385498047

> <r_mmod_Electrostatic_Energy-OPLS-2005>
-343.364135742188

> <r_mmod_Solvation_Energy-OPLS-2005>
-259.386901855469

> <b_mmod_Minimization_Converged-OPLS-2005>
0

> <r_mmod_RMS_Derivative-OPLS-2005>
0.408906936645508

$$$$
44
                    3D
 Structure written by MMmdl.
151159  0  0  1  0            999 V2000
  -30.5093  -15.0345   20.3857 C   0  0  0  0  0  0
  -30.4321  -12.6407   19.5192 C   0  0  0  0  0  0
  -29.5251  -12.5474   18.2702 C   0  0  0  0  0  0
  -28.0614  -12.3123   18.6849 C   0  0  0  0  0  0
  -27.6207  -13.2584   19.8322 C   0  0  2  0  0  0
  -28.6561  -13.3301   20.9734 C   0  0  0  0  0  0
  -25.2413  -13.8234   20.5706 C   0  0  0  0  0  0
  -24.1744  -13.0440   20.9228 C   0  0  0  0  0  0
  -24.6374  -11.6934   20.8738 C   0  0  0  0  0  0
  -23.9071  -10.4296   21.0390 C   0  0  0  0  0  0
  -24.3625   -9.4214   21.9172 C   0  0  0  0  0  0
  -23.6301   -8.2245   22.0744 C   0  0  0  0  0  0
  -22.4278   -8.0278   21.3540 C   0  0  0  0  0  0
  -21.9915   -9.0248   20.4639 C   0  0  0  0  0  0
  -22.7237  -10.2132   20.3047 C   0  0  0  0  0  0
  -21.6863   -6.0734   22.5278 C   0  0  0  0  0  0
  -21.4018   -6.5633   23.8211 C   0  0  0  0  0  0
  -21.3666   -5.6783   24.9172 C   0  0  0  0  0  0
  -21.6048   -4.3047   24.7225 C   0  0  0  0  0  0
  -21.8815   -3.8142   23.4346 C   0  0  0  0  0  0
  -21.9193   -4.6961   22.3403 C   0  0  0  0  0  0
  -22.7764  -13.5202   21.1886 C   0  0  0  0  0  0
  -22.1657   -4.2145   21.0981 F   0  0  0  0  0  0
  -21.5638   -3.4531   25.7738 F   0  0  0  0  0  0
  -29.9240  -13.7608   20.3725 N   0  0  0  0  0  0
  -26.2831  -12.9480   20.3207 N   0  0  0  0  0  0
  -25.9305  -11.6605   20.5720 N   0  0  0  0  0  0
  -22.0421  -12.8196   22.0458 N   0  0  0  0  0  0
  -25.4079  -15.1960   20.4113 N   0  0  0  0  0  0
  -31.7249  -15.0513   20.1605 O   0  0  0  0  0  0
  -21.6646   -6.8872   21.4236 O   0  0  0  0  0  0
  -22.3447  -14.5504   20.6725 O   0  0  0  0  0  0
  -24.6501  -31.8367   23.1832 C   0  0  0  0  0  0
  -25.9241  -32.4658   23.8239 C   0  0  1  0  0  0
  -27.2067  -27.0535   20.1679 C   0  0  0  0  0  0
  -25.5963  -33.8467   24.2147 N   0  0  0  0  0  0
  -23.4572  -30.4561   21.5293 C   0  0  2  0  0  0
  -24.9076  -28.8692   20.1128 C   0  0  0  0  0  0
  -22.7593  -29.4515   22.4817 C   0  0  0  0  0  0
  -18.0307  -28.1404   22.8469 C   0  0  0  0  0  0
  -24.1500  -36.7239   23.2642 C   0  0  0  0  0  0
  -26.0207  -30.6838   21.3962 C   0  0  0  0  0  0
  -26.0889  -29.2874   20.7391 C   0  0  0  0  0  0
  -27.2397  -28.3981   20.7450 C   0  0  0  0  0  0
  -26.0008  -26.7615   19.4939 C   0  0  0  0  0  0
  -24.8817  -27.6228   19.4717 C   0  0  0  0  0  0
  -23.6891  -29.7826   20.1513 C   0  0  0  0  0  0
  -25.4138  -36.3007   24.0303 C   0  0  1  0  0  0
  -20.5928  -28.3735   23.1212 C   0  0  2  0  0  0
  -20.6795  -26.9426   22.5405 C   0  0  0  0  0  0
  -19.5774  -26.6382   21.5210 C   0  0  0  0  0  0
  -18.1951  -26.7940   22.1617 C   0  0  0  0  0  0
  -19.1568  -28.8888   23.2835 C   0  0  0  0  0  0
  -18.9480  -30.1479   23.8868 C   0  0  0  0  0  0
  -17.6475  -30.6598   24.0552 C   0  0  0  0  0  0
  -25.9088  -34.9386   23.5040 C   0  0  0  0  0  0
  -16.5364  -29.9087   23.6340 C   0  0  0  0  0  0
  -16.7290  -28.6509   23.0358 C   0  0  0  0  0  0
  -26.4537  -31.6558   25.0715 C   0  0  0  0  0  0
  -25.3690  -31.3777   26.1385 C   0  0  0  0  0  0
  -27.0392  -30.2932   24.6368 C   0  0  0  0  0  0
  -27.6058  -32.4336   25.7500 C   0  0  0  0  0  0
  -27.5579  -37.1777   24.8459 C   0  0  0  0  0  0
  -21.4279  -29.3048   22.3566 N   0  0  0  0  0  0
  -26.4293  -37.3729   23.9396 N   0  0  0  0  0  0
  -24.7298  -31.0154   22.0905 N   0  0  0  0  0  0
  -23.4203  -28.8055   23.2986 O   0  0  0  0  0  0
  -28.2324  -26.0143   20.2079 O   0  0  0  0  0  0
  -26.5681  -34.8890   22.4621 O   0  0  0  0  0  0
  -23.5600  -32.1265   23.7009 O   0  0  0  0  0  0
  -30.7223  -19.2989   18.2512 C   0  0  0  0  0  0
  -30.1625  -20.4545   18.8308 C   0  0  0  0  0  0
  -29.2547  -19.0077   20.5419 C   0  0  0  0  0  0
  -30.5632  -17.9885   18.7637 C   0  0  0  0  0  0
  -29.3647  -20.4150   19.9905 C   0  0  0  0  0  0
  -29.8739  -17.7384   19.9904 C   0  0  0  0  0  0
  -28.9120  -23.1694   20.0879 C   0  0  0  0  0  0
  -31.1001  -16.8801   17.8686 C   0  0  0  0  0  0
  -27.8881  -24.4710   20.4205 C   0  0  0  0  0  0
  -28.7002  -21.7701   20.4184 N   0  0  0  0  0  0
  -29.7364  -16.2552   20.4926 N   0  0  0  0  0  0
  -29.9577  -23.4786   19.5118 O   0  0  0  0  0  0
  -31.4667  -12.7973   19.2114 H   0  0  0  0  0  0
  -30.4294  -11.7004   20.0730 H   0  0  0  0  0  0
  -29.8629  -11.7483   17.6095 H   0  0  0  0  0  0
  -29.5994  -13.4729   17.6971 H   0  0  0  0  0  0
  -27.9737  -11.2749   19.0103 H   0  0  0  0  0  0
  -27.3997  -12.4187   17.8241 H   0  0  0  0  0  0
  -27.5697  -14.2511   19.3832 H   0  0  0  0  0  0
  -28.7584  -12.3672   21.4757 H   0  0  0  0  0  0
  -28.3371  -14.0455   21.7331 H   0  0  0  0  0  0
  -25.2763   -9.5697   22.4754 H   0  0  0  0  0  0
  -24.0013   -7.4638   22.7460 H   0  0  0  0  0  0
  -21.0845   -8.8754   19.8948 H   0  0  0  0  0  0
  -22.3670  -10.9670   19.6165 H   0  0  0  0  0  0
  -21.2003   -7.6135   23.9711 H   0  0  0  0  0  0
  -21.1499   -6.0515   25.9075 H   0  0  0  0  0  0
  -22.0591   -2.7605   23.2846 H   0  0  0  0  0  0
  -22.4054  -11.9878   22.4872 H   0  0  0  0  0  0
  -21.1033  -13.1207   22.2656 H   0  0  0  0  0  0
  -24.6348  -15.8463   20.5030 H   0  0  0  0  0  0
  -26.2498  -15.6321   20.0581 H   0  0  0  0  0  0
  -26.7300  -32.5230   23.0948 H   0  0  0  0  0  0
  -25.0054  -33.9576   25.0258 H   0  0  0  0  0  0
  -22.7634  -31.2844   21.3699 H   0  0  0  0  0  0
  -23.3769  -35.9565   23.3293 H   0  0  0  0  0  0
  -24.3577  -36.8888   22.2059 H   0  0  0  0  0  0
  -23.7257  -37.6428   23.6695 H   0  0  0  0  0  0
  -26.1877  -31.4335   20.6215 H   0  0  0  0  0  0
  -26.8874  -30.7345   22.0441 H   0  0  0  0  0  0
  -28.1389  -28.7128   21.2554 H   0  0  0  0  0  0
  -25.8887  -25.8201   18.9780 H   0  0  0  0  0  0
  -23.9845  -27.3016   18.9604 H   0  0  0  0  0  0
  -23.8294  -30.5544   19.3937 H   0  0  0  0  0  0
  -22.8022  -29.2289   19.8399 H   0  0  0  0  0  0
  -25.1338  -36.1817   25.0797 H   0  0  0  0  0  0
  -21.0025  -28.3340   24.1331 H   0  0  0  0  0  0
  -20.5675  -26.2345   23.3631 H   0  0  0  0  0  0
  -21.6660  -26.7416   22.1206 H   0  0  0  0  0  0
  -19.6932  -25.6283   21.1266 H   0  0  0  0  0  0
  -19.6729  -27.3170   20.6724 H   0  0  0  0  0  0
  -17.4217  -26.6673   21.4022 H   0  0  0  0  0  0
  -18.0355  -26.0093   22.9028 H   0  0  0  0  0  0
  -19.7952  -30.7305   24.2232 H   0  0  0  0  0  0
  -17.5023  -31.6276   24.5155 H   0  0  0  0  0  0
  -15.5364  -30.2975   23.7694 H   0  0  0  0  0  0
  -15.8685  -28.0818   22.7096 H   0  0  0  0  0  0
  -24.5893  -30.7100   25.7698 H   0  0  0  0  0  0
  -24.8847  -32.2964   26.4703 H   0  0  0  0  0  0
  -25.7944  -30.9017   27.0226 H   0  0  0  0  0  0
  -26.3015  -29.6648   24.1361 H   0  0  0  0  0  0
  -27.3928  -29.7255   25.4986 H   0  0  0  0  0  0
  -27.8967  -30.4125   23.9744 H   0  0  0  0  0  0
  -27.2650  -33.3663   26.2005 H   0  0  0  0  0  0
  -28.3907  -32.6852   25.0356 H   0  0  0  0  0  0
  -28.0677  -31.8500   26.5472 H   0  0  0  0  0  0
  -28.2585  -38.0085   24.7499 H   0  0  0  0  0  0
  -28.1090  -36.2609   24.6300 H   0  0  0  0  0  0
  -27.2285  -37.1432   25.8859 H   0  0  0  0  0  0
  -20.9489  -29.8743   21.6729 H   0  0  0  0  0  0
  -26.0151  -38.2790   24.1411 H   0  0  0  0  0  0
  -31.2699  -19.4331   17.3288 H   0  0  0  0  0  0
  -30.3224  -21.3860   18.3097 H   0  0  0  0  0  0
  -28.6547  -18.8929   21.4333 H   0  0  0  0  0  0
  -31.2052  -17.2220   16.8384 H   0  0  0  0  0  0
  -30.4260  -16.0251   17.8308 H   0  0  0  0  0  0
  -32.0869  -16.5562   18.1952 H   0  0  0  0  0  0
  -27.6126  -24.3687   21.4700 H   0  0  0  0  0  0
  -26.9792  -24.2362   19.8708 H   0  0  0  0  0  0
  -27.8995  -21.6466   21.0246 H   0  0  0  0  0  0
  -28.8307  -16.0694   20.8981 H   0  0  0  0  0  0
  1 25  1  0  0  0
  1 30  2  0  0  0
  1 81  1  0  0  0
  2  3  1  0  0  0
  2 25  1  0  0  0
  2 83  1  0  0  0
  2 84  1  0  0  0
  3  4  1  0  0  0
  3 85  1  0  0  0
  3 86  1  0  0  0
  4  5  1  0  0  0
  4 87  1  0  0  0
  4 88  1  0  0  0
  5  6  1  0  0  0
  5 26  1  0  0  0
  5 89  1  0  0  0
  6 25  1  0  0  0
  6 90  1  0  0  0
  6 91  1  0  0  0
  7  8  2  0  0  0
  7 26  1  0  0  0
  7 29  1  0  0  0
  8  9  1  0  0  0
  8 22  1  0  0  0
  9 10  1  0  0  0
  9 27  2  0  0  0
 10 11  2  0  0  0
 10 15  1  0  0  0
 11 12  1  0  0  0
 11 92  1  0  0  0
 12 13  2  0  0  0
 12 93  1  0  0  0
 13 14  1  0  0  0
 13 31  1  0  0  0
 14 15  2  0  0  0
 14 94  1  0  0  0
 15 95  1  0  0  0
 16 17  2  0  0  0
 16 21  1  0  0  0
 16 31  1  0  0  0
 17 18  1  0  0  0
 17 96  1  0  0  0
 18 19  2  0  0  0
 18 97  1  0  0  0
 19 20  1  0  0  0
 19 24  1  0  0  0
 20 21  2  0  0  0
 20 98  1  0  0  0
 21 23  1  0  0  0
 22 28  1  0  0  0
 22 32  2  0  0  0
 26 27  1  0  0  0
 28 99  1  0  0  0
 28100  1  0  0  0
 29101  1  0  0  0
 29102  1  0  0  0
 33 34  1  0  0  0
 33 66  1  0  0  0
 33 70  2  0  0  0
 34 36  1  0  0  0
 34 59  1  0  0  0
 34103  1  0  0  0
 35 44  2  0  0  0
 35 45  1  0  0  0
 35 68  1  0  0  0
 36 56  1  0  0  0
 36104  1  0  0  0
 37 39  1  0  0  0
 37 47  1  0  0  0
 37 66  1  0  0  0
 37105  1  0  0  0
 38 43  2  0  0  0
 38 46  1  0  0  0
 38 47  1  0  0  0
 39 64  1  0  0  0
 39 67  2  0  0  0
 40 52  1  0  0  0
 40 53  2  0  0  0
 40 58  1  0  0  0
 41106  1  0  0  0
 41107  1  0  0  0
 41108  1  0  0  0
 41 48  1  0  0  0
 42 43  1  0  0  0
 42 66  1  0  0  0
 42109  1  0  0  0
 42110  1  0  0  0
 43 44  1  0  0  0
 44111  1  0  0  0
 45 46  2  0  0  0
 45112  1  0  0  0
 46113  1  0  0  0
 47114  1  0  0  0
 47115  1  0  0  0
 48 56  1  0  0  0
 48 65  1  0  0  0
 48116  1  0  0  0
 49 50  1  0  0  0
 49 53  1  0  0  0
 49 64  1  0  0  0
 49117  1  0  0  0
 50 51  1  0  0  0
 50118  1  0  0  0
 50119  1  0  0  0
 51 52  1  0  0  0
 51120  1  0  0  0
 51121  1  0  0  0
 52122  1  0  0  0
 52123  1  0  0  0
 53 54  1  0  0  0
 54 55  2  0  0  0
 54124  1  0  0  0
 55 57  1  0  0  0
 55125  1  0  0  0
 56 69  2  0  0  0
 57 58  2  0  0  0
 57126  1  0  0  0
 58127  1  0  0  0
 59 60  1  0  0  0
 59 61  1  0  0  0
 59 62  1  0  0  0
 60128  1  0  0  0
 60129  1  0  0  0
 60130  1  0  0  0
 61131  1  0  0  0
 61132  1  0  0  0
 61133  1  0  0  0
 62134  1  0  0  0
 62135  1  0  0  0
 62136  1  0  0  0
 63 65  1  0  0  0
 63137  1  0  0  0
 63138  1  0  0  0
 63139  1  0  0  0
 64140  1  0  0  0
 65141  1  0  0  0
 68 79  1  0  0  0
 71 72  2  0  0  0
 71 74  1  0  0  0
 71142  1  0  0  0
 72 75  1  0  0  0
 72143  1  0  0  0
 73 75  2  0  0  0
 73 76  1  0  0  0
 73144  1  0  0  0
 74 76  2  0  0  0
 74 78  1  0  0  0
 75 80  1  0  0  0
 76 81  1  0  0  0
 77 79  1  0  0  0
 77 80  1  0  0  0
 77 82  2  0  0  0
 78145  1  0  0  0
 78146  1  0  0  0
 78147  1  0  0  0
 79148  1  0  0  0
 79149  1  0  0  0
 80150  1  0  0  0
 81151  1  0  0  0
M  ISO  4   1 100  68 101  79 101  81 100
M  END
> <chiral flag>
0

> <version>
0

> <s_m_source_file>
/data/baiqing/PycharmProjects/Reinvent-master-3.2/result/LINK_invent/BTK/process_docking_weight1_custom_product_contain_oxygen_bond_distance_aromatic_linkinvent_7_9_3/rearranged_h_0069.sdf

> <i_m_source_file_index>
44

> <r_mmod_Potential_Energy-OPLS-2005>
673.522644042969

> <r_mmod_Stretch_Energy-OPLS-2005>
352.658050537109

> <r_mmod_Bend_Energy-OPLS-2005>
280.105407714844

> <r_mmod_Torsional_Energy-OPLS-2005>
251.6455078125

> <r_mmod_Improper_Torsional_Energy-OPLS-2005>
4.40817928314209

> <r_mmod_Van_der_Waal_Energy-OPLS-2005>
139.313140869141

> <r_mmod_Electrostatic_Energy-OPLS-2005>
-373.104370117188

> <r_mmod_Solvation_Energy-OPLS-2005>
-246.392364501953

> <b_mmod_Minimization_Converged-OPLS-2005>
0

> <r_mmod_RMS_Derivative-OPLS-2005>
1.38969492912292

$$$$
45
                    3D
 Structure written by MMmdl.
167175  0  0  1  0            999 V2000
  -30.7099  -14.4494   20.5512 C   0  0  0  0  0  0
  -30.4149  -12.2866   19.4256 C   0  0  0  0  0  0
  -29.4941  -12.5049   18.2075 C   0  0  0  0  0  0
  -28.0142  -12.3707   18.6165 C   0  0  0  0  0  0
  -27.6615  -13.2097   19.8747 C   0  0  2  0  0  0
  -28.7015  -12.9918   20.9985 C   0  0  0  0  0  0
  -25.2582  -13.8164   20.5679 C   0  0  0  0  0  0
  -24.1835  -13.0440   20.9170 C   0  0  0  0  0  0
  -24.6394  -11.6907   20.8725 C   0  0  0  0  0  0
  -23.9065  -10.4290   21.0397 C   0  0  0  0  0  0
  -24.3616   -9.4206   21.9176 C   0  0  0  0  0  0
  -23.6288   -8.2245   22.0754 C   0  0  0  0  0  0
  -22.4271   -8.0282   21.3544 C   0  0  0  0  0  0
  -21.9904   -9.0258   20.4646 C   0  0  0  0  0  0
  -22.7239  -10.2134   20.3050 C   0  0  0  0  0  0
  -21.6850   -6.0734   22.5282 C   0  0  0  0  0  0
  -21.4013   -6.5639   23.8212 C   0  0  0  0  0  0
  -21.3656   -5.6792   24.9175 C   0  0  0  0  0  0
  -21.6044   -4.3055   24.7227 C   0  0  0  0  0  0
  -21.8816   -3.8147   23.4347 C   0  0  0  0  0  0
  -21.9189   -4.6960   22.3399 C   0  0  0  0  0  0
  -22.7859  -13.5241   21.1832 C   0  0  0  0  0  0
  -22.1660   -4.2144   21.0977 F   0  0  0  0  0  0
  -21.5626   -3.4542   25.7742 F   0  0  0  0  0  0
  -30.0367  -13.2741   20.4473 N   0  0  0  0  0  0
  -26.3024  -12.9346   20.3361 N   0  0  0  0  0  0
  -25.9324  -11.6504   20.5764 N   0  0  0  0  0  0
  -22.0491  -12.8242   22.0383 N   0  0  0  0  0  0
  -25.4308  -15.1877   20.4091 N   0  0  0  0  0  0
  -31.8483  -14.6086   20.1051 O   0  0  0  0  0  0
  -21.6635   -6.8879   21.4244 O   0  0  0  0  0  0
  -22.3551  -14.5557   20.6690 O   0  0  0  0  0  0
  -24.6126  -31.8678   23.2109 C   0  0  0  0  0  0
  -25.9021  -32.4826   23.8405 C   0  0  1  0  0  0
  -27.2361  -27.4533   20.0954 C   0  0  0  0  0  0
  -25.5883  -33.8626   24.2338 N   0  0  0  0  0  0
  -23.4017  -30.4899   21.5495 C   0  0  2  0  0  0
  -24.8521  -28.9593   20.1124 C   0  0  0  0  0  0
  -22.7407  -29.4646   22.4983 C   0  0  0  0  0  0
  -18.0266  -28.1380   22.8490 C   0  0  0  0  0  0
  -24.1484  -36.7325   23.2637 C   0  0  0  0  0  0
  -25.9283  -30.8401   21.3616 C   0  0  0  0  0  0
  -26.0099  -29.4754   20.7103 C   0  0  0  0  0  0
  -27.2088  -28.7281   20.7006 C   0  0  0  0  0  0
  -26.0690  -26.9458   19.4916 C   0  0  0  0  0  0
  -24.8759  -27.6933   19.4993 C   0  0  0  0  0  0
  -23.6107  -29.8213   20.1638 C   0  0  0  0  0  0
  -25.4102  -36.3120   24.0338 C   0  0  1  0  0  0
  -20.5854  -28.3664   23.1320 C   0  0  2  0  0  0
  -20.6754  -26.9398   22.5424 C   0  0  0  0  0  0
  -19.5740  -26.6386   21.5214 C   0  0  0  0  0  0
  -18.1915  -26.7926   22.1620 C   0  0  0  0  0  0
  -19.1514  -28.8839   23.2903 C   0  0  0  0  0  0
  -18.9443  -30.1444   23.8917 C   0  0  0  0  0  0
  -17.6444  -30.6586   24.0564 C   0  0  0  0  0  0
  -25.9023  -34.9480   23.5136 C   0  0  0  0  0  0
  -16.5336  -29.9089   23.6325 C   0  0  0  0  0  0
  -16.7254  -28.6506   23.0346 C   0  0  0  0  0  0
  -26.4459  -31.6602   25.0727 C   0  0  0  0  0  0
  -25.3733  -31.3703   26.1485 C   0  0  0  0  0  0
  -27.0283  -30.3048   24.6090 C   0  0  0  0  0  0
  -27.6053  -32.4311   25.7473 C   0  0  0  0  0  0
  -27.5583  -37.1808   24.8461 C   0  0  0  0  0  0
  -21.4133  -29.3029   22.3729 N   0  0  0  0  0  0
  -26.4295  -37.3800   23.9408 N   0  0  0  0  0  0
  -24.6655  -31.0792   22.0999 N   0  0  0  0  0  0
  -23.4182  -28.8178   23.3014 O   0  0  0  0  0  0
  -28.3728  -26.6845   20.1043 O   0  0  0  0  0  0
  -26.5585  -34.8923   22.4698 O   0  0  0  0  0  0
  -23.5321  -32.1415   23.7514 O   0  0  0  0  0  0
  -28.7457  -19.7048   22.4324 C   0  0  0  0  0  0
  -28.3211  -21.0457   22.3308 C   0  0  0  0  0  0
  -30.2100  -21.5304   20.8875 C   0  0  0  0  0  0
  -29.9138  -19.2521   21.7777 C   0  0  0  0  0  0
  -30.6495  -20.1893   20.9955 C   0  0  0  0  0  0
  -29.0490  -21.9761   21.5607 C   0  0  0  0  0  0
  -30.3511  -17.8297   21.9746 C   0  0  0  0  0  0
  -29.4287  -17.3386   18.4138 C   0  0  0  0  0  0
  -28.8983  -24.3569   20.7411 C   0  0  0  0  0  0
  -31.9367  -19.8033   20.2800 C   0  0  0  0  0  0
  -28.3672  -18.0738   17.6092 C   0  0  0  0  0  0
  -31.3746  -16.2313   23.4564 C   0  0  0  0  0  0
  -28.3980  -25.7440   21.1901 C   0  0  0  0  0  0
  -30.3047  -16.9059   20.7199 C   0  0  2  0  0  0
  -30.7524  -17.5042   23.1476 N   0  0  0  0  0  0
  -28.6167  -23.3366   21.5773 N   0  0  0  0  0  0
  -29.3386  -17.4242   19.7454 N   0  0  0  0  0  0
  -29.9863  -15.4911   20.9958 N   0  0  0  0  0  0
  -30.3167  -16.7111   17.8378 O   0  0  0  0  0  0
  -29.4935  -24.2256   19.6667 O   0  0  0  0  0  0
  -31.4621  -12.3679   19.1291 H   0  0  0  0  0  0
  -30.2959  -11.2761   19.8191 H   0  0  0  0  0  0
  -29.7322  -11.7879   17.4207 H   0  0  0  0  0  0
  -29.6711  -13.4946   17.7824 H   0  0  0  0  0  0
  -27.8193  -11.3156   18.8111 H   0  0  0  0  0  0
  -27.3677  -12.6494   17.7834 H   0  0  0  0  0  0
  -27.7047  -14.2576   19.5760 H   0  0  0  0  0  0
  -28.6656  -11.9604   21.3533 H   0  0  0  0  0  0
  -28.4734  -13.6081   21.8692 H   0  0  0  0  0  0
  -25.2760   -9.5680   22.4753 H   0  0  0  0  0  0
  -23.9988   -7.4640   22.7487 H   0  0  0  0  0  0
  -21.0826   -8.8792   19.8959 H   0  0  0  0  0  0
  -22.3705  -10.9678   19.6163 H   0  0  0  0  0  0
  -21.2012   -7.6148   23.9717 H   0  0  0  0  0  0
  -21.1482   -6.0522   25.9076 H   0  0  0  0  0  0
  -22.0596   -2.7609   23.2853 H   0  0  0  0  0  0
  -22.4105  -11.9901   22.4773 H   0  0  0  0  0  0
  -21.1123  -13.1303   22.2607 H   0  0  0  0  0  0
  -24.6613  -15.8409   20.5067 H   0  0  0  0  0  0
  -26.2806  -15.6233   20.0761 H   0  0  0  0  0  0
  -26.7099  -32.5549   23.1179 H   0  0  0  0  0  0
  -25.0041  -33.9794   25.0489 H   0  0  0  0  0  0
  -22.6900  -31.3058   21.4095 H   0  0  0  0  0  0
  -23.3746  -35.9658   23.3307 H   0  0  0  0  0  0
  -24.3580  -36.8934   22.2050 H   0  0  0  0  0  0
  -23.7234  -37.6531   23.6646 H   0  0  0  0  0  0
  -26.0348  -31.6062   20.5923 H   0  0  0  0  0  0
  -26.8181  -30.8973   21.9770 H   0  0  0  0  0  0
  -28.1050  -29.1185   21.1625 H   0  0  0  0  0  0
  -26.0854  -25.9712   19.0237 H   0  0  0  0  0  0
  -23.9865  -27.2907   19.0340 H   0  0  0  0  0  0
  -23.7119  -30.5957   19.4026 H   0  0  0  0  0  0
  -22.7379  -29.2348   19.8713 H   0  0  0  0  0  0
  -25.1274  -36.1994   25.0830 H   0  0  0  0  0  0
  -20.9941  -28.3227   24.1441 H   0  0  0  0  0  0
  -20.5653  -26.2269   23.3607 H   0  0  0  0  0  0
  -21.6624  -26.7434   22.1219 H   0  0  0  0  0  0
  -19.6899  -25.6300   21.1233 H   0  0  0  0  0  0
  -19.6688  -27.3204   20.6749 H   0  0  0  0  0  0
  -17.4184  -26.6680   21.4020 H   0  0  0  0  0  0
  -18.0313  -26.0063   22.9011 H   0  0  0  0  0  0
  -19.7914  -30.7254   24.2308 H   0  0  0  0  0  0
  -17.4995  -31.6266   24.5163 H   0  0  0  0  0  0
  -15.5338  -30.2996   23.7641 H   0  0  0  0  0  0
  -15.8651  -28.0832   22.7056 H   0  0  0  0  0  0
  -24.5911  -30.7040   25.7830 H   0  0  0  0  0  0
  -24.8913  -32.2852   26.4938 H   0  0  0  0  0  0
  -25.8092  -30.8876   27.0241 H   0  0  0  0  0  0
  -26.2821  -29.6817   24.1146 H   0  0  0  0  0  0
  -27.4062  -29.7273   25.4537 H   0  0  0  0  0  0
  -27.8649  -30.4376   23.9227 H   0  0  0  0  0  0
  -27.2698  -33.3607   26.2079 H   0  0  0  0  0  0
  -28.3839  -32.6873   25.0277 H   0  0  0  0  0  0
  -28.0744  -31.8413   26.5357 H   0  0  0  0  0  0
  -28.2601  -38.0106   24.7514 H   0  0  0  0  0  0
  -28.1077  -36.2637   24.6276 H   0  0  0  0  0  0
  -27.2302  -37.1447   25.8865 H   0  0  0  0  0  0
  -20.9293  -29.8768   21.6966 H   0  0  0  0  0  0
  -26.0192  -38.2879   24.1419 H   0  0  0  0  0  0
  -28.1762  -19.0180   23.0439 H   0  0  0  0  0  0
  -27.4344  -21.3549   22.8676 H   0  0  0  0  0  0
  -30.8021  -22.2252   20.3094 H   0  0  0  0  0  0
  -32.5116  -20.6864   19.9997 H   0  0  0  0  0  0
  -31.7182  -19.2495   19.3670 H   0  0  0  0  0  0
  -32.5800  -19.1924   20.9138 H   0  0  0  0  0  0
  -27.3730  -17.8841   18.0147 H   0  0  0  0  0  0
  -28.3768  -17.7467   16.5691 H   0  0  0  0  0  0
  -28.5523  -19.1482   17.6311 H   0  0  0  0  0  0
  -31.9365  -16.3077   24.3882 H   0  0  0  0  0  0
  -32.0882  -15.9168   22.6926 H   0  0  0  0  0  0
  -30.6325  -15.4447   23.6021 H   0  0  0  0  0  0
  -29.0719  -26.1236   21.9586 H   0  0  0  0  0  0
  -27.4189  -25.6284   21.6620 H   0  0  0  0  0  0
  -31.2976  -16.9818   20.2719 H   0  0  0  0  0  0
  -28.0144  -23.5873   22.3494 H   0  0  0  0  0  0
  -28.6049  -18.0116   20.1195 H   0  0  0  0  0  0
  -29.0823  -15.2903   21.3919 H   0  0  0  0  0  0
  1 25  1  0  0  0
  1 30  2  0  0  0
  1 88  1  0  0  0
  2  3  1  0  0  0
  2 25  1  0  0  0
  2 91  1  0  0  0
  2 92  1  0  0  0
  3  4  1  0  0  0
  3 93  1  0  0  0
  3 94  1  0  0  0
  4  5  1  0  0  0
  4 95  1  0  0  0
  4 96  1  0  0  0
  5  6  1  0  0  0
  5 26  1  0  0  0
  5 97  1  0  0  0
  6 25  1  0  0  0
  6 98  1  0  0  0
  6 99  1  0  0  0
  7  8  2  0  0  0
  7 26  1  0  0  0
  7 29  1  0  0  0
  8  9  1  0  0  0
  8 22  1  0  0  0
  9 10  1  0  0  0
  9 27  2  0  0  0
 10 11  2  0  0  0
 10 15  1  0  0  0
 11 12  1  0  0  0
 11100  1  0  0  0
 12 13  2  0  0  0
 12101  1  0  0  0
 13 14  1  0  0  0
 13 31  1  0  0  0
 14 15  2  0  0  0
 14102  1  0  0  0
 15103  1  0  0  0
 16 17  2  0  0  0
 16 21  1  0  0  0
 16 31  1  0  0  0
 17 18  1  0  0  0
 17104  1  0  0  0
 18 19  2  0  0  0
 18105  1  0  0  0
 19 20  1  0  0  0
 19 24  1  0  0  0
 20 21  2  0  0  0
 20106  1  0  0  0
 21 23  1  0  0  0
 22 28  1  0  0  0
 22 32  2  0  0  0
 26 27  1  0  0  0
 28107  1  0  0  0
 28108  1  0  0  0
 29109  1  0  0  0
 29110  1  0  0  0
 33 34  1  0  0  0
 33 66  1  0  0  0
 33 70  2  0  0  0
 34 36  1  0  0  0
 34 59  1  0  0  0
 34111  1  0  0  0
 35 44  2  0  0  0
 35 45  1  0  0  0
 35 68  1  0  0  0
 36 56  1  0  0  0
 36112  1  0  0  0
 37 39  1  0  0  0
 37 47  1  0  0  0
 37 66  1  0  0  0
 37113  1  0  0  0
 38 43  2  0  0  0
 38 46  1  0  0  0
 38 47  1  0  0  0
 39 64  1  0  0  0
 39 67  2  0  0  0
 40 52  1  0  0  0
 40 53  2  0  0  0
 40 58  1  0  0  0
 41114  1  0  0  0
 41115  1  0  0  0
 41116  1  0  0  0
 41 48  1  0  0  0
 42 43  1  0  0  0
 42 66  1  0  0  0
 42117  1  0  0  0
 42118  1  0  0  0
 43 44  1  0  0  0
 44119  1  0  0  0
 45 46  2  0  0  0
 45120  1  0  0  0
 46121  1  0  0  0
 47122  1  0  0  0
 47123  1  0  0  0
 48 56  1  0  0  0
 48 65  1  0  0  0
 48124  1  0  0  0
 49 50  1  0  0  0
 49 53  1  0  0  0
 49 64  1  0  0  0
 49125  1  0  0  0
 50 51  1  0  0  0
 50126  1  0  0  0
 50127  1  0  0  0
 51 52  1  0  0  0
 51128  1  0  0  0
 51129  1  0  0  0
 52130  1  0  0  0
 52131  1  0  0  0
 53 54  1  0  0  0
 54 55  2  0  0  0
 54132  1  0  0  0
 55 57  1  0  0  0
 55133  1  0  0  0
 56 69  2  0  0  0
 57 58  2  0  0  0
 57134  1  0  0  0
 58135  1  0  0  0
 59 60  1  0  0  0
 59 61  1  0  0  0
 59 62  1  0  0  0
 60136  1  0  0  0
 60137  1  0  0  0
 60138  1  0  0  0
 61139  1  0  0  0
 61140  1  0  0  0
 61141  1  0  0  0
 62142  1  0  0  0
 62143  1  0  0  0
 62144  1  0  0  0
 63 65  1  0  0  0
 63145  1  0  0  0
 63146  1  0  0  0
 63147  1  0  0  0
 64148  1  0  0  0
 65149  1  0  0  0
 68 83  1  0  0  0
 71 72  2  0  0  0
 71 74  1  0  0  0
 71150  1  0  0  0
 72 76  1  0  0  0
 72151  1  0  0  0
 73 75  1  0  0  0
 73 76  2  0  0  0
 73152  1  0  0  0
 74 75  2  0  0  0
 74 77  1  0  0  0
 75 80  1  0  0  0
 76 86  1  0  0  0
 77 84  1  0  0  0
 77 85  2  0  0  0
 78 81  1  0  0  0
 78 87  1  0  0  0
 78 89  2  0  0  0
 79 83  1  0  0  0
 79 86  1  0  0  0
 79 90  2  0  0  0
 80153  1  0  0  0
 80154  1  0  0  0
 80155  1  0  0  0
 81156  1  0  0  0
 81157  1  0  0  0
 81158  1  0  0  0
 82 85  1  0  0  0
 82159  1  0  0  0
 82160  1  0  0  0
 82161  1  0  0  0
 83162  1  0  0  0
 83163  1  0  0  0
 84 87  1  0  0  0
 84 88  1  0  0  0
 84164  1  0  0  0
 86165  1  0  0  0
 87166  1  0  0  0
 88167  1  0  0  0
M  ISO  4   1 100  68 101  83 101  88 100
M  END
> <chiral flag>
0

> <version>
0

> <s_m_source_file>
/data/baiqing/PycharmProjects/Reinvent-master-3.2/result/LINK_invent/BTK/process_docking_weight1_custom_product_contain_oxygen_bond_distance_aromatic_linkinvent_7_9_3/rearranged_h_0069.sdf

> <i_m_source_file_index>
45

> <r_mmod_Potential_Energy-OPLS-2005>
-148.806304931641

> <r_mmod_Stretch_Energy-OPLS-2005>
41.9199295043945

> <r_mmod_Bend_Energy-OPLS-2005>
113.773620605469

> <r_mmod_Torsional_Energy-OPLS-2005>
255.308547973633

> <r_mmod_Improper_Torsional_Energy-OPLS-2005>
5.34611988067627

> <r_mmod_Van_der_Waal_Energy-OPLS-2005>
151.776138305664

> <r_mmod_Electrostatic_Energy-OPLS-2005>
-455.629333496094

> <r_mmod_Solvation_Energy-OPLS-2005>
-273.239990234375

> <b_mmod_Minimization_Converged-OPLS-2005>
0

> <r_mmod_RMS_Derivative-OPLS-2005>
0.910557746887207

$$$$
46
                    3D
 Structure written by MMmdl.
166175  0  0  1  0            999 V2000
  -30.5742  -14.7524   20.4561 C   0  0  0  0  0  0
  -30.4384  -12.4649   19.4373 C   0  0  0  0  0  0
  -29.4996  -12.5280   18.2128 C   0  0  0  0  0  0
  -28.0264  -12.3456   18.6353 C   0  0  0  0  0  0
  -27.6379  -13.2292   19.8503 C   0  0  2  0  0  0
  -28.6938  -13.1421   20.9703 C   0  0  0  0  0  0
  -25.2488  -13.8195   20.5744 C   0  0  0  0  0  0
  -24.1788  -13.0422   20.9241 C   0  0  0  0  0  0
  -24.6401  -11.6907   20.8784 C   0  0  0  0  0  0
  -23.9093  -10.4274   21.0431 C   0  0  0  0  0  0
  -24.3649   -9.4183   21.9198 C   0  0  0  0  0  0
  -23.6314   -8.2228   22.0771 C   0  0  0  0  0  0
  -22.4292   -8.0281   21.3561 C   0  0  0  0  0  0
  -21.9934   -9.0251   20.4647 C   0  0  0  0  0  0
  -22.7277  -10.2118   20.3067 C   0  0  0  0  0  0
  -21.6844   -6.0737   22.5291 C   0  0  0  0  0  0
  -21.4002   -6.5638   23.8224 C   0  0  0  0  0  0
  -21.3666   -5.6793   24.9192 C   0  0  0  0  0  0
  -21.6056   -4.3058   24.7227 C   0  0  0  0  0  0
  -21.8827   -3.8140   23.4347 C   0  0  0  0  0  0
  -21.9194   -4.6967   22.3401 C   0  0  0  0  0  0
  -22.7799  -13.5178   21.1864 C   0  0  0  0  0  0
  -22.1659   -4.2148   21.0976 F   0  0  0  0  0  0
  -21.5633   -3.4538   25.7734 F   0  0  0  0  0  0
  -29.9813  -13.5139   20.3709 N   0  0  0  0  0  0
  -26.2930  -12.9413   20.3327 N   0  0  0  0  0  0
  -25.9335  -11.6553   20.5803 N   0  0  0  0  0  0
  -22.0438  -12.8194   22.0421 N   0  0  0  0  0  0
  -25.4071  -15.1939   20.4155 N   0  0  0  0  0  0
  -31.7920  -14.8729   20.3018 O   0  0  0  0  0  0
  -21.6644   -6.8887   21.4258 O   0  0  0  0  0  0
  -22.3489  -14.5481   20.6693 O   0  0  0  0  0  0
  -24.6342  -31.8537   23.1974 C   0  0  0  0  0  0
  -25.9154  -32.4742   23.8338 C   0  0  1  0  0  0
  -27.2151  -27.2389   20.1300 C   0  0  0  0  0  0
  -25.5933  -33.8549   24.2239 N   0  0  0  0  0  0
  -23.4300  -30.4755   21.5444 C   0  0  2  0  0  0
  -24.8766  -28.9223   20.1140 C   0  0  0  0  0  0
  -22.7496  -29.4590   22.4933 C   0  0  0  0  0  0
  -18.0286  -28.1388   22.8488 C   0  0  0  0  0  0
  -24.1484  -36.7268   23.2646 C   0  0  0  0  0  0
  -25.9799  -30.7591   21.3824 C   0  0  0  0  0  0
  -26.0522  -29.3814   20.7216 C   0  0  0  0  0  0
  -27.2259  -28.5542   20.7148 C   0  0  0  0  0  0
  -26.0157  -26.8661   19.4797 C   0  0  0  0  0  0
  -24.8650  -27.6740   19.4810 C   0  0  0  0  0  0
  -23.6463  -29.8061   20.1636 C   0  0  0  0  0  0
  -25.4115  -36.3059   24.0311 C   0  0  1  0  0  0
  -20.5892  -28.3696   23.1263 C   0  0  2  0  0  0
  -20.6770  -26.9414   22.5400 C   0  0  0  0  0  0
  -19.5741  -26.6368   21.5208 C   0  0  0  0  0  0
  -18.1923  -26.7931   22.1612 C   0  0  0  0  0  0
  -19.1546  -28.8863   23.2860 C   0  0  0  0  0  0
  -18.9457  -30.1474   23.8858 C   0  0  0  0  0  0
  -17.6451  -30.6597   24.0544 C   0  0  0  0  0  0
  -25.9054  -34.9430   23.5077 C   0  0  0  0  0  0
  -16.5345  -29.9069   23.6356 C   0  0  0  0  0  0
  -16.7271  -28.6489   23.0385 C   0  0  0  0  0  0
  -26.4505  -31.6587   25.0748 C   0  0  0  0  0  0
  -25.3699  -31.3721   26.1436 C   0  0  0  0  0  0
  -27.0389  -30.3008   24.6274 C   0  0  0  0  0  0
  -27.6022  -32.4354   25.7546 C   0  0  0  0  0  0
  -27.5570  -37.1786   24.8462 C   0  0  0  0  0  0
  -21.4201  -29.3058   22.3672 N   0  0  0  0  0  0
  -26.4284  -37.3760   23.9401 N   0  0  0  0  0  0
  -24.7003  -31.0475   22.0969 N   0  0  0  0  0  0
  -23.4179  -28.8130   23.3045 O   0  0  0  0  0  0
  -28.2926  -26.3125   20.1813 O   0  0  0  0  0  0
  -26.5639  -34.8905   22.4654 O   0  0  0  0  0  0
  -23.5485  -32.1373   23.7247 O   0  0  0  0  0  0
  -28.3675  -19.3660   22.3215 C   0  0  0  0  0  0
  -28.8268  -16.9657   22.1964 C   0  0  0  0  0  0
  -29.5807  -18.4677   20.4256 C   0  0  0  0  0  0
  -28.2161  -18.0588   22.8492 C   0  0  0  0  0  0
  -29.0419  -19.6512   21.1025 C   0  0  0  0  0  0
  -29.4951  -17.1111   20.9673 C   0  0  0  0  0  0
  -28.6652  -22.2710   21.1778 C   0  0  0  0  0  0
  -27.3737  -17.8296   24.0616 C   0  0  0  0  0  0
  -26.6052  -18.5518   26.1555 C   0  0  0  0  0  0
  -29.3926  -22.9429   19.0473 C   0  0  0  0  0  0
  -29.7253  -21.4444   19.3320 C   0  0  0  0  0  0
  -29.0248  -23.5964   20.3902 C   0  0  1  0  0  0
  -26.5371  -16.5404   24.0232 C   0  0  0  0  0  0
  -26.2631  -19.8819   26.8164 C   0  0  0  0  0  0
  -27.9625  -24.8396   20.3551 C   0  0  0  0  0  0
  -27.3343  -18.7210   24.9874 N   0  0  0  0  0  0
  -29.1041  -21.0791   20.6058 N   0  0  0  0  0  0
  -29.7336  -15.8382   20.2482 N   0  0  0  0  0  0
  -28.0458  -22.3668   22.2402 O   0  0  0  0  0  0
  -26.2250  -17.5089   26.6893 O   0  0  0  0  0  0
  -31.4747  -12.6127   19.1292 H   0  0  0  0  0  0
  -30.3949  -11.4829   19.9076 H   0  0  0  0  0  0
  -29.7737  -11.7760   17.4726 H   0  0  0  0  0  0
  -29.6181  -13.4940   17.7197 H   0  0  0  0  0  0
  -27.8732  -11.2934   18.8786 H   0  0  0  0  0  0
  -27.3674  -12.5610   17.7945 H   0  0  0  0  0  0
  -27.6235  -14.2538   19.4835 H   0  0  0  0  0  0
  -28.7400  -12.1339   21.3860 H   0  0  0  0  0  0
  -28.4401  -13.8045   21.7983 H   0  0  0  0  0  0
  -25.2795   -9.5638   22.4768 H   0  0  0  0  0  0
  -24.0004   -7.4623   22.7506 H   0  0  0  0  0  0
  -21.0865   -8.8791   19.8937 H   0  0  0  0  0  0
  -22.3771  -10.9674   19.6171 H   0  0  0  0  0  0
  -21.1998   -7.6158   23.9729 H   0  0  0  0  0  0
  -21.1475   -6.0520   25.9097 H   0  0  0  0  0  0
  -22.0605   -2.7602   23.2854 H   0  0  0  0  0  0
  -22.4062  -11.9865   22.4819 H   0  0  0  0  0  0
  -21.1049  -13.1209   22.2598 H   0  0  0  0  0  0
  -24.6165  -15.8224   20.5095 H   0  0  0  0  0  0
  -26.2399  -15.6579   20.0796 H   0  0  0  0  0  0
  -26.7220  -32.5384   23.1079 H   0  0  0  0  0  0
  -25.0082  -33.9675   25.0386 H   0  0  0  0  0  0
  -22.7278  -31.2986   21.3954 H   0  0  0  0  0  0
  -23.3753  -35.9592   23.3302 H   0  0  0  0  0  0
  -24.3566  -36.8915   22.2059 H   0  0  0  0  0  0
  -23.7225  -37.6449   23.6699 H   0  0  0  0  0  0
  -26.1251  -31.5192   20.6130 H   0  0  0  0  0  0
  -26.8551  -30.8032   22.0193 H   0  0  0  0  0  0
  -28.1265  -28.8993   21.2039 H   0  0  0  0  0  0
  -25.9266  -25.9287   18.9558 H   0  0  0  0  0  0
  -23.9684  -27.3179   18.9923 H   0  0  0  0  0  0
  -23.7552  -30.5758   19.3985 H   0  0  0  0  0  0
  -22.7665  -29.2285   19.8716 H   0  0  0  0  0  0
  -25.1301  -36.1898   25.0803 H   0  0  0  0  0  0
  -20.9971  -28.3286   24.1385 H   0  0  0  0  0  0
  -20.5673  -26.2307   23.3604 H   0  0  0  0  0  0
  -21.6639  -26.7425   22.1204 H   0  0  0  0  0  0
  -19.6896  -25.6269   21.1260 H   0  0  0  0  0  0
  -19.6684  -27.3152   20.6720 H   0  0  0  0  0  0
  -17.4191  -26.6699   21.4017 H   0  0  0  0  0  0
  -18.0302  -26.0066   22.9007 H   0  0  0  0  0  0
  -19.7933  -30.7310   24.2196 H   0  0  0  0  0  0
  -17.5008  -31.6281   24.5144 H   0  0  0  0  0  0
  -15.5351  -30.2955   23.7710 H   0  0  0  0  0  0
  -15.8672  -28.0779   22.7146 H   0  0  0  0  0  0
  -24.5903  -30.7047   25.7745 H   0  0  0  0  0  0
  -24.8851  -32.2880   26.4827 H   0  0  0  0  0  0
  -25.7996  -30.8918   27.0239 H   0  0  0  0  0  0
  -26.3022  -29.6729   24.1250 H   0  0  0  0  0  0
  -27.4013  -29.7292   25.4834 H   0  0  0  0  0  0
  -27.8912  -30.4287   23.9595 H   0  0  0  0  0  0
  -27.2597  -33.3654   26.2094 H   0  0  0  0  0  0
  -28.3860  -32.6915   25.0408 H   0  0  0  0  0  0
  -28.0665  -31.8505   26.5496 H   0  0  0  0  0  0
  -28.2568  -38.0106   24.7549 H   0  0  0  0  0  0
  -28.1096  -36.2631   24.6273 H   0  0  0  0  0  0
  -27.2279  -37.1409   25.8863 H   0  0  0  0  0  0
  -20.9396  -29.8787   21.6867 H   0  0  0  0  0  0
  -26.0159  -38.2823   24.1427 H   0  0  0  0  0  0
  -27.8916  -20.1540   22.8816 H   0  0  0  0  0  0
  -28.7052  -15.9752   22.6122 H   0  0  0  0  0  0
  -30.0394  -18.5949   19.4556 H   0  0  0  0  0  0
  -28.5405  -22.9963   18.3697 H   0  0  0  0  0  0
  -30.2237  -23.4549   18.5609 H   0  0  0  0  0  0
  -30.8022  -21.2988   19.4192 H   0  0  0  0  0  0
  -29.3667  -20.8034   18.5253 H   0  0  0  0  0  0
  -29.9353  -23.9550   20.8686 H   0  0  0  0  0  0
  -26.4401  -16.1526   23.0090 H   0  0  0  0  0  0
  -25.5156  -16.7156   24.3607 H   0  0  0  0  0  0
  -26.9889  -15.7687   24.6458 H   0  0  0  0  0  0
  -25.9165  -20.6037   26.0758 H   0  0  0  0  0  0
  -27.1343  -20.2944   27.3244 H   0  0  0  0  0  0
  -25.4708  -19.7522   27.5543 H   0  0  0  0  0  0
  -27.3924  -24.7952   21.2837 H   0  0  0  0  0  0
  -27.2596  -24.5419   19.5846 H   0  0  0  0  0  0
  -28.8768  -15.4929   19.8456 H   0  0  0  0  0  0
  1 25  1  0  0  0
  1 30  2  0  0  0
  1 88  1  0  0  0
  2  3  1  0  0  0
  2 25  1  0  0  0
  2 91  1  0  0  0
  2 92  1  0  0  0
  3  4  1  0  0  0
  3 93  1  0  0  0
  3 94  1  0  0  0
  4  5  1  0  0  0
  4 95  1  0  0  0
  4 96  1  0  0  0
  5  6  1  0  0  0
  5 26  1  0  0  0
  5 97  1  0  0  0
  6 25  1  0  0  0
  6 98  1  0  0  0
  6 99  1  0  0  0
  7  8  2  0  0  0
  7 26  1  0  0  0
  7 29  1  0  0  0
  8  9  1  0  0  0
  8 22  1  0  0  0
  9 10  1  0  0  0
  9 27  2  0  0  0
 10 11  2  0  0  0
 10 15  1  0  0  0
 11 12  1  0  0  0
 11100  1  0  0  0
 12 13  2  0  0  0
 12101  1  0  0  0
 13 14  1  0  0  0
 13 31  1  0  0  0
 14 15  2  0  0  0
 14102  1  0  0  0
 15103  1  0  0  0
 16 17  2  0  0  0
 16 21  1  0  0  0
 16 31  1  0  0  0
 17 18  1  0  0  0
 17104  1  0  0  0
 18 19  2  0  0  0
 18105  1  0  0  0
 19 20  1  0  0  0
 19 24  1  0  0  0
 20 21  2  0  0  0
 20106  1  0  0  0
 21 23  1  0  0  0
 22 28  1  0  0  0
 22 32  2  0  0  0
 26 27  1  0  0  0
 28107  1  0  0  0
 28108  1  0  0  0
 29109  1  0  0  0
 29110  1  0  0  0
 33 34  1  0  0  0
 33 66  1  0  0  0
 33 70  2  0  0  0
 34 36  1  0  0  0
 34 59  1  0  0  0
 34111  1  0  0  0
 35 44  2  0  0  0
 35 45  1  0  0  0
 35 68  1  0  0  0
 36 56  1  0  0  0
 36112  1  0  0  0
 37 39  1  0  0  0
 37 47  1  0  0  0
 37 66  1  0  0  0
 37113  1  0  0  0
 38 43  2  0  0  0
 38 46  1  0  0  0
 38 47  1  0  0  0
 39 64  1  0  0  0
 39 67  2  0  0  0
 40 52  1  0  0  0
 40 53  2  0  0  0
 40 58  1  0  0  0
 41114  1  0  0  0
 41115  1  0  0  0
 41116  1  0  0  0
 41 48  1  0  0  0
 42 43  1  0  0  0
 42 66  1  0  0  0
 42117  1  0  0  0
 42118  1  0  0  0
 43 44  1  0  0  0
 44119  1  0  0  0
 45 46  2  0  0  0
 45120  1  0  0  0
 46121  1  0  0  0
 47122  1  0  0  0
 47123  1  0  0  0
 48 56  1  0  0  0
 48 65  1  0  0  0
 48124  1  0  0  0
 49 50  1  0  0  0
 49 53  1  0  0  0
 49 64  1  0  0  0
 49125  1  0  0  0
 50 51  1  0  0  0
 50126  1  0  0  0
 50127  1  0  0  0
 51 52  1  0  0  0
 51128  1  0  0  0
 51129  1  0  0  0
 52130  1  0  0  0
 52131  1  0  0  0
 53 54  1  0  0  0
 54 55  2  0  0  0
 54132  1  0  0  0
 55 57  1  0  0  0
 55133  1  0  0  0
 56 69  2  0  0  0
 57 58  2  0  0  0
 57134  1  0  0  0
 58135  1  0  0  0
 59 60  1  0  0  0
 59 61  1  0  0  0
 59 62  1  0  0  0
 60136  1  0  0  0
 60137  1  0  0  0
 60138  1  0  0  0
 61139  1  0  0  0
 61140  1  0  0  0
 61141  1  0  0  0
 62142  1  0  0  0
 62143  1  0  0  0
 62144  1  0  0  0
 63 65  1  0  0  0
 63145  1  0  0  0
 63146  1  0  0  0
 63147  1  0  0  0
 64148  1  0  0  0
 65149  1  0  0  0
 68 85  1  0  0  0
 71 74  2  0  0  0
 71 75  1  0  0  0
 71150  1  0  0  0
 72 74  1  0  0  0
 72 76  2  0  0  0
 72151  1  0  0  0
 73 75  2  0  0  0
 73 76  1  0  0  0
 73152  1  0  0  0
 74 78  1  0  0  0
 75 87  1  0  0  0
 76 88  1  0  0  0
 77 82  1  0  0  0
 77 87  1  0  0  0
 77 89  2  0  0  0
 78 83  1  0  0  0
 78 86  2  0  0  0
 79 84  1  0  0  0
 79 86  1  0  0  0
 79 90  2  0  0  0
 80 81  1  0  0  0
 80 82  1  0  0  0
 80153  1  0  0  0
 80154  1  0  0  0
 81 87  1  0  0  0
 81155  1  0  0  0
 81156  1  0  0  0
 82 85  1  0  0  0
 82157  1  0  0  0
 83158  1  0  0  0
 83159  1  0  0  0
 83160  1  0  0  0
 84161  1  0  0  0
 84162  1  0  0  0
 84163  1  0  0  0
 85164  1  0  0  0
 85165  1  0  0  0
 88166  1  0  0  0
M  ISO  4   1 100  68 101  85 101  88 100
M  END
> <chiral flag>
0

> <version>
0

> <s_m_source_file>
/data/baiqing/PycharmProjects/Reinvent-master-3.2/result/LINK_invent/BTK/process_docking_weight1_custom_product_contain_oxygen_bond_distance_aromatic_linkinvent_7_9_3/rearranged_h_0069.sdf

> <i_m_source_file_index>
46

> <r_mmod_Potential_Energy-OPLS-2005>
353.096466064453

> <r_mmod_Stretch_Energy-OPLS-2005>
141.890731811523

> <r_mmod_Bend_Energy-OPLS-2005>
229.674377441406

> <r_mmod_Torsional_Energy-OPLS-2005>
336.261383056641

> <r_mmod_Improper_Torsional_Energy-OPLS-2005>
19.5990028381348

> <r_mmod_Van_der_Waal_Energy-OPLS-2005>
152.593414306641

> <r_mmod_Electrostatic_Energy-OPLS-2005>
-394.337066650391

> <r_mmod_Solvation_Energy-OPLS-2005>
-232.742965698242

> <b_mmod_Minimization_Converged-OPLS-2005>
0

> <r_mmod_RMS_Derivative-OPLS-2005>
2.73170971870422

$$$$
47
                    3D
 Structure written by MMmdl.
167176  0  0  1  0            999 V2000
  -30.5532  -14.7142   20.4064 C   0  0  0  0  0  0
  -30.4499  -12.4224   19.4469 C   0  0  0  0  0  0
  -29.5135  -12.4911   18.2198 C   0  0  0  0  0  0
  -28.0364  -12.3109   18.6372 C   0  0  0  0  0  0
  -27.6424  -13.2018   19.8468 C   0  0  2  0  0  0
  -28.6946  -13.1040   20.9725 C   0  0  0  0  0  0
  -25.2578  -13.8019   20.5840 C   0  0  0  0  0  0
  -24.1778  -13.0310   20.9109 C   0  0  0  0  0  0
  -24.6360  -11.6799   20.8656 C   0  0  0  0  0  0
  -23.9038  -10.4221   21.0368 C   0  0  0  0  0  0
  -24.3592   -9.4173   21.9175 C   0  0  0  0  0  0
  -23.6257   -8.2222   22.0753 C   0  0  0  0  0  0
  -22.4241   -8.0271   21.3552 C   0  0  0  0  0  0
  -21.9854   -9.0250   20.4671 C   0  0  0  0  0  0
  -22.7191  -10.2102   20.3056 C   0  0  0  0  0  0
  -21.6833   -6.0734   22.5261 C   0  0  0  0  0  0
  -21.4016   -6.5633   23.8204 C   0  0  0  0  0  0
  -21.3649   -5.6785   24.9163 C   0  0  0  0  0  0
  -21.6029   -4.3050   24.7199 C   0  0  0  0  0  0
  -21.8832   -3.8150   23.4313 C   0  0  0  0  0  0
  -21.9179   -4.6966   22.3366 C   0  0  0  0  0  0
  -22.7810  -13.5174   21.1711 C   0  0  0  0  0  0
  -22.1639   -4.2169   21.0941 F   0  0  0  0  0  0
  -21.5631   -3.4534   25.7705 F   0  0  0  0  0  0
  -29.9944  -13.4612   20.3879 N   0  0  0  0  0  0
  -26.2949  -12.9183   20.3301 N   0  0  0  0  0  0
  -25.9281  -11.6356   20.5690 N   0  0  0  0  0  0
  -22.0382  -12.8324   22.0318 N   0  0  0  0  0  0
  -25.4459  -15.1735   20.4798 N   0  0  0  0  0  0
  -31.7524  -14.8811   20.1709 O   0  0  0  0  0  0
  -21.6605   -6.8879   21.4236 O   0  0  0  0  0  0
  -22.3577  -14.5486   20.6527 O   0  0  0  0  0  0
  -24.6262  -31.8617   23.2047 C   0  0  0  0  0  0
  -25.9122  -32.4769   23.8375 C   0  0  1  0  0  0
  -27.2276  -27.3324   20.1149 C   0  0  0  0  0  0
  -25.5910  -33.8563   24.2300 N   0  0  0  0  0  0
  -23.4182  -30.4879   21.5469 C   0  0  2  0  0  0
  -24.8669  -28.9465   20.1079 C   0  0  0  0  0  0
  -22.7468  -29.4650   22.4946 C   0  0  0  0  0  0
  -18.0299  -28.1380   22.8481 C   0  0  0  0  0  0
  -24.1500  -36.7293   23.2638 C   0  0  0  0  0  0
  -25.9617  -30.7941   21.3790 C   0  0  0  0  0  0
  -26.0356  -29.4251   20.7163 C   0  0  0  0  0  0
  -27.2193  -28.6275   20.7154 C   0  0  0  0  0  0
  -26.0421  -26.9129   19.4701 C   0  0  0  0  0  0
  -24.8712  -27.6937   19.4775 C   0  0  0  0  0  0
  -23.6315  -29.8241   20.1613 C   0  0  0  0  0  0
  -25.4105  -36.3076   24.0344 C   0  0  1  0  0  0
  -20.5893  -28.3704   23.1274 C   0  0  2  0  0  0
  -20.6799  -26.9432   22.5382 C   0  0  0  0  0  0
  -19.5769  -26.6390   21.5192 C   0  0  0  0  0  0
  -18.1952  -26.7929   22.1607 C   0  0  0  0  0  0
  -19.1545  -28.8856   23.2875 C   0  0  0  0  0  0
  -18.9464  -30.1457   23.8915 C   0  0  0  0  0  0
  -17.6459  -30.6582   24.0571 C   0  0  0  0  0  0
  -25.9042  -34.9437   23.5126 C   0  0  0  0  0  0
  -16.5356  -29.9081   23.6310 C   0  0  0  0  0  0
  -16.7286  -28.6478   23.0360 C   0  0  0  0  0  0
  -26.4493  -31.6556   25.0734 C   0  0  0  0  0  0
  -25.3715  -31.3687   26.1450 C   0  0  0  0  0  0
  -27.0302  -30.2963   24.6198 C   0  0  0  0  0  0
  -27.6112  -32.4264   25.7443 C   0  0  0  0  0  0
  -27.5580  -37.1800   24.8461 C   0  0  0  0  0  0
  -21.4190  -29.3039   22.3643 N   0  0  0  0  0  0
  -26.4306  -37.3750   23.9388 N   0  0  0  0  0  0
  -24.6868  -31.0639   22.0992 N   0  0  0  0  0  0
  -23.4181  -28.8209   23.3052 O   0  0  0  0  0  0
  -28.3286  -26.4609   20.1517 O   0  0  0  0  0  0
  -26.5630  -34.8920   22.4712 O   0  0  0  0  0  0
  -23.5440  -32.1442   23.7366 O   0  0  0  0  0  0
  -30.7186  -19.4030   20.9860 C   0  0  0  0  0  0
  -30.7313  -17.9728   20.9645 C   0  0  0  0  0  0
  -28.6719  -19.4196   19.7470 C   0  0  0  0  0  0
  -29.6848  -20.1775   20.3814 C   0  0  0  0  0  0
  -29.7107  -17.2149   20.3309 C   0  0  0  0  0  0
  -28.6697  -17.9820   19.7066 C   0  0  0  0  0  0
  -28.8691  -23.9912   20.1962 C   0  0  0  0  0  0
  -30.7337  -22.4558   20.1077 C   0  0  0  0  0  0
  -24.7102  -17.2658   16.9429 C   0  0  0  0  0  0
  -28.0690  -25.0933   20.3864 C   0  0  0  0  0  0
  -25.8843  -16.9297   17.5113 C   0  0  0  0  0  0
  -26.4455  -17.7273   18.5901 C   0  0  0  0  0  0
  -28.4505  -22.5160   20.4208 C   0  0  0  0  0  0
  -30.3294  -23.9207   19.7951 C   0  0  0  0  0  0
  -30.4836  -24.1440   18.2775 C   0  0  0  0  0  0
  -31.2048  -24.9556   20.5368 C   0  0  0  0  0  0
  -29.6703  -21.6581   20.3679 N   0  0  0  0  0  0
  -27.6736  -17.2977   18.9426 N   0  0  0  0  0  0
  -29.6340  -15.7441   20.3825 N   0  0  0  0  0  0
  -31.9146  -22.0933   20.0914 O   0  0  0  0  0  0
  -25.8564  -18.6603   19.1451 O   0  0  0  0  0  0
  -31.4867  -12.5722   19.1417 H   0  0  0  0  0  0
  -30.4148  -11.4385   19.9196 H   0  0  0  0  0  0
  -29.7891  -11.7249   17.4935 H   0  0  0  0  0  0
  -29.6444  -13.4483   17.7152 H   0  0  0  0  0  0
  -27.8955  -11.2618   18.8913 H   0  0  0  0  0  0
  -27.3823  -12.5045   17.7869 H   0  0  0  0  0  0
  -27.6273  -14.2197   19.4629 H   0  0  0  0  0  0
  -28.7252  -12.0921   21.3789 H   0  0  0  0  0  0
  -28.4391  -13.7591   21.8080 H   0  0  0  0  0  0
  -25.2713   -9.5648   22.4785 H   0  0  0  0  0  0
  -23.9965   -7.4595   22.7460 H   0  0  0  0  0  0
  -21.0786   -8.8783   19.8961 H   0  0  0  0  0  0
  -22.3653  -10.9675   19.6209 H   0  0  0  0  0  0
  -21.2037   -7.6137   23.9724 H   0  0  0  0  0  0
  -21.1437   -6.0499   25.9070 H   0  0  0  0  0  0
  -22.0619   -2.7619   23.2797 H   0  0  0  0  0  0
  -22.3858  -12.0001   22.4845 H   0  0  0  0  0  0
  -21.1035  -13.1544   22.2390 H   0  0  0  0  0  0
  -24.6798  -15.7824   20.7467 H   0  0  0  0  0  0
  -26.3381  -15.5535   20.7591 H   0  0  0  0  0  0
  -26.7182  -32.5425   23.1120 H   0  0  0  0  0  0
  -24.9993  -33.9693   25.0399 H   0  0  0  0  0  0
  -22.7115  -31.3088   21.4062 H   0  0  0  0  0  0
  -23.3750  -35.9643   23.3330 H   0  0  0  0  0  0
  -24.3602  -36.8865   22.2043 H   0  0  0  0  0  0
  -23.7297  -37.6524   23.6646 H   0  0  0  0  0  0
  -26.1034  -31.5633   20.6182 H   0  0  0  0  0  0
  -26.8365  -30.8325   22.0163 H   0  0  0  0  0  0
  -28.1135  -28.9925   21.2005 H   0  0  0  0  0  0
  -26.0117  -25.9554   18.9711 H   0  0  0  0  0  0
  -23.9782  -27.3210   18.9946 H   0  0  0  0  0  0
  -23.7456  -30.6036   19.4064 H   0  0  0  0  0  0
  -22.7505  -29.2533   19.8592 H   0  0  0  0  0  0
  -25.1293  -36.1933   25.0845 H   0  0  0  0  0  0
  -20.9996  -28.3296   24.1396 H   0  0  0  0  0  0
  -20.5699  -26.2337   23.3588 H   0  0  0  0  0  0
  -21.6683  -26.7467   22.1192 H   0  0  0  0  0  0
  -19.6943  -25.6300   21.1241 H   0  0  0  0  0  0
  -19.6683  -27.3191   20.6712 H   0  0  0  0  0  0
  -17.4217  -26.6694   21.4012 H   0  0  0  0  0  0
  -18.0340  -26.0053   22.8981 H   0  0  0  0  0  0
  -19.7931  -30.7266   24.2308 H   0  0  0  0  0  0
  -17.5007  -31.6266   24.5153 H   0  0  0  0  0  0
  -15.5371  -30.2990   23.7591 H   0  0  0  0  0  0
  -15.8692  -28.0773   22.7130 H   0  0  0  0  0  0
  -24.5864  -30.7091   25.7727 H   0  0  0  0  0  0
  -24.8940  -32.2844   26.4939 H   0  0  0  0  0  0
  -25.8001  -30.8761   27.0182 H   0  0  0  0  0  0
  -26.2839  -29.6711   24.1284 H   0  0  0  0  0  0
  -27.4022  -29.7234   25.4699 H   0  0  0  0  0  0
  -27.8722  -30.4211   23.9393 H   0  0  0  0  0  0
  -27.2809  -33.3594   26.2025 H   0  0  0  0  0  0
  -28.3875  -32.6762   25.0193 H   0  0  0  0  0  0
  -28.0844  -31.8373   26.5309 H   0  0  0  0  0  0
  -28.2633  -38.0065   24.7470 H   0  0  0  0  0  0
  -28.1055  -36.2601   24.6337 H   0  0  0  0  0  0
  -27.2312  -37.1509   25.8875 H   0  0  0  0  0  0
  -20.9402  -29.8707   21.6780 H   0  0  0  0  0  0
  -26.0198  -38.2848   24.1325 H   0  0  0  0  0  0
  -31.5245  -19.9142   21.4932 H   0  0  0  0  0  0
  -31.5359  -17.4540   21.4658 H   0  0  0  0  0  0
  -27.9018  -19.9686   19.2274 H   0  0  0  0  0  0
  -24.2941  -16.6796   16.1344 H   0  0  0  0  0  0
  -24.1383  -18.1274   17.2666 H   0  0  0  0  0  0
  -27.0602  -24.9421   20.7471 H   0  0  0  0  0  0
  -26.4101  -16.0547   17.1522 H   0  0  0  0  0  0
  -27.7474  -22.2287   19.6379 H   0  0  0  0  0  0
  -27.9483  -22.4109   21.3844 H   0  0  0  0  0  0
  -29.9324  -23.4026   17.6979 H   0  0  0  0  0  0
  -31.5291  -24.0827   17.9696 H   0  0  0  0  0  0
  -30.1154  -25.1259   17.9843 H   0  0  0  0  0  0
  -31.0626  -24.9216   21.6162 H   0  0  0  0  0  0
  -30.9725  -25.9690   20.2061 H   0  0  0  0  0  0
  -32.2677  -24.7993   20.3402 H   0  0  0  0  0  0
  -27.9662  -16.4326   18.5144 H   0  0  0  0  0  0
  -28.6924  -15.3882   20.3472 H   0  0  0  0  0  0
  1 25  1  0  0  0
  1 30  2  0  0  0
  1 89  1  0  0  0
  2  3  1  0  0  0
  2 25  1  0  0  0
  2 92  1  0  0  0
  2 93  1  0  0  0
  3  4  1  0  0  0
  3 94  1  0  0  0
  3 95  1  0  0  0
  4  5  1  0  0  0
  4 96  1  0  0  0
  4 97  1  0  0  0
  5  6  1  0  0  0
  5 26  1  0  0  0
  5 98  1  0  0  0
  6 25  1  0  0  0
  6 99  1  0  0  0
  6100  1  0  0  0
  7  8  2  0  0  0
  7 26  1  0  0  0
  7 29  1  0  0  0
  8  9  1  0  0  0
  8 22  1  0  0  0
  9 10  1  0  0  0
  9 27  2  0  0  0
 10 11  2  0  0  0
 10 15  1  0  0  0
 11 12  1  0  0  0
 11101  1  0  0  0
 12 13  2  0  0  0
 12102  1  0  0  0
 13 14  1  0  0  0
 13 31  1  0  0  0
 14 15  2  0  0  0
 14103  1  0  0  0
 15104  1  0  0  0
 16 17  2  0  0  0
 16 21  1  0  0  0
 16 31  1  0  0  0
 17 18  1  0  0  0
 17105  1  0  0  0
 18 19  2  0  0  0
 18106  1  0  0  0
 19 20  1  0  0  0
 19 24  1  0  0  0
 20 21  2  0  0  0
 20107  1  0  0  0
 21 23  1  0  0  0
 22 28  1  0  0  0
 22 32  2  0  0  0
 26 27  1  0  0  0
 28108  1  0  0  0
 28109  1  0  0  0
 29110  1  0  0  0
 29111  1  0  0  0
 33 34  1  0  0  0
 33 66  1  0  0  0
 33 70  2  0  0  0
 34 36  1  0  0  0
 34 59  1  0  0  0
 34112  1  0  0  0
 35 44  2  0  0  0
 35 45  1  0  0  0
 35 68  1  0  0  0
 36 56  1  0  0  0
 36113  1  0  0  0
 37 39  1  0  0  0
 37 47  1  0  0  0
 37 66  1  0  0  0
 37114  1  0  0  0
 38 43  2  0  0  0
 38 46  1  0  0  0
 38 47  1  0  0  0
 39 64  1  0  0  0
 39 67  2  0  0  0
 40 52  1  0  0  0
 40 53  2  0  0  0
 40 58  1  0  0  0
 41115  1  0  0  0
 41116  1  0  0  0
 41117  1  0  0  0
 41 48  1  0  0  0
 42 43  1  0  0  0
 42 66  1  0  0  0
 42118  1  0  0  0
 42119  1  0  0  0
 43 44  1  0  0  0
 44120  1  0  0  0
 45 46  2  0  0  0
 45121  1  0  0  0
 46122  1  0  0  0
 47123  1  0  0  0
 47124  1  0  0  0
 48 56  1  0  0  0
 48 65  1  0  0  0
 48125  1  0  0  0
 49 50  1  0  0  0
 49 53  1  0  0  0
 49 64  1  0  0  0
 49126  1  0  0  0
 50 51  1  0  0  0
 50127  1  0  0  0
 50128  1  0  0  0
 51 52  1  0  0  0
 51129  1  0  0  0
 51130  1  0  0  0
 52131  1  0  0  0
 52132  1  0  0  0
 53 54  1  0  0  0
 54 55  2  0  0  0
 54133  1  0  0  0
 55 57  1  0  0  0
 55134  1  0  0  0
 56 69  2  0  0  0
 57 58  2  0  0  0
 57135  1  0  0  0
 58136  1  0  0  0
 59 60  1  0  0  0
 59 61  1  0  0  0
 59 62  1  0  0  0
 60137  1  0  0  0
 60138  1  0  0  0
 60139  1  0  0  0
 61140  1  0  0  0
 61141  1  0  0  0
 61142  1  0  0  0
 62143  1  0  0  0
 62144  1  0  0  0
 62145  1  0  0  0
 63 65  1  0  0  0
 63146  1  0  0  0
 63147  1  0  0  0
 63148  1  0  0  0
 64149  1  0  0  0
 65150  1  0  0  0
 68 80  1  0  0  0
 71 72  2  0  0  0
 71 74  1  0  0  0
 71151  1  0  0  0
 72 75  1  0  0  0
 72152  1  0  0  0
 73 74  2  0  0  0
 73 76  1  0  0  0
 73153  1  0  0  0
 74 87  1  0  0  0
 75 76  2  0  0  0
 75 89  1  0  0  0
 76 88  1  0  0  0
 77 80  2  0  0  0
 77 83  1  0  0  0
 77 84  1  0  0  0
 78 84  1  0  0  0
 78 87  1  0  0  0
 78 90  2  0  0  0
 79 81  2  0  0  0
 79154  1  0  0  0
 79155  1  0  0  0
 80156  1  0  0  0
 81 82  1  0  0  0
 81157  1  0  0  0
 82 88  1  0  0  0
 82 91  2  0  0  0
 83 87  1  0  0  0
 83158  1  0  0  0
 83159  1  0  0  0
 84 85  1  0  0  0
 84 86  1  0  0  0
 85160  1  0  0  0
 85161  1  0  0  0
 85162  1  0  0  0
 86163  1  0  0  0
 86164  1  0  0  0
 86165  1  0  0  0
 88166  1  0  0  0
 89167  1  0  0  0
M  ISO  4   1 100  68 101  80 101  89 100
M  END
> <chiral flag>
0

> <version>
0

> <s_m_source_file>
/data/baiqing/PycharmProjects/Reinvent-master-3.2/result/LINK_invent/BTK/process_docking_weight1_custom_product_contain_oxygen_bond_distance_aromatic_linkinvent_7_9_3/rearranged_h_0069.sdf

> <i_m_source_file_index>
47

> <r_mmod_Potential_Energy-OPLS-2005>
103.066520690918

> <r_mmod_Stretch_Energy-OPLS-2005>
83.8337097167969

> <r_mmod_Bend_Energy-OPLS-2005>
171.874649047852

> <r_mmod_Torsional_Energy-OPLS-2005>
308.316467285156

> <r_mmod_Improper_Torsional_Energy-OPLS-2005>
12.5230617523193

> <r_mmod_Van_der_Waal_Energy-OPLS-2005>
141.682037353516

> <r_mmod_Electrostatic_Energy-OPLS-2005>
-451.46484375

> <r_mmod_Solvation_Energy-OPLS-2005>
-232.640258789062

> <b_mmod_Minimization_Converged-OPLS-2005>
0

> <r_mmod_RMS_Derivative-OPLS-2005>
4.60220718383789

$$$$
48
                    3D
 Structure written by MMmdl.
164173  0  0  1  0            999 V2000
  -30.6393  -14.7670   20.4046 C   0  0  0  0  0  0
  -30.4178  -12.4604   19.4940 C   0  0  0  0  0  0
  -29.4987  -12.5074   18.2499 C   0  0  0  0  0  0
  -28.0318  -12.3245   18.6739 C   0  0  0  0  0  0
  -27.6367  -13.2440   19.8569 C   0  0  2  0  0  0
  -28.6831  -13.2192   20.9974 C   0  0  0  0  0  0
  -25.2438  -13.8236   20.5798 C   0  0  0  0  0  0
  -24.1724  -13.0452   20.9255 C   0  0  0  0  0  0
  -24.6344  -11.6942   20.8809 C   0  0  0  0  0  0
  -23.9043  -10.4295   21.0460 C   0  0  0  0  0  0
  -24.3598   -9.4200   21.9221 C   0  0  0  0  0  0
  -23.6290   -8.2219   22.0759 C   0  0  0  0  0  0
  -22.4261   -8.0262   21.3550 C   0  0  0  0  0  0
  -21.9921   -9.0261   20.4665 C   0  0  0  0  0  0
  -22.7242  -10.2144   20.3106 C   0  0  0  0  0  0
  -21.6848   -6.0719   22.5279 C   0  0  0  0  0  0
  -21.4008   -6.5636   23.8210 C   0  0  0  0  0  0
  -21.3652   -5.6800   24.9178 C   0  0  0  0  0  0
  -21.6054   -4.3063   24.7240 C   0  0  0  0  0  0
  -21.8818   -3.8148   23.4371 C   0  0  0  0  0  0
  -21.9161   -4.6947   22.3401 C   0  0  0  0  0  0
  -22.7747  -13.5262   21.1879 C   0  0  0  0  0  0
  -22.1646   -4.2137   21.0991 F   0  0  0  0  0  0
  -21.5638   -3.4542   25.7752 F   0  0  0  0  0  0
  -29.9950  -13.5437   20.4205 N   0  0  0  0  0  0
  -26.2893  -12.9470   20.3407 N   0  0  0  0  0  0
  -25.9304  -11.6594   20.5887 N   0  0  0  0  0  0
  -22.0430  -12.8236   22.0449 N   0  0  0  0  0  0
  -25.4052  -15.1980   20.4230 N   0  0  0  0  0  0
  -31.8078  -14.8048   20.0020 O   0  0  0  0  0  0
  -21.6629   -6.8853   21.4235 O   0  0  0  0  0  0
  -22.3401  -14.5543   20.6713 O   0  0  0  0  0  0
  -24.6338  -31.8543   23.1963 C   0  0  0  0  0  0
  -25.9143  -32.4741   23.8327 C   0  0  1  0  0  0
  -27.2322  -27.2405   20.1239 C   0  0  0  0  0  0
  -25.5921  -33.8540   24.2242 N   0  0  0  0  0  0
  -23.4333  -30.4750   21.5392 C   0  0  2  0  0  0
  -24.8856  -28.9223   20.1083 C   0  0  0  0  0  0
  -22.7518  -29.4598   22.4902 C   0  0  0  0  0  0
  -18.0296  -28.1394   22.8480 C   0  0  0  0  0  0
  -24.1503  -36.7276   23.2643 C   0  0  0  0  0  0
  -25.9848  -30.7591   21.3829 C   0  0  0  0  0  0
  -26.0584  -29.3814   20.7190 C   0  0  0  0  0  0
  -27.2319  -28.5553   20.7137 C   0  0  0  0  0  0
  -26.0337  -26.8631   19.4718 C   0  0  0  0  0  0
  -24.8800  -27.6715   19.4727 C   0  0  0  0  0  0
  -23.6540  -29.8092   20.1566 C   0  0  0  0  0  0
  -25.4132  -36.3075   24.0331 C   0  0  1  0  0  0
  -20.5889  -28.3702   23.1266 C   0  0  2  0  0  0
  -20.6777  -26.9419   22.5405 C   0  0  0  0  0  0
  -19.5752  -26.6387   21.5206 C   0  0  0  0  0  0
  -18.1943  -26.7936   22.1620 C   0  0  0  0  0  0
  -19.1544  -28.8868   23.2860 C   0  0  0  0  0  0
  -18.9466  -30.1467   23.8879 C   0  0  0  0  0  0
  -17.6460  -30.6587   24.0564 C   0  0  0  0  0  0
  -25.9064  -34.9434   23.5105 C   0  0  0  0  0  0
  -16.5351  -29.9090   23.6333 C   0  0  0  0  0  0
  -16.7277  -28.6511   23.0349 C   0  0  0  0  0  0
  -26.4503  -31.6570   25.0713 C   0  0  0  0  0  0
  -25.3715  -31.3704   26.1404 C   0  0  0  0  0  0
  -27.0360  -30.2985   24.6240 C   0  0  0  0  0  0
  -27.6059  -32.4317   25.7467 C   0  0  0  0  0  0
  -27.5589  -37.1796   24.8470 C   0  0  0  0  0  0
  -21.4214  -29.3042   22.3646 N   0  0  0  0  0  0
  -26.4308  -37.3765   23.9405 N   0  0  0  0  0  0
  -24.7035  -31.0471   22.0961 N   0  0  0  0  0  0
  -23.4211  -28.8141   23.3000 O   0  0  0  0  0  0
  -28.3166  -26.3237   20.2082 O   0  0  0  0  0  0
  -26.5649  -34.8914   22.4677 O   0  0  0  0  0  0
  -23.5473  -32.1369   23.7230 O   0  0  0  0  0  0
  -30.2935  -18.6809   22.1187 C   0  0  0  0  0  0
  -29.4239  -19.7948   20.1393 C   0  0  0  0  0  0
  -29.8973  -21.1094   22.1198 C   0  0  0  0  0  0
  -29.8599  -18.5560   20.7892 C   0  0  0  0  0  0
  -30.3659  -19.9391   22.7658 C   0  0  0  0  0  0
  -29.4091  -21.1027   20.7912 C   0  0  0  0  0  0
  -32.9353  -18.4879   24.3027 C   0  0  0  0  0  0
  -30.1244  -17.1906   20.0757 C   0  0  0  0  0  0
  -29.0401  -23.7215   20.5265 C   0  0  0  0  0  0
  -33.1931  -17.0701   24.7847 C   0  0  0  0  0  0
  -31.8008  -16.5997   25.2264 C   0  0  0  0  0  0
  -30.9894  -17.8871   25.4250 C   0  0  0  0  0  0
  -30.9951  -20.0745   24.1529 C   0  0  0  0  0  0
  -28.0903  -24.8560   19.8862 C   0  0  0  0  0  0
  -31.6967  -18.8823   24.6339 N   0  0  0  0  0  0
  -28.9026  -22.3724   20.1743 N   0  0  0  0  0  0
  -29.9490  -15.9444   20.6832 N   0  0  0  0  0  0
  -33.7644  -19.1375   23.6616 O   0  0  0  0  0  0
  -30.5222  -17.2677   18.9091 O   0  0  0  0  0  0
  -29.9109  -24.0889   21.3189 O   0  0  0  0  0  0
  -31.4612  -12.5385   19.1870 H   0  0  0  0  0  0
  -30.3430  -11.4944   19.9930 H   0  0  0  0  0  0
  -29.7765  -11.7301   17.5350 H   0  0  0  0  0  0
  -29.6135  -13.4641   17.7333 H   0  0  0  0  0  0
  -27.9069  -11.2801   18.9640 H   0  0  0  0  0  0
  -27.3643  -12.4838   17.8260 H   0  0  0  0  0  0
  -27.6213  -14.2572   19.4514 H   0  0  0  0  0  0
  -28.4132  -13.9419   21.7672 H   0  0  0  0  0  0
  -28.7048  -12.2421   21.4836 H   0  0  0  0  0  0
  -25.2740   -9.5713   22.4783 H   0  0  0  0  0  0
  -24.0012   -7.4618   22.7494 H   0  0  0  0  0  0
  -21.0851   -8.8816   19.8977 H   0  0  0  0  0  0
  -22.3729  -10.9692   19.6215 H   0  0  0  0  0  0
  -21.2027   -7.6157   23.9725 H   0  0  0  0  0  0
  -21.1463   -6.0528   25.9076 H   0  0  0  0  0  0
  -22.0593   -2.7611   23.2892 H   0  0  0  0  0  0
  -22.4017  -11.9893   22.4851 H   0  0  0  0  0  0
  -21.1023  -13.1165   22.2655 H   0  0  0  0  0  0
  -24.6315  -15.8450   20.5228 H   0  0  0  0  0  0
  -26.2440  -15.6420   20.0743 H   0  0  0  0  0  0
  -26.7207  -32.5395   23.1059 H   0  0  0  0  0  0
  -25.0021  -33.9666   25.0358 H   0  0  0  0  0  0
  -22.7323  -31.2985   21.3925 H   0  0  0  0  0  0
  -23.3775  -35.9592   23.3313 H   0  0  0  0  0  0
  -24.3597  -36.8887   22.2055 H   0  0  0  0  0  0
  -23.7240  -37.6473   23.6664 H   0  0  0  0  0  0
  -26.1325  -31.5297   20.6234 H   0  0  0  0  0  0
  -26.8559  -30.7996   22.0251 H   0  0  0  0  0  0
  -28.1305  -28.9034   21.2037 H   0  0  0  0  0  0
  -25.9530  -25.9168   18.9629 H   0  0  0  0  0  0
  -23.9833  -27.3177   18.9820 H   0  0  0  0  0  0
  -23.7769  -30.5861   19.4027 H   0  0  0  0  0  0
  -22.7734  -29.2425   19.8529 H   0  0  0  0  0  0
  -25.1319  -36.1930   25.0825 H   0  0  0  0  0  0
  -20.9977  -28.3288   24.1378 H   0  0  0  0  0  0
  -20.5681  -26.2316   23.3606 H   0  0  0  0  0  0
  -21.6657  -26.7452   22.1191 H   0  0  0  0  0  0
  -19.6920  -25.6299   21.1245 H   0  0  0  0  0  0
  -19.6690  -27.3190   20.6737 H   0  0  0  0  0  0
  -17.4205  -26.6663   21.4038 H   0  0  0  0  0  0
  -18.0354  -26.0084   22.9026 H   0  0  0  0  0  0
  -19.7936  -30.7294   24.2241 H   0  0  0  0  0  0
  -17.5011  -31.6262   24.5173 H   0  0  0  0  0  0
  -15.5351  -30.2982   23.7666 H   0  0  0  0  0  0
  -15.8678  -28.0826   22.7063 H   0  0  0  0  0  0
  -24.5886  -30.7071   25.7707 H   0  0  0  0  0  0
  -24.8882  -32.2844   26.4856 H   0  0  0  0  0  0
  -25.7979  -30.8839   27.0177 H   0  0  0  0  0  0
  -26.2957  -29.6694   24.1275 H   0  0  0  0  0  0
  -27.4041  -29.7283   25.4782 H   0  0  0  0  0  0
  -27.8839  -30.4245   23.9499 H   0  0  0  0  0  0
  -27.2688  -33.3627   26.2032 H   0  0  0  0  0  0
  -28.3846  -32.6858   25.0267 H   0  0  0  0  0  0
  -28.0758  -31.8452   26.5369 H   0  0  0  0  0  0
  -28.2622  -38.0085   24.7524 H   0  0  0  0  0  0
  -28.1078  -36.2615   24.6311 H   0  0  0  0  0  0
  -27.2296  -37.1457   25.8871 H   0  0  0  0  0  0
  -20.9418  -29.8754   21.6819 H   0  0  0  0  0  0
  -26.0201  -38.2848   24.1375 H   0  0  0  0  0  0
  -30.6558  -17.7880   22.6074 H   0  0  0  0  0  0
  -29.1319  -19.7373   19.1024 H   0  0  0  0  0  0
  -29.9471  -22.0374   22.6666 H   0  0  0  0  0  0
  -33.8921  -17.1015   25.6187 H   0  0  0  0  0  0
  -33.6105  -16.4465   23.9933 H   0  0  0  0  0  0
  -31.8315  -15.9914   26.1313 H   0  0  0  0  0  0
  -31.3351  -16.0062   24.4385 H   0  0  0  0  0  0
  -31.0030  -18.1860   26.4724 H   0  0  0  0  0  0
  -29.9496  -17.7790   25.1089 H   0  0  0  0  0  0
  -30.2156  -20.3469   24.8624 H   0  0  0  0  0  0
  -31.6981  -20.9085   24.1416 H   0  0  0  0  0  0
  -27.0970  -24.5683   20.2213 H   0  0  0  0  0  0
  -28.1061  -24.7394   18.8028 H   0  0  0  0  0  0
  -28.2935  -22.2359   19.3799 H   0  0  0  0  0  0
  -29.2565  -15.8925   21.4121 H   0  0  0  0  0  0
  1 25  1  0  0  0
  1 30  2  0  0  0
  1 87  1  0  0  0
  2  3  1  0  0  0
  2 25  1  0  0  0
  2 91  1  0  0  0
  2 92  1  0  0  0
  3  4  1  0  0  0
  3 93  1  0  0  0
  3 94  1  0  0  0
  4  5  1  0  0  0
  4 95  1  0  0  0
  4 96  1  0  0  0
  5  6  1  0  0  0
  5 26  1  0  0  0
  5 97  1  0  0  0
  6 25  1  0  0  0
  6 98  1  0  0  0
  6 99  1  0  0  0
  7  8  2  0  0  0
  7 26  1  0  0  0
  7 29  1  0  0  0
  8  9  1  0  0  0
  8 22  1  0  0  0
  9 10  1  0  0  0
  9 27  2  0  0  0
 10 11  2  0  0  0
 10 15  1  0  0  0
 11 12  1  0  0  0
 11100  1  0  0  0
 12 13  2  0  0  0
 12101  1  0  0  0
 13 14  1  0  0  0
 13 31  1  0  0  0
 14 15  2  0  0  0
 14102  1  0  0  0
 15103  1  0  0  0
 16 17  2  0  0  0
 16 21  1  0  0  0
 16 31  1  0  0  0
 17 18  1  0  0  0
 17104  1  0  0  0
 18 19  2  0  0  0
 18105  1  0  0  0
 19 20  1  0  0  0
 19 24  1  0  0  0
 20 21  2  0  0  0
 20106  1  0  0  0
 21 23  1  0  0  0
 22 28  1  0  0  0
 22 32  2  0  0  0
 26 27  1  0  0  0
 28107  1  0  0  0
 28108  1  0  0  0
 29109  1  0  0  0
 29110  1  0  0  0
 33 34  1  0  0  0
 33 66  1  0  0  0
 33 70  2  0  0  0
 34 36  1  0  0  0
 34 59  1  0  0  0
 34111  1  0  0  0
 35 44  2  0  0  0
 35 45  1  0  0  0
 35 68  1  0  0  0
 36 56  1  0  0  0
 36112  1  0  0  0
 37 39  1  0  0  0
 37 47  1  0  0  0
 37 66  1  0  0  0
 37113  1  0  0  0
 38 43  2  0  0  0
 38 46  1  0  0  0
 38 47  1  0  0  0
 39 64  1  0  0  0
 39 67  2  0  0  0
 40 52  1  0  0  0
 40 53  2  0  0  0
 40 58  1  0  0  0
 41114  1  0  0  0
 41115  1  0  0  0
 41116  1  0  0  0
 41 48  1  0  0  0
 42 43  1  0  0  0
 42 66  1  0  0  0
 42117  1  0  0  0
 42118  1  0  0  0
 43 44  1  0  0  0
 44119  1  0  0  0
 45 46  2  0  0  0
 45120  1  0  0  0
 46121  1  0  0  0
 47122  1  0  0  0
 47123  1  0  0  0
 48 56  1  0  0  0
 48 65  1  0  0  0
 48124  1  0  0  0
 49 50  1  0  0  0
 49 53  1  0  0  0
 49 64  1  0  0  0
 49125  1  0  0  0
 50 51  1  0  0  0
 50126  1  0  0  0
 50127  1  0  0  0
 51 52  1  0  0  0
 51128  1  0  0  0
 51129  1  0  0  0
 52130  1  0  0  0
 52131  1  0  0  0
 53 54  1  0  0  0
 54 55  2  0  0  0
 54132  1  0  0  0
 55 57  1  0  0  0
 55133  1  0  0  0
 56 69  2  0  0  0
 57 58  2  0  0  0
 57134  1  0  0  0
 58135  1  0  0  0
 59 60  1  0  0  0
 59 61  1  0  0  0
 59 62  1  0  0  0
 60136  1  0  0  0
 60137  1  0  0  0
 60138  1  0  0  0
 61139  1  0  0  0
 61140  1  0  0  0
 61141  1  0  0  0
 62142  1  0  0  0
 62143  1  0  0  0
 62144  1  0  0  0
 63 65  1  0  0  0
 63145  1  0  0  0
 63146  1  0  0  0
 63147  1  0  0  0
 64148  1  0  0  0
 65149  1  0  0  0
 68 84  1  0  0  0
 71 74  2  0  0  0
 71 75  1  0  0  0
 71150  1  0  0  0
 72 74  1  0  0  0
 72 76  2  0  0  0
 72151  1  0  0  0
 73 75  2  0  0  0
 73 76  1  0  0  0
 73152  1  0  0  0
 74 78  1  0  0  0
 75 83  1  0  0  0
 76 86  1  0  0  0
 77 80  1  0  0  0
 77 85  1  0  0  0
 77 88  2  0  0  0
 78 87  1  0  0  0
 78 89  2  0  0  0
 79 84  1  0  0  0
 79 86  1  0  0  0
 79 90  2  0  0  0
 80 81  1  0  0  0
 80153  1  0  0  0
 80154  1  0  0  0
 81 82  1  0  0  0
 81155  1  0  0  0
 81156  1  0  0  0
 82 85  1  0  0  0
 82157  1  0  0  0
 82158  1  0  0  0
 83 85  1  0  0  0
 83159  1  0  0  0
 83160  1  0  0  0
 84161  1  0  0  0
 84162  1  0  0  0
 86163  1  0  0  0
 87164  1  0  0  0
M  ISO  4   1 100  68 101  84 101  87 100
M  END
> <chiral flag>
0

> <version>
0

> <s_m_source_file>
/data/baiqing/PycharmProjects/Reinvent-master-3.2/result/LINK_invent/BTK/process_docking_weight1_custom_product_contain_oxygen_bond_distance_aromatic_linkinvent_7_9_3/rearranged_h_0069.sdf

> <i_m_source_file_index>
48

> <r_mmod_Potential_Energy-OPLS-2005>
126.874938964844

> <r_mmod_Stretch_Energy-OPLS-2005>
140.093612670898

> <r_mmod_Bend_Energy-OPLS-2005>
197.023147583008

> <r_mmod_Torsional_Energy-OPLS-2005>
299.746490478516

> <r_mmod_Improper_Torsional_Energy-OPLS-2005>
5.61033964157104

> <r_mmod_Van_der_Waal_Energy-OPLS-2005>
141.307556152344

> <r_mmod_Electrostatic_Energy-OPLS-2005>
-460.407897949219

> <r_mmod_Solvation_Energy-OPLS-2005>
-296.404388427734

> <b_mmod_Minimization_Converged-OPLS-2005>
0

> <r_mmod_RMS_Derivative-OPLS-2005>
4.80805158615112

$$$$
49
                    3D
 Structure written by MMmdl.
154162  0  0  1  0            999 V2000
  -30.6167  -14.7723   20.3848 C   0  0  0  0  0  0
  -30.4257  -12.4724   19.4510 C   0  0  0  0  0  0
  -29.5011  -12.5208   18.2165 C   0  0  0  0  0  0
  -28.0321  -12.3358   18.6425 C   0  0  0  0  0  0
  -27.6335  -13.2437   19.8378 C   0  0  2  0  0  0
  -28.6867  -13.2124   20.9648 C   0  0  0  0  0  0
  -25.2439  -13.8136   20.5688 C   0  0  0  0  0  0
  -24.1798  -13.0349   20.9216 C   0  0  0  0  0  0
  -24.6428  -11.6873   20.8741 C   0  0  0  0  0  0
  -23.9088  -10.4263   21.0427 C   0  0  0  0  0  0
  -24.3659   -9.4191   21.9195 C   0  0  0  0  0  0
  -23.6336   -8.2210   22.0722 C   0  0  0  0  0  0
  -22.4316   -8.0263   21.3499 C   0  0  0  0  0  0
  -21.9944   -9.0259   20.4621 C   0  0  0  0  0  0
  -22.7282  -10.2136   20.3033 C   0  0  0  0  0  0
  -21.6877   -6.0724   22.5263 C   0  0  0  0  0  0
  -21.4049   -6.5622   23.8226 C   0  0  0  0  0  0
  -21.3665   -5.6772   24.9175 C   0  0  0  0  0  0
  -21.6062   -4.3032   24.7217 C   0  0  0  0  0  0
  -21.8825   -3.8109   23.4324 C   0  0  0  0  0  0
  -21.9221   -4.6935   22.3398 C   0  0  0  0  0  0
  -22.7822  -13.5124   21.1887 C   0  0  0  0  0  0
  -22.1673   -4.2109   21.0972 F   0  0  0  0  0  0
  -21.5628   -3.4523   25.7727 F   0  0  0  0  0  0
  -29.9816  -13.5517   20.3582 N   0  0  0  0  0  0
  -26.2921  -12.9422   20.3242 N   0  0  0  0  0  0
  -25.9373  -11.6546   20.5711 N   0  0  0  0  0  0
  -22.0551  -12.8116   22.0498 N   0  0  0  0  0  0
  -25.3811  -15.1849   20.4126 N   0  0  0  0  0  0
  -31.8348  -14.8024   20.2006 O   0  0  0  0  0  0
  -21.6647   -6.8877   21.4224 O   0  0  0  0  0  0
  -22.3462  -14.5410   20.6719 O   0  0  0  0  0  0
  -24.6264  -31.8491   23.1937 C   0  0  0  0  0  0
  -25.9091  -32.4737   23.8257 C   0  0  1  0  0  0
  -27.2351  -27.2611   20.1130 C   0  0  0  0  0  0
  -25.5925  -33.8544   24.2233 N   0  0  0  0  0  0
  -23.4221  -30.4667   21.5371 C   0  0  2  0  0  0
  -24.8702  -28.9053   20.1028 C   0  0  0  0  0  0
  -22.7454  -29.4541   22.4894 C   0  0  0  0  0  0
  -18.0266  -28.1367   22.8475 C   0  0  0  0  0  0
  -24.1491  -36.7305   23.2631 C   0  0  0  0  0  0
  -25.9588  -30.7643   21.3603 C   0  0  0  0  0  0
  -26.0358  -29.3787   20.7195 C   0  0  0  0  0  0
  -27.2099  -28.5566   20.7339 C   0  0  0  0  0  0
  -26.0471  -26.8473   19.4745 C   0  0  0  0  0  0
  -24.8790  -27.6441   19.4781 C   0  0  0  0  0  0
  -23.6398  -29.7935   20.1520 C   0  0  0  0  0  0
  -25.4097  -36.3080   24.0311 C   0  0  1  0  0  0
  -20.5860  -28.3623   23.1299 C   0  0  2  0  0  0
  -20.6752  -26.9339   22.5430 C   0  0  0  0  0  0
  -19.5733  -26.6361   21.5223 C   0  0  0  0  0  0
  -18.1917  -26.7887   22.1642 C   0  0  0  0  0  0
  -19.1529  -28.8805   23.2887 C   0  0  0  0  0  0
  -18.9453  -30.1405   23.8867 C   0  0  0  0  0  0
  -17.6454  -30.6553   24.0542 C   0  0  0  0  0  0
  -25.9020  -34.9436   23.5081 C   0  0  0  0  0  0
  -16.5345  -29.9049   23.6321 C   0  0  0  0  0  0
  -16.7255  -28.6501   23.0298 C   0  0  0  0  0  0
  -26.4500  -31.6523   25.0599 C   0  0  0  0  0  0
  -25.3808  -31.3520   26.1379 C   0  0  0  0  0  0
  -27.0255  -30.2956   24.5932 C   0  0  0  0  0  0
  -27.6087  -32.4174   25.7377 C   0  0  0  0  0  0
  -27.5550  -37.1814   24.8464 C   0  0  0  0  0  0
  -21.4160  -29.2984   22.3681 N   0  0  0  0  0  0
  -26.4269  -37.3793   23.9417 N   0  0  0  0  0  0
  -24.6899  -31.0435   22.0911 N   0  0  0  0  0  0
  -23.4180  -28.8039   23.2933 O   0  0  0  0  0  0
  -28.3617  -26.4116   20.1919 O   0  0  0  0  0  0
  -26.5589  -34.8929   22.4645 O   0  0  0  0  0  0
  -23.5425  -32.1296   23.7278 O   0  0  0  0  0  0
  -27.1824  -20.7223   19.8587 C   0  0  0  0  0  0
  -26.8117  -19.3630   19.9671 C   0  0  0  0  0  0
  -29.5003  -20.0257   20.0341 C   0  0  0  0  0  0
  -29.1557  -18.6099   20.1222 C   0  0  0  0  0  0
  -28.5367  -21.1141   19.9137 C   0  0  0  0  0  0
  -27.7688  -18.3315   20.1043 C   0  0  0  0  0  0
  -28.2015  -23.7168   20.0771 C   0  0  0  0  0  0
  -31.2817  -17.6175   19.0911 C   0  0  0  0  0  0
  -28.5573  -25.1389   19.4157 C   0  0  0  0  0  0
  -30.2478  -17.4302   20.2306 C   0  0  2  0  0  0
  -28.8879  -22.5490   19.7326 N   0  0  0  0  0  0
  -29.8524  -15.9411   20.3672 N   0  0  0  0  0  0
  -27.2989  -23.6857   20.9139 O   0  0  0  0  0  0
  -27.3386  -17.0547   20.2233 F   0  0  0  0  0  0
  -31.4694  -12.5895   19.1497 H   0  0  0  0  0  0
  -30.3607  -11.5014   19.9451 H   0  0  0  0  0  0
  -29.7868  -11.7520   17.4984 H   0  0  0  0  0  0
  -29.6148  -13.4750   17.6999 H   0  0  0  0  0  0
  -27.9099  -11.2892   18.9170 H   0  0  0  0  0  0
  -27.3703  -12.5053   17.7900 H   0  0  0  0  0  0
  -27.6088  -14.2583   19.4456 H   0  0  0  0  0  0
  -28.4383  -13.9171   21.7604 H   0  0  0  0  0  0
  -28.7236  -12.2266   21.4291 H   0  0  0  0  0  0
  -25.2832   -9.5658   22.4734 H   0  0  0  0  0  0
  -24.0069   -7.4574   22.7392 H   0  0  0  0  0  0
  -21.0881   -8.8766   19.8947 H   0  0  0  0  0  0
  -22.3771  -10.9644   19.6091 H   0  0  0  0  0  0
  -21.2065   -7.6136   23.9706 H   0  0  0  0  0  0
  -21.1472   -6.0497   25.9091 H   0  0  0  0  0  0
  -22.0625   -2.7550   23.2839 H   0  0  0  0  0  0
  -22.4378  -11.9884   22.4944 H   0  0  0  0  0  0
  -21.1094  -13.0935   22.2644 H   0  0  0  0  0  0
  -24.5882  -15.8019   20.5454 H   0  0  0  0  0  0
  -26.2256  -15.6802   20.1448 H   0  0  0  0  0  0
  -26.7104  -32.5412   23.0936 H   0  0  0  0  0  0
  -25.0144  -33.9691   25.0436 H   0  0  0  0  0  0
  -22.7242  -31.2903   21.3889 H   0  0  0  0  0  0
  -23.3753  -35.9650   23.3286 H   0  0  0  0  0  0
  -24.3578  -36.8951   22.2055 H   0  0  0  0  0  0
  -23.7268  -37.6504   23.6639 H   0  0  0  0  0  0
  -26.0621  -31.5065   20.5663 H   0  0  0  0  0  0
  -26.8545  -30.8505   21.9632 H   0  0  0  0  0  0
  -28.0902  -28.9037   21.2534 H   0  0  0  0  0  0
  -25.9999  -25.8766   19.0020 H   0  0  0  0  0  0
  -23.9883  -27.2708   18.9917 H   0  0  0  0  0  0
  -23.7704  -30.5681   19.3957 H   0  0  0  0  0  0
  -22.7596  -29.2286   19.8414 H   0  0  0  0  0  0
  -25.1317  -36.1894   25.0800 H   0  0  0  0  0  0
  -20.9999  -28.3193   24.1405 H   0  0  0  0  0  0
  -20.5635  -26.2223   23.3624 H   0  0  0  0  0  0
  -21.6612  -26.7337   22.1226 H   0  0  0  0  0  0
  -19.6880  -25.6288   21.1199 H   0  0  0  0  0  0
  -19.6664  -27.3216   20.6780 H   0  0  0  0  0  0
  -17.4177  -26.6592   21.4056 H   0  0  0  0  0  0
  -18.0304  -26.0056   22.9056 H   0  0  0  0  0  0
  -19.7933  -30.7237   24.2244 H   0  0  0  0  0  0
  -17.5004  -31.6244   24.5117 H   0  0  0  0  0  0
  -15.5345  -30.2940   23.7650 H   0  0  0  0  0  0
  -15.8674  -28.0841   22.6948 H   0  0  0  0  0  0
  -24.6144  -30.6664   25.7705 H   0  0  0  0  0  0
  -24.8836  -32.2594   26.4786 H   0  0  0  0  0  0
  -25.8324  -30.8779   27.0115 H   0  0  0  0  0  0
  -26.2678  -29.6753   24.1115 H   0  0  0  0  0  0
  -27.4141  -29.7131   25.4281 H   0  0  0  0  0  0
  -27.8499  -30.4235   23.8933 H   0  0  0  0  0  0
  -27.2787  -33.3521   26.1888 H   0  0  0  0  0  0
  -28.3975  -32.6598   25.0253 H   0  0  0  0  0  0
  -28.0633  -31.8276   26.5367 H   0  0  0  0  0  0
  -28.2589  -38.0088   24.7531 H   0  0  0  0  0  0
  -28.1044  -36.2637   24.6292 H   0  0  0  0  0  0
  -27.2263  -37.1462   25.8864 H   0  0  0  0  0  0
  -20.9253  -29.8840   21.7059 H   0  0  0  0  0  0
  -26.0145  -38.2845   24.1468 H   0  0  0  0  0  0
  -26.4063  -21.4621   19.7106 H   0  0  0  0  0  0
  -25.7606  -19.1073   19.9388 H   0  0  0  0  0  0
  -30.5494  -20.2822   20.0607 H   0  0  0  0  0  0
  -31.5978  -18.6524   18.9900 H   0  0  0  0  0  0
  -30.8759  -17.3151   18.1281 H   0  0  0  0  0  0
  -32.2047  -17.0572   19.2476 H   0  0  0  0  0  0
  -28.0790  -25.2125   18.4414 H   0  0  0  0  0  0
  -29.6254  -25.1033   19.1913 H   0  0  0  0  0  0
  -30.7740  -17.6525   21.1623 H   0  0  0  0  0  0
  -29.7314  -22.7061   19.2005 H   0  0  0  0  0  0
  -28.8533  -15.7978   20.4507 H   0  0  0  0  0  0
  1 25  1  0  0  0
  1 30  2  0  0  0
  1 82  1  0  0  0
  2  3  1  0  0  0
  2 25  1  0  0  0
  2 85  1  0  0  0
  2 86  1  0  0  0
  3  4  1  0  0  0
  3 87  1  0  0  0
  3 88  1  0  0  0
  4  5  1  0  0  0
  4 89  1  0  0  0
  4 90  1  0  0  0
  5  6  1  0  0  0
  5 26  1  0  0  0
  5 91  1  0  0  0
  6 25  1  0  0  0
  6 92  1  0  0  0
  6 93  1  0  0  0
  7  8  2  0  0  0
  7 26  1  0  0  0
  7 29  1  0  0  0
  8  9  1  0  0  0
  8 22  1  0  0  0
  9 10  1  0  0  0
  9 27  2  0  0  0
 10 11  2  0  0  0
 10 15  1  0  0  0
 11 12  1  0  0  0
 11 94  1  0  0  0
 12 13  2  0  0  0
 12 95  1  0  0  0
 13 14  1  0  0  0
 13 31  1  0  0  0
 14 15  2  0  0  0
 14 96  1  0  0  0
 15 97  1  0  0  0
 16 17  2  0  0  0
 16 21  1  0  0  0
 16 31  1  0  0  0
 17 18  1  0  0  0
 17 98  1  0  0  0
 18 19  2  0  0  0
 18 99  1  0  0  0
 19 20  1  0  0  0
 19 24  1  0  0  0
 20 21  2  0  0  0
 20100  1  0  0  0
 21 23  1  0  0  0
 22 28  1  0  0  0
 22 32  2  0  0  0
 26 27  1  0  0  0
 28101  1  0  0  0
 28102  1  0  0  0
 29103  1  0  0  0
 29104  1  0  0  0
 33 34  1  0  0  0
 33 66  1  0  0  0
 33 70  2  0  0  0
 34 36  1  0  0  0
 34 59  1  0  0  0
 34105  1  0  0  0
 35 44  2  0  0  0
 35 45  1  0  0  0
 35 68  1  0  0  0
 36 56  1  0  0  0
 36106  1  0  0  0
 37 39  1  0  0  0
 37 47  1  0  0  0
 37 66  1  0  0  0
 37107  1  0  0  0
 38 43  2  0  0  0
 38 46  1  0  0  0
 38 47  1  0  0  0
 39 64  1  0  0  0
 39 67  2  0  0  0
 40 52  1  0  0  0
 40 53  2  0  0  0
 40 58  1  0  0  0
 41108  1  0  0  0
 41109  1  0  0  0
 41110  1  0  0  0
 41 48  1  0  0  0
 42 43  1  0  0  0
 42 66  1  0  0  0
 42111  1  0  0  0
 42112  1  0  0  0
 43 44  1  0  0  0
 44113  1  0  0  0
 45 46  2  0  0  0
 45114  1  0  0  0
 46115  1  0  0  0
 47116  1  0  0  0
 47117  1  0  0  0
 48 56  1  0  0  0
 48 65  1  0  0  0
 48118  1  0  0  0
 49 50  1  0  0  0
 49 53  1  0  0  0
 49 64  1  0  0  0
 49119  1  0  0  0
 50 51  1  0  0  0
 50120  1  0  0  0
 50121  1  0  0  0
 51 52  1  0  0  0
 51122  1  0  0  0
 51123  1  0  0  0
 52124  1  0  0  0
 52125  1  0  0  0
 53 54  1  0  0  0
 54 55  2  0  0  0
 54126  1  0  0  0
 55 57  1  0  0  0
 55127  1  0  0  0
 56 69  2  0  0  0
 57 58  2  0  0  0
 57128  1  0  0  0
 58129  1  0  0  0
 59 60  1  0  0  0
 59 61  1  0  0  0
 59 62  1  0  0  0
 60130  1  0  0  0
 60131  1  0  0  0
 60132  1  0  0  0
 61133  1  0  0  0
 61134  1  0  0  0
 61135  1  0  0  0
 62136  1  0  0  0
 62137  1  0  0  0
 62138  1  0  0  0
 63 65  1  0  0  0
 63139  1  0  0  0
 63140  1  0  0  0
 63141  1  0  0  0
 64142  1  0  0  0
 65143  1  0  0  0
 68 79  1  0  0  0
 71 72  2  0  0  0
 71 75  1  0  0  0
 71144  1  0  0  0
 72 76  1  0  0  0
 72145  1  0  0  0
 73 74  1  0  0  0
 73 75  2  0  0  0
 73146  1  0  0  0
 74 76  2  0  0  0
 74 80  1  0  0  0
 75 81  1  0  0  0
 76 84  1  0  0  0
 77 79  1  0  0  0
 77 81  1  0  0  0
 77 83  2  0  0  0
 78147  1  0  0  0
 78148  1  0  0  0
 78149  1  0  0  0
 78 80  1  0  0  0
 79150  1  0  0  0
 79151  1  0  0  0
 80 82  1  0  0  0
 80152  1  0  0  0
 81153  1  0  0  0
 82154  1  0  0  0
M  ISO  4   1 100  68 101  79 101  82 100
M  END
> <chiral flag>
0

> <version>
0

> <s_m_source_file>
/data/baiqing/PycharmProjects/Reinvent-master-3.2/result/LINK_invent/BTK/process_docking_weight1_custom_product_contain_oxygen_bond_distance_aromatic_linkinvent_7_9_3/rearranged_h_0069.sdf

> <i_m_source_file_index>
49

> <r_mmod_Potential_Energy-OPLS-2005>
137.742156982422

> <r_mmod_Stretch_Energy-OPLS-2005>
133.602264404297

> <r_mmod_Bend_Energy-OPLS-2005>
179.074096679688

> <r_mmod_Torsional_Energy-OPLS-2005>
219.482513427734

> <r_mmod_Improper_Torsional_Energy-OPLS-2005>
6.05209112167358

> <r_mmod_Van_der_Waal_Energy-OPLS-2005>
137.986618041992

> <r_mmod_Electrostatic_Energy-OPLS-2005>
-405.532775878906

> <r_mmod_Solvation_Energy-OPLS-2005>
-227.65837097168

> <b_mmod_Minimization_Converged-OPLS-2005>
0

> <r_mmod_RMS_Derivative-OPLS-2005>
6.94247007369995

$$$$
50
                    3D
 Structure written by MMmdl.
151159  0  0  1  0            999 V2000
  -30.6141  -14.7355   20.4749 C   0  0  0  0  0  0
  -30.4298  -12.4534   19.4658 C   0  0  0  0  0  0
  -29.5075  -12.5117   18.2293 C   0  0  0  0  0  0
  -28.0332  -12.3324   18.6426 C   0  0  0  0  0  0
  -27.6383  -13.2299   19.8459 C   0  0  2  0  0  0
  -28.6833  -13.1639   20.9802 C   0  0  0  0  0  0
  -25.2496  -13.8194   20.5689 C   0  0  0  0  0  0
  -24.1791  -13.0437   20.9203 C   0  0  0  0  0  0
  -24.6376  -11.6916   20.8730 C   0  0  0  0  0  0
  -23.9054  -10.4292   21.0395 C   0  0  0  0  0  0
  -24.3614   -9.4214   21.9174 C   0  0  0  0  0  0
  -23.6300   -8.2241   22.0746 C   0  0  0  0  0  0
  -22.4280   -8.0271   21.3541 C   0  0  0  0  0  0
  -21.9909   -9.0236   20.4637 C   0  0  0  0  0  0
  -22.7227  -10.2122   20.3044 C   0  0  0  0  0  0
  -21.6856   -6.0731   22.5281 C   0  0  0  0  0  0
  -21.4015   -6.5637   23.8213 C   0  0  0  0  0  0
  -21.3662   -5.6790   24.9175 C   0  0  0  0  0  0
  -21.6047   -4.3054   24.7226 C   0  0  0  0  0  0
  -21.8820   -3.8143   23.4348 C   0  0  0  0  0  0
  -21.9195   -4.6959   22.3404 C   0  0  0  0  0  0
  -22.7811  -13.5217   21.1873 C   0  0  0  0  0  0
  -22.1666   -4.2144   21.0983 F   0  0  0  0  0  0
  -21.5629   -3.4539   25.7739 F   0  0  0  0  0  0
  -29.9821  -13.5154   20.3941 N   0  0  0  0  0  0
  -26.2913  -12.9394   20.3251 N   0  0  0  0  0  0
  -25.9305  -11.6539   20.5731 N   0  0  0  0  0  0
  -22.0469  -12.8193   22.0430 N   0  0  0  0  0  0
  -25.4172  -15.1922   20.4117 N   0  0  0  0  0  0
  -31.8111  -14.8203   20.1850 O   0  0  0  0  0  0
  -21.6650   -6.8867   21.4239 O   0  0  0  0  0  0
  -22.3490  -14.5524   20.6727 O   0  0  0  0  0  0
  -24.6312  -31.8542   23.1963 C   0  0  0  0  0  0
  -25.9141  -32.4745   23.8311 C   0  0  1  0  0  0
  -27.2219  -27.2695   20.1388 C   0  0  0  0  0  0
  -25.5936  -33.8546   24.2236 N   0  0  0  0  0  0
  -23.4267  -30.4766   21.5394 C   0  0  2  0  0  0
  -24.8734  -28.9156   20.1147 C   0  0  0  0  0  0
  -22.7493  -29.4613   22.4915 C   0  0  0  0  0  0
  -18.0289  -28.1390   22.8478 C   0  0  0  0  0  0
  -24.1493  -36.7285   23.2642 C   0  0  0  0  0  0
  -25.9706  -30.7716   21.3719 C   0  0  0  0  0  0
  -26.0447  -29.3927   20.7179 C   0  0  0  0  0  0
  -27.2255  -28.5843   20.7114 C   0  0  0  0  0  0
  -26.0293  -26.8484   19.5170 C   0  0  0  0  0  0
  -24.8697  -27.6506   19.5034 C   0  0  0  0  0  0
  -23.6441  -29.8037   20.1579 C   0  0  0  0  0  0
  -25.4118  -36.3062   24.0325 C   0  0  1  0  0  0
  -20.5895  -28.3708   23.1264 C   0  0  2  0  0  0
  -20.6781  -26.9427   22.5404 C   0  0  0  0  0  0
  -19.5757  -26.6384   21.5211 C   0  0  0  0  0  0
  -18.1936  -26.7932   22.1619 C   0  0  0  0  0  0
  -19.1543  -28.8863   23.2869 C   0  0  0  0  0  0
  -18.9464  -30.1460   23.8894 C   0  0  0  0  0  0
  -17.6467  -30.6591   24.0564 C   0  0  0  0  0  0
  -25.9054  -34.9434   23.5081 C   0  0  0  0  0  0
  -16.5354  -29.9091   23.6335 C   0  0  0  0  0  0
  -16.7275  -28.6506   23.0355 C   0  0  0  0  0  0
  -26.4507  -31.6572   25.0703 C   0  0  0  0  0  0
  -25.3729  -31.3725   26.1422 C   0  0  0  0  0  0
  -27.0355  -30.2984   24.6198 C   0  0  0  0  0  0
  -27.6046  -32.4324   25.7486 C   0  0  0  0  0  0
  -27.5579  -37.1797   24.8460 C   0  0  0  0  0  0
  -21.4202  -29.3053   22.3650 N   0  0  0  0  0  0
  -26.4288  -37.3764   23.9407 N   0  0  0  0  0  0
  -24.6951  -31.0523   22.0922 N   0  0  0  0  0  0
  -23.4191  -28.8169   23.3026 O   0  0  0  0  0  0
  -28.3271  -26.3949   20.1349 O   0  0  0  0  0  0
  -26.5631  -34.8917   22.4650 O   0  0  0  0  0  0
  -23.5464  -32.1354   23.7273 O   0  0  0  0  0  0
  -31.7784  -18.8913   21.8651 C   0  0  0  0  0  0
  -31.0064  -19.9961   21.4563 C   0  0  0  0  0  0
  -31.3925  -17.5709   21.5648 C   0  0  0  0  0  0
  -29.8033  -19.8378   20.7285 C   0  0  0  0  0  0
  -30.2118  -17.2962   20.8396 C   0  0  0  0  0  0
  -29.4239  -18.4575   20.4290 C   0  0  0  0  0  0
  -29.0815  -22.3546   20.7784 C   0  0  0  0  0  0
  -28.6063  -23.6488   19.9510 C   0  0  0  0  0  0
  -28.1872  -25.0181   20.7235 C   0  0  0  0  0  0
  -29.0909  -21.0626   20.2561 N   0  0  0  0  0  0
  -29.8319  -15.8748   20.6197 N   0  0  0  0  0  0
  -29.4373  -22.5456   21.9435 O   0  0  0  0  0  0
  -28.2840  -18.2406   19.7291 F   0  0  0  0  0  0
  -31.4711  -12.5784   19.1640 H   0  0  0  0  0  0
  -30.3709  -11.4757   19.9467 H   0  0  0  0  0  0
  -29.7925  -11.7447   17.5080 H   0  0  0  0  0  0
  -29.6320  -13.4705   17.7228 H   0  0  0  0  0  0
  -27.8907  -11.2829   18.9019 H   0  0  0  0  0  0
  -27.3755  -12.5269   17.7944 H   0  0  0  0  0  0
  -27.6305  -14.2512   19.4646 H   0  0  0  0  0  0
  -28.7177  -12.1667   21.4219 H   0  0  0  0  0  0
  -28.4186  -13.8486   21.7876 H   0  0  0  0  0  0
  -25.2755   -9.5706   22.4750 H   0  0  0  0  0  0
  -24.0017   -7.4635   22.7463 H   0  0  0  0  0  0
  -21.0842   -8.8738   19.8941 H   0  0  0  0  0  0
  -22.3672  -10.9653   19.6152 H   0  0  0  0  0  0
  -21.2009   -7.6144   23.9716 H   0  0  0  0  0  0
  -21.1486   -6.0521   25.9079 H   0  0  0  0  0  0
  -22.0599   -2.7603   23.2853 H   0  0  0  0  0  0
  -22.4106  -11.9863   22.4816 H   0  0  0  0  0  0
  -21.1074  -13.1184   22.2629 H   0  0  0  0  0  0
  -24.6442  -15.8398   20.5192 H   0  0  0  0  0  0
  -26.2577  -15.6387   20.0693 H   0  0  0  0  0  0
  -26.7213  -32.5394   23.1059 H   0  0  0  0  0  0
  -25.0076  -33.9675   25.0376 H   0  0  0  0  0  0
  -22.7233  -31.2985   21.3913 H   0  0  0  0  0  0
  -23.3751  -35.9623   23.3290 H   0  0  0  0  0  0
  -24.3587  -36.8923   22.2060 H   0  0  0  0  0  0
  -23.7256  -37.6486   23.6674 H   0  0  0  0  0  0
  -26.1070  -31.5312   20.6012 H   0  0  0  0  0  0
  -26.8490  -30.8210   22.0039 H   0  0  0  0  0  0
  -28.1278  -28.9497   21.1815 H   0  0  0  0  0  0
  -25.9902  -25.8758   19.0468 H   0  0  0  0  0  0
  -23.9723  -27.2780   19.0281 H   0  0  0  0  0  0
  -23.7687  -30.5759   19.3974 H   0  0  0  0  0  0
  -22.7618  -29.2369   19.8557 H   0  0  0  0  0  0
  -25.1309  -36.1897   25.0820 H   0  0  0  0  0  0
  -20.9986  -28.3290   24.1387 H   0  0  0  0  0  0
  -20.5678  -26.2325   23.3615 H   0  0  0  0  0  0
  -21.6649  -26.7456   22.1200 H   0  0  0  0  0  0
  -19.6920  -25.6291   21.1248 H   0  0  0  0  0  0
  -19.6692  -27.3189   20.6736 H   0  0  0  0  0  0
  -17.4209  -26.6677   21.4021 H   0  0  0  0  0  0
  -18.0338  -26.0077   22.9016 H   0  0  0  0  0  0
  -19.7941  -30.7272   24.2265 H   0  0  0  0  0  0
  -17.5021  -31.6273   24.5164 H   0  0  0  0  0  0
  -15.5354  -30.2994   23.7657 H   0  0  0  0  0  0
  -15.8674  -28.0820   22.7083 H   0  0  0  0  0  0
  -24.5905  -30.7075   25.7751 H   0  0  0  0  0  0
  -24.8927  -32.2894   26.4844 H   0  0  0  0  0  0
  -25.8047  -30.8901   27.0198 H   0  0  0  0  0  0
  -26.2936  -29.6720   24.1227 H   0  0  0  0  0  0
  -27.4032  -29.7266   25.4732 H   0  0  0  0  0  0
  -27.8819  -30.4251   23.9443 H   0  0  0  0  0  0
  -27.2632  -33.3622   26.2051 H   0  0  0  0  0  0
  -28.3865  -32.6887   25.0324 H   0  0  0  0  0  0
  -28.0703  -31.8459   26.5416 H   0  0  0  0  0  0
  -28.2583  -38.0106   24.7518 H   0  0  0  0  0  0
  -28.1090  -36.2638   24.6271 H   0  0  0  0  0  0
  -27.2299  -37.1428   25.8864 H   0  0  0  0  0  0
  -20.9391  -29.8752   21.6835 H   0  0  0  0  0  0
  -26.0161  -38.2834   24.1407 H   0  0  0  0  0  0
  -32.6908  -19.0618   22.4197 H   0  0  0  0  0  0
  -31.3773  -20.9812   21.6988 H   0  0  0  0  0  0
  -32.0199  -16.7647   21.9178 H   0  0  0  0  0  0
  -27.7949  -23.3582   19.2841 H   0  0  0  0  0  0
  -29.4439  -23.8899   19.2972 H   0  0  0  0  0  0
  -28.7811  -25.0666   21.6364 H   0  0  0  0  0  0
  -27.1661  -24.8886   21.0844 H   0  0  0  0  0  0
  -28.5938  -20.9473   19.3833 H   0  0  0  0  0  0
  -28.8390  -15.7057   20.5863 H   0  0  0  0  0  0
  1 25  1  0  0  0
  1 30  2  0  0  0
  1 81  1  0  0  0
  2  3  1  0  0  0
  2 25  1  0  0  0
  2 84  1  0  0  0
  2 85  1  0  0  0
  3  4  1  0  0  0
  3 86  1  0  0  0
  3 87  1  0  0  0
  4  5  1  0  0  0
  4 88  1  0  0  0
  4 89  1  0  0  0
  5  6  1  0  0  0
  5 26  1  0  0  0
  5 90  1  0  0  0
  6 25  1  0  0  0
  6 91  1  0  0  0
  6 92  1  0  0  0
  7  8  2  0  0  0
  7 26  1  0  0  0
  7 29  1  0  0  0
  8  9  1  0  0  0
  8 22  1  0  0  0
  9 10  1  0  0  0
  9 27  2  0  0  0
 10 11  2  0  0  0
 10 15  1  0  0  0
 11 12  1  0  0  0
 11 93  1  0  0  0
 12 13  2  0  0  0
 12 94  1  0  0  0
 13 14  1  0  0  0
 13 31  1  0  0  0
 14 15  2  0  0  0
 14 95  1  0  0  0
 15 96  1  0  0  0
 16 17  2  0  0  0
 16 21  1  0  0  0
 16 31  1  0  0  0
 17 18  1  0  0  0
 17 97  1  0  0  0
 18 19  2  0  0  0
 18 98  1  0  0  0
 19 20  1  0  0  0
 19 24  1  0  0  0
 20 21  2  0  0  0
 20 99  1  0  0  0
 21 23  1  0  0  0
 22 28  1  0  0  0
 22 32  2  0  0  0
 26 27  1  0  0  0
 28100  1  0  0  0
 28101  1  0  0  0
 29102  1  0  0  0
 29103  1  0  0  0
 33 34  1  0  0  0
 33 66  1  0  0  0
 33 70  2  0  0  0
 34 36  1  0  0  0
 34 59  1  0  0  0
 34104  1  0  0  0
 35 44  2  0  0  0
 35 45  1  0  0  0
 35 68  1  0  0  0
 36 56  1  0  0  0
 36105  1  0  0  0
 37 39  1  0  0  0
 37 47  1  0  0  0
 37 66  1  0  0  0
 37106  1  0  0  0
 38 43  2  0  0  0
 38 46  1  0  0  0
 38 47  1  0  0  0
 39 64  1  0  0  0
 39 67  2  0  0  0
 40 52  1  0  0  0
 40 53  2  0  0  0
 40 58  1  0  0  0
 41107  1  0  0  0
 41108  1  0  0  0
 41109  1  0  0  0
 41 48  1  0  0  0
 42 43  1  0  0  0
 42 66  1  0  0  0
 42110  1  0  0  0
 42111  1  0  0  0
 43 44  1  0  0  0
 44112  1  0  0  0
 45 46  2  0  0  0
 45113  1  0  0  0
 46114  1  0  0  0
 47115  1  0  0  0
 47116  1  0  0  0
 48 56  1  0  0  0
 48 65  1  0  0  0
 48117  1  0  0  0
 49 50  1  0  0  0
 49 53  1  0  0  0
 49 64  1  0  0  0
 49118  1  0  0  0
 50 51  1  0  0  0
 50119  1  0  0  0
 50120  1  0  0  0
 51 52  1  0  0  0
 51121  1  0  0  0
 51122  1  0  0  0
 52123  1  0  0  0
 52124  1  0  0  0
 53 54  1  0  0  0
 54 55  2  0  0  0
 54125  1  0  0  0
 55 57  1  0  0  0
 55126  1  0  0  0
 56 69  2  0  0  0
 57 58  2  0  0  0
 57127  1  0  0  0
 58128  1  0  0  0
 59 60  1  0  0  0
 59 61  1  0  0  0
 59 62  1  0  0  0
 60129  1  0  0  0
 60130  1  0  0  0
 60131  1  0  0  0
 61132  1  0  0  0
 61133  1  0  0  0
 61134  1  0  0  0
 62135  1  0  0  0
 62136  1  0  0  0
 62137  1  0  0  0
 63 65  1  0  0  0
 63138  1  0  0  0
 63139  1  0  0  0
 63140  1  0  0  0
 64141  1  0  0  0
 65142  1  0  0  0
 68 79  1  0  0  0
 71 72  2  0  0  0
 71 73  1  0  0  0
 71143  1  0  0  0
 72 74  1  0  0  0
 72144  1  0  0  0
 73 75  2  0  0  0
 73145  1  0  0  0
 74 76  2  0  0  0
 74 80  1  0  0  0
 75 76  1  0  0  0
 75 81  1  0  0  0
 76 83  1  0  0  0
 77 78  1  0  0  0
 77 80  1  0  0  0
 77 82  2  0  0  0
 78 79  1  0  0  0
 78146  1  0  0  0
 78147  1  0  0  0
 79148  1  0  0  0
 79149  1  0  0  0
 80150  1  0  0  0
 81151  1  0  0  0
M  ISO  4   1 100  68 101  79 101  81 100
M  END
> <chiral flag>
0

> <version>
0

> <s_m_source_file>
/data/baiqing/PycharmProjects/Reinvent-master-3.2/result/LINK_invent/BTK/process_docking_weight1_custom_product_contain_oxygen_bond_distance_aromatic_linkinvent_7_9_3/rearranged_h_0069.sdf

> <i_m_source_file_index>
50

> <r_mmod_Potential_Energy-OPLS-2005>
106.942489624023

> <r_mmod_Stretch_Energy-OPLS-2005>
125.228340148926

> <r_mmod_Bend_Energy-OPLS-2005>
155.916656494141

> <r_mmod_Torsional_Energy-OPLS-2005>
256.922668457031

> <r_mmod_Improper_Torsional_Energy-OPLS-2005>
6.47778272628784

> <r_mmod_Van_der_Waal_Energy-OPLS-2005>
139.50927734375

> <r_mmod_Electrostatic_Energy-OPLS-2005>
-433.210693359375

> <r_mmod_Solvation_Energy-OPLS-2005>
-223.47575378418

> <b_mmod_Minimization_Converged-OPLS-2005>
0

> <r_mmod_RMS_Derivative-OPLS-2005>
0.929847240447998

$$$$
51
                    3D
 Structure written by MMmdl.
159167  0  0  1  0            999 V2000
  -30.6053  -14.6669   20.5045 C   0  0  0  0  0  0
  -30.4458  -12.4107   19.4579 C   0  0  0  0  0  0
  -29.5142  -12.5121   18.2286 C   0  0  0  0  0  0
  -28.0370  -12.3437   18.6387 C   0  0  0  0  0  0
  -27.6556  -13.2157   19.8641 C   0  0  2  0  0  0
  -28.6990  -13.0744   20.9957 C   0  0  0  0  0  0
  -25.2580  -13.8166   20.5693 C   0  0  0  0  0  0
  -24.1842  -13.0436   20.9185 C   0  0  0  0  0  0
  -24.6404  -11.6905   20.8733 C   0  0  0  0  0  0
  -23.9066  -10.4292   21.0404 C   0  0  0  0  0  0
  -24.3619   -9.4211   21.9186 C   0  0  0  0  0  0
  -23.6293   -8.2248   22.0758 C   0  0  0  0  0  0
  -22.4276   -8.0287   21.3546 C   0  0  0  0  0  0
  -21.9911   -9.0260   20.4648 C   0  0  0  0  0  0
  -22.7239  -10.2137   20.3055 C   0  0  0  0  0  0
  -21.6854   -6.0739   22.5280 C   0  0  0  0  0  0
  -21.4013   -6.5640   23.8211 C   0  0  0  0  0  0
  -21.3660   -5.6796   24.9175 C   0  0  0  0  0  0
  -21.6041   -4.3057   24.7225 C   0  0  0  0  0  0
  -21.8822   -3.8149   23.4347 C   0  0  0  0  0  0
  -21.9194   -4.6966   22.3404 C   0  0  0  0  0  0
  -22.7864  -13.5239   21.1840 C   0  0  0  0  0  0
  -22.1663   -4.2153   21.0982 F   0  0  0  0  0  0
  -21.5629   -3.4541   25.7737 F   0  0  0  0  0  0
  -30.0135  -13.4300   20.4366 N   0  0  0  0  0  0
  -26.3006  -12.9344   20.3312 N   0  0  0  0  0  0
  -25.9334  -11.6498   20.5745 N   0  0  0  0  0  0
  -22.0492  -12.8237   22.0391 N   0  0  0  0  0  0
  -25.4286  -15.1894   20.4133 N   0  0  0  0  0  0
  -31.7591  -14.8438   20.1014 O   0  0  0  0  0  0
  -21.6640   -6.8881   21.4240 O   0  0  0  0  0  0
  -22.3555  -14.5550   20.6690 O   0  0  0  0  0  0
  -24.6266  -31.8588   23.2014 C   0  0  0  0  0  0
  -25.9109  -32.4773   23.8355 C   0  0  1  0  0  0
  -27.2255  -27.3041   20.1257 C   0  0  0  0  0  0
  -25.5910  -33.8575   24.2275 N   0  0  0  0  0  0
  -23.4226  -30.4822   21.5429 C   0  0  2  0  0  0
  -24.8720  -28.9347   20.1110 C   0  0  0  0  0  0
  -22.7477  -29.4628   22.4917 C   0  0  0  0  0  0
  -18.0282  -28.1407   22.8493 C   0  0  0  0  0  0
  -24.1482  -36.7290   23.2639 C   0  0  0  0  0  0
  -25.9641  -30.7842   21.3776 C   0  0  0  0  0  0
  -26.0393  -29.4085   20.7242 C   0  0  0  0  0  0
  -27.2182  -28.6021   20.7283 C   0  0  0  0  0  0
  -26.0415  -26.8965   19.4707 C   0  0  0  0  0  0
  -24.8747  -27.6836   19.4762 C   0  0  0  0  0  0
  -23.6408  -29.8170   20.1583 C   0  0  0  0  0  0
  -25.4109  -36.3083   24.0330 C   0  0  1  0  0  0
  -20.5886  -28.3715   23.1275 C   0  0  2  0  0  0
  -20.6770  -26.9440   22.5409 C   0  0  0  0  0  0
  -19.5741  -26.6411   21.5214 C   0  0  0  0  0  0
  -18.1923  -26.7949   22.1631 C   0  0  0  0  0  0
  -19.1539  -28.8875   23.2881 C   0  0  0  0  0  0
  -18.9464  -30.1475   23.8908 C   0  0  0  0  0  0
  -17.6467  -30.6607   24.0580 C   0  0  0  0  0  0
  -25.9050  -34.9449   23.5106 C   0  0  0  0  0  0
  -16.5356  -29.9111   23.6342 C   0  0  0  0  0  0
  -16.7272  -28.6525   23.0366 C   0  0  0  0  0  0
  -26.4488  -31.6589   25.0732 C   0  0  0  0  0  0
  -25.3724  -31.3743   26.1468 C   0  0  0  0  0  0
  -27.0321  -30.2999   24.6213 C   0  0  0  0  0  0
  -27.6055  -32.4317   25.7495 C   0  0  0  0  0  0
  -27.5577  -37.1799   24.8462 C   0  0  0  0  0  0
  -21.4188  -29.3056   22.3656 N   0  0  0  0  0  0
  -26.4282  -37.3783   23.9416 N   0  0  0  0  0  0
  -24.6897  -31.0594   22.0972 N   0  0  0  0  0  0
  -23.4186  -28.8175   23.3018 O   0  0  0  0  0  0
  -28.3261  -26.4278   20.1576 O   0  0  0  0  0  0
  -26.5636  -34.8918   22.4684 O   0  0  0  0  0  0
  -23.5422  -32.1393   23.7324 O   0  0  0  0  0  0
  -30.7882  -17.9263   20.0902 C   0  0  0  0  0  0
  -28.7658  -17.9206   21.3563 C   0  0  0  0  0  0
  -30.7300  -19.3644   19.9762 C   0  0  0  0  0  0
  -29.8135  -17.1617   20.7764 C   0  0  0  0  0  0
  -28.6704  -19.3410   21.2523 C   0  0  0  0  0  0
  -29.6258  -20.1239   20.5283 C   0  0  0  0  0  0
  -28.1035  -25.0358   20.3368 C   0  0  0  0  0  0
  -31.8710  -20.0418   19.2625 C   0  0  0  0  0  0
  -29.0095  -24.0003   20.2047 C   0  0  0  0  0  0
  -28.5797  -22.5661   20.3892 C   0  0  0  0  0  0
  -33.0695  -19.1962   18.8341 C   0  0  0  0  0  0
  -30.4592  -24.2838   19.8421 C   0  0  0  0  0  0
  -27.6149  -19.9455   21.9286 N   0  0  0  0  0  0
  -29.5765  -21.6117   20.4179 N   0  0  0  0  0  0
  -29.7892  -15.6951   20.9148 N   0  0  0  0  0  0
  -31.9181  -21.2510   19.0200 O   0  0  0  0  0  0
  -27.3901  -22.2512   20.4684 O   0  0  0  0  0  0
  -31.4849  -12.5480   19.1537 H   0  0  0  0  0  0
  -30.3927  -11.4152   19.9015 H   0  0  0  0  0  0
  -29.7847  -11.7564   17.4896 H   0  0  0  0  0  0
  -29.6519  -13.4791   17.7417 H   0  0  0  0  0  0
  -27.8792  -11.2902   18.8732 H   0  0  0  0  0  0
  -27.3829  -12.5696   17.7955 H   0  0  0  0  0  0
  -27.6731  -14.2503   19.5216 H   0  0  0  0  0  0
  -28.7173  -12.0529   21.3788 H   0  0  0  0  0  0
  -28.4350  -13.7028   21.8474 H   0  0  0  0  0  0
  -25.2765   -9.5692   22.4758 H   0  0  0  0  0  0
  -24.0003   -7.4646   22.7483 H   0  0  0  0  0  0
  -21.0842   -8.8782   19.8956 H   0  0  0  0  0  0
  -22.3701  -10.9679   19.6164 H   0  0  0  0  0  0
  -21.2002   -7.6148   23.9716 H   0  0  0  0  0  0
  -21.1478   -6.0524   25.9077 H   0  0  0  0  0  0
  -22.0598   -2.7612   23.2846 H   0  0  0  0  0  0
  -22.4093  -11.9886   22.4775 H   0  0  0  0  0  0
  -21.1113  -13.1279   22.2590 H   0  0  0  0  0  0
  -24.6588  -15.8399   20.5273 H   0  0  0  0  0  0
  -26.2735  -15.6326   20.0764 H   0  0  0  0  0  0
  -26.7181  -32.5450   23.1108 H   0  0  0  0  0  0
  -25.0021  -33.9723   25.0395 H   0  0  0  0  0  0
  -22.7171  -31.3032   21.3979 H   0  0  0  0  0  0
  -23.3746  -35.9619   23.3290 H   0  0  0  0  0  0
  -24.3574  -36.8926   22.2057 H   0  0  0  0  0  0
  -23.7231  -37.6483   23.6671 H   0  0  0  0  0  0
  -26.0986  -31.5464   20.6085 H   0  0  0  0  0  0
  -26.8410  -30.8338   22.0109 H   0  0  0  0  0  0
  -28.1112  -28.9570   21.2234 H   0  0  0  0  0  0
  -26.0048  -25.9435   18.9628 H   0  0  0  0  0  0
  -23.9842  -27.3172   18.9846 H   0  0  0  0  0  0
  -23.7654  -30.5927   19.4017 H   0  0  0  0  0  0
  -22.7597  -29.2495   19.8537 H   0  0  0  0  0  0
  -25.1288  -36.1929   25.0824 H   0  0  0  0  0  0
  -20.9993  -28.3305   24.1390 H   0  0  0  0  0  0
  -20.5686  -26.2331   23.3616 H   0  0  0  0  0  0
  -21.6638  -26.7485   22.1198 H   0  0  0  0  0  0
  -19.6904  -25.6325   21.1239 H   0  0  0  0  0  0
  -19.6664  -27.3225   20.6747 H   0  0  0  0  0  0
  -17.4195  -26.6708   21.4033 H   0  0  0  0  0  0
  -18.0321  -26.0093   22.9029 H   0  0  0  0  0  0
  -19.7944  -30.7285   24.2283 H   0  0  0  0  0  0
  -17.5029  -31.6287   24.5184 H   0  0  0  0  0  0
  -15.5359  -30.3025   23.7662 H   0  0  0  0  0  0
  -15.8668  -28.0849   22.7090 H   0  0  0  0  0  0
  -24.5860  -30.7139   25.7797 H   0  0  0  0  0  0
  -24.8968  -32.2921   26.4935 H   0  0  0  0  0  0
  -25.8046  -30.8877   27.0222 H   0  0  0  0  0  0
  -26.2898  -29.6745   24.1238 H   0  0  0  0  0  0
  -27.3989  -29.7269   25.4740 H   0  0  0  0  0  0
  -27.8787  -30.4252   23.9457 H   0  0  0  0  0  0
  -27.2682  -33.3635   26.2048 H   0  0  0  0  0  0
  -28.3877  -32.6843   25.0325 H   0  0  0  0  0  0
  -28.0701  -31.8451   26.5431 H   0  0  0  0  0  0
  -28.2593  -38.0098   24.7530 H   0  0  0  0  0  0
  -28.1074  -36.2634   24.6259 H   0  0  0  0  0  0
  -27.2302  -37.1425   25.8867 H   0  0  0  0  0  0
  -20.9368  -29.8768   21.6855 H   0  0  0  0  0  0
  -26.0155  -38.2851   24.1430 H   0  0  0  0  0  0
  -31.6002  -17.3751   19.6422 H   0  0  0  0  0  0
  -28.0046  -17.3912   21.9119 H   0  0  0  0  0  0
  -27.0784  -24.8256   20.6124 H   0  0  0  0  0  0
  -33.4782  -18.6528   19.6858 H   0  0  0  0  0  0
  -33.8591  -19.8280   18.4286 H   0  0  0  0  0  0
  -32.7763  -18.4838   18.0641 H   0  0  0  0  0  0
  -30.6320  -25.3515   19.7056 H   0  0  0  0  0  0
  -30.7205  -23.7876   18.9072 H   0  0  0  0  0  0
  -31.1343  -23.9358   20.6249 H   0  0  0  0  0  0
  -26.8100  -19.3656   22.1378 H   0  0  0  0  0  0
  -27.3375  -20.8442   21.5244 H   0  0  0  0  0  0
  -30.4784  -22.0191   20.2048 H   0  0  0  0  0  0
  -28.9284  -15.3384   21.3010 H   0  0  0  0  0  0
  1 25  1  0  0  0
  1 30  2  0  0  0
  1 85  1  0  0  0
  2  3  1  0  0  0
  2 25  1  0  0  0
  2 88  1  0  0  0
  2 89  1  0  0  0
  3  4  1  0  0  0
  3 90  1  0  0  0
  3 91  1  0  0  0
  4  5  1  0  0  0
  4 92  1  0  0  0
  4 93  1  0  0  0
  5  6  1  0  0  0
  5 26  1  0  0  0
  5 94  1  0  0  0
  6 25  1  0  0  0
  6 95  1  0  0  0
  6 96  1  0  0  0
  7  8  2  0  0  0
  7 26  1  0  0  0
  7 29  1  0  0  0
  8  9  1  0  0  0
  8 22  1  0  0  0
  9 10  1  0  0  0
  9 27  2  0  0  0
 10 11  2  0  0  0
 10 15  1  0  0  0
 11 12  1  0  0  0
 11 97  1  0  0  0
 12 13  2  0  0  0
 12 98  1  0  0  0
 13 14  1  0  0  0
 13 31  1  0  0  0
 14 15  2  0  0  0
 14 99  1  0  0  0
 15100  1  0  0  0
 16 17  2  0  0  0
 16 21  1  0  0  0
 16 31  1  0  0  0
 17 18  1  0  0  0
 17101  1  0  0  0
 18 19  2  0  0  0
 18102  1  0  0  0
 19 20  1  0  0  0
 19 24  1  0  0  0
 20 21  2  0  0  0
 20103  1  0  0  0
 21 23  1  0  0  0
 22 28  1  0  0  0
 22 32  2  0  0  0
 26 27  1  0  0  0
 28104  1  0  0  0
 28105  1  0  0  0
 29106  1  0  0  0
 29107  1  0  0  0
 33 34  1  0  0  0
 33 66  1  0  0  0
 33 70  2  0  0  0
 34 36  1  0  0  0
 34 59  1  0  0  0
 34108  1  0  0  0
 35 44  2  0  0  0
 35 45  1  0  0  0
 35 68  1  0  0  0
 36 56  1  0  0  0
 36109  1  0  0  0
 37 39  1  0  0  0
 37 47  1  0  0  0
 37 66  1  0  0  0
 37110  1  0  0  0
 38 43  2  0  0  0
 38 46  1  0  0  0
 38 47  1  0  0  0
 39 64  1  0  0  0
 39 67  2  0  0  0
 40 52  1  0  0  0
 40 53  2  0  0  0
 40 58  1  0  0  0
 41111  1  0  0  0
 41112  1  0  0  0
 41113  1  0  0  0
 41 48  1  0  0  0
 42 43  1  0  0  0
 42 66  1  0  0  0
 42114  1  0  0  0
 42115  1  0  0  0
 43 44  1  0  0  0
 44116  1  0  0  0
 45 46  2  0  0  0
 45117  1  0  0  0
 46118  1  0  0  0
 47119  1  0  0  0
 47120  1  0  0  0
 48 56  1  0  0  0
 48 65  1  0  0  0
 48121  1  0  0  0
 49 50  1  0  0  0
 49 53  1  0  0  0
 49 64  1  0  0  0
 49122  1  0  0  0
 50 51  1  0  0  0
 50123  1  0  0  0
 50124  1  0  0  0
 51 52  1  0  0  0
 51125  1  0  0  0
 51126  1  0  0  0
 52127  1  0  0  0
 52128  1  0  0  0
 53 54  1  0  0  0
 54 55  2  0  0  0
 54129  1  0  0  0
 55 57  1  0  0  0
 55130  1  0  0  0
 56 69  2  0  0  0
 57 58  2  0  0  0
 57131  1  0  0  0
 58132  1  0  0  0
 59 60  1  0  0  0
 59 61  1  0  0  0
 59 62  1  0  0  0
 60133  1  0  0  0
 60134  1  0  0  0
 60135  1  0  0  0
 61136  1  0  0  0
 61137  1  0  0  0
 61138  1  0  0  0
 62139  1  0  0  0
 62140  1  0  0  0
 62141  1  0  0  0
 63 65  1  0  0  0
 63142  1  0  0  0
 63143  1  0  0  0
 63144  1  0  0  0
 64145  1  0  0  0
 65146  1  0  0  0
 68 77  1  0  0  0
 71 73  2  0  0  0
 71 74  1  0  0  0
 71147  1  0  0  0
 72 74  2  0  0  0
 72 75  1  0  0  0
 72148  1  0  0  0
 73 76  1  0  0  0
 73 78  1  0  0  0
 74 85  1  0  0  0
 75 76  2  0  0  0
 75 83  1  0  0  0
 76 84  1  0  0  0
 77 79  2  0  0  0
 77149  1  0  0  0
 78 81  1  0  0  0
 78 86  2  0  0  0
 79 80  1  0  0  0
 79 82  1  0  0  0
 80 84  1  0  0  0
 80 87  2  0  0  0
 81150  1  0  0  0
 81151  1  0  0  0
 81152  1  0  0  0
 82153  1  0  0  0
 82154  1  0  0  0
 82155  1  0  0  0
 83156  1  0  0  0
 83157  1  0  0  0
 84158  1  0  0  0
 85159  1  0  0  0
M  ISO  4   1 100  68 101  77 101  85 100
M  END
> <chiral flag>
0

> <version>
0

> <s_m_source_file>
/data/baiqing/PycharmProjects/Reinvent-master-3.2/result/LINK_invent/BTK/process_docking_weight1_custom_product_contain_oxygen_bond_distance_aromatic_linkinvent_7_9_3/rearranged_h_0069.sdf

> <i_m_source_file_index>
51

> <r_mmod_Potential_Energy-OPLS-2005>
6.80656671524048

> <r_mmod_Stretch_Energy-OPLS-2005>
99.1576080322266

> <r_mmod_Bend_Energy-OPLS-2005>
156.277694702148

> <r_mmod_Torsional_Energy-OPLS-2005>
256.707672119141

> <r_mmod_Improper_Torsional_Energy-OPLS-2005>
8.70548725128174

> <r_mmod_Van_der_Waal_Energy-OPLS-2005>
171.22380065918

> <r_mmod_Electrostatic_Energy-OPLS-2005>
-523.586975097656

> <r_mmod_Solvation_Energy-OPLS-2005>
-219.02375793457

> <b_mmod_Minimization_Converged-OPLS-2005>
0

> <r_mmod_RMS_Derivative-OPLS-2005>
1.10382759571075

$$$$
52
                    3D
 Structure written by MMmdl.
160169  0  0  1  0            999 V2000
  -30.6182  -14.6639   20.5276 C   0  0  0  0  0  0
  -30.4428  -12.4117   19.4666 C   0  0  0  0  0  0
  -29.5185  -12.5275   18.2328 C   0  0  0  0  0  0
  -28.0383  -12.3655   18.6314 C   0  0  0  0  0  0
  -27.6553  -13.2243   19.8655 C   0  0  2  0  0  0
  -28.6967  -13.0758   20.9973 C   0  0  0  0  0  0
  -25.2550  -13.8223   20.5587 C   0  0  0  0  0  0
  -24.1832  -13.0481   20.9153 C   0  0  0  0  0  0
  -24.6409  -11.6949   20.8727 C   0  0  0  0  0  0
  -23.9077  -10.4324   21.0404 C   0  0  0  0  0  0
  -24.3632   -9.4238   21.9185 C   0  0  0  0  0  0
  -23.6298   -8.2277   22.0760 C   0  0  0  0  0  0
  -22.4283   -8.0305   21.3555 C   0  0  0  0  0  0
  -21.9913   -9.0284   20.4646 C   0  0  0  0  0  0
  -22.7249  -10.2157   20.3049 C   0  0  0  0  0  0
  -21.6871   -6.0747   22.5272 C   0  0  0  0  0  0
  -21.4043   -6.5641   23.8212 C   0  0  0  0  0  0
  -21.3649   -5.6783   24.9163 C   0  0  0  0  0  0
  -21.6033   -4.3048   24.7208 C   0  0  0  0  0  0
  -21.8820   -3.8146   23.4329 C   0  0  0  0  0  0
  -21.9197   -4.6970   22.3395 C   0  0  0  0  0  0
  -22.7847  -13.5258   21.1814 C   0  0  0  0  0  0
  -22.1669   -4.2158   21.0965 F   0  0  0  0  0  0
  -21.5594   -3.4521   25.7720 F   0  0  0  0  0  0
  -30.0123  -13.4338   20.4451 N   0  0  0  0  0  0
  -26.2992  -12.9397   20.3286 N   0  0  0  0  0  0
  -25.9343  -11.6555   20.5744 N   0  0  0  0  0  0
  -22.0463  -12.8266   22.0364 N   0  0  0  0  0  0
  -25.4287  -15.1948   20.3909 N   0  0  0  0  0  0
  -31.7709  -14.8287   20.1150 O   0  0  0  0  0  0
  -21.6652   -6.8900   21.4238 O   0  0  0  0  0  0
  -22.3544  -14.5562   20.6666 O   0  0  0  0  0  0
  -24.6274  -31.8568   23.1982 C   0  0  0  0  0  0
  -25.9101  -32.4758   23.8344 C   0  0  1  0  0  0
  -27.2455  -27.3075   20.1313 C   0  0  0  0  0  0
  -25.5891  -33.8558   24.2269 N   0  0  0  0  0  0
  -23.4267  -30.4753   21.5381 C   0  0  2  0  0  0
  -24.8808  -28.9240   20.1124 C   0  0  0  0  0  0
  -22.7505  -29.4591   22.4900 C   0  0  0  0  0  0
  -18.0308  -28.1393   22.8470 C   0  0  0  0  0  0
  -24.1487  -36.7307   23.2644 C   0  0  0  0  0  0
  -25.9673  -30.7844   21.3715 C   0  0  0  0  0  0
  -26.0482  -29.4085   20.7190 C   0  0  0  0  0  0
  -27.2347  -28.6129   20.7163 C   0  0  0  0  0  0
  -26.0574  -26.8785   19.4997 C   0  0  0  0  0  0
  -24.8876  -27.6648   19.4908 C   0  0  0  0  0  0
  -23.6481  -29.8052   20.1554 C   0  0  0  0  0  0
  -25.4106  -36.3067   24.0332 C   0  0  1  0  0  0
  -20.5911  -28.3700   23.1259 C   0  0  2  0  0  0
  -20.6796  -26.9416   22.5398 C   0  0  0  0  0  0
  -19.5772  -26.6385   21.5201 C   0  0  0  0  0  0
  -18.1958  -26.7926   22.1616 C   0  0  0  0  0  0
  -19.1557  -28.8862   23.2861 C   0  0  0  0  0  0
  -18.9480  -30.1460   23.8898 C   0  0  0  0  0  0
  -17.6474  -30.6572   24.0580 C   0  0  0  0  0  0
  -25.9030  -34.9437   23.5107 C   0  0  0  0  0  0
  -16.5371  -29.9082   23.6321 C   0  0  0  0  0  0
  -16.7293  -28.6505   23.0330 C   0  0  0  0  0  0
  -26.4475  -31.6569   25.0723 C   0  0  0  0  0  0
  -25.3712  -31.3718   26.1450 C   0  0  0  0  0  0
  -27.0304  -30.2989   24.6169 C   0  0  0  0  0  0
  -27.6042  -32.4304   25.7482 C   0  0  0  0  0  0
  -27.5564  -37.1822   24.8463 C   0  0  0  0  0  0
  -21.4219  -29.3030   22.3630 N   0  0  0  0  0  0
  -26.4286  -37.3752   23.9376 N   0  0  0  0  0  0
  -24.6927  -31.0563   22.0931 N   0  0  0  0  0  0
  -23.4205  -28.8150   23.3011 O   0  0  0  0  0  0
  -28.3527  -26.4393   20.1469 O   0  0  0  0  0  0
  -26.5618  -34.8904   22.4679 O   0  0  0  0  0  0
  -23.5424  -32.1356   23.7286 O   0  0  0  0  0  0
  -30.7575  -19.2746   19.8059 C   0  0  0  0  0  0
  -30.8043  -17.8578   19.9843 C   0  0  0  0  0  0
  -28.9009  -19.4289   21.2952 C   0  0  0  0  0  0
  -28.9499  -18.0093   21.4997 C   0  0  0  0  0  0
  -29.7947  -20.1263   20.4377 C   0  0  0  0  0  0
  -29.8915  -17.1684   20.8235 C   0  0  0  0  0  0
  -28.9276  -23.9812   20.3383 C   0  0  0  0  0  0
  -30.5454  -22.3730   19.4810 C   0  0  0  0  0  0
  -28.1668  -25.1077   20.5923 C   0  0  0  0  0  0
  -28.6967  -22.5253   20.8523 C   0  0  0  0  0  0
  -30.1483  -23.8701   19.4628 C   0  0  2  0  0  0
  -27.9513  -17.4192   22.4866 C   0  0  0  0  0  0
  -32.2691  -24.9429   19.0215 C   0  0  0  0  0  0
  -29.7104  -21.6059   20.2338 N   0  0  0  0  0  0
  -29.8337  -15.7031   20.9751 N   0  0  0  0  0  0
  -31.5344  -21.9746   18.8577 O   0  0  0  0  0  0
  -31.2058  -24.7103   19.9461 O   0  0  0  0  0  0
  -31.4860  -12.5371   19.1717 H   0  0  0  0  0  0
  -30.3751  -11.4154   19.9078 H   0  0  0  0  0  0
  -29.7888  -11.7792   17.4867 H   0  0  0  0  0  0
  -29.6700  -13.5009   17.7584 H   0  0  0  0  0  0
  -27.8661  -11.3093   18.8460 H   0  0  0  0  0  0
  -27.3954  -12.6130   17.7856 H   0  0  0  0  0  0
  -27.6722  -14.2621   19.5324 H   0  0  0  0  0  0
  -28.7089  -12.0475   21.3643 H   0  0  0  0  0  0
  -28.4320  -13.6936   21.8553 H   0  0  0  0  0  0
  -25.2797   -9.5705   22.4750 H   0  0  0  0  0  0
  -23.9996   -7.4671   22.7496 H   0  0  0  0  0  0
  -21.0837   -8.8818   19.8967 H   0  0  0  0  0  0
  -22.3733  -10.9694   19.6141 H   0  0  0  0  0  0
  -21.2078   -7.6163   23.9719 H   0  0  0  0  0  0
  -21.1452   -6.0518   25.9066 H   0  0  0  0  0  0
  -22.0610   -2.7604   23.2834 H   0  0  0  0  0  0
  -22.4054  -11.9944   22.4806 H   0  0  0  0  0  0
  -21.1086  -13.1342   22.2527 H   0  0  0  0  0  0
  -24.6597  -15.8531   20.4607 H   0  0  0  0  0  0
  -26.2688  -15.6181   20.0193 H   0  0  0  0  0  0
  -26.7174  -32.5434   23.1106 H   0  0  0  0  0  0
  -24.9979  -33.9690   25.0372 H   0  0  0  0  0  0
  -22.7217  -31.2957   21.3888 H   0  0  0  0  0  0
  -23.3691  -35.9703   23.3370 H   0  0  0  0  0  0
  -24.3572  -36.8858   22.2048 H   0  0  0  0  0  0
  -23.7326  -37.6563   23.6630 H   0  0  0  0  0  0
  -26.0958  -31.5434   20.5989 H   0  0  0  0  0  0
  -26.8492  -30.8400   21.9979 H   0  0  0  0  0  0
  -28.1331  -28.9842   21.1880 H   0  0  0  0  0  0
  -26.0322  -25.9116   19.0181 H   0  0  0  0  0  0
  -23.9971  -27.2882   19.0050 H   0  0  0  0  0  0
  -23.7727  -30.5803   19.3983 H   0  0  0  0  0  0
  -22.7704  -29.2336   19.8493 H   0  0  0  0  0  0
  -25.1292  -36.1933   25.0825 H   0  0  0  0  0  0
  -21.0006  -28.3289   24.1380 H   0  0  0  0  0  0
  -20.5677  -26.2322   23.3605 H   0  0  0  0  0  0
  -21.6674  -26.7417   22.1224 H   0  0  0  0  0  0
  -19.6937  -25.6296   21.1231 H   0  0  0  0  0  0
  -19.6710  -27.3196   20.6738 H   0  0  0  0  0  0
  -17.4224  -26.6669   21.4026 H   0  0  0  0  0  0
  -18.0357  -26.0074   22.9014 H   0  0  0  0  0  0
  -19.7957  -30.7280   24.2266 H   0  0  0  0  0  0
  -17.5025  -31.6247   24.5199 H   0  0  0  0  0  0
  -15.5369  -30.2992   23.7622 H   0  0  0  0  0  0
  -15.8703  -28.0823   22.7026 H   0  0  0  0  0  0
  -24.5862  -30.7094   25.7776 H   0  0  0  0  0  0
  -24.8936  -32.2891   26.4905 H   0  0  0  0  0  0
  -25.8029  -30.8859   27.0208 H   0  0  0  0  0  0
  -26.2865  -29.6748   24.1193 H   0  0  0  0  0  0
  -27.3990  -29.7234   25.4671 H   0  0  0  0  0  0
  -27.8748  -30.4268   23.9395 H   0  0  0  0  0  0
  -27.2644  -33.3586   26.2084 H   0  0  0  0  0  0
  -28.3830  -32.6882   25.0298 H   0  0  0  0  0  0
  -28.0727  -31.8417   26.5371 H   0  0  0  0  0  0
  -28.2625  -38.0066   24.7391 H   0  0  0  0  0  0
  -28.1009  -36.2593   24.6421 H   0  0  0  0  0  0
  -27.2271  -37.1640   25.8864 H   0  0  0  0  0  0
  -20.9414  -29.8735   21.6815 H   0  0  0  0  0  0
  -26.0169  -38.2832   24.1314 H   0  0  0  0  0  0
  -31.5026  -19.6724   19.1369 H   0  0  0  0  0  0
  -31.5537  -17.3021   19.4393 H   0  0  0  0  0  0
  -28.1432  -19.9925   21.8199 H   0  0  0  0  0  0
  -27.3032  -25.0377   21.2399 H   0  0  0  0  0  0
  -27.6799  -22.1979   20.6272 H   0  0  0  0  0  0
  -28.8170  -22.5061   21.9364 H   0  0  0  0  0  0
  -29.8594  -24.1523   18.4495 H   0  0  0  0  0  0
  -27.8285  -18.0863   23.3407 H   0  0  0  0  0  0
  -28.2648  -16.4571   22.8874 H   0  0  0  0  0  0
  -26.9744  -17.2952   22.0206 H   0  0  0  0  0  0
  -32.9174  -25.7297   19.4065 H   0  0  0  0  0  0
  -31.8948  -25.2715   18.0520 H   0  0  0  0  0  0
  -32.8966  -24.0658   18.8691 H   0  0  0  0  0  0
  -28.9726  -15.3730   21.3779 H   0  0  0  0  0  0
  1 25  1  0  0  0
  1 30  2  0  0  0
  1 85  1  0  0  0
  2  3  1  0  0  0
  2 25  1  0  0  0
  2 88  1  0  0  0
  2 89  1  0  0  0
  3  4  1  0  0  0
  3 90  1  0  0  0
  3 91  1  0  0  0
  4  5  1  0  0  0
  4 92  1  0  0  0
  4 93  1  0  0  0
  5  6  1  0  0  0
  5 26  1  0  0  0
  5 94  1  0  0  0
  6 25  1  0  0  0
  6 95  1  0  0  0
  6 96  1  0  0  0
  7  8  2  0  0  0
  7 26  1  0  0  0
  7 29  1  0  0  0
  8  9  1  0  0  0
  8 22  1  0  0  0
  9 10  1  0  0  0
  9 27  2  0  0  0
 10 11  2  0  0  0
 10 15  1  0  0  0
 11 12  1  0  0  0
 11 97  1  0  0  0
 12 13  2  0  0  0
 12 98  1  0  0  0
 13 14  1  0  0  0
 13 31  1  0  0  0
 14 15  2  0  0  0
 14 99  1  0  0  0
 15100  1  0  0  0
 16 17  2  0  0  0
 16 21  1  0  0  0
 16 31  1  0  0  0
 17 18  1  0  0  0
 17101  1  0  0  0
 18 19  2  0  0  0
 18102  1  0  0  0
 19 20  1  0  0  0
 19 24  1  0  0  0
 20 21  2  0  0  0
 20103  1  0  0  0
 21 23  1  0  0  0
 22 28  1  0  0  0
 22 32  2  0  0  0
 26 27  1  0  0  0
 28104  1  0  0  0
 28105  1  0  0  0
 29106  1  0  0  0
 29107  1  0  0  0
 33 34  1  0  0  0
 33 66  1  0  0  0
 33 70  2  0  0  0
 34 36  1  0  0  0
 34 59  1  0  0  0
 34108  1  0  0  0
 35 44  2  0  0  0
 35 45  1  0  0  0
 35 68  1  0  0  0
 36 56  1  0  0  0
 36109  1  0  0  0
 37 39  1  0  0  0
 37 47  1  0  0  0
 37 66  1  0  0  0
 37110  1  0  0  0
 38 43  2  0  0  0
 38 46  1  0  0  0
 38 47  1  0  0  0
 39 64  1  0  0  0
 39 67  2  0  0  0
 40 52  1  0  0  0
 40 53  2  0  0  0
 40 58  1  0  0  0
 41111  1  0  0  0
 41112  1  0  0  0
 41113  1  0  0  0
 41 48  1  0  0  0
 42 43  1  0  0  0
 42 66  1  0  0  0
 42114  1  0  0  0
 42115  1  0  0  0
 43 44  1  0  0  0
 44116  1  0  0  0
 45 46  2  0  0  0
 45117  1  0  0  0
 46118  1  0  0  0
 47119  1  0  0  0
 47120  1  0  0  0
 48 56  1  0  0  0
 48 65  1  0  0  0
 48121  1  0  0  0
 49 50  1  0  0  0
 49 53  1  0  0  0
 49 64  1  0  0  0
 49122  1  0  0  0
 50 51  1  0  0  0
 50123  1  0  0  0
 50124  1  0  0  0
 51 52  1  0  0  0
 51125  1  0  0  0
 51126  1  0  0  0
 52127  1  0  0  0
 52128  1  0  0  0
 53 54  1  0  0  0
 54 55  2  0  0  0
 54129  1  0  0  0
 55 57  1  0  0  0
 55130  1  0  0  0
 56 69  2  0  0  0
 57 58  2  0  0  0
 57131  1  0  0  0
 58132  1  0  0  0
 59 60  1  0  0  0
 59 61  1  0  0  0
 59 62  1  0  0  0
 60133  1  0  0  0
 60134  1  0  0  0
 60135  1  0  0  0
 61136  1  0  0  0
 61137  1  0  0  0
 61138  1  0  0  0
 62139  1  0  0  0
 62140  1  0  0  0
 62141  1  0  0  0
 63 65  1  0  0  0
 63142  1  0  0  0
 63143  1  0  0  0
 63144  1  0  0  0
 64145  1  0  0  0
 65146  1  0  0  0
 68 79  1  0  0  0
 71 72  2  0  0  0
 71 75  1  0  0  0
 71147  1  0  0  0
 72 76  1  0  0  0
 72148  1  0  0  0
 73 74  1  0  0  0
 73 75  2  0  0  0
 73149  1  0  0  0
 74 76  2  0  0  0
 74 82  1  0  0  0
 75 84  1  0  0  0
 76 85  1  0  0  0
 77 79  2  0  0  0
 77 80  1  0  0  0
 77 81  1  0  0  0
 78 81  1  0  0  0
 78 84  1  0  0  0
 78 86  2  0  0  0
 79150  1  0  0  0
 80 84  1  0  0  0
 80151  1  0  0  0
 80152  1  0  0  0
 81 87  1  0  0  0
 81153  1  0  0  0
 82154  1  0  0  0
 82155  1  0  0  0
 82156  1  0  0  0
 83 87  1  0  0  0
 83157  1  0  0  0
 83158  1  0  0  0
 83159  1  0  0  0
 85160  1  0  0  0
M  ISO  4   1 100  68 101  79 101  85 100
M  END
> <chiral flag>
0

> <version>
0

> <s_m_source_file>
/data/baiqing/PycharmProjects/Reinvent-master-3.2/result/LINK_invent/BTK/process_docking_weight1_custom_product_contain_oxygen_bond_distance_aromatic_linkinvent_7_9_3/rearranged_h_0069.sdf

> <i_m_source_file_index>
52

> <r_mmod_Potential_Energy-OPLS-2005>
181.740447998047

> <r_mmod_Stretch_Energy-OPLS-2005>
94.4489593505859

> <r_mmod_Bend_Energy-OPLS-2005>
178.956893920898

> <r_mmod_Torsional_Energy-OPLS-2005>
242.999633789062

> <r_mmod_Improper_Torsional_Energy-OPLS-2005>
3.51247644424438

> <r_mmod_Van_der_Waal_Energy-OPLS-2005>
144.913604736328

> <r_mmod_Electrostatic_Energy-OPLS-2005>
-318.773101806641

> <r_mmod_Solvation_Energy-OPLS-2005>
-218.831314086914

> <b_mmod_Minimization_Converged-OPLS-2005>
0

> <r_mmod_RMS_Derivative-OPLS-2005>
3.19918274879456

$$$$
53
                    3D
 Structure written by MMmdl.
155163  0  0  1  0            999 V2000
  -30.5264  -14.8179   20.4196 C   0  0  0  0  0  0
  -30.4265  -12.5136   19.4504 C   0  0  0  0  0  0
  -29.4862  -12.5518   18.2247 C   0  0  0  0  0  0
  -27.9991  -12.3952   18.6284 C   0  0  0  0  0  0
  -27.6117  -13.1977   19.8986 C   0  0  2  0  0  0
  -28.6892  -13.1042   20.9907 C   0  0  0  0  0  0
  -25.2332  -13.7853   20.6064 C   0  0  0  0  0  0
  -24.1619  -13.0075   20.9262 C   0  0  0  0  0  0
  -24.6255  -11.6630   20.8837 C   0  0  0  0  0  0
  -23.8978  -10.4047   21.0395 C   0  0  0  0  0  0
  -24.3584   -9.4019   21.9162 C   0  0  0  0  0  0
  -23.6266   -8.2088   22.0767 C   0  0  0  0  0  0
  -22.4233   -8.0146   21.3547 C   0  0  0  0  0  0
  -21.9878   -9.0123   20.4630 C   0  0  0  0  0  0
  -22.7210  -10.1951   20.3010 C   0  0  0  0  0  0
  -21.6777   -6.0689   22.5308 C   0  0  0  0  0  0
  -21.3931   -6.5616   23.8228 C   0  0  0  0  0  0
  -21.3691   -5.6783   24.9201 C   0  0  0  0  0  0
  -21.6092   -4.3051   24.7248 C   0  0  0  0  0  0
  -21.8837   -3.8133   23.4366 C   0  0  0  0  0  0
  -21.9177   -4.6965   22.3403 C   0  0  0  0  0  0
  -22.7725  -13.5014   21.1923 C   0  0  0  0  0  0
  -22.1650   -4.2129   21.0997 F   0  0  0  0  0  0
  -21.5703   -3.4569   25.7766 F   0  0  0  0  0  0
  -29.9518  -13.5511   20.3966 N   0  0  0  0  0  0
  -26.2786  -12.9041   20.3789 N   0  0  0  0  0  0
  -25.9211  -11.6154   20.6073 N   0  0  0  0  0  0
  -22.0338  -12.7949   22.0358 N   0  0  0  0  0  0
  -25.3782  -15.1639   20.4936 N   0  0  0  0  0  0
  -31.7606  -14.8545   20.3349 O   0  0  0  0  0  0
  -21.6572   -6.8823   21.4258 O   0  0  0  0  0  0
  -22.3609  -14.5463   20.6930 O   0  0  0  0  0  0
  -24.6273  -31.8591   23.2008 C   0  0  0  0  0  0
  -25.9077  -32.4796   23.8434 C   0  0  1  0  0  0
  -27.2586  -27.3102   20.1253 C   0  0  0  0  0  0
  -25.5884  -33.8602   24.2386 N   0  0  0  0  0  0
  -23.4385  -30.4796   21.5362 C   0  0  2  0  0  0
  -24.8947  -28.9278   20.1216 C   0  0  0  0  0  0
  -22.7566  -29.4562   22.4848 C   0  0  0  0  0  0
  -18.0324  -28.1322   22.8514 C   0  0  0  0  0  0
  -24.1514  -36.7321   23.2669 C   0  0  0  0  0  0
  -25.9795  -30.7941   21.3738 C   0  0  0  0  0  0
  -26.0609  -29.4089   20.7297 C   0  0  0  0  0  0
  -27.2475  -28.6125   20.7245 C   0  0  0  0  0  0
  -26.0728  -26.8816   19.4929 C   0  0  0  0  0  0
  -24.9022  -27.6675   19.4970 C   0  0  0  0  0  0
  -23.6699  -29.8169   20.1537 C   0  0  0  0  0  0
  -25.4127  -36.3148   24.0409 C   0  0  1  0  0  0
  -20.5939  -28.3704   23.1271 C   0  0  2  0  0  0
  -20.6838  -26.9406   22.5454 C   0  0  0  0  0  0
  -19.5822  -26.6367   21.5252 C   0  0  0  0  0  0
  -18.1995  -26.7884   22.1660 C   0  0  0  0  0  0
  -19.1573  -28.8848   23.2902 C   0  0  0  0  0  0
  -18.9427  -30.1441   23.8853 C   0  0  0  0  0  0
  -17.6415  -30.6560   24.0464 C   0  0  0  0  0  0
  -25.8999  -34.9488   23.5219 C   0  0  0  0  0  0
  -16.5319  -29.9026   23.6257 C   0  0  0  0  0  0
  -16.7308  -28.6423   23.0338 C   0  0  0  0  0  0
  -26.4493  -31.6541   25.0747 C   0  0  0  0  0  0
  -25.3742  -31.3578   26.1475 C   0  0  0  0  0  0
  -27.0319  -30.3012   24.6039 C   0  0  0  0  0  0
  -27.6127  -32.4225   25.7460 C   0  0  0  0  0  0
  -27.5595  -37.1851   24.8482 C   0  0  0  0  0  0
  -21.4228  -29.3088   22.3675 N   0  0  0  0  0  0
  -26.4316  -37.3813   23.9395 N   0  0  0  0  0  0
  -24.7023  -31.0602   22.0958 N   0  0  0  0  0  0
  -23.4279  -28.8052   23.2893 O   0  0  0  0  0  0
  -28.3721  -26.4522   20.1091 O   0  0  0  0  0  0
  -26.5597  -34.8942   22.4772 O   0  0  0  0  0  0
  -23.5380  -32.1305   23.7303 O   0  0  0  0  0  0
  -27.7646  -19.7996   21.6308 C   0  0  0  0  0  0
  -27.4988  -18.5382   22.1781 C   0  0  0  0  0  0
  -29.6005  -18.8393   20.4050 C   0  0  0  0  0  0
  -29.2719  -17.4719   20.8401 C   0  0  0  0  0  0
  -28.8787  -20.0404   20.7931 C   0  0  0  0  0  0
  -28.2292  -17.3802   21.8279 C   0  0  0  0  0  0
  -28.2268  -25.1147   20.5533 C   0  0  0  0  0  0
  -28.9267  -23.9829   20.1543 C   0  0  0  0  0  0
  -28.6724  -22.6489   20.8256 C   0  0  0  0  0  0
  -29.7634  -16.2026   19.9726 C   0  0  0  0  0  0
  -27.7754  -16.2133   22.4486 N   0  0  0  0  0  0
  -29.1535  -21.4370   20.3185 N   0  0  0  0  0  0
  -29.9362  -24.1855   19.0849 N   0  3  0  0  0  0
  -28.0553  -22.6575   21.8930 O   0  0  0  0  0  0
  -28.6764  -15.9220   19.2748 F   0  0  0  0  0  0
  -30.5666  -16.7408   19.0503 F   0  0  0  0  0  0
  -31.4569  -12.6817   19.1278 H   0  0  0  0  0  0
  -30.4220  -11.5261   19.9101 H   0  0  0  0  0  0
  -29.7587  -11.7698   17.5149 H   0  0  0  0  0  0
  -29.6242  -13.4974   17.6929 H   0  0  0  0  0  0
  -27.7968  -11.3336   18.7847 H   0  0  0  0  0  0
  -27.3576  -12.7162   17.8062 H   0  0  0  0  0  0
  -27.5098  -14.2131   19.5869 H   0  0  0  0  0  0
  -28.7930  -12.0675   21.3321 H   0  0  0  0  0  0
  -28.4449  -13.6724   21.8861 H   0  0  0  0  0  0
  -25.2773   -9.5534   22.4662 H   0  0  0  0  0  0
  -24.0007   -7.4508   22.7483 H   0  0  0  0  0  0
  -21.0813   -8.8642   19.8912 H   0  0  0  0  0  0
  -22.3752  -10.9485   19.6072 H   0  0  0  0  0  0
  -21.1808   -7.6114   23.9714 H   0  0  0  0  0  0
  -21.1526   -6.0499   25.9108 H   0  0  0  0  0  0
  -22.0579   -2.7589   23.2863 H   0  0  0  0  0  0
  -22.3838  -11.9409   22.4453 H   0  0  0  0  0  0
  -21.0969  -13.0992   22.2597 H   0  0  0  0  0  0
  -24.4759  -15.6131   20.4550 H   0  0  0  0  0  0
  -25.8035  -15.5046   21.3481 H   0  0  0  0  0  0
  -26.7184  -32.5521   23.1239 H   0  0  0  0  0  0
  -25.0102  -33.9755   25.0598 H   0  0  0  0  0  0
  -22.7290  -31.2967   21.3827 H   0  0  0  0  0  0
  -23.3759  -35.9638   23.3341 H   0  0  0  0  0  0
  -24.3634  -36.8872   22.2055 H   0  0  0  0  0  0
  -23.7213  -37.6560   23.6596 H   0  0  0  0  0  0
  -26.1019  -31.5481   20.5981 H   0  0  0  0  0  0
  -26.8600  -30.8649   21.9962 H   0  0  0  0  0  0
  -28.1514  -28.9772   21.1990 H   0  0  0  0  0  0
  -26.0593  -25.9277   18.9871 H   0  0  0  0  0  0
  -24.0213  -27.2970   18.9956 H   0  0  0  0  0  0
  -23.8235  -30.5990   19.4099 H   0  0  0  0  0  0
  -22.7892  -29.2692   19.8239 H   0  0  0  0  0  0
  -25.1268  -36.2139   25.0898 H   0  0  0  0  0  0
  -21.0027  -28.3321   24.1391 H   0  0  0  0  0  0
  -20.5706  -26.2319   23.3686 H   0  0  0  0  0  0
  -21.6723  -26.7403   22.1287 H   0  0  0  0  0  0
  -19.7010  -25.6295   21.1271 H   0  0  0  0  0  0
  -19.6757  -27.3176   20.6783 H   0  0  0  0  0  0
  -17.4268  -26.6563   21.4059 H   0  0  0  0  0  0
  -18.0406  -26.0057   22.9088 H   0  0  0  0  0  0
  -19.7872  -30.7340   24.2216 H   0  0  0  0  0  0
  -17.4903  -31.6272   24.4985 H   0  0  0  0  0  0
  -15.5294  -30.2862   23.7529 H   0  0  0  0  0  0
  -15.8748  -28.0678   22.7026 H   0  0  0  0  0  0
  -24.6007  -30.6839   25.7785 H   0  0  0  0  0  0
  -24.8792  -32.2644   26.4946 H   0  0  0  0  0  0
  -25.8105  -30.8758   27.0232 H   0  0  0  0  0  0
  -26.2813  -29.6775   24.1156 H   0  0  0  0  0  0
  -27.4231  -29.7259   25.4440 H   0  0  0  0  0  0
  -27.8608  -30.4406   23.9095 H   0  0  0  0  0  0
  -27.2853  -33.3553   26.2065 H   0  0  0  0  0  0
  -28.3879  -32.6710   25.0199 H   0  0  0  0  0  0
  -28.0843  -31.8292   26.5303 H   0  0  0  0  0  0
  -28.2693  -38.0097   24.7493 H   0  0  0  0  0  0
  -28.1064  -36.2631   24.6390 H   0  0  0  0  0  0
  -27.2323  -37.1588   25.8907 H   0  0  0  0  0  0
  -20.9379  -29.9013   21.7071 H   0  0  0  0  0  0
  -26.0282  -38.2942   24.1299 H   0  0  0  0  0  0
  -27.0617  -20.5761   21.8817 H   0  0  0  0  0  0
  -26.6569  -18.4684   22.8511 H   0  0  0  0  0  0
  -30.3866  -18.9539   19.6766 H   0  0  0  0  0  0
  -27.4704  -25.0451   21.3259 H   0  0  0  0  0  0
  -26.9921  -16.2430   23.1102 H   0  0  0  0  0  0
  -27.9992  -15.2836   22.1329 H   0  0  0  0  0  0
  -29.7720  -21.4979   19.5231 H   0  0  0  0  0  0
  -30.0284  -25.1686   18.9107 H   0  0  0  0  0  0
  -30.8358  -23.8345   19.3644 H   0  0  0  0  0  0
  -29.6773  -23.7532   18.2189 H   0  0  0  0  0  0
  1 25  1  0  0  0
  1 30  2  0  0  0
  1 80  1  0  0  0
  2  3  1  0  0  0
  2 25  1  0  0  0
  2 87  1  0  0  0
  2 88  1  0  0  0
  3  4  1  0  0  0
  3 89  1  0  0  0
  3 90  1  0  0  0
  4  5  1  0  0  0
  4 91  1  0  0  0
  4 92  1  0  0  0
  5  6  1  0  0  0
  5 26  1  0  0  0
  5 93  1  0  0  0
  6 25  1  0  0  0
  6 94  1  0  0  0
  6 95  1  0  0  0
  7  8  2  0  0  0
  7 26  1  0  0  0
  7 29  1  0  0  0
  8  9  1  0  0  0
  8 22  1  0  0  0
  9 10  1  0  0  0
  9 27  2  0  0  0
 10 11  2  0  0  0
 10 15  1  0  0  0
 11 12  1  0  0  0
 11 96  1  0  0  0
 12 13  2  0  0  0
 12 97  1  0  0  0
 13 14  1  0  0  0
 13 31  1  0  0  0
 14 15  2  0  0  0
 14 98  1  0  0  0
 15 99  1  0  0  0
 16 17  2  0  0  0
 16 21  1  0  0  0
 16 31  1  0  0  0
 17 18  1  0  0  0
 17100  1  0  0  0
 18 19  2  0  0  0
 18101  1  0  0  0
 19 20  1  0  0  0
 19 24  1  0  0  0
 20 21  2  0  0  0
 20102  1  0  0  0
 21 23  1  0  0  0
 22 28  1  0  0  0
 22 32  2  0  0  0
 26 27  1  0  0  0
 28103  1  0  0  0
 28104  1  0  0  0
 29105  1  0  0  0
 29106  1  0  0  0
 33 34  1  0  0  0
 33 66  1  0  0  0
 33 70  2  0  0  0
 34 36  1  0  0  0
 34 59  1  0  0  0
 34107  1  0  0  0
 35 44  2  0  0  0
 35 45  1  0  0  0
 35 68  1  0  0  0
 36 56  1  0  0  0
 36108  1  0  0  0
 37 39  1  0  0  0
 37 47  1  0  0  0
 37 66  1  0  0  0
 37109  1  0  0  0
 38 43  2  0  0  0
 38 46  1  0  0  0
 38 47  1  0  0  0
 39 64  1  0  0  0
 39 67  2  0  0  0
 40 52  1  0  0  0
 40 53  2  0  0  0
 40 58  1  0  0  0
 41110  1  0  0  0
 41111  1  0  0  0
 41112  1  0  0  0
 41 48  1  0  0  0
 42 43  1  0  0  0
 42 66  1  0  0  0
 42113  1  0  0  0
 42114  1  0  0  0
 43 44  1  0  0  0
 44115  1  0  0  0
 45 46  2  0  0  0
 45116  1  0  0  0
 46117  1  0  0  0
 47118  1  0  0  0
 47119  1  0  0  0
 48 56  1  0  0  0
 48 65  1  0  0  0
 48120  1  0  0  0
 49 50  1  0  0  0
 49 53  1  0  0  0
 49 64  1  0  0  0
 49121  1  0  0  0
 50 51  1  0  0  0
 50122  1  0  0  0
 50123  1  0  0  0
 51 52  1  0  0  0
 51124  1  0  0  0
 51125  1  0  0  0
 52126  1  0  0  0
 52127  1  0  0  0
 53 54  1  0  0  0
 54 55  2  0  0  0
 54128  1  0  0  0
 55 57  1  0  0  0
 55129  1  0  0  0
 56 69  2  0  0  0
 57 58  2  0  0  0
 57130  1  0  0  0
 58131  1  0  0  0
 59 60  1  0  0  0
 59 61  1  0  0  0
 59 62  1  0  0  0
 60132  1  0  0  0
 60133  1  0  0  0
 60134  1  0  0  0
 61135  1  0  0  0
 61136  1  0  0  0
 61137  1  0  0  0
 62138  1  0  0  0
 62139  1  0  0  0
 62140  1  0  0  0
 63 65  1  0  0  0
 63141  1  0  0  0
 63142  1  0  0  0
 63143  1  0  0  0
 64144  1  0  0  0
 65145  1  0  0  0
 68 77  1  0  0  0
 71 72  2  0  0  0
 71 75  1  0  0  0
 71146  1  0  0  0
 72 76  1  0  0  0
 72147  1  0  0  0
 73 74  1  0  0  0
 73 75  2  0  0  0
 73148  1  0  0  0
 74 76  2  0  0  0
 74 80  1  0  0  0
 75 82  1  0  0  0
 76 81  1  0  0  0
 77 78  2  0  0  0
 77149  1  0  0  0
 78 79  1  0  0  0
 78 83  1  0  0  0
 79 82  1  0  0  0
 79 84  2  0  0  0
 80 85  1  0  0  0
 80 86  1  0  0  0
 81150  1  0  0  0
 81151  1  0  0  0
 82152  1  0  0  0
 83153  1  0  0  0
 83154  1  0  0  0
 83155  1  0  0  0
M  CHG  1  83   1
M  ISO  4   1 100  68 101  77 101  80 100
M  END
> <chiral flag>
0

> <version>
0

> <s_m_source_file>
/data/baiqing/PycharmProjects/Reinvent-master-3.2/result/LINK_invent/BTK/process_docking_weight1_custom_product_contain_oxygen_bond_distance_aromatic_linkinvent_7_9_3/rearranged_h_0069.sdf

> <i_m_source_file_index>
53

> <r_mmod_Potential_Energy-OPLS-2005>
32.8997802734375

> <r_mmod_Stretch_Energy-OPLS-2005>
141.241668701172

> <r_mmod_Bend_Energy-OPLS-2005>
223.025619506836

> <r_mmod_Torsional_Energy-OPLS-2005>
267.844482421875

> <r_mmod_Improper_Torsional_Energy-OPLS-2005>
28.2070999145508

> <r_mmod_Van_der_Waal_Energy-OPLS-2005>
161.182739257812

> <r_mmod_Electrostatic_Energy-OPLS-2005>
-354.275848388672

> <r_mmod_Solvation_Energy-OPLS-2005>
-529.76806640625

> <b_mmod_Minimization_Converged-OPLS-2005>
0

> <r_mmod_RMS_Derivative-OPLS-2005>
12.0419025421143

$$$$
54
                    3D
 Structure written by MMmdl.
161170  0  0  1  0            999 V2000
  -30.6058  -14.7138   20.4802 C   0  0  0  0  0  0
  -30.4384  -12.4333   19.4880 C   0  0  0  0  0  0
  -29.5257  -12.5174   18.2426 C   0  0  0  0  0  0
  -28.0411  -12.3610   18.6349 C   0  0  0  0  0  0
  -27.6497  -13.2338   19.8602 C   0  0  2  0  0  0
  -28.6887  -13.1334   20.9998 C   0  0  0  0  0  0
  -25.2543  -13.8217   20.5708 C   0  0  0  0  0  0
  -24.1819  -13.0460   20.9204 C   0  0  0  0  0  0
  -24.6397  -11.6924   20.8734 C   0  0  0  0  0  0
  -23.9058  -10.4319   21.0409 C   0  0  0  0  0  0
  -24.3629   -9.4242   21.9204 C   0  0  0  0  0  0
  -23.6341   -8.2244   22.0748 C   0  0  0  0  0  0
  -22.4333   -8.0287   21.3534 C   0  0  0  0  0  0
  -21.9944   -9.0266   20.4635 C   0  0  0  0  0  0
  -22.7229  -10.2176   20.3047 C   0  0  0  0  0  0
  -21.6851   -6.0765   22.5308 C   0  0  0  0  0  0
  -21.3982   -6.5665   23.8254 C   0  0  0  0  0  0
  -21.3674   -5.6801   24.9197 C   0  0  0  0  0  0
  -21.6064   -4.3066   24.7227 C   0  0  0  0  0  0
  -21.8823   -3.8159   23.4345 C   0  0  0  0  0  0
  -21.9185   -4.6984   22.3400 C   0  0  0  0  0  0
  -22.7848  -13.5262   21.1891 C   0  0  0  0  0  0
  -22.1652   -4.2159   21.0989 F   0  0  0  0  0  0
  -21.5650   -3.4572   25.7741 F   0  0  0  0  0  0
  -29.9999  -13.4797   20.4415 N   0  0  0  0  0  0
  -26.2968  -12.9418   20.3289 N   0  0  0  0  0  0
  -25.9341  -11.6549   20.5734 N   0  0  0  0  0  0
  -22.0422  -12.8263   22.0407 N   0  0  0  0  0  0
  -25.4317  -15.1959   20.4242 N   0  0  0  0  0  0
  -31.7690  -14.8400   20.0796 O   0  0  0  0  0  0
  -21.6662   -6.8923   21.4275 O   0  0  0  0  0  0
  -22.3549  -14.5557   20.6724 O   0  0  0  0  0  0
  -24.6311  -31.8525   23.1976 C   0  0  0  0  0  0
  -25.9147  -32.4706   23.8321 C   0  0  1  0  0  0
  -27.2112  -27.2292   20.1206 C   0  0  0  0  0  0
  -25.5951  -33.8514   24.2224 N   0  0  0  0  0  0
  -23.4284  -30.4772   21.5428 C   0  0  2  0  0  0
  -24.8729  -28.9264   20.1081 C   0  0  0  0  0  0
  -22.7525  -29.4559   22.4891 C   0  0  0  0  0  0
  -18.0289  -28.1367   22.8477 C   0  0  0  0  0  0
  -24.1511  -36.7285   23.2637 C   0  0  0  0  0  0
  -25.9800  -30.7470   21.3942 C   0  0  0  0  0  0
  -26.0445  -29.3722   20.7309 C   0  0  0  0  0  0
  -27.2079  -28.5333   20.7357 C   0  0  0  0  0  0
  -26.0158  -26.8724   19.4490 C   0  0  0  0  0  0
  -24.8659  -27.6839   19.4616 C   0  0  0  0  0  0
  -23.6481  -29.8183   20.1572 C   0  0  0  0  0  0
  -25.4132  -36.3034   24.0306 C   0  0  1  0  0  0
  -20.5899  -28.3664   23.1253 C   0  0  2  0  0  0
  -20.6774  -26.9374   22.5398 C   0  0  0  0  0  0
  -19.5752  -26.6352   21.5210 C   0  0  0  0  0  0
  -18.1931  -26.7907   22.1618 C   0  0  0  0  0  0
  -19.1548  -28.8845   23.2841 C   0  0  0  0  0  0
  -18.9478  -30.1463   23.8833 C   0  0  0  0  0  0
  -17.6479  -30.6561   24.0553 C   0  0  0  0  0  0
  -25.9071  -34.9401   23.5063 C   0  0  0  0  0  0
  -16.5366  -29.9057   23.6338 C   0  0  0  0  0  0
  -16.7280  -28.6482   23.0340 C   0  0  0  0  0  0
  -26.4501  -31.6561   25.0746 C   0  0  0  0  0  0
  -25.3721  -31.3807   26.1493 C   0  0  0  0  0  0
  -27.0361  -30.2939   24.6354 C   0  0  0  0  0  0
  -27.6012  -32.4363   25.7535 C   0  0  0  0  0  0
  -27.5585  -37.1786   24.8438 C   0  0  0  0  0  0
  -21.4230  -29.3009   22.3645 N   0  0  0  0  0  0
  -26.4294  -37.3749   23.9401 N   0  0  0  0  0  0
  -24.6988  -31.0458   22.0985 N   0  0  0  0  0  0
  -23.4222  -28.8083   23.2978 O   0  0  0  0  0  0
  -28.3147  -26.3341   20.2112 O   0  0  0  0  0  0
  -26.5659  -34.8884   22.4641 O   0  0  0  0  0  0
  -23.5449  -32.1397   23.7255 O   0  0  0  0  0  0
  -29.5912  -19.5789   18.6154 C   0  0  0  0  0  0
  -30.0227  -17.1632   18.7557 C   0  0  0  0  0  0
  -29.5004  -18.4415   20.7690 C   0  0  0  0  0  0
  -29.9144  -18.3483   18.0041 C   0  0  0  0  0  0
  -29.3994  -19.6888   20.0116 C   0  0  0  0  0  0
  -29.8135  -17.1493   20.1518 C   0  0  0  0  0  0
  -30.0975  -21.7342   21.2742 C   0  0  0  0  0  0
  -30.2064  -18.3036   16.5760 C   0  0  0  0  0  0
  -29.9289  -23.2761   21.2572 C   0  0  0  0  0  0
  -28.3390  -22.1463   19.8862 C   0  0  0  0  0  0
  -28.5566  -23.5607   20.5940 C   0  0  2  0  0  0
  -28.3341  -24.9071   19.6892 C   0  0  0  0  0  0
  -29.1830  -21.0743   20.5302 N   0  0  0  0  0  0
  -30.9793  -19.2302   16.0168 N   0  0  0  0  0  0
  -29.8509  -15.8251   20.8203 N   0  0  0  0  0  0
  -29.7298  -17.3166   15.8168 N   0  3  0  0  0  0
  -31.0003  -21.1926   21.9202 O   0  0  0  0  0  0
  -31.4856  -12.5496   19.1955 H   0  0  0  0  0  0
  -30.3750  -11.4469   19.9475 H   0  0  0  0  0  0
  -29.8124  -11.7527   17.5166 H   0  0  0  0  0  0
  -29.6716  -13.4770   17.7433 H   0  0  0  0  0  0
  -27.8625  -11.3110   18.8580 H   0  0  0  0  0  0
  -27.3951  -12.5951   17.7858 H   0  0  0  0  0  0
  -27.6574  -14.2658   19.5089 H   0  0  0  0  0  0
  -28.7128  -12.1225   21.4116 H   0  0  0  0  0  0
  -28.4317  -13.7921   21.8286 H   0  0  0  0  0  0
  -25.2768   -9.5750   22.4798 H   0  0  0  0  0  0
  -24.0092   -7.4638   22.7446 H   0  0  0  0  0  0
  -21.0864   -8.8779   19.8972 H   0  0  0  0  0  0
  -22.3674  -10.9733   19.6172 H   0  0  0  0  0  0
  -21.1950   -7.6174   23.9772 H   0  0  0  0  0  0
  -21.1499   -6.0503   25.9117 H   0  0  0  0  0  0
  -22.0578   -2.7617   23.2819 H   0  0  0  0  0  0
  -22.3952  -11.9935   22.4897 H   0  0  0  0  0  0
  -21.1046  -13.1342   22.2551 H   0  0  0  0  0  0
  -24.6816  -15.8566   20.5863 H   0  0  0  0  0  0
  -26.2977  -15.6409   20.1462 H   0  0  0  0  0  0
  -26.7200  -32.5327   23.1034 H   0  0  0  0  0  0
  -25.0057  -33.9662   25.0346 H   0  0  0  0  0  0
  -22.7209  -31.2973   21.3996 H   0  0  0  0  0  0
  -23.3760  -35.9629   23.3252 H   0  0  0  0  0  0
  -24.3603  -36.8973   22.2060 H   0  0  0  0  0  0
  -23.7271  -37.6469   23.6715 H   0  0  0  0  0  0
  -26.1441  -31.5096   20.6325 H   0  0  0  0  0  0
  -26.8462  -30.7763   22.0423 H   0  0  0  0  0  0
  -28.0957  -28.8659   21.2575 H   0  0  0  0  0  0
  -25.8965  -25.9534   18.9020 H   0  0  0  0  0  0
  -23.9721  -27.3428   18.9561 H   0  0  0  0  0  0
  -23.7765  -30.5979   19.4060 H   0  0  0  0  0  0
  -22.7656  -29.2565   19.8458 H   0  0  0  0  0  0
  -25.1303  -36.1861   25.0797 H   0  0  0  0  0  0
  -20.9986  -28.3251   24.1386 H   0  0  0  0  0  0
  -20.5694  -26.2268   23.3610 H   0  0  0  0  0  0
  -21.6640  -26.7397   22.1189 H   0  0  0  0  0  0
  -19.6911  -25.6279   21.1221 H   0  0  0  0  0  0
  -19.6689  -27.3183   20.6758 H   0  0  0  0  0  0
  -17.4209  -26.6663   21.4014 H   0  0  0  0  0  0
  -18.0308  -26.0046   22.9009 H   0  0  0  0  0  0
  -19.7965  -30.7296   24.2133 H   0  0  0  0  0  0
  -17.5034  -31.6230   24.5180 H   0  0  0  0  0  0
  -15.5358  -30.2937   23.7692 H   0  0  0  0  0  0
  -15.8685  -28.0798   22.7043 H   0  0  0  0  0  0
  -24.5755  -30.7313   25.7843 H   0  0  0  0  0  0
  -24.9115  -32.3053   26.4993 H   0  0  0  0  0  0
  -25.8015  -30.8883   27.0231 H   0  0  0  0  0  0
  -26.2996  -29.6658   24.1333 H   0  0  0  0  0  0
  -27.3901  -29.7226   25.4944 H   0  0  0  0  0  0
  -27.8934  -30.4122   23.9727 H   0  0  0  0  0  0
  -27.2510  -33.3598   26.2163 H   0  0  0  0  0  0
  -28.3797  -32.7052   25.0382 H   0  0  0  0  0  0
  -28.0733  -31.8509   26.5434 H   0  0  0  0  0  0
  -28.2538  -38.0139   24.7508 H   0  0  0  0  0  0
  -28.1130  -36.2653   24.6215 H   0  0  0  0  0  0
  -27.2296  -37.1364   25.8837 H   0  0  0  0  0  0
  -20.9413  -29.8758   21.6882 H   0  0  0  0  0  0
  -26.0139  -38.2808   24.1445 H   0  0  0  0  0  0
  -29.5387  -20.4631   17.9953 H   0  0  0  0  0  0
  -30.2726  -16.2492   18.2334 H   0  0  0  0  0  0
  -29.3403  -18.4805   21.8375 H   0  0  0  0  0  0
  -30.7494  -23.7036   20.6773 H   0  0  0  0  0  0
  -29.9977  -23.6763   22.2711 H   0  0  0  0  0  0
  -28.5891  -22.2410   18.8274 H   0  0  0  0  0  0
  -27.2847  -21.8642   19.9215 H   0  0  0  0  0  0
  -27.8320  -23.6210   21.4093 H   0  0  0  0  0  0
  -27.4263  -24.6805   19.1316 H   0  0  0  0  0  0
  -29.1040  -24.9050   18.9075 H   0  0  0  0  0  0
  -31.3573  -19.9729   16.5867 H   0  0  0  0  0  0
  -31.2886  -19.1816   15.0610 H   0  0  0  0  0  0
  -29.0516  -15.6198   21.4048 H   0  0  0  0  0  0
  -29.0424  -16.6817   16.2000 H   0  0  0  0  0  0
  -29.9943  -17.2052   14.8505 H   0  0  0  0  0  0
  1 25  1  0  0  0
  1 30  2  0  0  0
  1 85  1  0  0  0
  2  3  1  0  0  0
  2 25  1  0  0  0
  2 88  1  0  0  0
  2 89  1  0  0  0
  3  4  1  0  0  0
  3 90  1  0  0  0
  3 91  1  0  0  0
  4  5  1  0  0  0
  4 92  1  0  0  0
  4 93  1  0  0  0
  5  6  1  0  0  0
  5 26  1  0  0  0
  5 94  1  0  0  0
  6 25  1  0  0  0
  6 95  1  0  0  0
  6 96  1  0  0  0
  7  8  2  0  0  0
  7 26  1  0  0  0
  7 29  1  0  0  0
  8  9  1  0  0  0
  8 22  1  0  0  0
  9 10  1  0  0  0
  9 27  2  0  0  0
 10 11  2  0  0  0
 10 15  1  0  0  0
 11 12  1  0  0  0
 11 97  1  0  0  0
 12 13  2  0  0  0
 12 98  1  0  0  0
 13 14  1  0  0  0
 13 31  1  0  0  0
 14 15  2  0  0  0
 14 99  1  0  0  0
 15100  1  0  0  0
 16 17  2  0  0  0
 16 21  1  0  0  0
 16 31  1  0  0  0
 17 18  1  0  0  0
 17101  1  0  0  0
 18 19  2  0  0  0
 18102  1  0  0  0
 19 20  1  0  0  0
 19 24  1  0  0  0
 20 21  2  0  0  0
 20103  1  0  0  0
 21 23  1  0  0  0
 22 28  1  0  0  0
 22 32  2  0  0  0
 26 27  1  0  0  0
 28104  1  0  0  0
 28105  1  0  0  0
 29106  1  0  0  0
 29107  1  0  0  0
 33 34  1  0  0  0
 33 66  1  0  0  0
 33 70  2  0  0  0
 34 36  1  0  0  0
 34 59  1  0  0  0
 34108  1  0  0  0
 35 44  2  0  0  0
 35 45  1  0  0  0
 35 68  1  0  0  0
 36 56  1  0  0  0
 36109  1  0  0  0
 37 39  1  0  0  0
 37 47  1  0  0  0
 37 66  1  0  0  0
 37110  1  0  0  0
 38 43  2  0  0  0
 38 46  1  0  0  0
 38 47  1  0  0  0
 39 64  1  0  0  0
 39 67  2  0  0  0
 40 52  1  0  0  0
 40 53  2  0  0  0
 40 58  1  0  0  0
 41111  1  0  0  0
 41112  1  0  0  0
 41113  1  0  0  0
 41 48  1  0  0  0
 42 43  1  0  0  0
 42 66  1  0  0  0
 42114  1  0  0  0
 42115  1  0  0  0
 43 44  1  0  0  0
 44116  1  0  0  0
 45 46  2  0  0  0
 45117  1  0  0  0
 46118  1  0  0  0
 47119  1  0  0  0
 47120  1  0  0  0
 48 56  1  0  0  0
 48 65  1  0  0  0
 48121  1  0  0  0
 49 50  1  0  0  0
 49 53  1  0  0  0
 49 64  1  0  0  0
 49122  1  0  0  0
 50 51  1  0  0  0
 50123  1  0  0  0
 50124  1  0  0  0
 51 52  1  0  0  0
 51125  1  0  0  0
 51126  1  0  0  0
 52127  1  0  0  0
 52128  1  0  0  0
 53 54  1  0  0  0
 54 55  2  0  0  0
 54129  1  0  0  0
 55 57  1  0  0  0
 55130  1  0  0  0
 56 69  2  0  0  0
 57 58  2  0  0  0
 57131  1  0  0  0
 58132  1  0  0  0
 59 60  1  0  0  0
 59 61  1  0  0  0
 59 62  1  0  0  0
 60133  1  0  0  0
 60134  1  0  0  0
 60135  1  0  0  0
 61136  1  0  0  0
 61137  1  0  0  0
 61138  1  0  0  0
 62139  1  0  0  0
 62140  1  0  0  0
 62141  1  0  0  0
 63 65  1  0  0  0
 63142  1  0  0  0
 63143  1  0  0  0
 63144  1  0  0  0
 64145  1  0  0  0
 65146  1  0  0  0
 68 82  1  0  0  0
 71 74  2  0  0  0
 71 75  1  0  0  0
 71147  1  0  0  0
 72 74  1  0  0  0
 72 76  2  0  0  0
 72148  1  0  0  0
 73 75  2  0  0  0
 73 76  1  0  0  0
 73149  1  0  0  0
 74 78  1  0  0  0
 75 83  1  0  0  0
 76 85  1  0  0  0
 77 79  1  0  0  0
 77 83  1  0  0  0
 77 87  2  0  0  0
 78 84  1  0  0  0
 78 86  2  0  0  0
 79 81  1  0  0  0
 79150  1  0  0  0
 79151  1  0  0  0
 80 81  1  0  0  0
 80 83  1  0  0  0
 80152  1  0  0  0
 80153  1  0  0  0
 81 82  1  0  0  0
 81154  1  0  0  0
 82155  1  0  0  0
 82156  1  0  0  0
 84157  1  0  0  0
 84158  1  0  0  0
 85159  1  0  0  0
 86160  1  0  0  0
 86161  1  0  0  0
M  CHG  1  86   1
M  ISO  4   1 100  68 101  82 101  85 100
M  END
> <chiral flag>
0

> <version>
0

> <s_m_source_file>
/data/baiqing/PycharmProjects/Reinvent-master-3.2/result/LINK_invent/BTK/process_docking_weight1_custom_product_contain_oxygen_bond_distance_aromatic_linkinvent_7_9_3/rearranged_h_0069.sdf

> <i_m_source_file_index>
54

> <r_mmod_Potential_Energy-OPLS-2005>
-60.3602561950684

> <r_mmod_Stretch_Energy-OPLS-2005>
133.264907836914

> <r_mmod_Bend_Energy-OPLS-2005>
206.272369384766

> <r_mmod_Torsional_Energy-OPLS-2005>
307.341979980469

> <r_mmod_Improper_Torsional_Energy-OPLS-2005>
6.2765998840332

> <r_mmod_Van_der_Waal_Energy-OPLS-2005>
137.890182495117

> <r_mmod_Electrostatic_Energy-OPLS-2005>
-462.851440429688

> <r_mmod_Solvation_Energy-OPLS-2005>
-474.566314697266

> <b_mmod_Minimization_Converged-OPLS-2005>
0

> <r_mmod_RMS_Derivative-OPLS-2005>
6.4153037071228

$$$$
55
                    3D
 Structure written by MMmdl.
158166  0  0  1  0            999 V2000
  -30.6306  -14.7559   20.4410 C   0  0  0  0  0  0
  -30.4236  -12.4515   19.4994 C   0  0  0  0  0  0
  -29.5131  -12.5001   18.2523 C   0  0  0  0  0  0
  -28.0395  -12.3271   18.6628 C   0  0  0  0  0  0
  -27.6419  -13.2373   19.8559 C   0  0  2  0  0  0
  -28.6831  -13.1919   20.9974 C   0  0  0  0  0  0
  -25.2507  -13.8215   20.5723 C   0  0  0  0  0  0
  -24.1797  -13.0455   20.9224 C   0  0  0  0  0  0
  -24.6394  -11.6934   20.8759 C   0  0  0  0  0  0
  -23.9077  -10.4308   21.0417 C   0  0  0  0  0  0
  -24.3627   -9.4218   21.9191 C   0  0  0  0  0  0
  -23.6301   -8.2251   22.0752 C   0  0  0  0  0  0
  -22.4283   -8.0289   21.3543 C   0  0  0  0  0  0
  -21.9926   -9.0262   20.4643 C   0  0  0  0  0  0
  -22.7257  -10.2144   20.3058 C   0  0  0  0  0  0
  -21.6851   -6.0742   22.5277 C   0  0  0  0  0  0
  -21.4008   -6.5643   23.8210 C   0  0  0  0  0  0
  -21.3660   -5.6795   24.9173 C   0  0  0  0  0  0
  -21.6047   -4.3058   24.7225 C   0  0  0  0  0  0
  -21.8817   -3.8151   23.4344 C   0  0  0  0  0  0
  -21.9194   -4.6970   22.3402 C   0  0  0  0  0  0
  -22.7820  -13.5222   21.1886 C   0  0  0  0  0  0
  -22.1660   -4.2154   21.0982 F   0  0  0  0  0  0
  -21.5634   -3.4538   25.7740 F   0  0  0  0  0  0
  -29.9905  -13.5317   20.4233 N   0  0  0  0  0  0
  -26.2931  -12.9431   20.3313 N   0  0  0  0  0  0
  -25.9324  -11.6566   20.5784 N   0  0  0  0  0  0
  -22.0465  -12.8187   22.0429 N   0  0  0  0  0  0
  -25.4222  -15.1939   20.4135 N   0  0  0  0  0  0
  -31.8089  -14.7982   20.0744 O   0  0  0  0  0  0
  -21.6644   -6.8886   21.4241 O   0  0  0  0  0  0
  -22.3506  -14.5538   20.6757 O   0  0  0  0  0  0
  -24.6342  -31.8530   23.1977 C   0  0  0  0  0  0
  -25.9164  -32.4737   23.8326 C   0  0  1  0  0  0
  -27.2079  -27.2258   20.1378 C   0  0  0  0  0  0
  -25.5959  -33.8539   24.2248 N   0  0  0  0  0  0
  -23.4317  -30.4779   21.5394 C   0  0  2  0  0  0
  -24.8802  -28.9276   20.1025 C   0  0  0  0  0  0
  -22.7515  -29.4593   22.4869 C   0  0  0  0  0  0
  -18.0308  -28.1386   22.8507 C   0  0  0  0  0  0
  -24.1495  -36.7261   23.2641 C   0  0  0  0  0  0
  -25.9809  -30.7545   21.3860 C   0  0  0  0  0  0
  -26.0509  -29.3752   20.7268 C   0  0  0  0  0  0
  -27.2145  -28.5350   20.7395 C   0  0  0  0  0  0
  -26.0242  -26.8772   19.4444 C   0  0  0  0  0  0
  -24.8756  -27.6903   19.4456 C   0  0  0  0  0  0
  -23.6527  -29.8170   20.1541 C   0  0  0  0  0  0
  -25.4118  -36.3040   24.0327 C   0  0  1  0  0  0
  -20.5917  -28.3694   23.1256 C   0  0  2  0  0  0
  -20.6790  -26.9408   22.5396 C   0  0  0  0  0  0
  -19.5754  -26.6388   21.5209 C   0  0  0  0  0  0
  -18.1940  -26.7934   22.1636 C   0  0  0  0  0  0
  -19.1566  -28.8859   23.2881 C   0  0  0  0  0  0
  -18.9473  -30.1467   23.8883 C   0  0  0  0  0  0
  -17.6465  -30.6579   24.0569 C   0  0  0  0  0  0
  -25.9071  -34.9423   23.5086 C   0  0  0  0  0  0
  -16.5360  -29.9075   23.6344 C   0  0  0  0  0  0
  -16.7295  -28.6500   23.0362 C   0  0  0  0  0  0
  -26.4532  -31.6576   25.0731 C   0  0  0  0  0  0
  -25.3752  -31.3708   26.1443 C   0  0  0  0  0  0
  -27.0383  -30.2991   24.6234 C   0  0  0  0  0  0
  -27.6079  -32.4320   25.7501 C   0  0  0  0  0  0
  -27.5560  -37.1789   24.8466 C   0  0  0  0  0  0
  -21.4220  -29.3044   22.3622 N   0  0  0  0  0  0
  -26.4273  -37.3753   23.9409 N   0  0  0  0  0  0
  -24.7011  -31.0478   22.0963 N   0  0  0  0  0  0
  -23.4203  -28.8137   23.2980 O   0  0  0  0  0  0
  -28.2723  -26.2873   20.2470 O   0  0  0  0  0  0
  -26.5617  -34.8906   22.4642 O   0  0  0  0  0  0
  -23.5487  -32.1357   23.7265 O   0  0  0  0  0  0
  -28.8699  -20.9610   22.4099 C   0  0  0  0  0  0
  -29.0701  -19.7606   23.1221 C   0  0  0  0  0  0
  -29.4180  -19.7738   20.3772 C   0  0  0  0  0  0
  -29.6413  -18.5071   21.0829 C   0  0  0  0  0  0
  -29.0440  -21.0341   21.0127 C   0  0  0  0  0  0
  -29.4665  -18.5489   22.5015 C   0  0  0  0  0  0
  -30.2280  -17.2358   20.3701 C   0  0  0  0  0  0
  -28.7663  -23.6543   20.7425 C   0  0  0  0  0  0
  -29.6369  -15.4018   25.2281 C   0  0  0  0  0  0
  -28.0480  -24.8229   19.8967 C   0  0  0  0  0  0
  -28.7592  -22.3229   20.3077 N   0  0  0  0  0  0
  -29.7267  -17.4333   23.3206 N   0  0  0  0  0  0
  -29.9171  -15.9203   20.7327 N   0  0  0  0  0  0
  -31.0012  -17.4685   19.4345 O   0  0  0  0  0  0
  -29.3306  -23.9728   21.7931 O   0  0  0  0  0  0
  -30.4251  -17.9300   25.7309 O   0  0  0  0  0  0
  -27.9646  -17.5065   25.1743 O   0  0  0  0  0  0
  -29.3896  -17.1875   24.9965 S   0  0  0  0  0  0
  -31.4684  -12.5452   19.1993 H   0  0  0  0  0  0
  -30.3477  -11.4807   19.9921 H   0  0  0  0  0  0
  -29.7980  -11.7177   17.5467 H   0  0  0  0  0  0
  -29.6446  -13.4482   17.7289 H   0  0  0  0  0  0
  -27.9002  -11.2812   18.9387 H   0  0  0  0  0  0
  -27.3835  -12.5068   17.8095 H   0  0  0  0  0  0
  -27.6342  -14.2554   19.4657 H   0  0  0  0  0  0
  -28.7135  -12.2023   21.4559 H   0  0  0  0  0  0
  -28.4128  -13.8882   21.7924 H   0  0  0  0  0  0
  -25.2771   -9.5690   22.4772 H   0  0  0  0  0  0
  -24.0009   -7.4636   22.7462 H   0  0  0  0  0  0
  -21.0861   -8.8781   19.8941 H   0  0  0  0  0  0
  -22.3718  -10.9679   19.6164 H   0  0  0  0  0  0
  -21.1987   -7.6149   23.9711 H   0  0  0  0  0  0
  -21.1485   -6.0527   25.9077 H   0  0  0  0  0  0
  -22.0596   -2.7612   23.2845 H   0  0  0  0  0  0
  -22.4076  -11.9828   22.4782 H   0  0  0  0  0  0
  -21.1083  -13.1201   22.2643 H   0  0  0  0  0  0
  -24.6591  -15.8525   20.5263 H   0  0  0  0  0  0
  -26.2674  -15.6267   20.0642 H   0  0  0  0  0  0
  -26.7223  -32.5378   23.1057 H   0  0  0  0  0  0
  -25.0145  -33.9684   25.0415 H   0  0  0  0  0  0
  -22.7316  -31.3029   21.3942 H   0  0  0  0  0  0
  -23.3755  -35.9594   23.3297 H   0  0  0  0  0  0
  -24.3591  -36.8890   22.2057 H   0  0  0  0  0  0
  -23.7259  -37.6466   23.6672 H   0  0  0  0  0  0
  -26.1280  -31.5151   20.6179 H   0  0  0  0  0  0
  -26.8564  -30.8018   22.0226 H   0  0  0  0  0  0
  -28.1027  -28.8658   21.2594 H   0  0  0  0  0  0
  -25.9435  -25.9529   18.8938 H   0  0  0  0  0  0
  -23.9877  -27.3527   18.9284 H   0  0  0  0  0  0
  -23.7782  -30.5956   19.4006 H   0  0  0  0  0  0
  -22.7707  -29.2524   19.8480 H   0  0  0  0  0  0
  -25.1309  -36.1871   25.0820 H   0  0  0  0  0  0
  -21.0036  -28.3262   24.1366 H   0  0  0  0  0  0
  -20.5685  -26.2302   23.3603 H   0  0  0  0  0  0
  -21.6649  -26.7416   22.1177 H   0  0  0  0  0  0
  -19.6893  -25.6298   21.1234 H   0  0  0  0  0  0
  -19.6679  -27.3211   20.6745 H   0  0  0  0  0  0
  -17.4209  -26.6722   21.4032 H   0  0  0  0  0  0
  -18.0315  -26.0066   22.9020 H   0  0  0  0  0  0
  -19.7939  -30.7313   24.2214 H   0  0  0  0  0  0
  -17.5012  -31.6251   24.5180 H   0  0  0  0  0  0
  -15.5356  -30.2962   23.7660 H   0  0  0  0  0  0
  -15.8716  -28.0809   22.7057 H   0  0  0  0  0  0
  -24.5955  -30.7028   25.7771 H   0  0  0  0  0  0
  -24.8907  -32.2863   26.4837 H   0  0  0  0  0  0
  -25.8079  -30.8912   27.0233 H   0  0  0  0  0  0
  -26.2961  -29.6731   24.1267 H   0  0  0  0  0  0
  -27.4069  -29.7276   25.4760 H   0  0  0  0  0  0
  -27.8854  -30.4268   23.9490 H   0  0  0  0  0  0
  -27.2694  -33.3653   26.2005 H   0  0  0  0  0  0
  -28.3921  -32.6814   25.0344 H   0  0  0  0  0  0
  -28.0715  -31.8488   26.5468 H   0  0  0  0  0  0
  -28.2573  -38.0090   24.7498 H   0  0  0  0  0  0
  -28.1057  -36.2615   24.6298 H   0  0  0  0  0  0
  -27.2276  -37.1435   25.8870 H   0  0  0  0  0  0
  -20.9384  -29.8779   21.6856 H   0  0  0  0  0  0
  -26.0136  -38.2817   24.1422 H   0  0  0  0  0  0
  -28.5644  -21.8337   22.9693 H   0  0  0  0  0  0
  -28.9364  -19.8027   24.1941 H   0  0  0  0  0  0
  -29.5672  -19.7764   19.3070 H   0  0  0  0  0  0
  -30.6740  -15.1396   25.0311 H   0  0  0  0  0  0
  -28.9752  -14.8469   24.5666 H   0  0  0  0  0  0
  -29.3994  -15.1508   26.2603 H   0  0  0  0  0  0
  -26.9977  -24.5677   20.0185 H   0  0  0  0  0  0
  -28.2860  -24.6799   18.8425 H   0  0  0  0  0  0
  -28.4284  -22.2145   19.3572 H   0  0  0  0  0  0
  -30.2857  -16.6974   22.9158 H   0  0  0  0  0  0
  -29.0543  -15.7995   21.2376 H   0  0  0  0  0  0
  1 25  1  0  0  0
  1 30  2  0  0  0
  1 83  1  0  0  0
  2  3  1  0  0  0
  2 25  1  0  0  0
  2 89  1  0  0  0
  2 90  1  0  0  0
  3  4  1  0  0  0
  3 91  1  0  0  0
  3 92  1  0  0  0
  4  5  1  0  0  0
  4 93  1  0  0  0
  4 94  1  0  0  0
  5  6  1  0  0  0
  5 26  1  0  0  0
  5 95  1  0  0  0
  6 25  1  0  0  0
  6 96  1  0  0  0
  6 97  1  0  0  0
  7  8  2  0  0  0
  7 26  1  0  0  0
  7 29  1  0  0  0
  8  9  1  0  0  0
  8 22  1  0  0  0
  9 10  1  0  0  0
  9 27  2  0  0  0
 10 11  2  0  0  0
 10 15  1  0  0  0
 11 12  1  0  0  0
 11 98  1  0  0  0
 12 13  2  0  0  0
 12 99  1  0  0  0
 13 14  1  0  0  0
 13 31  1  0  0  0
 14 15  2  0  0  0
 14100  1  0  0  0
 15101  1  0  0  0
 16 17  2  0  0  0
 16 21  1  0  0  0
 16 31  1  0  0  0
 17 18  1  0  0  0
 17102  1  0  0  0
 18 19  2  0  0  0
 18103  1  0  0  0
 19 20  1  0  0  0
 19 24  1  0  0  0
 20 21  2  0  0  0
 20104  1  0  0  0
 21 23  1  0  0  0
 22 28  1  0  0  0
 22 32  2  0  0  0
 26 27  1  0  0  0
 28105  1  0  0  0
 28106  1  0  0  0
 29107  1  0  0  0
 29108  1  0  0  0
 33 34  1  0  0  0
 33 66  1  0  0  0
 33 70  2  0  0  0
 34 36  1  0  0  0
 34 59  1  0  0  0
 34109  1  0  0  0
 35 44  2  0  0  0
 35 45  1  0  0  0
 35 68  1  0  0  0
 36 56  1  0  0  0
 36110  1  0  0  0
 37 39  1  0  0  0
 37 47  1  0  0  0
 37 66  1  0  0  0
 37111  1  0  0  0
 38 43  2  0  0  0
 38 46  1  0  0  0
 38 47  1  0  0  0
 39 64  1  0  0  0
 39 67  2  0  0  0
 40 52  1  0  0  0
 40 53  2  0  0  0
 40 58  1  0  0  0
 41112  1  0  0  0
 41113  1  0  0  0
 41114  1  0  0  0
 41 48  1  0  0  0
 42 43  1  0  0  0
 42 66  1  0  0  0
 42115  1  0  0  0
 42116  1  0  0  0
 43 44  1  0  0  0
 44117  1  0  0  0
 45 46  2  0  0  0
 45118  1  0  0  0
 46119  1  0  0  0
 47120  1  0  0  0
 47121  1  0  0  0
 48 56  1  0  0  0
 48 65  1  0  0  0
 48122  1  0  0  0
 49 50  1  0  0  0
 49 53  1  0  0  0
 49 64  1  0  0  0
 49123  1  0  0  0
 50 51  1  0  0  0
 50124  1  0  0  0
 50125  1  0  0  0
 51 52  1  0  0  0
 51126  1  0  0  0
 51127  1  0  0  0
 52128  1  0  0  0
 52129  1  0  0  0
 53 54  1  0  0  0
 54 55  2  0  0  0
 54130  1  0  0  0
 55 57  1  0  0  0
 55131  1  0  0  0
 56 69  2  0  0  0
 57 58  2  0  0  0
 57132  1  0  0  0
 58133  1  0  0  0
 59 60  1  0  0  0
 59 61  1  0  0  0
 59 62  1  0  0  0
 60134  1  0  0  0
 60135  1  0  0  0
 60136  1  0  0  0
 61137  1  0  0  0
 61138  1  0  0  0
 61139  1  0  0  0
 62140  1  0  0  0
 62141  1  0  0  0
 62142  1  0  0  0
 63 65  1  0  0  0
 63143  1  0  0  0
 63144  1  0  0  0
 63145  1  0  0  0
 64146  1  0  0  0
 65147  1  0  0  0
 68 80  1  0  0  0
 71 72  2  0  0  0
 71 75  1  0  0  0
 71148  1  0  0  0
 72 76  1  0  0  0
 72149  1  0  0  0
 73 74  1  0  0  0
 73 75  2  0  0  0
 73150  1  0  0  0
 74 76  2  0  0  0
 74 77  1  0  0  0
 75 81  1  0  0  0
 76 82  1  0  0  0
 77 83  1  0  0  0
 77 84  2  0  0  0
 78 80  1  0  0  0
 78 81  1  0  0  0
 78 85  2  0  0  0
 79151  1  0  0  0
 79152  1  0  0  0
 79153  1  0  0  0
 79 88  1  0  0  0
 80154  1  0  0  0
 80155  1  0  0  0
 81156  1  0  0  0
 82 88  1  0  0  0
 82157  1  0  0  0
 83158  1  0  0  0
 86 88  2  0  0  0
 87 88  2  0  0  0
M  ISO  4   1 100  68 101  80 101  83 100
M  END
> <chiral flag>
0

> <version>
0

> <s_m_source_file>
/data/baiqing/PycharmProjects/Reinvent-master-3.2/result/LINK_invent/BTK/process_docking_weight1_custom_product_contain_oxygen_bond_distance_aromatic_linkinvent_7_9_3/rearranged_h_0069.sdf

> <i_m_source_file_index>
55

> <r_mmod_Potential_Energy-OPLS-2005>
-92.2822799682617

> <r_mmod_Stretch_Energy-OPLS-2005>
143.465347290039

> <r_mmod_Bend_Energy-OPLS-2005>
173.544769287109

> <r_mmod_Torsional_Energy-OPLS-2005>
251.066345214844

> <r_mmod_Improper_Torsional_Energy-OPLS-2005>
4.40892457962036

> <r_mmod_Van_der_Waal_Energy-OPLS-2005>
143.458068847656

> <r_mmod_Electrostatic_Energy-OPLS-2005>
-595.5205078125

> <r_mmod_Solvation_Energy-OPLS-2005>
-315.14990234375

> <b_mmod_Minimization_Converged-OPLS-2005>
0

> <r_mmod_RMS_Derivative-OPLS-2005>
1.83870244026184

$$$$
56
                    3D
 Structure written by MMmdl.
153161  0  0  1  0            999 V2000
  -30.5223  -15.0438   20.4030 C   0  0  0  0  0  0
  -30.4380  -12.6525   19.5104 C   0  0  0  0  0  0
  -29.5248  -12.5398   18.2669 C   0  0  0  0  0  0
  -28.0629  -12.3055   18.6886 C   0  0  0  0  0  0
  -27.6221  -13.2565   19.8313 C   0  0  2  0  0  0
  -28.6620  -13.3390   20.9696 C   0  0  0  0  0  0
  -25.2392  -13.8193   20.5645 C   0  0  0  0  0  0
  -24.1756  -13.0418   20.9262 C   0  0  0  0  0  0
  -24.6396  -11.6914   20.8794 C   0  0  0  0  0  0
  -23.9083  -10.4284   21.0428 C   0  0  0  0  0  0
  -24.3629   -9.4196   21.9199 C   0  0  0  0  0  0
  -23.6300   -8.2234   22.0759 C   0  0  0  0  0  0
  -22.4283   -8.0278   21.3545 C   0  0  0  0  0  0
  -21.9924   -9.0256   20.4649 C   0  0  0  0  0  0
  -22.7259  -10.2131   20.3068 C   0  0  0  0  0  0
  -21.6850   -6.0735   22.5278 C   0  0  0  0  0  0
  -21.4013   -6.5638   23.8211 C   0  0  0  0  0  0
  -21.3658   -5.6792   24.9173 C   0  0  0  0  0  0
  -21.6044   -4.3055   24.7224 C   0  0  0  0  0  0
  -21.8818   -3.8145   23.4345 C   0  0  0  0  0  0
  -21.9192   -4.6963   22.3403 C   0  0  0  0  0  0
  -22.7775  -13.5190   21.1903 C   0  0  0  0  0  0
  -22.1661   -4.2152   21.0980 F   0  0  0  0  0  0
  -21.5629   -3.4538   25.7734 F   0  0  0  0  0  0
  -29.9270  -13.7736   20.3614 N   0  0  0  0  0  0
  -26.2843  -12.9460   20.3209 N   0  0  0  0  0  0
  -25.9329  -11.6587   20.5766 N   0  0  0  0  0  0
  -22.0422  -12.8184   22.0460 N   0  0  0  0  0  0
  -25.3937  -15.1892   20.3835 N   0  0  0  0  0  0
  -31.7336  -15.0581   20.1560 O   0  0  0  0  0  0
  -21.6636   -6.8880   21.4242 O   0  0  0  0  0  0
  -22.3463  -14.5495   20.6740 O   0  0  0  0  0  0
  -24.6498  -31.8369   23.1841 C   0  0  0  0  0  0
  -25.9235  -32.4663   23.8249 C   0  0  1  0  0  0
  -27.2149  -27.0731   20.1616 C   0  0  0  0  0  0
  -25.5952  -33.8474   24.2157 N   0  0  0  0  0  0
  -23.4571  -30.4565   21.5297 C   0  0  2  0  0  0
  -24.9076  -28.8737   20.1102 C   0  0  0  0  0  0
  -22.7600  -29.4516   22.4827 C   0  0  0  0  0  0
  -18.0309  -28.1410   22.8462 C   0  0  0  0  0  0
  -24.1493  -36.7243   23.2648 C   0  0  0  0  0  0
  -26.0183  -30.6922   21.3916 C   0  0  0  0  0  0
  -26.0882  -29.2980   20.7329 C   0  0  0  0  0  0
  -27.2420  -28.4160   20.7375 C   0  0  0  0  0  0
  -26.0058  -26.7676   19.4968 C   0  0  0  0  0  0
  -24.8832  -27.6246   19.4746 C   0  0  0  0  0  0
  -23.6880  -29.7839   20.1508 C   0  0  0  0  0  0
  -25.4123  -36.3013   24.0317 C   0  0  1  0  0  0
  -20.5925  -28.3734   23.1216 C   0  0  2  0  0  0
  -20.6795  -26.9431   22.5399 C   0  0  0  0  0  0
  -19.5768  -26.6380   21.5213 C   0  0  0  0  0  0
  -18.1945  -26.7944   22.1617 C   0  0  0  0  0  0
  -19.1566  -28.8888   23.2836 C   0  0  0  0  0  0
  -18.9484  -30.1476   23.8868 C   0  0  0  0  0  0
  -17.6482  -30.6601   24.0554 C   0  0  0  0  0  0
  -25.9075  -34.9391   23.5049 C   0  0  0  0  0  0
  -16.5371  -29.9089   23.6345 C   0  0  0  0  0  0
  -16.7291  -28.6514   23.0354 C   0  0  0  0  0  0
  -26.4540  -31.6557   25.0715 C   0  0  0  0  0  0
  -25.3712  -31.3763   26.1399 C   0  0  0  0  0  0
  -27.0410  -30.2940   24.6347 C   0  0  0  0  0  0
  -27.6051  -32.4340   25.7506 C   0  0  0  0  0  0
  -27.5576  -37.1772   24.8463 C   0  0  0  0  0  0
  -21.4280  -29.3050   22.3576 N   0  0  0  0  0  0
  -26.4279  -37.3734   23.9417 N   0  0  0  0  0  0
  -24.7289  -31.0173   22.0904 N   0  0  0  0  0  0
  -23.4213  -28.8062   23.3001 O   0  0  0  0  0  0
  -28.2428  -26.0412   20.2323 O   0  0  0  0  0  0
  -26.5668  -34.8895   22.4632 O   0  0  0  0  0  0
  -23.5595  -32.1263   23.7022 O   0  0  0  0  0  0
  -31.8142  -19.5113   20.0680 C   0  0  0  0  0  0
  -30.9378  -20.6150   20.1073 C   0  0  0  0  0  0
  -31.3891  -18.1740   20.2102 C   0  0  0  0  0  0
  -29.1259  -19.0302   20.4748 C   0  0  0  0  0  0
  -29.5461  -20.4826   20.3097 C   0  0  0  0  0  0
  -30.0384  -17.8098   20.4106 C   0  0  0  0  0  0
  -27.6688  -18.8172   20.7026 C   0  0  0  0  0  0
  -28.9988  -23.2327   20.3142 C   0  0  0  0  0  0
  -27.2686  -17.7497   21.7132 C   0  0  0  0  0  0
  -27.8966  -24.4944   20.1409 C   0  0  0  0  0  0
  -28.7067  -21.8124   20.2994 N   0  0  0  0  0  0
  -29.7500  -16.2647   20.5181 N   0  0  0  0  0  0
  -26.7860  -19.5022   20.1763 O   0  0  0  0  0  0
  -30.1658  -23.5940   20.4821 O   0  0  0  0  0  0
  -31.4686  -12.8182   19.1918 H   0  0  0  0  0  0
  -30.4488  -11.7168   20.0722 H   0  0  0  0  0  0
  -29.8630  -11.7294   17.6198 H   0  0  0  0  0  0
  -29.5936  -13.4549   17.6765 H   0  0  0  0  0  0
  -27.9809  -11.2704   19.0226 H   0  0  0  0  0  0
  -27.3967  -12.4022   17.8305 H   0  0  0  0  0  0
  -27.5689  -14.2458   19.3761 H   0  0  0  0  0  0
  -28.7727  -12.3797   21.4771 H   0  0  0  0  0  0
  -28.3419  -14.0566   21.7271 H   0  0  0  0  0  0
  -25.2769   -9.5667   22.4783 H   0  0  0  0  0  0
  -24.0002   -7.4618   22.7475 H   0  0  0  0  0  0
  -21.0856   -8.8781   19.8948 H   0  0  0  0  0  0
  -22.3722  -10.9677   19.6183 H   0  0  0  0  0  0
  -21.2003   -7.6143   23.9718 H   0  0  0  0  0  0
  -21.1481   -6.0518   25.9077 H   0  0  0  0  0  0
  -22.0599   -2.7608   23.2842 H   0  0  0  0  0  0
  -22.4042  -11.9850   22.4853 H   0  0  0  0  0  0
  -21.1037  -13.1204   22.2665 H   0  0  0  0  0  0
  -24.5870  -15.8024   20.4242 H   0  0  0  0  0  0
  -26.1612  -15.5842   19.8584 H   0  0  0  0  0  0
  -26.7294  -32.5246   23.0963 H   0  0  0  0  0  0
  -25.0077  -33.9574   25.0291 H   0  0  0  0  0  0
  -22.7640  -31.2853   21.3702 H   0  0  0  0  0  0
  -23.3762  -35.9567   23.3275 H   0  0  0  0  0  0
  -24.3579  -36.8910   22.2071 H   0  0  0  0  0  0
  -23.7240  -37.6427   23.6702 H   0  0  0  0  0  0
  -26.1804  -31.4431   20.6177 H   0  0  0  0  0  0
  -26.8870  -30.7443   22.0366 H   0  0  0  0  0  0
  -28.1384  -28.7359   21.2491 H   0  0  0  0  0  0
  -25.8877  -25.8163   19.0024 H   0  0  0  0  0  0
  -23.9840  -27.2939   18.9729 H   0  0  0  0  0  0
  -23.8304  -30.5572   19.3953 H   0  0  0  0  0  0
  -22.8018  -29.2302   19.8367 H   0  0  0  0  0  0
  -25.1314  -36.1831   25.0809 H   0  0  0  0  0  0
  -21.0012  -28.3328   24.1340 H   0  0  0  0  0  0
  -20.5694  -26.2345   23.3624 H   0  0  0  0  0  0
  -21.6659  -26.7431   22.1194 H   0  0  0  0  0  0
  -19.6933  -25.6285   21.1258 H   0  0  0  0  0  0
  -19.6720  -27.3173   20.6736 H   0  0  0  0  0  0
  -17.4219  -26.6678   21.4018 H   0  0  0  0  0  0
  -18.0337  -26.0110   22.9036 H   0  0  0  0  0  0
  -19.7963  -30.7292   24.2231 H   0  0  0  0  0  0
  -17.5039  -31.6280   24.5152 H   0  0  0  0  0  0
  -15.5367  -30.2981   23.7697 H   0  0  0  0  0  0
  -15.8688  -28.0820   22.7093 H   0  0  0  0  0  0
  -24.5901  -30.7098   25.7718 H   0  0  0  0  0  0
  -24.8892  -32.2950   26.4751 H   0  0  0  0  0  0
  -25.7982  -30.8984   27.0225 H   0  0  0  0  0  0
  -26.3038  -29.6650   24.1340 H   0  0  0  0  0  0
  -27.3984  -29.7262   25.4949 H   0  0  0  0  0  0
  -27.8965  -30.4154   23.9702 H   0  0  0  0  0  0
  -27.2632  -33.3672   26.1994 H   0  0  0  0  0  0
  -28.3909  -32.6850   25.0369 H   0  0  0  0  0  0
  -28.0666  -31.8529   26.5499 H   0  0  0  0  0  0
  -28.2565  -38.0098   24.7522 H   0  0  0  0  0  0
  -28.1102  -36.2620   24.6266 H   0  0  0  0  0  0
  -27.2294  -37.1392   25.8867 H   0  0  0  0  0  0
  -20.9494  -29.8772   21.6756 H   0  0  0  0  0  0
  -26.0140  -38.2797   24.1430 H   0  0  0  0  0  0
  -32.8675  -19.6980   19.9104 H   0  0  0  0  0  0
  -31.3807  -21.5882   19.9634 H   0  0  0  0  0  0
  -32.1583  -17.4202   20.1558 H   0  0  0  0  0  0
  -27.9537  -17.7513   22.5605 H   0  0  0  0  0  0
  -27.2799  -16.7647   21.2548 H   0  0  0  0  0  0
  -26.2627  -17.9405   22.0868 H   0  0  0  0  0  0
  -27.1056  -24.3072   20.8672 H   0  0  0  0  0  0
  -27.4453  -24.3227   19.1646 H   0  0  0  0  0  0
  -27.7094  -21.6457   20.2393 H   0  0  0  0  0  0
  -28.7783  -16.0461   20.6712 H   0  0  0  0  0  0
  1 25  1  0  0  0
  1 30  2  0  0  0
  1 82  1  0  0  0
  2  3  1  0  0  0
  2 25  1  0  0  0
  2 85  1  0  0  0
  2 86  1  0  0  0
  3  4  1  0  0  0
  3 87  1  0  0  0
  3 88  1  0  0  0
  4  5  1  0  0  0
  4 89  1  0  0  0
  4 90  1  0  0  0
  5  6  1  0  0  0
  5 26  1  0  0  0
  5 91  1  0  0  0
  6 25  1  0  0  0
  6 92  1  0  0  0
  6 93  1  0  0  0
  7  8  2  0  0  0
  7 26  1  0  0  0
  7 29  1  0  0  0
  8  9  1  0  0  0
  8 22  1  0  0  0
  9 10  1  0  0  0
  9 27  2  0  0  0
 10 11  2  0  0  0
 10 15  1  0  0  0
 11 12  1  0  0  0
 11 94  1  0  0  0
 12 13  2  0  0  0
 12 95  1  0  0  0
 13 14  1  0  0  0
 13 31  1  0  0  0
 14 15  2  0  0  0
 14 96  1  0  0  0
 15 97  1  0  0  0
 16 17  2  0  0  0
 16 21  1  0  0  0
 16 31  1  0  0  0
 17 18  1  0  0  0
 17 98  1  0  0  0
 18 19  2  0  0  0
 18 99  1  0  0  0
 19 20  1  0  0  0
 19 24  1  0  0  0
 20 21  2  0  0  0
 20100  1  0  0  0
 21 23  1  0  0  0
 22 28  1  0  0  0
 22 32  2  0  0  0
 26 27  1  0  0  0
 28101  1  0  0  0
 28102  1  0  0  0
 29103  1  0  0  0
 29104  1  0  0  0
 33 34  1  0  0  0
 33 66  1  0  0  0
 33 70  2  0  0  0
 34 36  1  0  0  0
 34 59  1  0  0  0
 34105  1  0  0  0
 35 44  2  0  0  0
 35 45  1  0  0  0
 35 68  1  0  0  0
 36 56  1  0  0  0
 36106  1  0  0  0
 37 39  1  0  0  0
 37 47  1  0  0  0
 37 66  1  0  0  0
 37107  1  0  0  0
 38 43  2  0  0  0
 38 46  1  0  0  0
 38 47  1  0  0  0
 39 64  1  0  0  0
 39 67  2  0  0  0
 40 52  1  0  0  0
 40 53  2  0  0  0
 40 58  1  0  0  0
 41108  1  0  0  0
 41109  1  0  0  0
 41110  1  0  0  0
 41 48  1  0  0  0
 42 43  1  0  0  0
 42 66  1  0  0  0
 42111  1  0  0  0
 42112  1  0  0  0
 43 44  1  0  0  0
 44113  1  0  0  0
 45 46  2  0  0  0
 45114  1  0  0  0
 46115  1  0  0  0
 47116  1  0  0  0
 47117  1  0  0  0
 48 56  1  0  0  0
 48 65  1  0  0  0
 48118  1  0  0  0
 49 50  1  0  0  0
 49 53  1  0  0  0
 49 64  1  0  0  0
 49119  1  0  0  0
 50 51  1  0  0  0
 50120  1  0  0  0
 50121  1  0  0  0
 51 52  1  0  0  0
 51122  1  0  0  0
 51123  1  0  0  0
 52124  1  0  0  0
 52125  1  0  0  0
 53 54  1  0  0  0
 54 55  2  0  0  0
 54126  1  0  0  0
 55 57  1  0  0  0
 55127  1  0  0  0
 56 69  2  0  0  0
 57 58  2  0  0  0
 57128  1  0  0  0
 58129  1  0  0  0
 59 60  1  0  0  0
 59 61  1  0  0  0
 59 62  1  0  0  0
 60130  1  0  0  0
 60131  1  0  0  0
 60132  1  0  0  0
 61133  1  0  0  0
 61134  1  0  0  0
 61135  1  0  0  0
 62136  1  0  0  0
 62137  1  0  0  0
 62138  1  0  0  0
 63 65  1  0  0  0
 63139  1  0  0  0
 63140  1  0  0  0
 63141  1  0  0  0
 64142  1  0  0  0
 65143  1  0  0  0
 68 80  1  0  0  0
 71 72  2  0  0  0
 71 73  1  0  0  0
 71144  1  0  0  0
 72 75  1  0  0  0
 72145  1  0  0  0
 73 76  2  0  0  0
 73146  1  0  0  0
 74 75  2  0  0  0
 74 76  1  0  0  0
 74 77  1  0  0  0
 75 81  1  0  0  0
 76 82  1  0  0  0
 77 79  1  0  0  0
 77 83  2  0  0  0
 78 80  1  0  0  0
 78 81  1  0  0  0
 78 84  2  0  0  0
 79147  1  0  0  0
 79148  1  0  0  0
 79149  1  0  0  0
 80150  1  0  0  0
 80151  1  0  0  0
 81152  1  0  0  0
 82153  1  0  0  0
M  ISO  4   1 100  68 101  80 101  82 100
M  END
> <chiral flag>
0

> <version>
0

> <s_m_source_file>
/data/baiqing/PycharmProjects/Reinvent-master-3.2/result/LINK_invent/BTK/process_docking_weight1_custom_product_contain_oxygen_bond_distance_aromatic_linkinvent_7_9_3/rearranged_h_0069.sdf

> <i_m_source_file_index>
56

> <r_mmod_Potential_Energy-OPLS-2005>
730.194274902344

> <r_mmod_Stretch_Energy-OPLS-2005>
353.593658447266

> <r_mmod_Bend_Energy-OPLS-2005>
271.1611328125

> <r_mmod_Torsional_Energy-OPLS-2005>
254.141616821289

> <r_mmod_Improper_Torsional_Energy-OPLS-2005>
6.07487487792969

> <r_mmod_Van_der_Waal_Energy-OPLS-2005>
134.831420898438

> <r_mmod_Electrostatic_Energy-OPLS-2005>
-304.494842529297

> <r_mmod_Solvation_Energy-OPLS-2005>
-245.359848022461

> <b_mmod_Minimization_Converged-OPLS-2005>
0

> <r_mmod_RMS_Derivative-OPLS-2005>
0.95204770565033

$$$$
57
                    3D
 Structure written by MMmdl.
160169  0  0  1  0            999 V2000
  -30.6232  -14.6321   20.5034 C   0  0  0  0  0  0
  -30.4416  -12.3884   19.4473 C   0  0  0  0  0  0
  -29.5079  -12.5072   18.2217 C   0  0  0  0  0  0
  -28.0308  -12.3451   18.6342 C   0  0  0  0  0  0
  -27.6554  -13.2131   19.8641 C   0  0  2  0  0  0
  -28.7016  -13.0608   20.9920 C   0  0  0  0  0  0
  -25.2574  -13.8161   20.5673 C   0  0  0  0  0  0
  -24.1840  -13.0435   20.9196 C   0  0  0  0  0  0
  -24.6403  -11.6903   20.8747 C   0  0  0  0  0  0
  -23.9068  -10.4290   21.0411 C   0  0  0  0  0  0
  -24.3618   -9.4205   21.9189 C   0  0  0  0  0  0
  -23.6292   -8.2241   22.0757 C   0  0  0  0  0  0
  -22.4274   -8.0282   21.3545 C   0  0  0  0  0  0
  -21.9911   -9.0257   20.4649 C   0  0  0  0  0  0
  -22.7241  -10.2135   20.3060 C   0  0  0  0  0  0
  -21.6853   -6.0737   22.5280 C   0  0  0  0  0  0
  -21.4014   -6.5640   23.8213 C   0  0  0  0  0  0
  -21.3658   -5.6793   24.9175 C   0  0  0  0  0  0
  -21.6043   -4.3056   24.7225 C   0  0  0  0  0  0
  -21.8820   -3.8148   23.4347 C   0  0  0  0  0  0
  -21.9192   -4.6965   22.3402 C   0  0  0  0  0  0
  -22.7861  -13.5234   21.1852 C   0  0  0  0  0  0
  -22.1661   -4.2151   21.0980 F   0  0  0  0  0  0
  -21.5628   -3.4540   25.7738 F   0  0  0  0  0  0
  -30.0181  -13.4047   20.4299 N   0  0  0  0  0  0
  -26.3002  -12.9336   20.3319 N   0  0  0  0  0  0
  -25.9330  -11.6496   20.5763 N   0  0  0  0  0  0
  -22.0497  -12.8229   22.0406 N   0  0  0  0  0  0
  -25.4279  -15.1880   20.4042 N   0  0  0  0  0  0
  -31.7863  -14.7988   20.1245 O   0  0  0  0  0  0
  -21.6637   -6.8880   21.4242 O   0  0  0  0  0  0
  -22.3551  -14.5541   20.6698 O   0  0  0  0  0  0
  -24.6253  -31.8605   23.2036 C   0  0  0  0  0  0
  -25.9104  -32.4783   23.8360 C   0  0  1  0  0  0
  -27.2244  -27.3254   20.1133 C   0  0  0  0  0  0
  -25.5923  -33.8584   24.2287 N   0  0  0  0  0  0
  -23.4186  -30.4848   21.5464 C   0  0  2  0  0  0
  -24.8652  -28.9431   20.1116 C   0  0  0  0  0  0
  -22.7473  -29.4621   22.4941 C   0  0  0  0  0  0
  -18.0285  -28.1379   22.8481 C   0  0  0  0  0  0
  -24.1491  -36.7294   23.2639 C   0  0  0  0  0  0
  -25.9600  -30.7941   21.3734 C   0  0  0  0  0  0
  -26.0347  -29.4225   20.7145 C   0  0  0  0  0  0
  -27.2177  -28.6258   20.7050 C   0  0  0  0  0  0
  -26.0292  -26.9002   19.4858 C   0  0  0  0  0  0
  -24.8640  -27.6873   19.4886 C   0  0  0  0  0  0
  -23.6332  -29.8221   20.1610 C   0  0  0  0  0  0
  -25.4113  -36.3085   24.0332 C   0  0  1  0  0  0
  -20.5885  -28.3681   23.1286 C   0  0  2  0  0  0
  -20.6772  -26.9404   22.5407 C   0  0  0  0  0  0
  -19.5748  -26.6379   21.5209 C   0  0  0  0  0  0
  -18.1929  -26.7920   22.1622 C   0  0  0  0  0  0
  -19.1538  -28.8846   23.2879 C   0  0  0  0  0  0
  -18.9463  -30.1449   23.8896 C   0  0  0  0  0  0
  -17.6463  -30.6582   24.0558 C   0  0  0  0  0  0
  -25.9048  -34.9454   23.5109 C   0  0  0  0  0  0
  -16.5354  -29.9079   23.6330 C   0  0  0  0  0  0
  -16.7273  -28.6498   23.0347 C   0  0  0  0  0  0
  -26.4493  -31.6584   25.0722 C   0  0  0  0  0  0
  -25.3731  -31.3716   26.1453 C   0  0  0  0  0  0
  -27.0332  -30.3012   24.6157 C   0  0  0  0  0  0
  -27.6055  -32.4314   25.7495 C   0  0  0  0  0  0
  -27.5580  -37.1802   24.8467 C   0  0  0  0  0  0
  -21.4187  -29.3042   22.3691 N   0  0  0  0  0  0
  -26.4291  -37.3777   23.9412 N   0  0  0  0  0  0
  -24.6869  -31.0622   22.0985 N   0  0  0  0  0  0
  -23.4203  -28.8152   23.3009 O   0  0  0  0  0  0
  -28.3429  -26.4766   20.1641 O   0  0  0  0  0  0
  -26.5612  -34.8920   22.4672 O   0  0  0  0  0  0
  -23.5419  -32.1398   23.7369 O   0  0  0  0  0  0
  -28.7126  -19.3220   20.8428 C   0  0  0  0  0  0
  -28.7108  -17.8975   20.8846 C   0  0  0  0  0  0
  -31.0849  -17.8609   20.5185 C   0  0  0  0  0  0
  -31.0966  -19.2912   20.4852 C   0  0  0  0  0  0
  -29.9064  -20.0656   20.6668 C   0  0  0  0  0  0
  -29.8929  -17.1234   20.7366 C   0  0  0  0  0  0
  -30.3629  -21.8888   22.1320 C   0  0  0  0  0  0
  -28.8940  -22.4216   20.2687 C   0  0  0  0  0  0
  -30.7100  -23.3897   22.2087 C   0  0  0  0  0  0
  -29.2429  -23.9787   20.4377 C   0  0  1  0  0  0
  -32.4352  -19.9792   20.2644 C   0  0  0  0  0  0
  -28.0982  -25.0177   20.0677 C   0  0  0  0  0  0
  -29.9543  -21.4994   20.7809 N   0  0  0  0  0  0
  -29.7965  -15.6680   20.8490 N   0  0  0  0  0  0
  -29.5919  -24.1841   21.8081 O   0  0  0  0  0  0
  -31.4818  -12.5175   19.1432 H   0  0  0  0  0  0
  -30.3800  -11.3908   19.8848 H   0  0  0  0  0  0
  -29.7704  -11.7582   17.4735 H   0  0  0  0  0  0
  -29.6498  -13.4780   17.7440 H   0  0  0  0  0  0
  -27.8664  -11.2915   18.8629 H   0  0  0  0  0  0
  -27.3760  -12.5782   17.7938 H   0  0  0  0  0  0
  -27.6750  -14.2489   19.5254 H   0  0  0  0  0  0
  -28.7126  -12.0367   21.3680 H   0  0  0  0  0  0
  -28.4489  -13.6866   21.8493 H   0  0  0  0  0  0
  -25.2763   -9.5679   22.4764 H   0  0  0  0  0  0
  -24.0001   -7.4631   22.7475 H   0  0  0  0  0  0
  -21.0843   -8.8778   19.8954 H   0  0  0  0  0  0
  -22.3703  -10.9676   19.6170 H   0  0  0  0  0  0
  -21.2007   -7.6149   23.9718 H   0  0  0  0  0  0
  -21.1479   -6.0523   25.9078 H   0  0  0  0  0  0
  -22.0599   -2.7611   23.2846 H   0  0  0  0  0  0
  -22.4104  -11.9888   22.4798 H   0  0  0  0  0  0
  -21.1115  -13.1262   22.2607 H   0  0  0  0  0  0
  -24.6521  -15.8354   20.4927 H   0  0  0  0  0  0
  -26.2577  -15.6172   20.0162 H   0  0  0  0  0  0
  -26.7170  -32.5459   23.1107 H   0  0  0  0  0  0
  -25.0079  -33.9735   25.0438 H   0  0  0  0  0  0
  -22.7117  -31.3048   21.4044 H   0  0  0  0  0  0
  -23.3753  -35.9627   23.3302 H   0  0  0  0  0  0
  -24.3583  -36.8910   22.2053 H   0  0  0  0  0  0
  -23.7247  -37.6498   23.6657 H   0  0  0  0  0  0
  -26.0883  -31.5582   20.6054 H   0  0  0  0  0  0
  -26.8417  -30.8435   22.0006 H   0  0  0  0  0  0
  -28.1144  -28.9886   21.1874 H   0  0  0  0  0  0
  -25.9614  -25.9428   18.9922 H   0  0  0  0  0  0
  -23.9678  -27.3151   19.0116 H   0  0  0  0  0  0
  -23.7524  -30.5996   19.4057 H   0  0  0  0  0  0
  -22.7539  -29.2511   19.8573 H   0  0  0  0  0  0
  -25.1293  -36.1938   25.0824 H   0  0  0  0  0  0
  -20.9973  -28.3245   24.1407 H   0  0  0  0  0  0
  -20.5668  -26.2289   23.3603 H   0  0  0  0  0  0
  -21.6642  -26.7425   22.1205 H   0  0  0  0  0  0
  -19.6909  -25.6290   21.1239 H   0  0  0  0  0  0
  -19.6687  -27.3190   20.6740 H   0  0  0  0  0  0
  -17.4195  -26.6665   21.4027 H   0  0  0  0  0  0
  -18.0328  -26.0062   22.9020 H   0  0  0  0  0  0
  -19.7942  -30.7260   24.2265 H   0  0  0  0  0  0
  -17.5021  -31.6266   24.5152 H   0  0  0  0  0  0
  -15.5356  -30.2979   23.7658 H   0  0  0  0  0  0
  -15.8671  -28.0818   22.7061 H   0  0  0  0  0  0
  -24.5917  -30.7049   25.7787 H   0  0  0  0  0  0
  -24.8911  -32.2879   26.4870 H   0  0  0  0  0  0
  -25.8064  -30.8906   27.0231 H   0  0  0  0  0  0
  -26.2897  -29.6769   24.1187 H   0  0  0  0  0  0
  -27.4050  -29.7257   25.4643 H   0  0  0  0  0  0
  -27.8758  -30.4309   23.9360 H   0  0  0  0  0  0
  -27.2668  -33.3618   26.2066 H   0  0  0  0  0  0
  -28.3870  -32.6864   25.0324 H   0  0  0  0  0  0
  -28.0714  -31.8439   26.5416 H   0  0  0  0  0  0
  -28.2594  -38.0101   24.7508 H   0  0  0  0  0  0
  -28.1077  -36.2630   24.6296 H   0  0  0  0  0  0
  -27.2297  -37.1456   25.8869 H   0  0  0  0  0  0
  -20.9360  -29.8782   21.6919 H   0  0  0  0  0  0
  -26.0173  -38.2852   24.1410 H   0  0  0  0  0  0
  -27.7776  -19.8401   20.9975 H   0  0  0  0  0  0
  -27.7675  -17.3983   21.0543 H   0  0  0  0  0  0
  -32.0196  -17.3326   20.3971 H   0  0  0  0  0  0
  -29.5561  -21.6632   22.8317 H   0  0  0  0  0  0
  -31.2240  -21.3056   22.4610 H   0  0  0  0  0  0
  -28.7124  -22.2035   19.2153 H   0  0  0  0  0  0
  -27.9600  -22.2074   20.7902 H   0  0  0  0  0  0
  -31.5824  -23.6205   21.5950 H   0  0  0  0  0  0
  -30.9725  -23.6514   23.2341 H   0  0  0  0  0  0
  -30.1103  -24.2100   19.8170 H   0  0  0  0  0  0
  -33.1287  -19.3291   19.7305 H   0  0  0  0  0  0
  -32.8897  -20.2431   21.2189 H   0  0  0  0  0  0
  -32.3222  -20.8885   19.6737 H   0  0  0  0  0  0
  -27.2321  -24.7727   20.6848 H   0  0  0  0  0  0
  -27.8145  -24.8020   19.0373 H   0  0  0  0  0  0
  -28.8859  -15.3362   21.1266 H   0  0  0  0  0  0
  1 25  1  0  0  0
  1 30  2  0  0  0
  1 84  1  0  0  0
  2  3  1  0  0  0
  2 25  1  0  0  0
  2 86  1  0  0  0
  2 87  1  0  0  0
  3  4  1  0  0  0
  3 88  1  0  0  0
  3 89  1  0  0  0
  4  5  1  0  0  0
  4 90  1  0  0  0
  4 91  1  0  0  0
  5  6  1  0  0  0
  5 26  1  0  0  0
  5 92  1  0  0  0
  6 25  1  0  0  0
  6 93  1  0  0  0
  6 94  1  0  0  0
  7  8  2  0  0  0
  7 26  1  0  0  0
  7 29  1  0  0  0
  8  9  1  0  0  0
  8 22  1  0  0  0
  9 10  1  0  0  0
  9 27  2  0  0  0
 10 11  2  0  0  0
 10 15  1  0  0  0
 11 12  1  0  0  0
 11 95  1  0  0  0
 12 13  2  0  0  0
 12 96  1  0  0  0
 13 14  1  0  0  0
 13 31  1  0  0  0
 14 15  2  0  0  0
 14 97  1  0  0  0
 15 98  1  0  0  0
 16 17  2  0  0  0
 16 21  1  0  0  0
 16 31  1  0  0  0
 17 18  1  0  0  0
 17 99  1  0  0  0
 18 19  2  0  0  0
 18100  1  0  0  0
 19 20  1  0  0  0
 19 24  1  0  0  0
 20 21  2  0  0  0
 20101  1  0  0  0
 21 23  1  0  0  0
 22 28  1  0  0  0
 22 32  2  0  0  0
 26 27  1  0  0  0
 28102  1  0  0  0
 28103  1  0  0  0
 29104  1  0  0  0
 29105  1  0  0  0
 33 34  1  0  0  0
 33 66  1  0  0  0
 33 70  2  0  0  0
 34 36  1  0  0  0
 34 59  1  0  0  0
 34106  1  0  0  0
 35 44  2  0  0  0
 35 45  1  0  0  0
 35 68  1  0  0  0
 36 56  1  0  0  0
 36107  1  0  0  0
 37 39  1  0  0  0
 37 47  1  0  0  0
 37 66  1  0  0  0
 37108  1  0  0  0
 38 43  2  0  0  0
 38 46  1  0  0  0
 38 47  1  0  0  0
 39 64  1  0  0  0
 39 67  2  0  0  0
 40 52  1  0  0  0
 40 53  2  0  0  0
 40 58  1  0  0  0
 41109  1  0  0  0
 41110  1  0  0  0
 41111  1  0  0  0
 41 48  1  0  0  0
 42 43  1  0  0  0
 42 66  1  0  0  0
 42112  1  0  0  0
 42113  1  0  0  0
 43 44  1  0  0  0
 44114  1  0  0  0
 45 46  2  0  0  0
 45115  1  0  0  0
 46116  1  0  0  0
 47117  1  0  0  0
 47118  1  0  0  0
 48 56  1  0  0  0
 48 65  1  0  0  0
 48119  1  0  0  0
 49 50  1  0  0  0
 49 53  1  0  0  0
 49 64  1  0  0  0
 49120  1  0  0  0
 50 51  1  0  0  0
 50121  1  0  0  0
 50122  1  0  0  0
 51 52  1  0  0  0
 51123  1  0  0  0
 51124  1  0  0  0
 52125  1  0  0  0
 52126  1  0  0  0
 53 54  1  0  0  0
 54 55  2  0  0  0
 54127  1  0  0  0
 55 57  1  0  0  0
 55128  1  0  0  0
 56 69  2  0  0  0
 57 58  2  0  0  0
 57129  1  0  0  0
 58130  1  0  0  0
 59 60  1  0  0  0
 59 61  1  0  0  0
 59 62  1  0  0  0
 60131  1  0  0  0
 60132  1  0  0  0
 60133  1  0  0  0
 61134  1  0  0  0
 61135  1  0  0  0
 61136  1  0  0  0
 62137  1  0  0  0
 62138  1  0  0  0
 62139  1  0  0  0
 63 65  1  0  0  0
 63140  1  0  0  0
 63141  1  0  0  0
 63142  1  0  0  0
 64143  1  0  0  0
 65144  1  0  0  0
 68 82  1  0  0  0
 71 72  2  0  0  0
 71 75  1  0  0  0
 71145  1  0  0  0
 72 76  1  0  0  0
 72146  1  0  0  0
 73 74  1  0  0  0
 73 76  2  0  0  0
 73147  1  0  0  0
 74 75  2  0  0  0
 74 81  1  0  0  0
 75 83  1  0  0  0
 76 84  1  0  0  0
 77 79  1  0  0  0
 77 83  1  0  0  0
 77148  1  0  0  0
 77149  1  0  0  0
 78 80  1  0  0  0
 78 83  1  0  0  0
 78150  1  0  0  0
 78151  1  0  0  0
 79 85  1  0  0  0
 79152  1  0  0  0
 79153  1  0  0  0
 80 82  1  0  0  0
 80 85  1  0  0  0
 80154  1  0  0  0
 81155  1  0  0  0
 81156  1  0  0  0
 81157  1  0  0  0
 82158  1  0  0  0
 82159  1  0  0  0
 84160  1  0  0  0
M  ISO  4   1 100  68 101  82 101  84 100
M  END
> <chiral flag>
0

> <version>
0

> <s_m_source_file>
/data/baiqing/PycharmProjects/Reinvent-master-3.2/result/LINK_invent/BTK/process_docking_weight1_custom_product_contain_oxygen_bond_distance_aromatic_linkinvent_7_9_3/rearranged_h_0069.sdf

> <i_m_source_file_index>
57

> <r_mmod_Potential_Energy-OPLS-2005>
123.248245239258

> <r_mmod_Stretch_Energy-OPLS-2005>
79.3815612792969

> <r_mmod_Bend_Energy-OPLS-2005>
137.856307983398

> <r_mmod_Torsional_Energy-OPLS-2005>
252.707611083984

> <r_mmod_Improper_Torsional_Energy-OPLS-2005>
9.11005020141602

> <r_mmod_Van_der_Waal_Energy-OPLS-2005>
153.729904174805

> <r_mmod_Electrostatic_Energy-OPLS-2005>
-327.036041259766

> <r_mmod_Solvation_Energy-OPLS-2005>
-228.64453125

> <b_mmod_Minimization_Converged-OPLS-2005>
0

> <r_mmod_RMS_Derivative-OPLS-2005>
0.451024174690247

$$$$
58
                    3D
 Structure written by MMmdl.
155164  0  0  1  0            999 V2000
  -30.6148  -14.7482   20.4570 C   0  0  0  0  0  0
  -30.4425  -12.4503   19.4934 C   0  0  0  0  0  0
  -29.5225  -12.4851   18.2518 C   0  0  0  0  0  0
  -28.0491  -12.3169   18.6649 C   0  0  0  0  0  0
  -27.6504  -13.2283   19.8550 C   0  0  2  0  0  0
  -28.6910  -13.1666   20.9958 C   0  0  0  0  0  0
  -25.2579  -13.8202   20.5729 C   0  0  0  0  0  0
  -24.1840  -13.0447   20.9190 C   0  0  0  0  0  0
  -24.6423  -11.6921   20.8746 C   0  0  0  0  0  0
  -23.9102  -10.4298   21.0419 C   0  0  0  0  0  0
  -24.3650   -9.4197   21.9190 C   0  0  0  0  0  0
  -23.6310   -8.2245   22.0753 C   0  0  0  0  0  0
  -22.4286   -8.0308   21.3555 C   0  0  0  0  0  0
  -21.9927   -9.0291   20.4662 C   0  0  0  0  0  0
  -22.7274  -10.2157   20.3069 C   0  0  0  0  0  0
  -21.6848   -6.0756   22.5285 C   0  0  0  0  0  0
  -21.4006   -6.5644   23.8224 C   0  0  0  0  0  0
  -21.3649   -5.6786   24.9180 C   0  0  0  0  0  0
  -21.6046   -4.3057   24.7211 C   0  0  0  0  0  0
  -21.8821   -3.8159   23.4325 C   0  0  0  0  0  0
  -21.9183   -4.6983   22.3391 C   0  0  0  0  0  0
  -22.7857  -13.5237   21.1850 C   0  0  0  0  0  0
  -22.1663   -4.2182   21.0960 F   0  0  0  0  0  0
  -21.5623   -3.4518   25.7712 F   0  0  0  0  0  0
  -29.9976  -13.5162   20.4249 N   0  0  0  0  0  0
  -26.2999  -12.9395   20.3309 N   0  0  0  0  0  0
  -25.9358  -11.6542   20.5762 N   0  0  0  0  0  0
  -22.0500  -12.8253   22.0429 N   0  0  0  0  0  0
  -25.4340  -15.1933   20.4240 N   0  0  0  0  0  0
  -31.7890  -14.8530   20.0924 O   0  0  0  0  0  0
  -21.6641   -6.8917   21.4255 O   0  0  0  0  0  0
  -22.3524  -14.5532   20.6684 O   0  0  0  0  0  0
  -24.6334  -31.8570   23.2023 C   0  0  0  0  0  0
  -25.9161  -32.4758   23.8360 C   0  0  1  0  0  0
  -27.2013  -27.2370   20.1111 C   0  0  0  0  0  0
  -25.5953  -33.8564   24.2274 N   0  0  0  0  0  0
  -23.4304  -30.4854   21.5456 C   0  0  2  0  0  0
  -24.8738  -28.9422   20.1041 C   0  0  0  0  0  0
  -22.7517  -29.4623   22.4893 C   0  0  0  0  0  0
  -18.0292  -28.1414   22.8462 C   0  0  0  0  0  0
  -24.1492  -36.7285   23.2634 C   0  0  0  0  0  0
  -25.9824  -30.7559   21.3940 C   0  0  0  0  0  0
  -26.0488  -29.3808   20.7274 C   0  0  0  0  0  0
  -27.2120  -28.5375   20.7307 C   0  0  0  0  0  0
  -26.0066  -26.9017   19.4268 C   0  0  0  0  0  0
  -24.8587  -27.7090   19.4457 C   0  0  0  0  0  0
  -23.6494  -29.8349   20.1564 C   0  0  0  0  0  0
  -25.4115  -36.3071   24.0322 C   0  0  1  0  0  0
  -20.5901  -28.3723   23.1242 C   0  0  2  0  0  0
  -20.6784  -26.9429   22.5413 C   0  0  0  0  0  0
  -19.5769  -26.6383   21.5211 C   0  0  0  0  0  0
  -18.1941  -26.7953   22.1606 C   0  0  0  0  0  0
  -19.1552  -28.8880   23.2846 C   0  0  0  0  0  0
  -18.9477  -30.1474   23.8884 C   0  0  0  0  0  0
  -17.6481  -30.6596   24.0571 C   0  0  0  0  0  0
  -25.9059  -34.9442   23.5095 C   0  0  0  0  0  0
  -16.5367  -29.9102   23.6334 C   0  0  0  0  0  0
  -16.7282  -28.6524   23.0337 C   0  0  0  0  0  0
  -26.4504  -31.6591   25.0764 C   0  0  0  0  0  0
  -25.3704  -31.3795   26.1480 C   0  0  0  0  0  0
  -27.0337  -30.2979   24.6314 C   0  0  0  0  0  0
  -27.6076  -32.4325   25.7518 C   0  0  0  0  0  0
  -27.5584  -37.1797   24.8455 C   0  0  0  0  0  0
  -21.4223  -29.3065   22.3628 N   0  0  0  0  0  0
  -26.4291  -37.3771   23.9410 N   0  0  0  0  0  0
  -24.7013  -31.0508   22.1024 N   0  0  0  0  0  0
  -23.4204  -28.8136   23.2979 O   0  0  0  0  0  0
  -28.2597  -26.2841   20.1897 O   0  0  0  0  0  0
  -26.5634  -34.8916   22.4662 O   0  0  0  0  0  0
  -23.5473  -32.1438   23.7273 O   0  0  0  0  0  0
  -29.6286  -18.5176   20.5306 C   0  0  0  0  0  0
  -29.4189  -19.7119   19.7002 C   0  0  0  0  0  0
  -29.7765  -17.1576   19.9962 C   0  0  0  0  0  0
  -29.4851  -18.1576   17.7677 C   0  0  0  0  0  0
  -29.3523  -19.4546   18.3024 C   0  0  0  0  0  0
  -29.6848  -17.0355   18.5903 C   0  0  0  0  0  0
  -29.3111  -23.1688   21.3118 C   0  0  0  0  0  0
  -28.7219  -23.5373   20.1680 C   0  0  0  0  0  0
  -29.6680  -21.7338   21.3030 C   0  0  0  0  0  0
  -28.6793  -22.2638   19.3104 C   0  0  0  0  0  0
  -27.9627  -24.8738   19.7310 C   0  0  0  0  0  0
  -29.2495  -21.1453   20.1448 N   0  0  0  0  0  0
  -29.3770  -17.9714   16.3845 N   0  0  0  0  0  0
  -29.8712  -15.8831   20.7650 N   0  0  0  0  0  0
  -30.2584  -21.1451   22.2118 O   0  0  0  0  0  0
  -29.1438  -20.4510   17.4090 F   0  0  0  0  0  0
  -29.7149  -15.8171   17.9967 F   0  0  0  0  0  0
  -31.4818  -12.5740   19.1856 H   0  0  0  0  0  0
  -30.3963  -11.4773   19.9852 H   0  0  0  0  0  0
  -29.8072  -11.7004   17.5514 H   0  0  0  0  0  0
  -29.6525  -13.4237   17.7140 H   0  0  0  0  0  0
  -27.9138  -11.2702   18.9440 H   0  0  0  0  0  0
  -27.3941  -12.4916   17.8114 H   0  0  0  0  0  0
  -27.6471  -14.2479   19.4673 H   0  0  0  0  0  0
  -28.7242  -12.1683   21.4340 H   0  0  0  0  0  0
  -28.4229  -13.8483   21.8033 H   0  0  0  0  0  0
  -25.2809   -9.5627   22.4749 H   0  0  0  0  0  0
  -24.0017   -7.4604   22.7432 H   0  0  0  0  0  0
  -21.0867   -8.8834   19.8947 H   0  0  0  0  0  0
  -22.3773  -10.9713   19.6172 H   0  0  0  0  0  0
  -21.2009   -7.6149   23.9739 H   0  0  0  0  0  0
  -21.1471   -6.0513   25.9092 H   0  0  0  0  0  0
  -22.0608   -2.7617   23.2814 H   0  0  0  0  0  0
  -22.4103  -11.9905   22.4811 H   0  0  0  0  0  0
  -21.1136  -13.1303   22.2670 H   0  0  0  0  0  0
  -24.6814  -15.8592   20.5648 H   0  0  0  0  0  0
  -26.3001  -15.6306   20.1390 H   0  0  0  0  0  0
  -26.7225  -32.5398   23.1093 H   0  0  0  0  0  0
  -25.0094  -33.9693   25.0419 H   0  0  0  0  0  0
  -22.7289  -31.3106   21.4056 H   0  0  0  0  0  0
  -23.3754  -35.9613   23.3275 H   0  0  0  0  0  0
  -24.3593  -36.8934   22.2056 H   0  0  0  0  0  0
  -23.7246  -37.6478   23.6676 H   0  0  0  0  0  0
  -26.1328  -31.5200   20.6303 H   0  0  0  0  0  0
  -26.8561  -30.7957   22.0328 H   0  0  0  0  0  0
  -28.1021  -28.8612   21.2506 H   0  0  0  0  0  0
  -25.8983  -25.9870   18.8662 H   0  0  0  0  0  0
  -23.9656  -27.3743   18.9358 H   0  0  0  0  0  0
  -23.7814  -30.6228   19.4132 H   0  0  0  0  0  0
  -22.7643  -29.2799   19.8405 H   0  0  0  0  0  0
  -25.1291  -36.1920   25.0812 H   0  0  0  0  0  0
  -20.9983  -28.3328   24.1368 H   0  0  0  0  0  0
  -20.5655  -26.2353   23.3635 H   0  0  0  0  0  0
  -21.6665  -26.7437   22.1244 H   0  0  0  0  0  0
  -19.6934  -25.6281   21.1272 H   0  0  0  0  0  0
  -19.6720  -27.3165   20.6717 H   0  0  0  0  0  0
  -17.4220  -26.6690   21.4002 H   0  0  0  0  0  0
  -18.0318  -26.0107   22.9005 H   0  0  0  0  0  0
  -19.7955  -30.7288   24.2259 H   0  0  0  0  0  0
  -17.5031  -31.6274   24.5184 H   0  0  0  0  0  0
  -15.5369  -30.2993   23.7671 H   0  0  0  0  0  0
  -15.8679  -28.0841   22.7051 H   0  0  0  0  0  0
  -24.5848  -30.7173   25.7818 H   0  0  0  0  0  0
  -24.8936  -32.2995   26.4873 H   0  0  0  0  0  0
  -25.7991  -30.8989   27.0280 H   0  0  0  0  0  0
  -26.2940  -29.6723   24.1306 H   0  0  0  0  0  0
  -27.3928  -29.7257   25.4879 H   0  0  0  0  0  0
  -27.8865  -30.4203   23.9634 H   0  0  0  0  0  0
  -27.2709  -33.3633   26.2091 H   0  0  0  0  0  0
  -28.3882  -32.6871   25.0336 H   0  0  0  0  0  0
  -28.0742  -31.8454   26.5437 H   0  0  0  0  0  0
  -28.2595  -38.0100   24.7509 H   0  0  0  0  0  0
  -28.1089  -36.2638   24.6257 H   0  0  0  0  0  0
  -27.2315  -37.1424   25.8861 H   0  0  0  0  0  0
  -20.9403  -29.8817   21.6861 H   0  0  0  0  0  0
  -26.0165  -38.2839   24.1426 H   0  0  0  0  0  0
  -29.6582  -18.6445   21.6038 H   0  0  0  0  0  0
  -29.4397  -23.8119   22.1684 H   0  0  0  0  0  0
  -29.2810  -22.4584   18.4233 H   0  0  0  0  0  0
  -27.6577  -22.0322   19.0081 H   0  0  0  0  0  0
  -26.9454  -24.6176   20.0236 H   0  0  0  0  0  0
  -27.9777  -24.8958   18.6403 H   0  0  0  0  0  0
  -28.8510  -18.6815   15.8891 H   0  0  0  0  0  0
  -29.1450  -17.0284   16.0942 H   0  0  0  0  0  0
  -29.0531  -15.6821   21.3201 H   0  0  0  0  0  0
  1 25  1  0  0  0
  1 30  2  0  0  0
  1 84  1  0  0  0
  2  3  1  0  0  0
  2 25  1  0  0  0
  2 88  1  0  0  0
  2 89  1  0  0  0
  3  4  1  0  0  0
  3 90  1  0  0  0
  3 91  1  0  0  0
  4  5  1  0  0  0
  4 92  1  0  0  0
  4 93  1  0  0  0
  5  6  1  0  0  0
  5 26  1  0  0  0
  5 94  1  0  0  0
  6 25  1  0  0  0
  6 95  1  0  0  0
  6 96  1  0  0  0
  7  8  2  0  0  0
  7 26  1  0  0  0
  7 29  1  0  0  0
  8  9  1  0  0  0
  8 22  1  0  0  0
  9 10  1  0  0  0
  9 27  2  0  0  0
 10 11  2  0  0  0
 10 15  1  0  0  0
 11 12  1  0  0  0
 11 97  1  0  0  0
 12 13  2  0  0  0
 12 98  1  0  0  0
 13 14  1  0  0  0
 13 31  1  0  0  0
 14 15  2  0  0  0
 14 99  1  0  0  0
 15100  1  0  0  0
 16 17  2  0  0  0
 16 21  1  0  0  0
 16 31  1  0  0  0
 17 18  1  0  0  0
 17101  1  0  0  0
 18 19  2  0  0  0
 18102  1  0  0  0
 19 20  1  0  0  0
 19 24  1  0  0  0
 20 21  2  0  0  0
 20103  1  0  0  0
 21 23  1  0  0  0
 22 28  1  0  0  0
 22 32  2  0  0  0
 26 27  1  0  0  0
 28104  1  0  0  0
 28105  1  0  0  0
 29106  1  0  0  0
 29107  1  0  0  0
 33 34  1  0  0  0
 33 66  1  0  0  0
 33 70  2  0  0  0
 34 36  1  0  0  0
 34 59  1  0  0  0
 34108  1  0  0  0
 35 44  2  0  0  0
 35 45  1  0  0  0
 35 68  1  0  0  0
 36 56  1  0  0  0
 36109  1  0  0  0
 37 39  1  0  0  0
 37 47  1  0  0  0
 37 66  1  0  0  0
 37110  1  0  0  0
 38 43  2  0  0  0
 38 46  1  0  0  0
 38 47  1  0  0  0
 39 64  1  0  0  0
 39 67  2  0  0  0
 40 52  1  0  0  0
 40 53  2  0  0  0
 40 58  1  0  0  0
 41111  1  0  0  0
 41112  1  0  0  0
 41113  1  0  0  0
 41 48  1  0  0  0
 42 43  1  0  0  0
 42 66  1  0  0  0
 42114  1  0  0  0
 42115  1  0  0  0
 43 44  1  0  0  0
 44116  1  0  0  0
 45 46  2  0  0  0
 45117  1  0  0  0
 46118  1  0  0  0
 47119  1  0  0  0
 47120  1  0  0  0
 48 56  1  0  0  0
 48 65  1  0  0  0
 48121  1  0  0  0
 49 50  1  0  0  0
 49 53  1  0  0  0
 49 64  1  0  0  0
 49122  1  0  0  0
 50 51  1  0  0  0
 50123  1  0  0  0
 50124  1  0  0  0
 51 52  1  0  0  0
 51125  1  0  0  0
 51126  1  0  0  0
 52127  1  0  0  0
 52128  1  0  0  0
 53 54  1  0  0  0
 54 55  2  0  0  0
 54129  1  0  0  0
 55 57  1  0  0  0
 55130  1  0  0  0
 56 69  2  0  0  0
 57 58  2  0  0  0
 57131  1  0  0  0
 58132  1  0  0  0
 59 60  1  0  0  0
 59 61  1  0  0  0
 59 62  1  0  0  0
 60133  1  0  0  0
 60134  1  0  0  0
 60135  1  0  0  0
 61136  1  0  0  0
 61137  1  0  0  0
 61138  1  0  0  0
 62139  1  0  0  0
 62140  1  0  0  0
 62141  1  0  0  0
 63 65  1  0  0  0
 63142  1  0  0  0
 63143  1  0  0  0
 63144  1  0  0  0
 64145  1  0  0  0
 65146  1  0  0  0
 68 81  1  0  0  0
 71 72  2  0  0  0
 71 73  1  0  0  0
 71147  1  0  0  0
 72 75  1  0  0  0
 72 82  1  0  0  0
 73 76  2  0  0  0
 73 84  1  0  0  0
 74 75  2  0  0  0
 74 76  1  0  0  0
 74 83  1  0  0  0
 75 86  1  0  0  0
 76 87  1  0  0  0
 77 78  2  0  0  0
 77 79  1  0  0  0
 77148  1  0  0  0
 78 80  1  0  0  0
 78 81  1  0  0  0
 79 82  1  0  0  0
 79 85  2  0  0  0
 80 82  1  0  0  0
 80149  1  0  0  0
 80150  1  0  0  0
 81151  1  0  0  0
 81152  1  0  0  0
 83153  1  0  0  0
 83154  1  0  0  0
 84155  1  0  0  0
M  ISO  4   1 100  68 101  81 101  84 100
M  END
> <chiral flag>
0

> <version>
0

> <s_m_source_file>
/data/baiqing/PycharmProjects/Reinvent-master-3.2/result/LINK_invent/BTK/process_docking_weight1_custom_product_contain_oxygen_bond_distance_aromatic_linkinvent_7_9_3/rearranged_h_0069.sdf

> <i_m_source_file_index>
58

> <r_mmod_Potential_Energy-OPLS-2005>
319.090209960938

> <r_mmod_Stretch_Energy-OPLS-2005>
136.535751342773

> <r_mmod_Bend_Energy-OPLS-2005>
232.267730712891

> <r_mmod_Torsional_Energy-OPLS-2005>
283.578552246094

> <r_mmod_Improper_Torsional_Energy-OPLS-2005>
10.0948047637939

> <r_mmod_Van_der_Waal_Energy-OPLS-2005>
154.549453735352

> <r_mmod_Electrostatic_Energy-OPLS-2005>
-363.97998046875

> <r_mmod_Solvation_Energy-OPLS-2005>
-233.021011352539

> <b_mmod_Minimization_Converged-OPLS-2005>
0

> <r_mmod_RMS_Derivative-OPLS-2005>
2.68355011940002

$$$$
59
                    3D
 Structure written by MMmdl.
152160  0  0  1  0            999 V2000
  -30.5866  -14.8012   20.4631 C   0  0  0  0  0  0
  -30.4351  -12.4975   19.4688 C   0  0  0  0  0  0
  -29.5099  -12.5192   18.2323 C   0  0  0  0  0  0
  -28.0358  -12.3369   18.6453 C   0  0  0  0  0  0
  -27.6362  -13.2357   19.8454 C   0  0  2  0  0  0
  -28.6820  -13.1892   20.9787 C   0  0  0  0  0  0
  -25.2479  -13.8200   20.5679 C   0  0  0  0  0  0
  -24.1785  -13.0437   20.9214 C   0  0  0  0  0  0
  -24.6385  -11.6915   20.8754 C   0  0  0  0  0  0
  -23.9070  -10.4292   21.0413 C   0  0  0  0  0  0
  -24.3625   -9.4208   21.9187 C   0  0  0  0  0  0
  -23.6303   -8.2243   22.0758 C   0  0  0  0  0  0
  -22.4288   -8.0281   21.3547 C   0  0  0  0  0  0
  -21.9915   -9.0255   20.4655 C   0  0  0  0  0  0
  -22.7240  -10.2133   20.3063 C   0  0  0  0  0  0
  -21.6850   -6.0738   22.5281 C   0  0  0  0  0  0
  -21.4018   -6.5644   23.8216 C   0  0  0  0  0  0
  -21.3654   -5.6801   24.9181 C   0  0  0  0  0  0
  -21.6038   -4.3063   24.7231 C   0  0  0  0  0  0
  -21.8817   -3.8152   23.4355 C   0  0  0  0  0  0
  -21.9199   -4.6969   22.3409 C   0  0  0  0  0  0
  -22.7805  -13.5213   21.1876 C   0  0  0  0  0  0
  -22.1662   -4.2155   21.0985 F   0  0  0  0  0  0
  -21.5625   -3.4544   25.7742 F   0  0  0  0  0  0
  -29.9703  -13.5667   20.3864 N   0  0  0  0  0  0
  -26.2910  -12.9407   20.3260 N   0  0  0  0  0  0
  -25.9317  -11.6549   20.5752 N   0  0  0  0  0  0
  -22.0460  -12.8202   22.0441 N   0  0  0  0  0  0
  -25.4142  -15.1920   20.4042 N   0  0  0  0  0  0
  -31.7879  -14.8781   20.1874 O   0  0  0  0  0  0
  -21.6644   -6.8879   21.4244 O   0  0  0  0  0  0
  -22.3491  -14.5523   20.6728 O   0  0  0  0  0  0
  -24.6361  -31.8506   23.1951 C   0  0  0  0  0  0
  -25.9161  -32.4746   23.8302 C   0  0  1  0  0  0
  -27.2201  -27.2143   20.1481 C   0  0  0  0  0  0
  -25.5933  -33.8543   24.2232 N   0  0  0  0  0  0
  -23.4369  -30.4689   21.5402 C   0  0  2  0  0  0
  -24.8843  -28.9002   20.1200 C   0  0  0  0  0  0
  -22.7532  -29.4560   22.4911 C   0  0  0  0  0  0
  -18.0288  -28.1394   22.8489 C   0  0  0  0  0  0
  -24.1480  -36.7262   23.2647 C   0  0  0  0  0  0
  -25.9863  -30.7492   21.3798 C   0  0  0  0  0  0
  -26.0584  -29.3626   20.7305 C   0  0  0  0  0  0
  -27.2329  -28.5339   20.7281 C   0  0  0  0  0  0
  -26.0246  -26.8241   19.5154 C   0  0  0  0  0  0
  -24.8741  -27.6402   19.4997 C   0  0  0  0  0  0
  -23.6596  -29.7971   20.1591 C   0  0  0  0  0  0
  -25.4117  -36.3070   24.0331 C   0  0  1  0  0  0
  -20.5903  -28.3694   23.1283 C   0  0  2  0  0  0
  -20.6778  -26.9408   22.5422 C   0  0  0  0  0  0
  -19.5743  -26.6383   21.5236 C   0  0  0  0  0  0
  -18.1926  -26.7936   22.1646 C   0  0  0  0  0  0
  -19.1545  -28.8872   23.2874 C   0  0  0  0  0  0
  -18.9457  -30.1476   23.8879 C   0  0  0  0  0  0
  -17.6454  -30.6598   24.0565 C   0  0  0  0  0  0
  -25.9056  -34.9436   23.5091 C   0  0  0  0  0  0
  -16.5347  -29.9087   23.6342 C   0  0  0  0  0  0
  -16.7273  -28.6511   23.0364 C   0  0  0  0  0  0
  -26.4506  -31.6592   25.0719 C   0  0  0  0  0  0
  -25.3715  -31.3763   26.1440 C   0  0  0  0  0  0
  -27.0347  -30.3002   24.6232 C   0  0  0  0  0  0
  -27.6066  -32.4332   25.7484 C   0  0  0  0  0  0
  -27.5569  -37.1798   24.8476 C   0  0  0  0  0  0
  -21.4238  -29.3036   22.3670 N   0  0  0  0  0  0
  -26.4289  -37.3766   23.9415 N   0  0  0  0  0  0
  -24.7061  -31.0424   22.0940 N   0  0  0  0  0  0
  -23.4214  -28.8111   23.3044 O   0  0  0  0  0  0
  -28.3097  -26.3059   20.0965 O   0  0  0  0  0  0
  -26.5633  -34.8919   22.4658 O   0  0  0  0  0  0
  -23.5503  -32.1330   23.7225 O   0  0  0  0  0  0
  -30.9322  -20.1157   21.4446 C   0  0  0  0  0  0
  -31.3366  -17.6865   21.5081 C   0  0  0  0  0  0
  -29.3521  -18.5793   20.4176 C   0  0  0  0  0  0
  -31.7221  -19.0066   21.8244 C   0  0  0  0  0  0
  -29.7254  -19.9701   20.7219 C   0  0  0  0  0  0
  -30.1479  -17.4004   20.8024 C   0  0  0  0  0  0
  -28.7524  -23.7700   20.1433 C   0  0  0  0  0  0
  -28.2523  -24.9783   20.6534 C   0  0  0  0  0  0
  -28.8756  -22.4606   20.9162 C   0  0  0  0  0  0
  -33.0259  -19.2287   22.5697 C   0  0  0  0  0  0
  -29.0592  -21.2396   20.2514 N   0  0  0  0  0  0
  -29.7945  -15.9535   20.5881 N   0  0  0  0  0  0
  -28.8331  -22.4565   22.1492 O   0  0  0  0  0  0
  -31.4712  -12.6409   19.1573 H   0  0  0  0  0  0
  -30.4027  -11.5249   19.9628 H   0  0  0  0  0  0
  -29.7998  -11.7391   17.5271 H   0  0  0  0  0  0
  -29.6277  -13.4676   17.7055 H   0  0  0  0  0  0
  -27.8924  -11.2871   18.9035 H   0  0  0  0  0  0
  -27.3804  -12.5348   17.7960 H   0  0  0  0  0  0
  -27.6222  -14.2543   19.4581 H   0  0  0  0  0  0
  -28.7351  -12.1934   21.4229 H   0  0  0  0  0  0
  -28.4092  -13.8736   21.7840 H   0  0  0  0  0  0
  -25.2765   -9.5688   22.4760 H   0  0  0  0  0  0
  -24.0018   -7.4632   22.7471 H   0  0  0  0  0  0
  -21.0845   -8.8765   19.8962 H   0  0  0  0  0  0
  -22.3688  -10.9672   19.6176 H   0  0  0  0  0  0
  -21.2003   -7.6148   23.9719 H   0  0  0  0  0  0
  -21.1471   -6.0530   25.9084 H   0  0  0  0  0  0
  -22.0596   -2.7614   23.2853 H   0  0  0  0  0  0
  -22.4089  -11.9867   22.4827 H   0  0  0  0  0  0
  -21.1084  -13.1228   22.2663 H   0  0  0  0  0  0
  -24.6372  -15.8386   20.4919 H   0  0  0  0  0  0
  -26.2481  -15.6274   20.0328 H   0  0  0  0  0  0
  -26.7229  -32.5385   23.1035 H   0  0  0  0  0  0
  -25.0098  -33.9645   25.0398 H   0  0  0  0  0  0
  -22.7366  -31.2935   21.3911 H   0  0  0  0  0  0
  -23.3752  -35.9585   23.3346 H   0  0  0  0  0  0
  -24.3555  -36.8841   22.2053 H   0  0  0  0  0  0
  -23.7225  -37.6471   23.6643 H   0  0  0  0  0  0
  -26.1298  -31.5039   20.6051 H   0  0  0  0  0  0
  -26.8615  -30.8028   22.0158 H   0  0  0  0  0  0
  -28.1404  -28.8910   21.1957 H   0  0  0  0  0  0
  -25.9794  -25.8609   19.0291 H   0  0  0  0  0  0
  -23.9765  -27.2813   19.0150 H   0  0  0  0  0  0
  -23.7930  -30.5703   19.4010 H   0  0  0  0  0  0
  -22.7775  -29.2327   19.8525 H   0  0  0  0  0  0
  -25.1308  -36.1909   25.0825 H   0  0  0  0  0  0
  -20.9970  -28.3246   24.1415 H   0  0  0  0  0  0
  -20.5685  -26.2294   23.3618 H   0  0  0  0  0  0
  -21.6648  -26.7422   22.1225 H   0  0  0  0  0  0
  -19.6884  -25.6288   21.1274 H   0  0  0  0  0  0
  -19.6692  -27.3194   20.6765 H   0  0  0  0  0  0
  -17.4207  -26.6700   21.4035 H   0  0  0  0  0  0
  -18.0304  -26.0079   22.9037 H   0  0  0  0  0  0
  -19.7923  -30.7321   24.2228 H   0  0  0  0  0  0
  -17.5000  -31.6272   24.5176 H   0  0  0  0  0  0
  -15.5345  -30.2990   23.7680 H   0  0  0  0  0  0
  -15.8672  -28.0831   22.7078 H   0  0  0  0  0  0
  -24.5886  -30.7106   25.7782 H   0  0  0  0  0  0
  -24.8906  -32.2939   26.4832 H   0  0  0  0  0  0
  -25.8018  -30.8960   27.0235 H   0  0  0  0  0  0
  -26.2918  -29.6769   24.1239 H   0  0  0  0  0  0
  -27.4000  -29.7266   25.4763 H   0  0  0  0  0  0
  -27.8822  -30.4297   23.9499 H   0  0  0  0  0  0
  -27.2687  -33.3665   26.2001 H   0  0  0  0  0  0
  -28.3894  -32.6826   25.0308 H   0  0  0  0  0  0
  -28.0714  -31.8488   26.5439 H   0  0  0  0  0  0
  -28.2634  -38.0053   24.7495 H   0  0  0  0  0  0
  -28.1011  -36.2585   24.6341 H   0  0  0  0  0  0
  -27.2280  -37.1510   25.8879 H   0  0  0  0  0  0
  -20.9436  -29.8750   21.6852 H   0  0  0  0  0  0
  -26.0167  -38.2835   24.1407 H   0  0  0  0  0  0
  -31.2894  -21.1074   21.6859 H   0  0  0  0  0  0
  -31.9772  -16.8792   21.8360 H   0  0  0  0  0  0
  -28.4355  -18.4134   19.8694 H   0  0  0  0  0  0
  -29.1584  -23.7816   19.1417 H   0  0  0  0  0  0
  -27.8011  -25.0055   21.6367 H   0  0  0  0  0  0
  -33.0366  -20.1918   23.0804 H   0  0  0  0  0  0
  -33.8677  -19.2013   21.8769 H   0  0  0  0  0  0
  -33.1821  -18.4521   23.3193 H   0  0  0  0  0  0
  -28.8065  -21.2503   19.2726 H   0  0  0  0  0  0
  -28.8057  -15.7600   20.5724 H   0  0  0  0  0  0
  1 25  1  0  0  0
  1 30  2  0  0  0
  1 82  1  0  0  0
  2  3  1  0  0  0
  2 25  1  0  0  0
  2 84  1  0  0  0
  2 85  1  0  0  0
  3  4  1  0  0  0
  3 86  1  0  0  0
  3 87  1  0  0  0
  4  5  1  0  0  0
  4 88  1  0  0  0
  4 89  1  0  0  0
  5  6  1  0  0  0
  5 26  1  0  0  0
  5 90  1  0  0  0
  6 25  1  0  0  0
  6 91  1  0  0  0
  6 92  1  0  0  0
  7  8  2  0  0  0
  7 26  1  0  0  0
  7 29  1  0  0  0
  8  9  1  0  0  0
  8 22  1  0  0  0
  9 10  1  0  0  0
  9 27  2  0  0  0
 10 11  2  0  0  0
 10 15  1  0  0  0
 11 12  1  0  0  0
 11 93  1  0  0  0
 12 13  2  0  0  0
 12 94  1  0  0  0
 13 14  1  0  0  0
 13 31  1  0  0  0
 14 15  2  0  0  0
 14 95  1  0  0  0
 15 96  1  0  0  0
 16 17  2  0  0  0
 16 21  1  0  0  0
 16 31  1  0  0  0
 17 18  1  0  0  0
 17 97  1  0  0  0
 18 19  2  0  0  0
 18 98  1  0  0  0
 19 20  1  0  0  0
 19 24  1  0  0  0
 20 21  2  0  0  0
 20 99  1  0  0  0
 21 23  1  0  0  0
 22 28  1  0  0  0
 22 32  2  0  0  0
 26 27  1  0  0  0
 28100  1  0  0  0
 28101  1  0  0  0
 29102  1  0  0  0
 29103  1  0  0  0
 33 34  1  0  0  0
 33 66  1  0  0  0
 33 70  2  0  0  0
 34 36  1  0  0  0
 34 59  1  0  0  0
 34104  1  0  0  0
 35 44  2  0  0  0
 35 45  1  0  0  0
 35 68  1  0  0  0
 36 56  1  0  0  0
 36105  1  0  0  0
 37 39  1  0  0  0
 37 47  1  0  0  0
 37 66  1  0  0  0
 37106  1  0  0  0
 38 43  2  0  0  0
 38 46  1  0  0  0
 38 47  1  0  0  0
 39 64  1  0  0  0
 39 67  2  0  0  0
 40 52  1  0  0  0
 40 53  2  0  0  0
 40 58  1  0  0  0
 41107  1  0  0  0
 41108  1  0  0  0
 41109  1  0  0  0
 41 48  1  0  0  0
 42 43  1  0  0  0
 42 66  1  0  0  0
 42110  1  0  0  0
 42111  1  0  0  0
 43 44  1  0  0  0
 44112  1  0  0  0
 45 46  2  0  0  0
 45113  1  0  0  0
 46114  1  0  0  0
 47115  1  0  0  0
 47116  1  0  0  0
 48 56  1  0  0  0
 48 65  1  0  0  0
 48117  1  0  0  0
 49 50  1  0  0  0
 49 53  1  0  0  0
 49 64  1  0  0  0
 49118  1  0  0  0
 50 51  1  0  0  0
 50119  1  0  0  0
 50120  1  0  0  0
 51 52  1  0  0  0
 51121  1  0  0  0
 51122  1  0  0  0
 52123  1  0  0  0
 52124  1  0  0  0
 53 54  1  0  0  0
 54 55  2  0  0  0
 54125  1  0  0  0
 55 57  1  0  0  0
 55126  1  0  0  0
 56 69  2  0  0  0
 57 58  2  0  0  0
 57127  1  0  0  0
 58128  1  0  0  0
 59 60  1  0  0  0
 59 61  1  0  0  0
 59 62  1  0  0  0
 60129  1  0  0  0
 60130  1  0  0  0
 60131  1  0  0  0
 61132  1  0  0  0
 61133  1  0  0  0
 61134  1  0  0  0
 62135  1  0  0  0
 62136  1  0  0  0
 62137  1  0  0  0
 63 65  1  0  0  0
 63138  1  0  0  0
 63139  1  0  0  0
 63140  1  0  0  0
 64141  1  0  0  0
 65142  1  0  0  0
 68 78  1  0  0  0
 71 74  2  0  0  0
 71 75  1  0  0  0
 71143  1  0  0  0
 72 74  1  0  0  0
 72 76  2  0  0  0
 72144  1  0  0  0
 73 75  2  0  0  0
 73 76  1  0  0  0
 73145  1  0  0  0
 74 80  1  0  0  0
 75 81  1  0  0  0
 76 82  1  0  0  0
 77 78  2  0  0  0
 77 79  1  0  0  0
 77146  1  0  0  0
 78147  1  0  0  0
 79 81  1  0  0  0
 79 83  2  0  0  0
 80148  1  0  0  0
 80149  1  0  0  0
 80150  1  0  0  0
 81151  1  0  0  0
 82152  1  0  0  0
M  ISO  4   1 100  68 101  78 101  82 100
M  END
> <chiral flag>
0

> <version>
0

> <s_m_source_file>
/data/baiqing/PycharmProjects/Reinvent-master-3.2/result/LINK_invent/BTK/process_docking_weight1_custom_product_contain_oxygen_bond_distance_aromatic_linkinvent_7_9_3/rearranged_h_0069.sdf

> <i_m_source_file_index>
59

> <r_mmod_Potential_Energy-OPLS-2005>
232.738143920898

> <r_mmod_Stretch_Energy-OPLS-2005>
152.820343017578

> <r_mmod_Bend_Energy-OPLS-2005>
169.284927368164

> <r_mmod_Torsional_Energy-OPLS-2005>
266.353118896484

> <r_mmod_Improper_Torsional_Energy-OPLS-2005>
8.34169101715088

> <r_mmod_Van_der_Waal_Energy-OPLS-2005>
133.352188110352

> <r_mmod_Electrostatic_Energy-OPLS-2005>
-376.928863525391

> <r_mmod_Solvation_Energy-OPLS-2005>
-230.639373779297

> <b_mmod_Minimization_Converged-OPLS-2005>
0

> <r_mmod_RMS_Derivative-OPLS-2005>
2.33498764038086

$$$$
60
                    3D
 Structure written by MMmdl.
157166  0  0  1  0            999 V2000
  -30.6226  -14.7817   20.4285 C   0  0  0  0  0  0
  -30.4288  -12.4727   19.4784 C   0  0  0  0  0  0
  -29.5082  -12.4876   18.2400 C   0  0  0  0  0  0
  -28.0369  -12.3157   18.6596 C   0  0  0  0  0  0
  -27.6377  -13.2361   19.8435 C   0  0  2  0  0  0
  -28.6850  -13.2146   20.9776 C   0  0  0  0  0  0
  -25.2495  -13.8218   20.5685 C   0  0  0  0  0  0
  -24.1805  -13.0448   20.9217 C   0  0  0  0  0  0
  -24.6413  -11.6934   20.8774 C   0  0  0  0  0  0
  -23.9092  -10.4299   21.0421 C   0  0  0  0  0  0
  -24.3633   -9.4204   21.9194 C   0  0  0  0  0  0
  -23.6297   -8.2245   22.0762 C   0  0  0  0  0  0
  -22.4281   -8.0292   21.3549 C   0  0  0  0  0  0
  -21.9923   -9.0273   20.4650 C   0  0  0  0  0  0
  -22.7263  -10.2145   20.3065 C   0  0  0  0  0  0
  -21.6851   -6.0743   22.5273 C   0  0  0  0  0  0
  -21.4013   -6.5641   23.8207 C   0  0  0  0  0  0
  -21.3653   -5.6790   24.9168 C   0  0  0  0  0  0
  -21.6042   -4.3055   24.7218 C   0  0  0  0  0  0
  -21.8820   -3.8150   23.4336 C   0  0  0  0  0  0
  -21.9193   -4.6970   22.3395 C   0  0  0  0  0  0
  -22.7825  -13.5221   21.1860 C   0  0  0  0  0  0
  -22.1659   -4.2157   21.0968 F   0  0  0  0  0  0
  -21.5629   -3.4536   25.7732 F   0  0  0  0  0  0
  -29.9791  -13.5616   20.3809 N   0  0  0  0  0  0
  -26.2928  -12.9429   20.3279 N   0  0  0  0  0  0
  -25.9341  -11.6572   20.5783 N   0  0  0  0  0  0
  -22.0466  -12.8216   22.0418 N   0  0  0  0  0  0
  -25.4161  -15.1943   20.4068 N   0  0  0  0  0  0
  -31.8228  -14.8082   20.1456 O   0  0  0  0  0  0
  -21.6641   -6.8890   21.4236 O   0  0  0  0  0  0
  -22.3507  -14.5519   20.6694 O   0  0  0  0  0  0
  -24.6323  -31.8504   23.1976 C   0  0  0  0  0  0
  -25.9145  -32.4729   23.8326 C   0  0  1  0  0  0
  -27.2143  -27.2421   20.1224 C   0  0  0  0  0  0
  -25.5923  -33.8535   24.2249 N   0  0  0  0  0  0
  -23.4290  -30.4716   21.5416 C   0  0  2  0  0  0
  -24.8746  -28.9114   20.1064 C   0  0  0  0  0  0
  -22.7501  -29.4566   22.4928 C   0  0  0  0  0  0
  -18.0282  -28.1351   22.8480 C   0  0  0  0  0  0
  -24.1479  -36.7242   23.2648 C   0  0  0  0  0  0
  -25.9774  -30.7508   21.3878 C   0  0  0  0  0  0
  -26.0440  -29.3768   20.7186 C   0  0  0  0  0  0
  -27.2130  -28.5515   20.7155 C   0  0  0  0  0  0
  -26.0217  -26.8365   19.4883 C   0  0  0  0  0  0
  -24.8676  -27.6509   19.4832 C   0  0  0  0  0  0
  -23.6454  -29.8016   20.1580 C   0  0  0  0  0  0
  -25.4114  -36.3053   24.0335 C   0  0  1  0  0  0
  -20.5894  -28.3660   23.1276 C   0  0  2  0  0  0
  -20.6769  -26.9378   22.5407 C   0  0  0  0  0  0
  -19.5754  -26.6364   21.5193 C   0  0  0  0  0  0
  -18.1921  -26.7912   22.1589 C   0  0  0  0  0  0
  -19.1540  -28.8826   23.2863 C   0  0  0  0  0  0
  -18.9461  -30.1430   23.8879 C   0  0  0  0  0  0
  -17.6464  -30.6568   24.0546 C   0  0  0  0  0  0
  -25.9057  -34.9425   23.5099 C   0  0  0  0  0  0
  -16.5350  -29.9057   23.6336 C   0  0  0  0  0  0
  -16.7276  -28.6463   23.0383 C   0  0  0  0  0  0
  -26.4520  -31.6613   25.0755 C   0  0  0  0  0  0
  -25.3742  -31.3764   26.1477 C   0  0  0  0  0  0
  -27.0450  -30.3034   24.6347 C   0  0  0  0  0  0
  -27.6042  -32.4439   25.7505 C   0  0  0  0  0  0
  -27.5589  -37.1751   24.8462 C   0  0  0  0  0  0
  -21.4209  -29.3004   22.3667 N   0  0  0  0  0  0
  -26.4286  -37.3761   23.9431 N   0  0  0  0  0  0
  -24.6975  -31.0458   22.0960 N   0  0  0  0  0  0
  -23.4191  -28.8106   23.3038 O   0  0  0  0  0  0
  -28.3230  -26.3734   20.2287 O   0  0  0  0  0  0
  -26.5642  -34.8904   22.4674 O   0  0  0  0  0  0
  -23.5477  -32.1352   23.7262 O   0  0  0  0  0  0
  -31.0931  -20.1796   20.2128 C   0  0  0  0  0  0
  -31.6097  -17.7917   20.3670 C   0  0  0  0  0  0
  -29.3037  -18.5453   20.4662 C   0  0  0  0  0  0
  -32.0374  -19.1346   20.2416 C   0  0  0  0  0  0
  -29.7084  -19.9490   20.3461 C   0  0  0  0  0  0
  -30.2433  -17.4172   20.4586 C   0  0  0  0  0  0
  -28.7127  -21.8300   21.6700 C   0  0  0  0  0  0
  -34.5084  -18.6996   20.4884 C   0  0  0  0  0  0
  -33.4667  -19.5019   20.2090 C   0  0  0  0  0  0
  -28.7662  -22.2651   19.4217 C   0  0  0  0  0  0
  -28.1180  -23.5413   20.1163 C   0  0  2  0  0  0
  -28.4785  -25.0360   19.5514 C   0  0  0  0  0  0
  -28.8618  -21.1771   20.4430 N   0  0  0  0  0  0
  -29.8726  -15.9586   20.5672 N   0  0  0  0  0  0
  -28.7968  -21.3322   22.7931 O   0  0  0  0  0  0
  -28.4670  -23.1749   21.4504 O   0  0  0  0  0  0
  -31.4681  -12.5884   19.1660 H   0  0  0  0  0  0
  -30.3796  -11.5097   19.9885 H   0  0  0  0  0  0
  -29.7907  -11.6912   17.5495 H   0  0  0  0  0  0
  -29.6338  -13.4244   17.6951 H   0  0  0  0  0  0
  -27.9011  -11.2716   18.9459 H   0  0  0  0  0  0
  -27.3768  -12.4825   17.8079 H   0  0  0  0  0  0
  -27.6189  -14.2481   19.4374 H   0  0  0  0  0  0
  -28.7305  -12.2334   21.4520 H   0  0  0  0  0  0
  -28.4202  -13.9243   21.7628 H   0  0  0  0  0  0
  -25.2772   -9.5666   22.4787 H   0  0  0  0  0  0
  -23.9985   -7.4634   22.7493 H   0  0  0  0  0  0
  -21.0849   -8.8818   19.8962 H   0  0  0  0  0  0
  -22.3731  -10.9703   19.6190 H   0  0  0  0  0  0
  -21.2006   -7.6153   23.9707 H   0  0  0  0  0  0
  -21.1471   -6.0525   25.9070 H   0  0  0  0  0  0
  -22.0607   -2.7612   23.2837 H   0  0  0  0  0  0
  -22.4081  -11.9885   22.4820 H   0  0  0  0  0  0
  -21.1093  -13.1258   22.2625 H   0  0  0  0  0  0
  -24.6408  -15.8409   20.5023 H   0  0  0  0  0  0
  -26.2501  -15.6325   20.0385 H   0  0  0  0  0  0
  -26.7212  -32.5347   23.1057 H   0  0  0  0  0  0
  -25.0047  -33.9659   25.0377 H   0  0  0  0  0  0
  -22.7257  -31.2937   21.3971 H   0  0  0  0  0  0
  -23.3772  -35.9537   23.3278 H   0  0  0  0  0  0
  -24.3551  -36.8902   22.2068 H   0  0  0  0  0  0
  -23.7183  -37.6399   23.6714 H   0  0  0  0  0  0
  -26.1482  -31.5217   20.6355 H   0  0  0  0  0  0
  -26.8406  -30.7742   22.0423 H   0  0  0  0  0  0
  -28.1091  -28.8958   21.2112 H   0  0  0  0  0  0
  -25.9495  -25.8603   19.0300 H   0  0  0  0  0  0
  -23.9657  -27.2875   19.0099 H   0  0  0  0  0  0
  -23.7661  -30.5766   19.4011 H   0  0  0  0  0  0
  -22.7639  -29.2319   19.8597 H   0  0  0  0  0  0
  -25.1300  -36.1886   25.0831 H   0  0  0  0  0  0
  -20.9971  -28.3254   24.1414 H   0  0  0  0  0  0
  -20.5631  -26.2272   23.3602 H   0  0  0  0  0  0
  -21.6642  -26.7391   22.1216 H   0  0  0  0  0  0
  -19.6904  -25.6271   21.1230 H   0  0  0  0  0  0
  -19.6711  -27.3162   20.6716 H   0  0  0  0  0  0
  -17.4199  -26.6662   21.3985 H   0  0  0  0  0  0
  -18.0294  -26.0036   22.8966 H   0  0  0  0  0  0
  -19.7944  -30.7226   24.2257 H   0  0  0  0  0  0
  -17.5030  -31.6259   24.5131 H   0  0  0  0  0  0
  -15.5352  -30.2949   23.7698 H   0  0  0  0  0  0
  -15.8664  -28.0772   22.7165 H   0  0  0  0  0  0
  -24.5858  -30.7215   25.7761 H   0  0  0  0  0  0
  -24.9006  -32.2938   26.5002 H   0  0  0  0  0  0
  -25.8021  -30.8824   27.0213 H   0  0  0  0  0  0
  -26.3112  -29.6680   24.1382 H   0  0  0  0  0  0
  -27.4117  -29.7418   25.4947 H   0  0  0  0  0  0
  -27.8984  -30.4291   23.9674 H   0  0  0  0  0  0
  -27.2610  -33.3727   26.2094 H   0  0  0  0  0  0
  -28.3809  -32.7061   25.0307 H   0  0  0  0  0  0
  -28.0795  -31.8609   26.5405 H   0  0  0  0  0  0
  -28.2580  -38.0081   24.7592 H   0  0  0  0  0  0
  -28.1118  -36.2613   24.6206 H   0  0  0  0  0  0
  -27.2307  -37.1313   25.8861 H   0  0  0  0  0  0
  -20.9410  -29.8725   21.6858 H   0  0  0  0  0  0
  -26.0160  -38.2824   24.1476 H   0  0  0  0  0  0
  -31.4528  -21.1973   20.1494 H   0  0  0  0  0  0
  -32.3776  -17.0401   20.3955 H   0  0  0  0  0  0
  -28.2492  -18.3352   20.5751 H   0  0  0  0  0  0
  -35.5197  -19.0766   20.4305 H   0  0  0  0  0  0
  -34.3907  -17.6677   20.7828 H   0  0  0  0  0  0
  -33.6887  -20.5235   19.9272 H   0  0  0  0  0  0
  -29.7639  -22.5082   19.0525 H   0  0  0  0  0  0
  -28.1718  -21.9424   18.5665 H   0  0  0  0  0  0
  -27.0342  -23.4309   20.0626 H   0  0  0  0  0  0
  -28.0304  -25.1243   18.5609 H   0  0  0  0  0  0
  -29.5463  -25.0015   19.3350 H   0  0  0  0  0  0
  -28.8896  -15.7827   20.7046 H   0  0  0  0  0  0
  1 25  1  0  0  0
  1 30  2  0  0  0
  1 84  1  0  0  0
  2  3  1  0  0  0
  2 25  1  0  0  0
  2 87  1  0  0  0
  2 88  1  0  0  0
  3  4  1  0  0  0
  3 89  1  0  0  0
  3 90  1  0  0  0
  4  5  1  0  0  0
  4 91  1  0  0  0
  4 92  1  0  0  0
  5  6  1  0  0  0
  5 26  1  0  0  0
  5 93  1  0  0  0
  6 25  1  0  0  0
  6 94  1  0  0  0
  6 95  1  0  0  0
  7  8  2  0  0  0
  7 26  1  0  0  0
  7 29  1  0  0  0
  8  9  1  0  0  0
  8 22  1  0  0  0
  9 10  1  0  0  0
  9 27  2  0  0  0
 10 11  2  0  0  0
 10 15  1  0  0  0
 11 12  1  0  0  0
 11 96  1  0  0  0
 12 13  2  0  0  0
 12 97  1  0  0  0
 13 14  1  0  0  0
 13 31  1  0  0  0
 14 15  2  0  0  0
 14 98  1  0  0  0
 15 99  1  0  0  0
 16 17  2  0  0  0
 16 21  1  0  0  0
 16 31  1  0  0  0
 17 18  1  0  0  0
 17100  1  0  0  0
 18 19  2  0  0  0
 18101  1  0  0  0
 19 20  1  0  0  0
 19 24  1  0  0  0
 20 21  2  0  0  0
 20102  1  0  0  0
 21 23  1  0  0  0
 22 28  1  0  0  0
 22 32  2  0  0  0
 26 27  1  0  0  0
 28103  1  0  0  0
 28104  1  0  0  0
 29105  1  0  0  0
 29106  1  0  0  0
 33 34  1  0  0  0
 33 66  1  0  0  0
 33 70  2  0  0  0
 34 36  1  0  0  0
 34 59  1  0  0  0
 34107  1  0  0  0
 35 44  2  0  0  0
 35 45  1  0  0  0
 35 68  1  0  0  0
 36 56  1  0  0  0
 36108  1  0  0  0
 37 39  1  0  0  0
 37 47  1  0  0  0
 37 66  1  0  0  0
 37109  1  0  0  0
 38 43  2  0  0  0
 38 46  1  0  0  0
 38 47  1  0  0  0
 39 64  1  0  0  0
 39 67  2  0  0  0
 40 52  1  0  0  0
 40 53  2  0  0  0
 40 58  1  0  0  0
 41110  1  0  0  0
 41111  1  0  0  0
 41112  1  0  0  0
 41 48  1  0  0  0
 42 43  1  0  0  0
 42 66  1  0  0  0
 42113  1  0  0  0
 42114  1  0  0  0
 43 44  1  0  0  0
 44115  1  0  0  0
 45 46  2  0  0  0
 45116  1  0  0  0
 46117  1  0  0  0
 47118  1  0  0  0
 47119  1  0  0  0
 48 56  1  0  0  0
 48 65  1  0  0  0
 48120  1  0  0  0
 49 50  1  0  0  0
 49 53  1  0  0  0
 49 64  1  0  0  0
 49121  1  0  0  0
 50 51  1  0  0  0
 50122  1  0  0  0
 50123  1  0  0  0
 51 52  1  0  0  0
 51124  1  0  0  0
 51125  1  0  0  0
 52126  1  0  0  0
 52127  1  0  0  0
 53 54  1  0  0  0
 54 55  2  0  0  0
 54128  1  0  0  0
 55 57  1  0  0  0
 55129  1  0  0  0
 56 69  2  0  0  0
 57 58  2  0  0  0
 57130  1  0  0  0
 58131  1  0  0  0
 59 60  1  0  0  0
 59 61  1  0  0  0
 59 62  1  0  0  0
 60132  1  0  0  0
 60133  1  0  0  0
 60134  1  0  0  0
 61135  1  0  0  0
 61136  1  0  0  0
 61137  1  0  0  0
 62138  1  0  0  0
 62139  1  0  0  0
 62140  1  0  0  0
 63 65  1  0  0  0
 63141  1  0  0  0
 63142  1  0  0  0
 63143  1  0  0  0
 64144  1  0  0  0
 65145  1  0  0  0
 68 82  1  0  0  0
 71 74  2  0  0  0
 71 75  1  0  0  0
 71146  1  0  0  0
 72 74  1  0  0  0
 72 76  2  0  0  0
 72147  1  0  0  0
 73 75  2  0  0  0
 73 76  1  0  0  0
 73148  1  0  0  0
 74 79  1  0  0  0
 75 83  1  0  0  0
 76 84  1  0  0  0
 77 83  1  0  0  0
 77 85  2  0  0  0
 77 86  1  0  0  0
 78 79  2  0  0  0
 78149  1  0  0  0
 78150  1  0  0  0
 79151  1  0  0  0
 80 81  1  0  0  0
 80 83  1  0  0  0
 80152  1  0  0  0
 80153  1  0  0  0
 81 82  1  0  0  0
 81 86  1  0  0  0
 81154  1  0  0  0
 82155  1  0  0  0
 82156  1  0  0  0
 84157  1  0  0  0
M  ISO  4   1 100  68 101  82 101  84 100
M  END
> <chiral flag>
0

> <version>
0

> <s_m_source_file>
/data/baiqing/PycharmProjects/Reinvent-master-3.2/result/LINK_invent/BTK/process_docking_weight1_custom_product_contain_oxygen_bond_distance_aromatic_linkinvent_7_9_3/rearranged_h_0069.sdf

> <i_m_source_file_index>
60

> <r_mmod_Potential_Energy-OPLS-2005>
287.918792724609

> <r_mmod_Stretch_Energy-OPLS-2005>
138.574005126953

> <r_mmod_Bend_Energy-OPLS-2005>
227.784210205078

> <r_mmod_Torsional_Energy-OPLS-2005>
268.759948730469

> <r_mmod_Improper_Torsional_Energy-OPLS-2005>
7.93565940856934

> <r_mmod_Van_der_Waal_Energy-OPLS-2005>
137.668563842773

> <r_mmod_Electrostatic_Energy-OPLS-2005>
-359.259918212891

> <r_mmod_Solvation_Energy-OPLS-2005>
-234.425552368164

> <b_mmod_Minimization_Converged-OPLS-2005>
0

> <r_mmod_RMS_Derivative-OPLS-2005>
2.48335742950439

$$$$
61
                    3D
 Structure written by MMmdl.
146153  0  0  1  0            999 V2000
  -30.5306  -15.0358   20.3930 C   0  0  0  0  0  0
  -30.4384  -12.6467   19.5116 C   0  0  0  0  0  0
  -29.5302  -12.5343   18.2642 C   0  0  0  0  0  0
  -28.0579  -12.3278   18.6718 C   0  0  0  0  0  0
  -27.6221  -13.2628   19.8300 C   0  0  2  0  0  0
  -28.6627  -13.3366   20.9656 C   0  0  0  0  0  0
  -25.2419  -13.8236   20.5724 C   0  0  0  0  0  0
  -24.1753  -13.0434   20.9233 C   0  0  0  0  0  0
  -24.6402  -11.6934   20.8746 C   0  0  0  0  0  0
  -23.9082  -10.4302   21.0399 C   0  0  0  0  0  0
  -24.3643   -9.4206   21.9165 C   0  0  0  0  0  0
  -23.6316   -8.2243   22.0748 C   0  0  0  0  0  0
  -22.4289   -8.0293   21.3557 C   0  0  0  0  0  0
  -21.9915   -9.0270   20.4670 C   0  0  0  0  0  0
  -22.7248  -10.2139   20.3068 C   0  0  0  0  0  0
  -21.6853   -6.0736   22.5278 C   0  0  0  0  0  0
  -21.4015   -6.5639   23.8217 C   0  0  0  0  0  0
  -21.3667   -5.6786   24.9171 C   0  0  0  0  0  0
  -21.6057   -4.3058   24.7218 C   0  0  0  0  0  0
  -21.8815   -3.8144   23.4345 C   0  0  0  0  0  0
  -21.9185   -4.6954   22.3392 C   0  0  0  0  0  0
  -22.7786  -13.5205   21.1903 C   0  0  0  0  0  0
  -22.1660   -4.2147   21.0977 F   0  0  0  0  0  0
  -21.5626   -3.4540   25.7730 F   0  0  0  0  0  0
  -29.9259  -13.7736   20.3500 N   0  0  0  0  0  0
  -26.2866  -12.9493   20.3208 N   0  0  0  0  0  0
  -25.9338  -11.6616   20.5736 N   0  0  0  0  0  0
  -22.0434  -12.8206   22.0467 N   0  0  0  0  0  0
  -25.4007  -15.1981   20.4079 N   0  0  0  0  0  0
  -31.7454  -15.0619   20.1679 O   0  0  0  0  0  0
  -21.6658   -6.8892   21.4258 O   0  0  0  0  0  0
  -22.3451  -14.5486   20.6711 O   0  0  0  0  0  0
  -24.6457  -31.8425   23.1848 C   0  0  0  0  0  0
  -25.9206  -32.4692   23.8250 C   0  0  1  0  0  0
  -27.2229  -27.1248   20.1487 C   0  0  0  0  0  0
  -25.5923  -33.8501   24.2163 N   0  0  0  0  0  0
  -23.4472  -30.4610   21.5338 C   0  0  2  0  0  0
  -24.8973  -28.8845   20.1065 C   0  0  0  0  0  0
  -22.7562  -29.4528   22.4865 C   0  0  0  0  0  0
  -18.0301  -28.1413   22.8472 C   0  0  0  0  0  0
  -24.1480  -36.7272   23.2646 C   0  0  0  0  0  0
  -26.0016  -30.7183   21.3795 C   0  0  0  0  0  0
  -26.0733  -29.3251   20.7268 C   0  0  0  0  0  0
  -27.2345  -28.4614   20.7303 C   0  0  0  0  0  0
  -26.0197  -26.7968   19.4830 C   0  0  0  0  0  0
  -24.8831  -27.6368   19.4691 C   0  0  0  0  0  0
  -23.6740  -29.7862   20.1527 C   0  0  0  0  0  0
  -25.4109  -36.3046   24.0323 C   0  0  1  0  0  0
  -20.5924  -28.3739   23.1239 C   0  0  2  0  0  0
  -20.6793  -26.9443   22.5430 C   0  0  0  0  0  0
  -19.5758  -26.6381   21.5233 C   0  0  0  0  0  0
  -18.1943  -26.7947   22.1638 C   0  0  0  0  0  0
  -19.1564  -28.8880   23.2855 C   0  0  0  0  0  0
  -18.9475  -30.1478   23.8880 C   0  0  0  0  0  0
  -17.6461  -30.6608   24.0555 C   0  0  0  0  0  0
  -25.9058  -34.9416   23.5054 C   0  0  0  0  0  0
  -16.5355  -29.9105   23.6335 C   0  0  0  0  0  0
  -16.7283  -28.6534   23.0356 C   0  0  0  0  0  0
  -26.4523  -31.6563   25.0691 C   0  0  0  0  0  0
  -25.3708  -31.3771   26.1394 C   0  0  0  0  0  0
  -27.0359  -30.2959   24.6226 C   0  0  0  0  0  0
  -27.6050  -32.4326   25.7491 C   0  0  0  0  0  0
  -27.5562  -37.1794   24.8460 C   0  0  0  0  0  0
  -21.4258  -29.3036   22.3609 N   0  0  0  0  0  0
  -26.4261  -37.3760   23.9417 N   0  0  0  0  0  0
  -24.7195  -31.0290   22.0884 N   0  0  0  0  0  0
  -23.4222  -28.8088   23.3015 O   0  0  0  0  0  0
  -28.2714  -26.1285   20.2363 O   0  0  0  0  0  0
  -26.5663  -34.8904   22.4644 O   0  0  0  0  0  0
  -23.5569  -32.1282   23.7052 O   0  0  0  0  0  0
  -29.5484  -20.7775   20.5931 C   0  0  0  0  0  0
  -29.0096  -23.3780   20.4908 C   0  0  0  0  0  0
  -29.1916  -19.1823   20.1971 C   0  0  0  0  0  0
  -27.9970  -24.6031   19.9883 C   0  0  0  0  0  0
  -30.1955  -17.8141   20.4133 C   0  0  0  0  0  0
  -28.8358  -21.9752   20.2110 N   0  0  0  0  0  0
  -29.7891  -16.2621   20.4692 N   0  0  0  0  0  0
  -30.5371  -20.8801   21.3234 O   0  0  0  0  0  0
  -29.9646  -23.7536   21.1807 O   0  0  0  0  0  0
  -31.4730  -12.8051   19.2009 H   0  0  0  0  0  0
  -30.4388  -11.7122   20.0755 H   0  0  0  0  0  0
  -29.8617  -11.7152   17.6243 H   0  0  0  0  0  0
  -29.6181  -13.4444   17.6670 H   0  0  0  0  0  0
  -27.9449  -11.2870   18.9754 H   0  0  0  0  0  0
  -27.4046  -12.4640   17.8066 H   0  0  0  0  0  0
  -27.5682  -14.2563   19.3833 H   0  0  0  0  0  0
  -28.7765  -12.3721   21.4639 H   0  0  0  0  0  0
  -28.3517  -14.0539   21.7258 H   0  0  0  0  0  0
  -25.2780   -9.5665   22.4744 H   0  0  0  0  0  0
  -24.0013   -7.4622   22.7453 H   0  0  0  0  0  0
  -21.0850   -8.8804   19.8971 H   0  0  0  0  0  0
  -22.3713  -10.9690   19.6196 H   0  0  0  0  0  0
  -21.2020   -7.6153   23.9720 H   0  0  0  0  0  0
  -21.1500   -6.0524   25.9084 H   0  0  0  0  0  0
  -22.0583   -2.7611   23.2840 H   0  0  0  0  0  0
  -22.4054  -11.9908   22.4910 H   0  0  0  0  0  0
  -21.1062  -13.1233   22.2664 H   0  0  0  0  0  0
  -24.6168  -15.8379   20.5062 H   0  0  0  0  0  0
  -26.2283  -15.6404   20.0251 H   0  0  0  0  0  0
  -26.7265  -32.5317   23.0983 H   0  0  0  0  0  0
  -25.0018  -33.9614   25.0274 H   0  0  0  0  0  0
  -22.7508  -31.2887   21.3764 H   0  0  0  0  0  0
  -23.3728  -35.9612   23.3298 H   0  0  0  0  0  0
  -24.3553  -36.8924   22.2056 H   0  0  0  0  0  0
  -23.7240  -37.6469   23.6688 H   0  0  0  0  0  0
  -26.1361  -31.4614   20.5934 H   0  0  0  0  0  0
  -26.8825  -30.7880   22.0068 H   0  0  0  0  0  0
  -28.1291  -28.7866   21.2427 H   0  0  0  0  0  0
  -25.9180  -25.8446   18.9839 H   0  0  0  0  0  0
  -23.9859  -27.3024   18.9673 H   0  0  0  0  0  0
  -23.8043  -30.5588   19.3933 H   0  0  0  0  0  0
  -22.7885  -29.2263   19.8462 H   0  0  0  0  0  0
  -25.1295  -36.1865   25.0812 H   0  0  0  0  0  0
  -20.9996  -28.3338   24.1356 H   0  0  0  0  0  0
  -20.5684  -26.2346   23.3664 H   0  0  0  0  0  0
  -21.6666  -26.7443   22.1222 H   0  0  0  0  0  0
  -19.6926  -25.6272   21.1309 H   0  0  0  0  0  0
  -19.6713  -27.3160   20.6739 H   0  0  0  0  0  0
  -17.4222  -26.6678   21.4055 H   0  0  0  0  0  0
  -18.0338  -26.0116   22.9049 H   0  0  0  0  0  0
  -19.7957  -30.7315   24.2250 H   0  0  0  0  0  0
  -17.5026  -31.6289   24.5171 H   0  0  0  0  0  0
  -15.5375  -30.3004   23.7660 H   0  0  0  0  0  0
  -15.8695  -28.0850   22.7066 H   0  0  0  0  0  0
  -24.5878  -30.7122   25.7729 H   0  0  0  0  0  0
  -24.8893  -32.2954   26.4759 H   0  0  0  0  0  0
  -25.7986  -30.8993   27.0211 H   0  0  0  0  0  0
  -26.2934  -29.6721   24.1220 H   0  0  0  0  0  0
  -27.3972  -29.7238   25.4779 H   0  0  0  0  0  0
  -27.8856  -30.4223   23.9513 H   0  0  0  0  0  0
  -27.2643  -33.3657   26.1999 H   0  0  0  0  0  0
  -28.3905  -32.6838   25.0352 H   0  0  0  0  0  0
  -28.0651  -31.8482   26.5473 H   0  0  0  0  0  0
  -28.2582  -38.0091   24.7482 H   0  0  0  0  0  0
  -28.1059  -36.2611   24.6303 H   0  0  0  0  0  0
  -27.2284  -37.1471   25.8868 H   0  0  0  0  0  0
  -20.9477  -29.8764   21.6800 H   0  0  0  0  0  0
  -26.0133  -38.2826   24.1424 H   0  0  0  0  0  0
  -28.2570  -18.9672   20.7076 H   0  0  0  0  0  0
  -28.9528  -19.2082   19.1348 H   0  0  0  0  0  0
  -27.0329  -24.3780   20.4429 H   0  0  0  0  0  0
  -27.8747  -24.4691   18.9159 H   0  0  0  0  0  0
  -30.7761  -18.0102   21.3109 H   0  0  0  0  0  0
  -30.9220  -17.8773   19.6057 H   0  0  0  0  0  0
  -28.0380  -21.8236   19.6235 H   0  0  0  0  0  0
  -28.7960  -16.1043   20.5710 H   0  0  0  0  0  0
  1 25  1  0  0  0
  1 30  2  0  0  0
  1 77  1  0  0  0
  2  3  1  0  0  0
  2 25  1  0  0  0
  2 80  1  0  0  0
  2 81  1  0  0  0
  3  4  1  0  0  0
  3 82  1  0  0  0
  3 83  1  0  0  0
  4  5  1  0  0  0
  4 84  1  0  0  0
  4 85  1  0  0  0
  5  6  1  0  0  0
  5 26  1  0  0  0
  5 86  1  0  0  0
  6 25  1  0  0  0
  6 87  1  0  0  0
  6 88  1  0  0  0
  7  8  2  0  0  0
  7 26  1  0  0  0
  7 29  1  0  0  0
  8  9  1  0  0  0
  8 22  1  0  0  0
  9 10  1  0  0  0
  9 27  2  0  0  0
 10 11  2  0  0  0
 10 15  1  0  0  0
 11 12  1  0  0  0
 11 89  1  0  0  0
 12 13  2  0  0  0
 12 90  1  0  0  0
 13 14  1  0  0  0
 13 31  1  0  0  0
 14 15  2  0  0  0
 14 91  1  0  0  0
 15 92  1  0  0  0
 16 17  2  0  0  0
 16 21  1  0  0  0
 16 31  1  0  0  0
 17 18  1  0  0  0
 17 93  1  0  0  0
 18 19  2  0  0  0
 18 94  1  0  0  0
 19 20  1  0  0  0
 19 24  1  0  0  0
 20 21  2  0  0  0
 20 95  1  0  0  0
 21 23  1  0  0  0
 22 28  1  0  0  0
 22 32  2  0  0  0
 26 27  1  0  0  0
 28 96  1  0  0  0
 28 97  1  0  0  0
 29 98  1  0  0  0
 29 99  1  0  0  0
 33 34  1  0  0  0
 33 66  1  0  0  0
 33 70  2  0  0  0
 34 36  1  0  0  0
 34 59  1  0  0  0
 34100  1  0  0  0
 35 44  2  0  0  0
 35 45  1  0  0  0
 35 68  1  0  0  0
 36 56  1  0  0  0
 36101  1  0  0  0
 37 39  1  0  0  0
 37 47  1  0  0  0
 37 66  1  0  0  0
 37102  1  0  0  0
 38 43  2  0  0  0
 38 46  1  0  0  0
 38 47  1  0  0  0
 39 64  1  0  0  0
 39 67  2  0  0  0
 40 52  1  0  0  0
 40 53  2  0  0  0
 40 58  1  0  0  0
 41103  1  0  0  0
 41104  1  0  0  0
 41105  1  0  0  0
 41 48  1  0  0  0
 42 43  1  0  0  0
 42 66  1  0  0  0
 42106  1  0  0  0
 42107  1  0  0  0
 43 44  1  0  0  0
 44108  1  0  0  0
 45 46  2  0  0  0
 45109  1  0  0  0
 46110  1  0  0  0
 47111  1  0  0  0
 47112  1  0  0  0
 48 56  1  0  0  0
 48 65  1  0  0  0
 48113  1  0  0  0
 49 50  1  0  0  0
 49 53  1  0  0  0
 49 64  1  0  0  0
 49114  1  0  0  0
 50 51  1  0  0  0
 50115  1  0  0  0
 50116  1  0  0  0
 51 52  1  0  0  0
 51117  1  0  0  0
 51118  1  0  0  0
 52119  1  0  0  0
 52120  1  0  0  0
 53 54  1  0  0  0
 54 55  2  0  0  0
 54121  1  0  0  0
 55 57  1  0  0  0
 55122  1  0  0  0
 56 69  2  0  0  0
 57 58  2  0  0  0
 57123  1  0  0  0
 58124  1  0  0  0
 59 60  1  0  0  0
 59 61  1  0  0  0
 59 62  1  0  0  0
 60125  1  0  0  0
 60126  1  0  0  0
 60127  1  0  0  0
 61128  1  0  0  0
 61129  1  0  0  0
 61130  1  0  0  0
 62131  1  0  0  0
 62132  1  0  0  0
 62133  1  0  0  0
 63 65  1  0  0  0
 63134  1  0  0  0
 63135  1  0  0  0
 63136  1  0  0  0
 64137  1  0  0  0
 65138  1  0  0  0
 68 74  1  0  0  0
 71 73  1  0  0  0
 71 76  1  0  0  0
 71 78  2  0  0  0
 72 74  1  0  0  0
 72 76  1  0  0  0
 72 79  2  0  0  0
 73 75  1  0  0  0
 73139  1  0  0  0
 73140  1  0  0  0
 74141  1  0  0  0
 74142  1  0  0  0
 75 77  1  0  0  0
 75143  1  0  0  0
 75144  1  0  0  0
 76145  1  0  0  0
 77146  1  0  0  0
M  ISO  4   1 100  68 101  74 101  77 100
M  END
> <chiral flag>
0

> <version>
0

> <s_m_source_file>
/data/baiqing/PycharmProjects/Reinvent-master-3.2/result/LINK_invent/BTK/process_docking_weight1_custom_product_contain_oxygen_bond_distance_aromatic_linkinvent_7_9_3/rearranged_h_0069.sdf

> <i_m_source_file_index>
61

> <r_mmod_Potential_Energy-OPLS-2005>
422.630645751953

> <r_mmod_Stretch_Energy-OPLS-2005>
303.121856689453

> <r_mmod_Bend_Energy-OPLS-2005>
278.463775634766

> <r_mmod_Torsional_Energy-OPLS-2005>
201.068756103516

> <r_mmod_Improper_Torsional_Energy-OPLS-2005>
4.66765689849854

> <r_mmod_Van_der_Waal_Energy-OPLS-2005>
115.249885559082

> <r_mmod_Electrostatic_Energy-OPLS-2005>
-402.46923828125

> <r_mmod_Solvation_Energy-OPLS-2005>
-311.499389648438

> <b_mmod_Minimization_Converged-OPLS-2005>
0

> <r_mmod_RMS_Derivative-OPLS-2005>
7.66876173019409

$$$$
62
                    3D
 Structure written by MMmdl.
161169  0  0  1  0            999 V2000
  -30.5862  -14.6944   20.4843 C   0  0  0  0  0  0
  -30.4517  -12.4269   19.4472 C   0  0  0  0  0  0
  -29.5147  -12.5170   18.2202 C   0  0  0  0  0  0
  -28.0371  -12.3460   18.6342 C   0  0  0  0  0  0
  -27.6558  -13.2142   19.8623 C   0  0  2  0  0  0
  -28.7040  -13.0719   20.9888 C   0  0  0  0  0  0
  -25.2574  -13.8152   20.5652 C   0  0  0  0  0  0
  -24.1842  -13.0424   20.9156 C   0  0  0  0  0  0
  -24.6404  -11.6896   20.8711 C   0  0  0  0  0  0
  -23.9066  -10.4290   21.0393 C   0  0  0  0  0  0
  -24.3627   -9.4214   21.9177 C   0  0  0  0  0  0
  -23.6308   -8.2244   22.0763 C   0  0  0  0  0  0
  -22.4285   -8.0278   21.3551 C   0  0  0  0  0  0
  -21.9911   -9.0248   20.4650 C   0  0  0  0  0  0
  -22.7231  -10.2130   20.3053 C   0  0  0  0  0  0
  -21.6850   -6.0733   22.5279 C   0  0  0  0  0  0
  -21.4010   -6.5637   23.8212 C   0  0  0  0  0  0
  -21.3666   -5.6788   24.9179 C   0  0  0  0  0  0
  -21.6049   -4.3055   24.7220 C   0  0  0  0  0  0
  -21.8822   -3.8149   23.4345 C   0  0  0  0  0  0
  -21.9195   -4.6964   22.3403 C   0  0  0  0  0  0
  -22.7866  -13.5229   21.1818 C   0  0  0  0  0  0
  -22.1668   -4.2148   21.0979 F   0  0  0  0  0  0
  -21.5638   -3.4539   25.7738 F   0  0  0  0  0  0
  -30.0153  -13.4438   20.4275 N   0  0  0  0  0  0
  -26.3013  -12.9326   20.3317 N   0  0  0  0  0  0
  -25.9340  -11.6483   20.5752 N   0  0  0  0  0  0
  -22.0496  -12.8246   22.0379 N   0  0  0  0  0  0
  -25.4280  -15.1878   20.4074 N   0  0  0  0  0  0
  -31.7330  -14.8936   20.0732 O   0  0  0  0  0  0
  -21.6651   -6.8879   21.4240 O   0  0  0  0  0  0
  -22.3553  -14.5529   20.6660 O   0  0  0  0  0  0
  -24.6267  -31.8587   23.2022 C   0  0  0  0  0  0
  -25.9115  -32.4767   23.8359 C   0  0  1  0  0  0
  -27.2308  -27.3180   20.1268 C   0  0  0  0  0  0
  -25.5939  -33.8560   24.2304 N   0  0  0  0  0  0
  -23.4220  -30.4809   21.5435 C   0  0  2  0  0  0
  -24.8661  -28.9213   20.1221 C   0  0  0  0  0  0
  -22.7478  -29.4621   22.4947 C   0  0  0  0  0  0
  -18.0277  -28.1416   22.8461 C   0  0  0  0  0  0
  -24.1472  -36.7297   23.2724 C   0  0  0  0  0  0
  -25.9585  -30.7909   21.3665 C   0  0  0  0  0  0
  -26.0336  -29.4123   20.7206 C   0  0  0  0  0  0
  -27.2193  -28.6229   20.7080 C   0  0  0  0  0  0
  -26.0400  -26.8620   19.5247 C   0  0  0  0  0  0
  -24.8697  -27.6505   19.5192 C   0  0  0  0  0  0
  -23.6389  -29.8105   20.1600 C   0  0  0  0  0  0
  -25.4108  -36.3059   24.0403 C   0  0  1  0  0  0
  -20.5874  -28.3703   23.1291 C   0  0  2  0  0  0
  -20.6775  -26.9427   22.5425 C   0  0  0  0  0  0
  -19.5757  -26.6391   21.5219 C   0  0  0  0  0  0
  -18.1926  -26.7955   22.1618 C   0  0  0  0  0  0
  -19.1529  -28.8875   23.2873 C   0  0  0  0  0  0
  -18.9465  -30.1469   23.8896 C   0  0  0  0  0  0
  -17.6467  -30.6606   24.0570 C   0  0  0  0  0  0
  -25.9004  -34.9454   23.5153 C   0  0  0  0  0  0
  -16.5354  -29.9118   23.6329 C   0  0  0  0  0  0
  -16.7265  -28.6553   23.0322 C   0  0  0  0  0  0
  -26.4476  -31.6551   25.0723 C   0  0  0  0  0  0
  -25.3698  -31.3696   26.1449 C   0  0  0  0  0  0
  -27.0317  -30.3002   24.6120 C   0  0  0  0  0  0
  -27.6045  -32.4223   25.7526 C   0  0  0  0  0  0
  -27.5448  -37.1931   24.8563 C   0  0  0  0  0  0
  -21.4190  -29.3057   22.3694 N   0  0  0  0  0  0
  -26.4438  -37.3513   23.9088 N   0  0  0  0  0  0
  -24.6885  -31.0613   22.0957 N   0  0  0  0  0  0
  -23.4179  -28.8137   23.3030 O   0  0  0  0  0  0
  -28.3877  -26.5361   20.0657 O   0  0  0  0  0  0
  -26.5599  -34.9038   22.4733 O   0  0  0  0  0  0
  -23.5440  -32.1374   23.7378 O   0  0  0  0  0  0
  -28.2760  -19.1298   21.4412 C   0  0  0  0  0  0
  -30.4433  -18.0840   20.0410 C   0  0  0  0  0  0
  -29.0518  -20.0825   20.7208 C   0  0  0  0  0  0
  -30.1649  -19.5061   19.9992 C   0  0  0  0  0  0
  -29.6507  -17.1616   20.7931 C   0  0  0  0  0  0
  -28.5630  -17.7421   21.4820 C   0  0  0  0  0  0
  -28.5840  -21.5536   20.7840 C   0  0  0  0  0  0
  -29.8329  -25.1203   21.2734 C   0  0  0  0  0  0
  -31.8119  -21.2866   19.9041 C   0  0  0  0  0  0
  -28.2647  -23.9399   19.6023 C   0  0  0  0  0  0
  -28.4446  -25.1615   20.6178 C   0  0  2  0  0  0
  -27.8036  -21.9397   21.7968 N   0  0  0  0  0  0
  -29.7507  -15.6951   20.9108 N   0  0  0  0  0  0
  -31.0043  -20.2990   19.1937 N   0  0  0  0  0  0
  -28.8531  -22.5479   19.8837 N   0  3  0  0  0  0
  -27.7505  -16.9306   22.2032 F   0  0  0  0  0  0
  -31.4885  -12.5749   19.1415 H   0  0  0  0  0  0
  -30.4142  -11.4309   19.8880 H   0  0  0  0  0  0
  -29.7855  -11.7598   17.4831 H   0  0  0  0  0  0
  -29.6503  -13.4808   17.7259 H   0  0  0  0  0  0
  -27.8795  -11.2919   18.8649 H   0  0  0  0  0  0
  -27.3809  -12.5740   17.7927 H   0  0  0  0  0  0
  -27.6708  -14.2490   19.5198 H   0  0  0  0  0  0
  -28.7301  -12.0461   21.3591 H   0  0  0  0  0  0
  -28.4383  -13.6870   21.8495 H   0  0  0  0  0  0
  -25.2779   -9.5693   22.4740 H   0  0  0  0  0  0
  -24.0025   -7.4637   22.7484 H   0  0  0  0  0  0
  -21.0848   -8.8748   19.8959 H   0  0  0  0  0  0
  -22.3687  -10.9661   19.6160 H   0  0  0  0  0  0
  -21.1994   -7.6140   23.9711 H   0  0  0  0  0  0
  -21.1491   -6.0523   25.9078 H   0  0  0  0  0  0
  -22.0598   -2.7606   23.2842 H   0  0  0  0  0  0
  -22.4126  -11.9956   22.4843 H   0  0  0  0  0  0
  -21.1095  -13.1273   22.2512 H   0  0  0  0  0  0
  -24.6665  -15.8440   20.5395 H   0  0  0  0  0  0
  -26.2881  -15.6350   20.1195 H   0  0  0  0  0  0
  -26.7155  -32.5478   23.1089 H   0  0  0  0  0  0
  -25.0167  -33.9697   25.0508 H   0  0  0  0  0  0
  -22.7183  -31.3026   21.3962 H   0  0  0  0  0  0
  -23.3562  -35.9838   23.3738 H   0  0  0  0  0  0
  -24.3446  -36.8540   22.2074 H   0  0  0  0  0  0
  -23.7521  -37.6713   23.6534 H   0  0  0  0  0  0
  -26.0783  -31.5472   20.5898 H   0  0  0  0  0  0
  -26.8445  -30.8514   21.9879 H   0  0  0  0  0  0
  -28.1234  -29.0043   21.1610 H   0  0  0  0  0  0
  -26.0172  -25.8959   19.0413 H   0  0  0  0  0  0
  -23.9724  -27.2721   19.0479 H   0  0  0  0  0  0
  -23.7708  -30.5878   19.4052 H   0  0  0  0  0  0
  -22.7567  -29.2512   19.8476 H   0  0  0  0  0  0
  -25.1404  -36.2058   25.0940 H   0  0  0  0  0  0
  -20.9932  -28.3277   24.1428 H   0  0  0  0  0  0
  -20.5680  -26.2319   23.3633 H   0  0  0  0  0  0
  -21.6651  -26.7464   22.1227 H   0  0  0  0  0  0
  -19.6921  -25.6293   21.1274 H   0  0  0  0  0  0
  -19.6719  -27.3184   20.6734 H   0  0  0  0  0  0
  -17.4204  -26.6687   21.4012 H   0  0  0  0  0  0
  -18.0324  -26.0109   22.9032 H   0  0  0  0  0  0
  -19.7936  -30.7281   24.2273 H   0  0  0  0  0  0
  -17.5026  -31.6282   24.5184 H   0  0  0  0  0  0
  -15.5359  -30.3035   23.7657 H   0  0  0  0  0  0
  -15.8662  -28.0898   22.7003 H   0  0  0  0  0  0
  -24.5871  -30.7020   25.7799 H   0  0  0  0  0  0
  -25.8058  -30.9010   27.0275 H   0  0  0  0  0  0
  -24.8858  -32.2850   26.4819 H   0  0  0  0  0  0
  -26.2891  -29.6794   24.1072 H   0  0  0  0  0  0
  -27.3978  -29.7204   25.4597 H   0  0  0  0  0  0
  -27.8770  -30.4339   23.9380 H   0  0  0  0  0  0
  -28.3902  -32.6745   25.0409 H   0  0  0  0  0  0
  -28.0664  -31.8332   26.5473 H   0  0  0  0  0  0
  -27.2692  -33.3535   26.2084 H   0  0  0  0  0  0
  -28.2586  -38.0086   24.7329 H   0  0  0  0  0  0
  -28.0898  -36.2610   24.7008 H   0  0  0  0  0  0
  -27.1879  -37.2195   25.8877 H   0  0  0  0  0  0
  -20.9369  -29.8799   21.6919 H   0  0  0  0  0  0
  -26.8289  -37.3099   22.9671 H   0  0  0  0  0  0
  -27.4035  -19.4469   21.9902 H   0  0  0  0  0  0
  -31.2764  -17.6905   19.4771 H   0  0  0  0  0  0
  -29.9767  -24.2106   21.8551 H   0  0  0  0  0  0
  -30.6245  -25.1707   20.5266 H   0  0  0  0  0  0
  -29.9672  -25.9605   21.9551 H   0  0  0  0  0  0
  -31.5819  -22.2961   19.5591 H   0  0  0  0  0  0
  -32.8708  -21.1168   19.7075 H   0  0  0  0  0  0
  -31.6643  -21.2564   20.9853 H   0  0  0  0  0  0
  -28.6976  -24.2505   18.6503 H   0  0  0  0  0  0
  -27.2004  -23.8181   19.4004 H   0  0  0  0  0  0
  -27.6905  -25.0840   21.4035 H   0  0  0  0  0  0
  -27.6401  -21.3147   22.5710 H   0  0  0  0  0  0
  -27.3770  -22.8481   21.8289 H   0  0  0  0  0  0
  -28.9229  -15.3120   21.3416 H   0  0  0  0  0  0
  -31.5506  -19.7712   18.5142 H   0  0  0  0  0  0
  -29.5411  -22.2430   19.1991 H   0  0  0  0  0  0
  1 25  1  0  0  0
  1 30  2  0  0  0
  1 83  1  0  0  0
  2  3  1  0  0  0
  2 25  1  0  0  0
  2 87  1  0  0  0
  2 88  1  0  0  0
  3  4  1  0  0  0
  3 89  1  0  0  0
  3 90  1  0  0  0
  4  5  1  0  0  0
  4 91  1  0  0  0
  4 92  1  0  0  0
  5  6  1  0  0  0
  5 26  1  0  0  0
  5 93  1  0  0  0
  6 25  1  0  0  0
  6 94  1  0  0  0
  6 95  1  0  0  0
  7  8  2  0  0  0
  7 26  1  0  0  0
  7 29  1  0  0  0
  8  9  1  0  0  0
  8 22  1  0  0  0
  9 10  1  0  0  0
  9 27  2  0  0  0
 10 11  2  0  0  0
 10 15  1  0  0  0
 11 12  1  0  0  0
 11 96  1  0  0  0
 12 13  2  0  0  0
 12 97  1  0  0  0
 13 14  1  0  0  0
 13 31  1  0  0  0
 14 15  2  0  0  0
 14 98  1  0  0  0
 15 99  1  0  0  0
 16 17  2  0  0  0
 16 21  1  0  0  0
 16 31  1  0  0  0
 17 18  1  0  0  0
 17100  1  0  0  0
 18 19  2  0  0  0
 18101  1  0  0  0
 19 20  1  0  0  0
 19 24  1  0  0  0
 20 21  2  0  0  0
 20102  1  0  0  0
 21 23  1  0  0  0
 22 28  1  0  0  0
 22 32  2  0  0  0
 26 27  1  0  0  0
 28103  1  0  0  0
 28104  1  0  0  0
 29105  1  0  0  0
 29106  1  0  0  0
 33 34  1  0  0  0
 33 66  1  0  0  0
 33 70  2  0  0  0
 34 36  1  0  0  0
 34 59  1  0  0  0
 34107  1  0  0  0
 35 44  2  0  0  0
 35 45  1  0  0  0
 35 68  1  0  0  0
 36 56  1  0  0  0
 36108  1  0  0  0
 37 39  1  0  0  0
 37 47  1  0  0  0
 37 66  1  0  0  0
 37109  1  0  0  0
 38 43  2  0  0  0
 38 46  1  0  0  0
 38 47  1  0  0  0
 39 64  1  0  0  0
 39 67  2  0  0  0
 40 52  1  0  0  0
 40 53  2  0  0  0
 40 58  1  0  0  0
 41110  1  0  0  0
 41111  1  0  0  0
 41112  1  0  0  0
 41 48  1  0  0  0
 42 43  1  0  0  0
 42 66  1  0  0  0
 42113  1  0  0  0
 42114  1  0  0  0
 43 44  1  0  0  0
 44115  1  0  0  0
 45 46  2  0  0  0
 45116  1  0  0  0
 46117  1  0  0  0
 47118  1  0  0  0
 47119  1  0  0  0
 48 56  1  0  0  0
 48 65  1  0  0  0
 48120  1  0  0  0
 49 50  1  0  0  0
 49 53  1  0  0  0
 49 64  1  0  0  0
 49121  1  0  0  0
 50 51  1  0  0  0
 50122  1  0  0  0
 50123  1  0  0  0
 51 52  1  0  0  0
 51124  1  0  0  0
 51125  1  0  0  0
 52126  1  0  0  0
 52127  1  0  0  0
 53 54  1  0  0  0
 54 55  2  0  0  0
 54128  1  0  0  0
 55 57  1  0  0  0
 55129  1  0  0  0
 56 69  2  0  0  0
 57 58  2  0  0  0
 57130  1  0  0  0
 58131  1  0  0  0
 59 60  1  0  0  0
 59 61  1  0  0  0
 59 62  1  0  0  0
 60132  1  0  0  0
 60133  1  0  0  0
 60134  1  0  0  0
 61135  1  0  0  0
 61136  1  0  0  0
 61137  1  0  0  0
 62138  1  0  0  0
 62139  1  0  0  0
 62140  1  0  0  0
 63 65  1  0  0  0
 63141  1  0  0  0
 63142  1  0  0  0
 63143  1  0  0  0
 64144  1  0  0  0
 65145  1  0  0  0
 68 81  1  0  0  0
 71 73  2  0  0  0
 71 76  1  0  0  0
 71146  1  0  0  0
 72 74  2  0  0  0
 72 75  1  0  0  0
 72147  1  0  0  0
 73 74  1  0  0  0
 73 77  1  0  0  0
 74 84  1  0  0  0
 75 76  2  0  0  0
 75 83  1  0  0  0
 76 86  1  0  0  0
 77 82  1  0  0  0
 77 85  2  0  0  0
 78148  1  0  0  0
 78149  1  0  0  0
 78150  1  0  0  0
 78 81  1  0  0  0
 79 84  1  0  0  0
 79151  1  0  0  0
 79152  1  0  0  0
 79153  1  0  0  0
 80 81  1  0  0  0
 80 85  1  0  0  0
 80154  1  0  0  0
 80155  1  0  0  0
 81156  1  0  0  0
 82157  1  0  0  0
 82158  1  0  0  0
 83159  1  0  0  0
 84160  1  0  0  0
 85161  1  0  0  0
M  CHG  1  85   1
M  ISO  4   1 100  68 101  81 101  83 100
M  END
> <chiral flag>
0

> <version>
0

> <s_m_source_file>
/data/baiqing/PycharmProjects/Reinvent-master-3.2/result/LINK_invent/BTK/process_docking_weight1_custom_product_contain_oxygen_bond_distance_aromatic_linkinvent_7_9_3/rearranged_h_0069.sdf

> <i_m_source_file_index>
62

> <r_mmod_Potential_Energy-OPLS-2005>
-81.1992111206055

> <r_mmod_Stretch_Energy-OPLS-2005>
95.5796890258789

> <r_mmod_Bend_Energy-OPLS-2005>
196.453308105469

> <r_mmod_Torsional_Energy-OPLS-2005>
255.835052490234

> <r_mmod_Improper_Torsional_Energy-OPLS-2005>
8.08959865570068

> <r_mmod_Van_der_Waal_Energy-OPLS-2005>
136.412490844727

> <r_mmod_Electrostatic_Energy-OPLS-2005>
-418.930755615234

> <r_mmod_Solvation_Energy-OPLS-2005>
-408.643890380859

> <b_mmod_Minimization_Converged-OPLS-2005>
0

> <r_mmod_RMS_Derivative-OPLS-2005>
2.80021190643311

$$$$
63
                    3D
 Structure written by MMmdl.
172181  0  0  1  0            999 V2000
  -30.4871  -15.0532   20.3932 C   0  0  0  0  0  0
  -30.4355  -12.6517   19.5282 C   0  0  0  0  0  0
  -29.5276  -12.5614   18.2774 C   0  0  0  0  0  0
  -28.0633  -12.3264   18.6878 C   0  0  0  0  0  0
  -27.6253  -13.2622   19.8431 C   0  0  2  0  0  0
  -28.6592  -13.3220   20.9886 C   0  0  0  0  0  0
  -25.2435  -13.8244   20.5732 C   0  0  0  0  0  0
  -24.1761  -13.0445   20.9213 C   0  0  0  0  0  0
  -24.6400  -11.6933   20.8731 C   0  0  0  0  0  0
  -23.9094  -10.4291   21.0390 C   0  0  0  0  0  0
  -24.3637   -9.4205   21.9175 C   0  0  0  0  0  0
  -23.6302   -8.2248   22.0749 C   0  0  0  0  0  0
  -22.4287   -8.0284   21.3541 C   0  0  0  0  0  0
  -21.9923   -9.0258   20.4649 C   0  0  0  0  0  0
  -22.7257  -10.2130   20.3052 C   0  0  0  0  0  0
  -21.6864   -6.0732   22.5280 C   0  0  0  0  0  0
  -21.4019   -6.5634   23.8210 C   0  0  0  0  0  0
  -21.3663   -5.6791   24.9177 C   0  0  0  0  0  0
  -21.6049   -4.3051   24.7231 C   0  0  0  0  0  0
  -21.8818   -3.8145   23.4349 C   0  0  0  0  0  0
  -21.9198   -4.6962   22.3404 C   0  0  0  0  0  0
  -22.7780  -13.5196   21.1887 C   0  0  0  0  0  0
  -22.1657   -4.2144   21.0981 F   0  0  0  0  0  0
  -21.5636   -3.4534   25.7745 F   0  0  0  0  0  0
  -29.9319  -13.7626   20.4024 N   0  0  0  0  0  0
  -26.2865  -12.9500   20.3261 N   0  0  0  0  0  0
  -25.9339  -11.6610   20.5730 N   0  0  0  0  0  0
  -22.0454  -12.8168   22.0451 N   0  0  0  0  0  0
  -25.4130  -15.1983   20.4219 N   0  0  0  0  0  0
  -31.6678  -15.1164   20.0277 O   0  0  0  0  0  0
  -21.6653   -6.8877   21.4244 O   0  0  0  0  0  0
  -22.3450  -14.5502   20.6750 O   0  0  0  0  0  0
  -24.6499  -31.8372   23.1816 C   0  0  0  0  0  0
  -25.9233  -32.4665   23.8243 C   0  0  1  0  0  0
  -27.2112  -27.0516   20.1718 C   0  0  0  0  0  0
  -25.5958  -33.8478   24.2169 N   0  0  0  0  0  0
  -23.4590  -30.4524   21.5291 C   0  0  2  0  0  0
  -24.9088  -28.8601   20.1168 C   0  0  0  0  0  0
  -22.7605  -29.4513   22.4842 C   0  0  0  0  0  0
  -18.0306  -28.1399   22.8476 C   0  0  0  0  0  0
  -24.1494  -36.7229   23.2645 C   0  0  0  0  0  0
  -26.0202  -30.6824   21.3938 C   0  0  0  0  0  0
  -26.0896  -29.2837   20.7400 C   0  0  0  0  0  0
  -27.2435  -28.3985   20.7447 C   0  0  0  0  0  0
  -26.0051  -26.7483   19.5070 C   0  0  0  0  0  0
  -24.8834  -27.6086   19.4822 C   0  0  0  0  0  0
  -23.6908  -29.7742   20.1527 C   0  0  0  0  0  0
  -25.4133  -36.3014   24.0313 C   0  0  1  0  0  0
  -20.5923  -28.3740   23.1219 C   0  0  2  0  0  0
  -20.6794  -26.9437   22.5404 C   0  0  0  0  0  0
  -19.5767  -26.6388   21.5212 C   0  0  0  0  0  0
  -18.1947  -26.7938   22.1619 C   0  0  0  0  0  0
  -19.1566  -28.8886   23.2838 C   0  0  0  0  0  0
  -18.9479  -30.1477   23.8879 C   0  0  0  0  0  0
  -17.6476  -30.6597   24.0555 C   0  0  0  0  0  0
  -25.9087  -34.9391   23.5059 C   0  0  0  0  0  0
  -16.5365  -29.9087   23.6336 C   0  0  0  0  0  0
  -16.7292  -28.6496   23.0372 C   0  0  0  0  0  0
  -26.4544  -31.6545   25.0703 C   0  0  0  0  0  0
  -25.3710  -31.3743   26.1381 C   0  0  0  0  0  0
  -27.0417  -30.2929   24.6332 C   0  0  0  0  0  0
  -27.6072  -32.4323   25.7483 C   0  0  0  0  0  0
  -27.5581  -37.1773   24.8466 C   0  0  0  0  0  0
  -21.4289  -29.3050   22.3580 N   0  0  0  0  0  0
  -26.4292  -37.3732   23.9409 N   0  0  0  0  0  0
  -24.7304  -31.0146   22.0892 N   0  0  0  0  0  0
  -23.4204  -28.8072   23.3036 O   0  0  0  0  0  0
  -28.2408  -26.0181   20.1815 O   0  0  0  0  0  0
  -26.5686  -34.8895   22.4649 O   0  0  0  0  0  0
  -23.5598  -32.1294   23.6970 O   0  0  0  0  0  0
  -28.9758  -20.1324   18.5699 C   0  0  0  0  0  0
  -29.5045  -17.7057   18.6879 C   0  0  0  0  0  0
  -29.3262  -19.0377   20.7023 C   0  0  0  0  0  0
  -29.1523  -18.8630   17.9452 C   0  0  0  0  0  0
  -29.0481  -20.3337   19.9712 C   0  0  0  0  0  0
  -29.5926  -17.6781   20.0937 C   0  0  0  0  0  0
  -28.6606  -23.1138   19.9315 C   0  0  0  0  0  0
  -27.9252  -18.4328   13.8556 C   0  0  0  0  0  0
  -29.0578  -19.8128   15.6633 C   0  0  0  0  0  0
  -27.7325  -17.8305   16.2958 C   0  0  0  0  0  0
  -29.1343  -19.3303   14.1998 C   0  0  2  0  0  0
  -27.7451  -17.2651   14.8557 C   0  0  0  0  0  0
  -29.2454  -20.5128   13.2287 C   0  0  0  0  0  0
  -28.8675  -16.2158   14.7038 C   0  0  0  0  0  0
  -26.4028  -16.5611   14.5774 C   0  0  0  0  0  0
  -27.9617  -24.5056   20.6045 C   0  0  0  0  0  0
  -28.9018  -18.6765   16.5684 N   0  0  0  0  0  0
  -28.7152  -21.7790   20.5065 N   0  0  0  0  0  0
  -29.7397  -16.2485   20.7153 N   0  0  0  0  0  0
  -29.1700  -23.2800   18.8204 O   0  0  0  0  0  0
  -31.4693  -12.8119   19.2196 H   0  0  0  0  0  0
  -30.4368  -11.7053   20.0717 H   0  0  0  0  0  0
  -29.8663  -11.7641   17.6143 H   0  0  0  0  0  0
  -29.6018  -13.4885   17.7069 H   0  0  0  0  0  0
  -27.9710  -11.2851   18.9986 H   0  0  0  0  0  0
  -27.4029  -12.4471   17.8289 H   0  0  0  0  0  0
  -27.5779  -14.2589   19.4033 H   0  0  0  0  0  0
  -28.7621  -12.3523   21.4791 H   0  0  0  0  0  0
  -28.3351  -14.0228   21.7590 H   0  0  0  0  0  0
  -25.2787   -9.5672   22.4747 H   0  0  0  0  0  0
  -24.0014   -7.4635   22.7465 H   0  0  0  0  0  0
  -21.0859   -8.8781   19.8948 H   0  0  0  0  0  0
  -22.3727  -10.9667   19.6160 H   0  0  0  0  0  0
  -21.2002   -7.6138   23.9705 H   0  0  0  0  0  0
  -21.1491   -6.0526   25.9076 H   0  0  0  0  0  0
  -22.0596   -2.7604   23.2863 H   0  0  0  0  0  0
  -22.4088  -11.9826   22.4815 H   0  0  0  0  0  0
  -21.1065  -13.1163   22.2673 H   0  0  0  0  0  0
  -24.6515  -15.8566   20.5474 H   0  0  0  0  0  0
  -26.2745  -15.6417   20.1280 H   0  0  0  0  0  0
  -26.7289  -32.5249   23.0957 H   0  0  0  0  0  0
  -25.0086  -33.9598   25.0306 H   0  0  0  0  0  0
  -22.7658  -31.2806   21.3675 H   0  0  0  0  0  0
  -23.3774  -35.9538   23.3283 H   0  0  0  0  0  0
  -24.3574  -36.8888   22.2060 H   0  0  0  0  0  0
  -23.7216  -37.6404   23.6702 H   0  0  0  0  0  0
  -26.1872  -31.4294   20.6167 H   0  0  0  0  0  0
  -26.8863  -30.7362   22.0420 H   0  0  0  0  0  0
  -28.1457  -28.7211   21.2449 H   0  0  0  0  0  0
  -25.9124  -25.7940   19.0088 H   0  0  0  0  0  0
  -23.9860  -27.2808   18.9767 H   0  0  0  0  0  0
  -23.8364  -30.5455   19.3956 H   0  0  0  0  0  0
  -22.8029  -29.2222   19.8386 H   0  0  0  0  0  0
  -25.1320  -36.1846   25.0802 H   0  0  0  0  0  0
  -21.0017  -28.3334   24.1339 H   0  0  0  0  0  0
  -20.5686  -26.2360   23.3633 H   0  0  0  0  0  0
  -21.6662  -26.7438   22.1202 H   0  0  0  0  0  0
  -19.6941  -25.6293   21.1259 H   0  0  0  0  0  0
  -19.6701  -27.3188   20.6730 H   0  0  0  0  0  0
  -17.4221  -26.6685   21.4015 H   0  0  0  0  0  0
  -18.0341  -26.0083   22.9016 H   0  0  0  0  0  0
  -19.7947  -30.7289   24.2261 H   0  0  0  0  0  0
  -17.5019  -31.6277   24.5154 H   0  0  0  0  0  0
  -15.5364  -30.2980   23.7669 H   0  0  0  0  0  0
  -15.8684  -28.0792   22.7133 H   0  0  0  0  0  0
  -24.5890  -30.7108   25.7673 H   0  0  0  0  0  0
  -24.8909  -32.2928   26.4765 H   0  0  0  0  0  0
  -25.7966  -30.8918   27.0190 H   0  0  0  0  0  0
  -26.3045  -29.6634   24.1340 H   0  0  0  0  0  0
  -27.3999  -29.7250   25.4931 H   0  0  0  0  0  0
  -27.8973  -30.4144   23.9686 H   0  0  0  0  0  0
  -27.2676  -33.3657   26.1992 H   0  0  0  0  0  0
  -28.3915  -32.6835   25.0325 H   0  0  0  0  0  0
  -28.0713  -31.8495   26.5454 H   0  0  0  0  0  0
  -28.2585  -38.0084   24.7523 H   0  0  0  0  0  0
  -28.1099  -36.2614   24.6290 H   0  0  0  0  0  0
  -27.2301  -37.1400   25.8871 H   0  0  0  0  0  0
  -20.9527  -29.8739   21.6720 H   0  0  0  0  0  0
  -26.0158  -38.2801   24.1417 H   0  0  0  0  0  0
  -28.7025  -20.9766   17.9566 H   0  0  0  0  0  0
  -29.6291  -16.7775   18.1497 H   0  0  0  0  0  0
  -29.3240  -19.0840   21.7828 H   0  0  0  0  0  0
  -28.0222  -18.0449   12.8406 H   0  0  0  0  0  0
  -27.0231  -19.0467   13.8579 H   0  0  0  0  0  0
  -28.2131  -20.4938   15.7843 H   0  0  0  0  0  0
  -29.9610  -20.3707   15.9182 H   0  0  0  0  0  0
  -27.6535  -17.0058   17.0055 H   0  0  0  0  0  0
  -26.8352  -18.4351   16.4449 H   0  0  0  0  0  0
  -30.0437  -18.7392   14.0861 H   0  0  0  0  0  0
  -28.3617  -21.1501   13.2724 H   0  0  0  0  0  0
  -29.3558  -20.1670   12.2002 H   0  0  0  0  0  0
  -30.1127  -21.1311   13.4621 H   0  0  0  0  0  0
  -29.8451  -16.6185   14.9681 H   0  0  0  0  0  0
  -28.9303  -15.8462   13.6799 H   0  0  0  0  0  0
  -28.6928  -15.3565   15.3519 H   0  0  0  0  0  0
  -25.5592  -17.2449   14.6803 H   0  0  0  0  0  0
  -26.2339  -15.7344   15.2685 H   0  0  0  0  0  0
  -26.3699  -16.1518   13.5672 H   0  0  0  0  0  0
  -28.1815  -24.4581   21.6709 H   0  0  0  0  0  0
  -26.8862  -24.3427   20.5455 H   0  0  0  0  0  0
  -28.4261  -21.7882   21.4763 H   0  0  0  0  0  0
  -28.9747  -16.0279   21.3372 H   0  0  0  0  0  0
  1 25  1  0  0  0
  1 30  2  0  0  0
  1 89  1  0  0  0
  2  3  1  0  0  0
  2 25  1  0  0  0
  2 91  1  0  0  0
  2 92  1  0  0  0
  3  4  1  0  0  0
  3 93  1  0  0  0
  3 94  1  0  0  0
  4  5  1  0  0  0
  4 95  1  0  0  0
  4 96  1  0  0  0
  5  6  1  0  0  0
  5 26  1  0  0  0
  5 97  1  0  0  0
  6 25  1  0  0  0
  6 98  1  0  0  0
  6 99  1  0  0  0
  7  8  2  0  0  0
  7 26  1  0  0  0
  7 29  1  0  0  0
  8  9  1  0  0  0
  8 22  1  0  0  0
  9 10  1  0  0  0
  9 27  2  0  0  0
 10 11  2  0  0  0
 10 15  1  0  0  0
 11 12  1  0  0  0
 11100  1  0  0  0
 12 13  2  0  0  0
 12101  1  0  0  0
 13 14  1  0  0  0
 13 31  1  0  0  0
 14 15  2  0  0  0
 14102  1  0  0  0
 15103  1  0  0  0
 16 17  2  0  0  0
 16 21  1  0  0  0
 16 31  1  0  0  0
 17 18  1  0  0  0
 17104  1  0  0  0
 18 19  2  0  0  0
 18105  1  0  0  0
 19 20  1  0  0  0
 19 24  1  0  0  0
 20 21  2  0  0  0
 20106  1  0  0  0
 21 23  1  0  0  0
 22 28  1  0  0  0
 22 32  2  0  0  0
 26 27  1  0  0  0
 28107  1  0  0  0
 28108  1  0  0  0
 29109  1  0  0  0
 29110  1  0  0  0
 33 34  1  0  0  0
 33 66  1  0  0  0
 33 70  2  0  0  0
 34 36  1  0  0  0
 34 59  1  0  0  0
 34111  1  0  0  0
 35 44  2  0  0  0
 35 45  1  0  0  0
 35 68  1  0  0  0
 36 56  1  0  0  0
 36112  1  0  0  0
 37 39  1  0  0  0
 37 47  1  0  0  0
 37 66  1  0  0  0
 37113  1  0  0  0
 38 43  2  0  0  0
 38 46  1  0  0  0
 38 47  1  0  0  0
 39 64  1  0  0  0
 39 67  2  0  0  0
 40 52  1  0  0  0
 40 53  2  0  0  0
 40 58  1  0  0  0
 41114  1  0  0  0
 41115  1  0  0  0
 41116  1  0  0  0
 41 48  1  0  0  0
 42 43  1  0  0  0
 42 66  1  0  0  0
 42117  1  0  0  0
 42118  1  0  0  0
 43 44  1  0  0  0
 44119  1  0  0  0
 45 46  2  0  0  0
 45120  1  0  0  0
 46121  1  0  0  0
 47122  1  0  0  0
 47123  1  0  0  0
 48 56  1  0  0  0
 48 65  1  0  0  0
 48124  1  0  0  0
 49 50  1  0  0  0
 49 53  1  0  0  0
 49 64  1  0  0  0
 49125  1  0  0  0
 50 51  1  0  0  0
 50126  1  0  0  0
 50127  1  0  0  0
 51 52  1  0  0  0
 51128  1  0  0  0
 51129  1  0  0  0
 52130  1  0  0  0
 52131  1  0  0  0
 53 54  1  0  0  0
 54 55  2  0  0  0
 54132  1  0  0  0
 55 57  1  0  0  0
 55133  1  0  0  0
 56 69  2  0  0  0
 57 58  2  0  0  0
 57134  1  0  0  0
 58135  1  0  0  0
 59 60  1  0  0  0
 59 61  1  0  0  0
 59 62  1  0  0  0
 60136  1  0  0  0
 60137  1  0  0  0
 60138  1  0  0  0
 61139  1  0  0  0
 61140  1  0  0  0
 61141  1  0  0  0
 62142  1  0  0  0
 62143  1  0  0  0
 62144  1  0  0  0
 63 65  1  0  0  0
 63145  1  0  0  0
 63146  1  0  0  0
 63147  1  0  0  0
 64148  1  0  0  0
 65149  1  0  0  0
 68 86  1  0  0  0
 71 74  2  0  0  0
 71 75  1  0  0  0
 71150  1  0  0  0
 72 74  1  0  0  0
 72 76  2  0  0  0
 72151  1  0  0  0
 73 75  2  0  0  0
 73 76  1  0  0  0
 73152  1  0  0  0
 74 87  1  0  0  0
 75 88  1  0  0  0
 76 89  1  0  0  0
 77 86  1  0  0  0
 77 88  1  0  0  0
 77 90  2  0  0  0
 78 81  1  0  0  0
 78 82  1  0  0  0
 78153  1  0  0  0
 78154  1  0  0  0
 79 81  1  0  0  0
 79 87  1  0  0  0
 79155  1  0  0  0
 79156  1  0  0  0
 80 82  1  0  0  0
 80 87  1  0  0  0
 80157  1  0  0  0
 80158  1  0  0  0
 81 83  1  0  0  0
 81159  1  0  0  0
 82 84  1  0  0  0
 82 85  1  0  0  0
 83160  1  0  0  0
 83161  1  0  0  0
 83162  1  0  0  0
 84163  1  0  0  0
 84164  1  0  0  0
 84165  1  0  0  0
 85166  1  0  0  0
 85167  1  0  0  0
 85168  1  0  0  0
 86169  1  0  0  0
 86170  1  0  0  0
 88171  1  0  0  0
 89172  1  0  0  0
M  ISO  4   1 100  68 101  86 101  89 100
M  END
> <chiral flag>
0

> <version>
0

> <s_m_source_file>
/data/baiqing/PycharmProjects/Reinvent-master-3.2/result/LINK_invent/BTK/process_docking_weight1_custom_product_contain_oxygen_bond_distance_aromatic_linkinvent_7_9_3/rearranged_h_0069.sdf

> <i_m_source_file_index>
63

> <r_mmod_Potential_Energy-OPLS-2005>
788.661010742188

> <r_mmod_Stretch_Energy-OPLS-2005>
358.904052734375

> <r_mmod_Bend_Energy-OPLS-2005>
303.419982910156

> <r_mmod_Torsional_Energy-OPLS-2005>
319.476898193359

> <r_mmod_Improper_Torsional_Energy-OPLS-2005>
8.09773635864258

> <r_mmod_Van_der_Waal_Energy-OPLS-2005>
133.60139465332

> <r_mmod_Electrostatic_Energy-OPLS-2005>
-353.712585449219

> <r_mmod_Solvation_Energy-OPLS-2005>
-254.02522277832

> <b_mmod_Minimization_Converged-OPLS-2005>
0

> <r_mmod_RMS_Derivative-OPLS-2005>
1.61702799797058

$$$$
64
                    3D
 Structure written by MMmdl.
167176  0  0  1  0            999 V2000
  -30.6813  -14.4321   20.5211 C   0  0  0  0  0  0
  -30.4368  -12.2654   19.3944 C   0  0  0  0  0  0
  -29.4920  -12.4742   18.1923 C   0  0  0  0  0  0
  -28.0108  -12.3466   18.6110 C   0  0  0  0  0  0
  -27.6589  -13.1800   19.8701 C   0  0  2  0  0  0
  -28.7160  -12.9568   20.9800 C   0  0  0  0  0  0
  -25.2624  -13.8063   20.5609 C   0  0  0  0  0  0
  -24.1836  -13.0377   20.9090 C   0  0  0  0  0  0
  -24.6374  -11.6830   20.8715 C   0  0  0  0  0  0
  -23.9023  -10.4255   21.0428 C   0  0  0  0  0  0
  -24.3625   -9.4192   21.9196 C   0  0  0  0  0  0
  -23.6340   -8.2225   22.0760 C   0  0  0  0  0  0
  -22.4320   -8.0255   21.3532 C   0  0  0  0  0  0
  -21.9933   -9.0222   20.4631 C   0  0  0  0  0  0
  -22.7219  -10.2109   20.3065 C   0  0  0  0  0  0
  -21.6836   -6.0771   22.5299 C   0  0  0  0  0  0
  -21.4005   -6.5679   23.8218 C   0  0  0  0  0  0
  -21.3653   -5.6812   24.9171 C   0  0  0  0  0  0
  -21.6037   -4.3085   24.7186 C   0  0  0  0  0  0
  -21.8825   -3.8190   23.4311 C   0  0  0  0  0  0
  -21.9186   -4.7027   22.3379 C   0  0  0  0  0  0
  -22.7843  -13.5220   21.1800 C   0  0  0  0  0  0
  -22.1655   -4.2239   21.0943 F   0  0  0  0  0  0
  -21.5637   -3.4540   25.7693 F   0  0  0  0  0  0
  -30.0463  -13.2426   20.4079 N   0  0  0  0  0  0
  -26.3009  -12.9169   20.3360 N   0  0  0  0  0  0
  -25.9286  -11.6332   20.5752 N   0  0  0  0  0  0
  -22.0505  -12.8213   22.0388 N   0  0  0  0  0  0
  -25.4371  -15.1763   20.3996 N   0  0  0  0  0  0
  -31.8682  -14.6357   20.2654 O   0  0  0  0  0  0
  -21.6642   -6.8903   21.4240 O   0  0  0  0  0  0
  -22.3513  -14.5525   20.6681 O   0  0  0  0  0  0
  -24.6149  -31.8705   23.2089 C   0  0  0  0  0  0
  -25.9043  -32.4842   23.8413 C   0  0  1  0  0  0
  -27.2383  -27.4667   20.0606 C   0  0  0  0  0  0
  -25.5898  -33.8635   24.2304 N   0  0  0  0  0  0
  -23.3980  -30.4955   21.5489 C   0  0  2  0  0  0
  -24.8414  -28.9576   20.1208 C   0  0  0  0  0  0
  -22.7399  -29.4696   22.4991 C   0  0  0  0  0  0
  -18.0304  -28.1408   22.8442 C   0  0  0  0  0  0
  -24.1470  -36.7342   23.2636 C   0  0  0  0  0  0
  -25.9259  -30.8406   21.3609 C   0  0  0  0  0  0
  -26.0003  -29.4752   20.7145 C   0  0  0  0  0  0
  -27.1970  -28.7296   20.6911 C   0  0  0  0  0  0
  -26.0458  -26.9389   19.5095 C   0  0  0  0  0  0
  -24.8532  -27.6835   19.5318 C   0  0  0  0  0  0
  -23.6044  -29.8236   20.1646 C   0  0  0  0  0  0
  -25.4097  -36.3126   24.0319 C   0  0  1  0  0  0
  -20.5885  -28.3673   23.1274 C   0  0  2  0  0  0
  -20.6773  -26.9441   22.5319 C   0  0  0  0  0  0
  -19.5742  -26.6448   21.5124 C   0  0  0  0  0  0
  -18.1933  -26.7994   22.1553 C   0  0  0  0  0  0
  -19.1554  -28.8841   23.2861 C   0  0  0  0  0  0
  -18.9495  -30.1410   23.8907 C   0  0  0  0  0  0
  -17.6526  -30.6569   24.0629 C   0  0  0  0  0  0
  -25.9043  -34.9487   23.5095 C   0  0  0  0  0  0
  -16.5403  -29.9097   23.6363 C   0  0  0  0  0  0
  -16.7305  -28.6543   23.0304 C   0  0  0  0  0  0
  -26.4465  -31.6624   25.0739 C   0  0  0  0  0  0
  -25.3749  -31.3727   26.1484 C   0  0  0  0  0  0
  -27.0266  -30.3054   24.6155 C   0  0  0  0  0  0
  -27.6018  -32.4345   25.7537 C   0  0  0  0  0  0
  -27.5572  -37.1837   24.8461 C   0  0  0  0  0  0
  -21.4136  -29.3101   22.3768 N   0  0  0  0  0  0
  -26.4295  -37.3811   23.9400 N   0  0  0  0  0  0
  -24.6640  -31.0840   22.0993 N   0  0  0  0  0  0
  -23.4184  -28.8173   23.2980 O   0  0  0  0  0  0
  -28.4503  -26.8185   19.9912 O   0  0  0  0  0  0
  -26.5611  -34.8932   22.4669 O   0  0  0  0  0  0
  -23.5354  -32.1430   23.7531 O   0  0  0  0  0  0
  -29.1010  -17.6968   20.2765 C   0  0  0  0  0  0
  -29.3820  -19.2484   22.1263 C   0  0  0  0  0  0
  -30.2899  -16.9906   22.2962 C   0  0  0  0  0  0
  -28.9037  -18.9738   20.8302 C   0  0  0  0  0  0
  -29.7981  -16.7127   20.9996 C   0  0  0  0  0  0
  -30.0555  -18.2628   22.8758 C   0  0  0  0  0  0
  -26.9870  -19.9006   19.5999 C   0  0  0  0  0  0
  -28.5296  -24.4256   19.8085 C   0  0  0  0  0  0
  -26.4365  -21.2870   19.2867 C   0  0  0  0  0  0
  -28.7053  -21.3552   20.0736 C   0  0  0  0  0  0
  -27.4316  -22.2069   20.0214 C   0  0  1  0  0  0
  -29.4193  -19.1953   25.0500 C   0  0  0  0  0  0
  -31.5482  -17.8822   24.8241 C   0  0  0  0  0  0
  -28.6231  -25.7519   19.0543 C   0  0  0  0  0  0
  -28.2270  -19.9853   20.1038 N   0  0  0  0  0  0
  -29.8018  -15.4280   20.4302 N   0  0  0  0  0  0
  -27.6519  -23.5048   19.3713 N   0  0  0  0  0  0
  -30.4215  -18.5596   24.2002 N   0  0  0  0  0  0
  -26.3573  -18.8620   19.3759 O   0  0  0  0  0  0
  -29.2495  -24.2462   20.7943 O   0  0  0  0  0  0
  -31.4757  -12.3827   19.0848 H   0  0  0  0  0  0
  -30.3395  -11.2553   19.8009 H   0  0  0  0  0  0
  -29.7172  -11.7580   17.4032 H   0  0  0  0  0  0
  -29.6648  -13.4586   17.7569 H   0  0  0  0  0  0
  -27.8101  -11.2935   18.8037 H   0  0  0  0  0  0
  -27.3571  -12.6284   17.7857 H   0  0  0  0  0  0
  -27.6790  -14.2195   19.5512 H   0  0  0  0  0  0
  -28.6825  -11.9217   21.3336 H   0  0  0  0  0  0
  -28.5054  -13.5869   21.8451 H   0  0  0  0  0  0
  -25.2784   -9.5696   22.4751 H   0  0  0  0  0  0
  -24.0057   -7.4608   22.7481 H   0  0  0  0  0  0
  -21.0872   -8.8706   19.8946 H   0  0  0  0  0  0
  -22.3672  -10.9658   19.6208 H   0  0  0  0  0  0
  -21.2010   -7.6197   23.9733 H   0  0  0  0  0  0
  -21.1461   -6.0546   25.9059 H   0  0  0  0  0  0
  -22.0622   -2.7672   23.2756 H   0  0  0  0  0  0
  -22.4165  -11.9891   22.4766 H   0  0  0  0  0  0
  -21.1123  -13.1189   22.2644 H   0  0  0  0  0  0
  -24.6694  -15.8267   20.5082 H   0  0  0  0  0  0
  -26.2973  -15.6321   20.1307 H   0  0  0  0  0  0
  -26.7102  -32.5526   23.1181 H   0  0  0  0  0  0
  -24.9999  -33.9806   25.0414 H   0  0  0  0  0  0
  -22.6869  -31.3117   21.4081 H   0  0  0  0  0  0
  -23.3715  -35.9700   23.3328 H   0  0  0  0  0  0
  -24.3571  -36.8953   22.2055 H   0  0  0  0  0  0
  -23.7248  -37.6564   23.6643 H   0  0  0  0  0  0
  -26.0378  -31.6035   20.5873 H   0  0  0  0  0  0
  -26.8178  -30.8921   21.9782 H   0  0  0  0  0  0
  -28.0956  -29.1347   21.1328 H   0  0  0  0  0  0
  -26.0085  -25.9609   19.0542 H   0  0  0  0  0  0
  -23.9535  -27.2722   19.0917 H   0  0  0  0  0  0
  -23.7276  -30.5951   19.4056 H   0  0  0  0  0  0
  -22.7268  -29.2496   19.8578 H   0  0  0  0  0  0
  -25.1282  -36.1993   25.0819 H   0  0  0  0  0  0
  -20.9900  -28.3205   24.1423 H   0  0  0  0  0  0
  -20.5536  -26.2340   23.3473 H   0  0  0  0  0  0
  -21.6656  -26.7324   22.1203 H   0  0  0  0  0  0
  -19.6774  -25.6374   21.1048 H   0  0  0  0  0  0
  -19.6739  -27.3256   20.6696 H   0  0  0  0  0  0
  -17.4225  -26.6687   21.3927 H   0  0  0  0  0  0
  -18.0370  -26.0127   22.8941 H   0  0  0  0  0  0
  -19.8006  -30.7198   24.2209 H   0  0  0  0  0  0
  -17.5137  -31.6218   24.5293 H   0  0  0  0  0  0
  -15.5403  -30.2972   23.7718 H   0  0  0  0  0  0
  -15.8688  -28.0920   22.6969 H   0  0  0  0  0  0
  -24.5923  -30.7072   25.7828 H   0  0  0  0  0  0
  -24.8947  -32.2879   26.4964 H   0  0  0  0  0  0
  -25.8137  -30.8894   27.0221 H   0  0  0  0  0  0
  -26.2792  -29.6851   24.1199 H   0  0  0  0  0  0
  -27.3953  -29.7287   25.4646 H   0  0  0  0  0  0
  -27.8675  -30.4314   23.9328 H   0  0  0  0  0  0
  -27.2610  -33.3605   26.2180 H   0  0  0  0  0  0
  -28.3846  -32.6981   25.0414 H   0  0  0  0  0  0
  -28.0672  -31.8440   26.5445 H   0  0  0  0  0  0
  -28.2613  -38.0109   24.7493 H   0  0  0  0  0  0
  -28.1041  -36.2654   24.6294 H   0  0  0  0  0  0
  -27.2300  -37.1498   25.8866 H   0  0  0  0  0  0
  -20.9263  -29.9096   21.7276 H   0  0  0  0  0  0
  -26.0172  -38.2893   24.1400 H   0  0  0  0  0  0
  -28.7124  -17.4733   19.2926 H   0  0  0  0  0  0
  -29.2021  -20.2157   22.5716 H   0  0  0  0  0  0
  -30.7641  -16.2096   22.8702 H   0  0  0  0  0  0
  -25.4070  -21.3908   19.6403 H   0  0  0  0  0  0
  -26.4551  -21.4271   18.2060 H   0  0  0  0  0  0
  -29.2843  -21.4772   19.1572 H   0  0  0  0  0  0
  -29.3526  -21.6108   20.9080 H   0  0  0  0  0  0
  -27.0730  -22.3728   21.0432 H   0  0  0  0  0  0
  -29.6769  -20.2422   25.2165 H   0  0  0  0  0  0
  -29.3528  -18.7007   26.0203 H   0  0  0  0  0  0
  -28.4219  -19.1365   24.6100 H   0  0  0  0  0  0
  -32.4016  -17.8320   24.1488 H   0  0  0  0  0  0
  -31.2842  -16.8733   25.1391 H   0  0  0  0  0  0
  -31.8751  -18.4339   25.7054 H   0  0  0  0  0  0
  -27.9619  -25.8017   18.1878 H   0  0  0  0  0  0
  -29.6300  -25.8318   18.6447 H   0  0  0  0  0  0
  -28.9372  -15.1576   19.9957 H   0  0  0  0  0  0
  -27.0860  -23.7316   18.5645 H   0  0  0  0  0  0
  1 25  1  0  0  0
  1 30  2  0  0  0
  1 86  1  0  0  0
  2  3  1  0  0  0
  2 25  1  0  0  0
  2 91  1  0  0  0
  2 92  1  0  0  0
  3  4  1  0  0  0
  3 93  1  0  0  0
  3 94  1  0  0  0
  4  5  1  0  0  0
  4 95  1  0  0  0
  4 96  1  0  0  0
  5  6  1  0  0  0
  5 26  1  0  0  0
  5 97  1  0  0  0
  6 25  1  0  0  0
  6 98  1  0  0  0
  6 99  1  0  0  0
  7  8  2  0  0  0
  7 26  1  0  0  0
  7 29  1  0  0  0
  8  9  1  0  0  0
  8 22  1  0  0  0
  9 10  1  0  0  0
  9 27  2  0  0  0
 10 11  2  0  0  0
 10 15  1  0  0  0
 11 12  1  0  0  0
 11100  1  0  0  0
 12 13  2  0  0  0
 12101  1  0  0  0
 13 14  1  0  0  0
 13 31  1  0  0  0
 14 15  2  0  0  0
 14102  1  0  0  0
 15103  1  0  0  0
 16 17  2  0  0  0
 16 21  1  0  0  0
 16 31  1  0  0  0
 17 18  1  0  0  0
 17104  1  0  0  0
 18 19  2  0  0  0
 18105  1  0  0  0
 19 20  1  0  0  0
 19 24  1  0  0  0
 20 21  2  0  0  0
 20106  1  0  0  0
 21 23  1  0  0  0
 22 28  1  0  0  0
 22 32  2  0  0  0
 26 27  1  0  0  0
 28107  1  0  0  0
 28108  1  0  0  0
 29109  1  0  0  0
 29110  1  0  0  0
 33 34  1  0  0  0
 33 66  1  0  0  0
 33 70  2  0  0  0
 34 36  1  0  0  0
 34 59  1  0  0  0
 34111  1  0  0  0
 35 44  2  0  0  0
 35 45  1  0  0  0
 35 68  1  0  0  0
 36 56  1  0  0  0
 36112  1  0  0  0
 37 39  1  0  0  0
 37 47  1  0  0  0
 37 66  1  0  0  0
 37113  1  0  0  0
 38 43  2  0  0  0
 38 46  1  0  0  0
 38 47  1  0  0  0
 39 64  1  0  0  0
 39 67  2  0  0  0
 40 52  1  0  0  0
 40 53  2  0  0  0
 40 58  1  0  0  0
 41114  1  0  0  0
 41115  1  0  0  0
 41116  1  0  0  0
 41 48  1  0  0  0
 42 43  1  0  0  0
 42 66  1  0  0  0
 42117  1  0  0  0
 42118  1  0  0  0
 43 44  1  0  0  0
 44119  1  0  0  0
 45 46  2  0  0  0
 45120  1  0  0  0
 46121  1  0  0  0
 47122  1  0  0  0
 47123  1  0  0  0
 48 56  1  0  0  0
 48 65  1  0  0  0
 48124  1  0  0  0
 49 50  1  0  0  0
 49 53  1  0  0  0
 49 64  1  0  0  0
 49125  1  0  0  0
 50 51  1  0  0  0
 50126  1  0  0  0
 50127  1  0  0  0
 51 52  1  0  0  0
 51128  1  0  0  0
 51129  1  0  0  0
 52130  1  0  0  0
 52131  1  0  0  0
 53 54  1  0  0  0
 54 55  2  0  0  0
 54132  1  0  0  0
 55 57  1  0  0  0
 55133  1  0  0  0
 56 69  2  0  0  0
 57 58  2  0  0  0
 57134  1  0  0  0
 58135  1  0  0  0
 59 60  1  0  0  0
 59 61  1  0  0  0
 59 62  1  0  0  0
 60136  1  0  0  0
 60137  1  0  0  0
 60138  1  0  0  0
 61139  1  0  0  0
 61140  1  0  0  0
 61141  1  0  0  0
 62142  1  0  0  0
 62143  1  0  0  0
 62144  1  0  0  0
 63 65  1  0  0  0
 63145  1  0  0  0
 63146  1  0  0  0
 63147  1  0  0  0
 64148  1  0  0  0
 65149  1  0  0  0
 68 84  1  0  0  0
 71 74  2  0  0  0
 71 75  1  0  0  0
 71150  1  0  0  0
 72 74  1  0  0  0
 72 76  2  0  0  0
 72151  1  0  0  0
 73 75  2  0  0  0
 73 76  1  0  0  0
 73152  1  0  0  0
 74 85  1  0  0  0
 75 86  1  0  0  0
 76 88  1  0  0  0
 77 79  1  0  0  0
 77 85  1  0  0  0
 77 89  2  0  0  0
 78 84  1  0  0  0
 78 87  1  0  0  0
 78 90  2  0  0  0
 79 81  1  0  0  0
 79153  1  0  0  0
 79154  1  0  0  0
 80 81  1  0  0  0
 80 85  1  0  0  0
 80155  1  0  0  0
 80156  1  0  0  0
 81 87  1  0  0  0
 81157  1  0  0  0
 82 88  1  0  0  0
 82158  1  0  0  0
 82159  1  0  0  0
 82160  1  0  0  0
 83 88  1  0  0  0
 83161  1  0  0  0
 83162  1  0  0  0
 83163  1  0  0  0
 84164  1  0  0  0
 84165  1  0  0  0
 86166  1  0  0  0
 87167  1  0  0  0
M  ISO  4   1 100  68 101  84 101  86 100
M  END
> <chiral flag>
0

> <version>
0

> <s_m_source_file>
/data/baiqing/PycharmProjects/Reinvent-master-3.2/result/LINK_invent/BTK/process_docking_weight1_custom_product_contain_oxygen_bond_distance_aromatic_linkinvent_7_9_3/rearranged_h_0069.sdf

> <i_m_source_file_index>
64

> <r_mmod_Potential_Energy-OPLS-2005>
74.7868881225586

> <r_mmod_Stretch_Energy-OPLS-2005>
31.7808799743652

> <r_mmod_Bend_Energy-OPLS-2005>
149.677673339844

> <r_mmod_Torsional_Energy-OPLS-2005>
298.543090820312

> <r_mmod_Improper_Torsional_Energy-OPLS-2005>
17.7077083587646

> <r_mmod_Van_der_Waal_Energy-OPLS-2005>
160.749710083008

> <r_mmod_Electrostatic_Energy-OPLS-2005>
-321.481658935547

> <r_mmod_Solvation_Energy-OPLS-2005>
-279.923797607422

> <b_mmod_Minimization_Converged-OPLS-2005>
0

> <r_mmod_RMS_Derivative-OPLS-2005>
7.18654584884644

$$$$
65
                    3D
 Structure written by MMmdl.
166175  0  0  1  0            999 V2000
  -30.6019  -14.7280   20.4514 C   0  0  0  0  0  0
  -30.4329  -12.4366   19.4907 C   0  0  0  0  0  0
  -29.5177  -12.5197   18.2491 C   0  0  0  0  0  0
  -28.0426  -12.3385   18.6556 C   0  0  0  0  0  0
  -27.6471  -13.2307   19.8625 C   0  0  2  0  0  0
  -28.6901  -13.1477   21.0033 C   0  0  0  0  0  0
  -25.2518  -13.8202   20.5716 C   0  0  0  0  0  0
  -24.1801  -13.0450   20.9223 C   0  0  0  0  0  0
  -24.6403  -11.6928   20.8766 C   0  0  0  0  0  0
  -23.9078  -10.4295   21.0406 C   0  0  0  0  0  0
  -24.3621   -9.4210   21.9189 C   0  0  0  0  0  0
  -23.6294   -8.2242   22.0770 C   0  0  0  0  0  0
  -22.4292   -8.0261   21.3544 C   0  0  0  0  0  0
  -21.9938   -9.0250   20.4655 C   0  0  0  0  0  0
  -22.7260  -10.2135   20.3053 C   0  0  0  0  0  0
  -21.6849   -6.0722   22.5283 C   0  0  0  0  0  0
  -21.4011   -6.5630   23.8210 C   0  0  0  0  0  0
  -21.3660   -5.6798   24.9170 C   0  0  0  0  0  0
  -21.6032   -4.3062   24.7231 C   0  0  0  0  0  0
  -21.8813   -3.8140   23.4359 C   0  0  0  0  0  0
  -21.9201   -4.6953   22.3413 C   0  0  0  0  0  0
  -22.7819  -13.5227   21.1834 C   0  0  0  0  0  0
  -22.1662   -4.2145   21.0997 F   0  0  0  0  0  0
  -21.5616   -3.4550   25.7734 F   0  0  0  0  0  0
  -29.9992  -13.4912   20.4339 N   0  0  0  0  0  0
  -26.2971  -12.9418   20.3334 N   0  0  0  0  0  0
  -25.9350  -11.6570   20.5801 N   0  0  0  0  0  0
  -22.0428  -12.8234   22.0380 N   0  0  0  0  0  0
  -25.4129  -15.1937   20.4127 N   0  0  0  0  0  0
  -31.7698  -14.8490   20.0687 O   0  0  0  0  0  0
  -21.6641   -6.8869   21.4247 O   0  0  0  0  0  0
  -22.3524  -14.5521   20.6625 O   0  0  0  0  0  0
  -24.6311  -31.8560   23.1994 C   0  0  0  0  0  0
  -25.9152  -32.4761   23.8320 C   0  0  1  0  0  0
  -27.2146  -27.2552   20.1173 C   0  0  0  0  0  0
  -25.5970  -33.8567   24.2260 N   0  0  0  0  0  0
  -23.4276  -30.4801   21.5439 C   0  0  2  0  0  0
  -24.8769  -28.9321   20.1089 C   0  0  0  0  0  0
  -22.7474  -29.4619   22.4908 C   0  0  0  0  0  0
  -18.0276  -28.1402   22.8476 C   0  0  0  0  0  0
  -24.1492  -36.7249   23.2634 C   0  0  0  0  0  0
  -25.9765  -30.7634   21.3846 C   0  0  0  0  0  0
  -26.0501  -29.3883   20.7215 C   0  0  0  0  0  0
  -27.2207  -28.5613   20.7187 C   0  0  0  0  0  0
  -26.0186  -26.8797   19.4626 C   0  0  0  0  0  0
  -24.8652  -27.6846   19.4716 C   0  0  0  0  0  0
  -23.6472  -29.8184   20.1607 C   0  0  0  0  0  0
  -25.4123  -36.3053   24.0316 C   0  0  1  0  0  0
  -20.5881  -28.3716   23.1268 C   0  0  2  0  0  0
  -20.6785  -26.9435   22.5417 C   0  0  0  0  0  0
  -19.5776  -26.6405   21.5206 C   0  0  0  0  0  0
  -18.1937  -26.7955   22.1593 C   0  0  0  0  0  0
  -19.1535  -28.8872   23.2869 C   0  0  0  0  0  0
  -18.9455  -30.1464   23.8913 C   0  0  0  0  0  0
  -17.6465  -30.6621   24.0562 C   0  0  0  0  0  0
  -25.9069  -34.9434   23.5082 C   0  0  0  0  0  0
  -16.5352  -29.9110   23.6347 C   0  0  0  0  0  0
  -16.7264  -28.6513   23.0380 C   0  0  0  0  0  0
  -26.4529  -31.6581   25.0690 C   0  0  0  0  0  0
  -25.3732  -31.3708   26.1382 C   0  0  0  0  0  0
  -27.0404  -30.2998   24.6197 C   0  0  0  0  0  0
  -27.6076  -32.4306   25.7491 C   0  0  0  0  0  0
  -27.5572  -37.1785   24.8469 C   0  0  0  0  0  0
  -21.4180  -29.3051   22.3633 N   0  0  0  0  0  0
  -26.4301  -37.3764   23.9397 N   0  0  0  0  0  0
  -24.6973  -31.0511   22.0987 N   0  0  0  0  0  0
  -23.4164  -28.8163   23.3021 O   0  0  0  0  0  0
  -28.2927  -26.3363   20.1829 O   0  0  0  0  0  0
  -26.5610  -34.8900   22.4630 O   0  0  0  0  0  0
  -23.5456  -32.1419   23.7264 O   0  0  0  0  0  0
  -29.3108  -19.8297   20.2047 C   0  0  0  0  0  0
  -30.4975  -21.2709   21.7324 C   0  0  0  0  0  0
  -30.8993  -18.8195   21.7755 C   0  0  0  0  0  0
  -29.9790  -18.6319   20.7095 C   0  0  0  0  0  0
  -31.1493  -20.1357   22.2653 C   0  0  0  0  0  0
  -29.5445  -21.1794   20.6965 C   0  0  0  0  0  0
  -31.8771  -20.1133   24.6088 C   0  0  0  0  0  0
  -32.9522  -17.5381   22.4500 C   0  0  0  0  0  0
  -31.6182  -17.6560   22.3315 C   0  0  0  0  0  0
  -29.0473  -23.7709   20.4440 C   0  0  0  0  0  0
  -33.0598  -20.5737   25.4442 C   0  0  0  0  0  0
  -34.1053  -20.9569   24.3913 C   0  0  0  0  0  0
  -33.3185  -21.1099   23.0829 C   0  0  0  0  0  0
  -29.8636  -17.2104   19.9820 C   0  0  0  0  0  0
  -28.0122  -24.8740   19.9171 C   0  0  0  0  0  0
  -32.0815  -20.3754   23.3082 N   0  0  0  0  0  0
  -28.8422  -22.4066   20.2085 N   0  0  0  0  0  0
  -29.7986  -15.8361   20.6576 N   0  0  0  0  0  0
  -30.8813  -19.5739   25.1044 O   0  0  0  0  0  0
  -30.0390  -24.1832   21.0503 O   0  0  0  0  0  0
  -31.4785  -12.5518   19.1945 H   0  0  0  0  0  0
  -30.3577  -11.4564   19.9631 H   0  0  0  0  0  0
  -29.8063  -11.7684   17.5129 H   0  0  0  0  0  0
  -29.6477  -13.4902   17.7661 H   0  0  0  0  0  0
  -27.9010  -11.2895   18.9142 H   0  0  0  0  0  0
  -27.3873  -12.5335   17.8066 H   0  0  0  0  0  0
  -27.6436  -14.2563   19.4919 H   0  0  0  0  0  0
  -28.7166  -12.1431   21.4314 H   0  0  0  0  0  0
  -28.4297  -13.8173   21.8247 H   0  0  0  0  0  0
  -25.2758   -9.5705   22.4765 H   0  0  0  0  0  0
  -23.9988   -7.4665   22.7535 H   0  0  0  0  0  0
  -21.0855   -8.8810   19.8978 H   0  0  0  0  0  0
  -22.3728  -10.9683   19.6166 H   0  0  0  0  0  0
  -21.2003   -7.6140   23.9723 H   0  0  0  0  0  0
  -21.1482   -6.0512   25.9079 H   0  0  0  0  0  0
  -22.0594   -2.7609   23.2864 H   0  0  0  0  0  0
  -22.4024  -11.9921   22.4826 H   0  0  0  0  0  0
  -21.1029  -13.1264   22.2534 H   0  0  0  0  0  0
  -24.6305  -15.8297   20.5089 H   0  0  0  0  0  0
  -26.2430  -15.6468   20.0562 H   0  0  0  0  0  0
  -26.7193  -32.5430   23.1032 H   0  0  0  0  0  0
  -25.0141  -33.9722   25.0422 H   0  0  0  0  0  0
  -22.7252  -31.3032   21.3992 H   0  0  0  0  0  0
  -23.3781  -35.9555   23.3310 H   0  0  0  0  0  0
  -24.3566  -36.8874   22.2047 H   0  0  0  0  0  0
  -23.7232  -37.6434   23.6671 H   0  0  0  0  0  0
  -26.1186  -31.5280   20.6208 H   0  0  0  0  0  0
  -26.8513  -30.8104   22.0206 H   0  0  0  0  0  0
  -28.1146  -28.9018   21.2224 H   0  0  0  0  0  0
  -25.9363  -25.9381   18.9435 H   0  0  0  0  0  0
  -23.9671  -27.3309   18.9842 H   0  0  0  0  0  0
  -23.7658  -30.5982   19.4080 H   0  0  0  0  0  0
  -22.7676  -29.2491   19.8542 H   0  0  0  0  0  0
  -25.1323  -36.1886   25.0812 H   0  0  0  0  0  0
  -20.9947  -28.3303   24.1401 H   0  0  0  0  0  0
  -20.5697  -26.2305   23.3603 H   0  0  0  0  0  0
  -21.6650  -26.7490   22.1219 H   0  0  0  0  0  0
  -19.6948  -25.6311   21.1247 H   0  0  0  0  0  0
  -19.6742  -27.3186   20.6714 H   0  0  0  0  0  0
  -17.4218  -26.6691   21.3989 H   0  0  0  0  0  0
  -18.0334  -26.0107   22.8991 H   0  0  0  0  0  0
  -19.7935  -30.7252   24.2313 H   0  0  0  0  0  0
  -17.5038  -31.6313   24.5131 H   0  0  0  0  0  0
  -15.5357  -30.3023   23.7709 H   0  0  0  0  0  0
  -15.8642  -28.0834   22.7144 H   0  0  0  0  0  0
  -24.6048  -30.6887   25.7720 H   0  0  0  0  0  0
  -24.8726  -32.2842   26.4610 H   0  0  0  0  0  0
  -25.8050  -30.9082   27.0271 H   0  0  0  0  0  0
  -26.3007  -29.6720   24.1211 H   0  0  0  0  0  0
  -27.4090  -29.7283   25.4729 H   0  0  0  0  0  0
  -27.8880  -30.4282   23.9456 H   0  0  0  0  0  0
  -27.2730  -33.3671   26.1968 H   0  0  0  0  0  0
  -28.3963  -32.6759   25.0362 H   0  0  0  0  0  0
  -28.0655  -31.8473   26.5491 H   0  0  0  0  0  0
  -28.2605  -38.0072   24.7524 H   0  0  0  0  0  0
  -28.1076  -36.2608   24.6337 H   0  0  0  0  0  0
  -27.2279  -37.1463   25.8872 H   0  0  0  0  0  0
  -20.9343  -29.8712   21.6803 H   0  0  0  0  0  0
  -26.0174  -38.2826   24.1436 H   0  0  0  0  0  0
  -28.6147  -19.7048   19.3861 H   0  0  0  0  0  0
  -30.7380  -22.2241   22.1744 H   0  0  0  0  0  0
  -33.3911  -16.6555   22.8935 H   0  0  0  0  0  0
  -33.6231  -18.3112   22.1078 H   0  0  0  0  0  0
  -31.0005  -16.8487   22.6971 H   0  0  0  0  0  0
  -33.4107  -19.7879   26.1119 H   0  0  0  0  0  0
  -32.7629  -21.4389   26.0355 H   0  0  0  0  0  0
  -34.8370  -20.1531   24.2913 H   0  0  0  0  0  0
  -34.6461  -21.8681   24.6484 H   0  0  0  0  0  0
  -33.8743  -20.7190   22.2285 H   0  0  0  0  0  0
  -33.0920  -22.1583   22.8839 H   0  0  0  0  0  0
  -30.6989  -17.1778   19.2810 H   0  0  0  0  0  0
  -28.9809  -17.2603   19.3441 H   0  0  0  0  0  0
  -27.0604  -24.6021   20.3760 H   0  0  0  0  0  0
  -27.8950  -24.7332   18.8422 H   0  0  0  0  0  0
  -28.0488  -22.2253   19.6088 H   0  0  0  0  0  0
  -28.8902  -15.6078   21.0316 H   0  0  0  0  0  0
  1 25  1  0  0  0
  1 30  2  0  0  0
  1 88  1  0  0  0
  2  3  1  0  0  0
  2 25  1  0  0  0
  2 91  1  0  0  0
  2 92  1  0  0  0
  3  4  1  0  0  0
  3 93  1  0  0  0
  3 94  1  0  0  0
  4  5  1  0  0  0
  4 95  1  0  0  0
  4 96  1  0  0  0
  5  6  1  0  0  0
  5 26  1  0  0  0
  5 97  1  0  0  0
  6 25  1  0  0  0
  6 98  1  0  0  0
  6 99  1  0  0  0
  7  8  2  0  0  0
  7 26  1  0  0  0
  7 29  1  0  0  0
  8  9  1  0  0  0
  8 22  1  0  0  0
  9 10  1  0  0  0
  9 27  2  0  0  0
 10 11  2  0  0  0
 10 15  1  0  0  0
 11 12  1  0  0  0
 11100  1  0  0  0
 12 13  2  0  0  0
 12101  1  0  0  0
 13 14  1  0  0  0
 13 31  1  0  0  0
 14 15  2  0  0  0
 14102  1  0  0  0
 15103  1  0  0  0
 16 17  2  0  0  0
 16 21  1  0  0  0
 16 31  1  0  0  0
 17 18  1  0  0  0
 17104  1  0  0  0
 18 19  2  0  0  0
 18105  1  0  0  0
 19 20  1  0  0  0
 19 24  1  0  0  0
 20 21  2  0  0  0
 20106  1  0  0  0
 21 23  1  0  0  0
 22 28  1  0  0  0
 22 32  2  0  0  0
 26 27  1  0  0  0
 28107  1  0  0  0
 28108  1  0  0  0
 29109  1  0  0  0
 29110  1  0  0  0
 33 34  1  0  0  0
 33 66  1  0  0  0
 33 70  2  0  0  0
 34 36  1  0  0  0
 34 59  1  0  0  0
 34111  1  0  0  0
 35 44  2  0  0  0
 35 45  1  0  0  0
 35 68  1  0  0  0
 36 56  1  0  0  0
 36112  1  0  0  0
 37 39  1  0  0  0
 37 47  1  0  0  0
 37 66  1  0  0  0
 37113  1  0  0  0
 38 43  2  0  0  0
 38 46  1  0  0  0
 38 47  1  0  0  0
 39 64  1  0  0  0
 39 67  2  0  0  0
 40 52  1  0  0  0
 40 53  2  0  0  0
 40 58  1  0  0  0
 41114  1  0  0  0
 41115  1  0  0  0
 41116  1  0  0  0
 41 48  1  0  0  0
 42 43  1  0  0  0
 42 66  1  0  0  0
 42117  1  0  0  0
 42118  1  0  0  0
 43 44  1  0  0  0
 44119  1  0  0  0
 45 46  2  0  0  0
 45120  1  0  0  0
 46121  1  0  0  0
 47122  1  0  0  0
 47123  1  0  0  0
 48 56  1  0  0  0
 48 65  1  0  0  0
 48124  1  0  0  0
 49 50  1  0  0  0
 49 53  1  0  0  0
 49 64  1  0  0  0
 49125  1  0  0  0
 50 51  1  0  0  0
 50126  1  0  0  0
 50127  1  0  0  0
 51 52  1  0  0  0
 51128  1  0  0  0
 51129  1  0  0  0
 52130  1  0  0  0
 52131  1  0  0  0
 53 54  1  0  0  0
 54 55  2  0  0  0
 54132  1  0  0  0
 55 57  1  0  0  0
 55133  1  0  0  0
 56 69  2  0  0  0
 57 58  2  0  0  0
 57134  1  0  0  0
 58135  1  0  0  0
 59 60  1  0  0  0
 59 61  1  0  0  0
 59 62  1  0  0  0
 60136  1  0  0  0
 60137  1  0  0  0
 60138  1  0  0  0
 61139  1  0  0  0
 61140  1  0  0  0
 61141  1  0  0  0
 62142  1  0  0  0
 62143  1  0  0  0
 62144  1  0  0  0
 63 65  1  0  0  0
 63145  1  0  0  0
 63146  1  0  0  0
 63147  1  0  0  0
 64148  1  0  0  0
 65149  1  0  0  0
 68 85  1  0  0  0
 71 74  2  0  0  0
 71 76  1  0  0  0
 71150  1  0  0  0
 72 75  1  0  0  0
 72 76  2  0  0  0
 72151  1  0  0  0
 73 74  1  0  0  0
 73 75  2  0  0  0
 73 79  1  0  0  0
 74 84  1  0  0  0
 75 86  1  0  0  0
 76 87  1  0  0  0
 77 81  1  0  0  0
 77 86  1  0  0  0
 77 89  2  0  0  0
 78 79  2  0  0  0
 78152  1  0  0  0
 78153  1  0  0  0
 79154  1  0  0  0
 80 85  1  0  0  0
 80 87  1  0  0  0
 80 90  2  0  0  0
 81 82  1  0  0  0
 81155  1  0  0  0
 81156  1  0  0  0
 82 83  1  0  0  0
 82157  1  0  0  0
 82158  1  0  0  0
 83 86  1  0  0  0
 83159  1  0  0  0
 83160  1  0  0  0
 84 88  1  0  0  0
 84161  1  0  0  0
 84162  1  0  0  0
 85163  1  0  0  0
 85164  1  0  0  0
 87165  1  0  0  0
 88166  1  0  0  0
M  ISO  4   1 100  68 101  85 101  88 100
M  END
> <chiral flag>
0

> <version>
0

> <s_m_source_file>
/data/baiqing/PycharmProjects/Reinvent-master-3.2/result/LINK_invent/BTK/process_docking_weight1_custom_product_contain_oxygen_bond_distance_aromatic_linkinvent_7_9_3/rearranged_h_0069.sdf

> <i_m_source_file_index>
65

> <r_mmod_Potential_Energy-OPLS-2005>
215.586334228516

> <r_mmod_Stretch_Energy-OPLS-2005>
130.310806274414

> <r_mmod_Bend_Energy-OPLS-2005>
189.898910522461

> <r_mmod_Torsional_Energy-OPLS-2005>
324.402282714844

> <r_mmod_Improper_Torsional_Energy-OPLS-2005>
8.77481651306152

> <r_mmod_Van_der_Waal_Energy-OPLS-2005>
145.682022094727

> <r_mmod_Electrostatic_Energy-OPLS-2005>
-399.040588378906

> <r_mmod_Solvation_Energy-OPLS-2005>
-269.433044433594

> <b_mmod_Minimization_Converged-OPLS-2005>
0

> <r_mmod_RMS_Derivative-OPLS-2005>
3.26781225204468

$$$$
67
                    3D
 Structure written by MMmdl.
151160  0  0  1  0            999 V2000
  -30.5959  -14.7812   20.5963 C   0  0  0  0  0  0
  -30.4243  -12.5242   19.4429 C   0  0  0  0  0  0
  -29.4870  -12.5891   18.2098 C   0  0  0  0  0  0
  -28.0097  -12.4204   18.6171 C   0  0  0  0  0  0
  -27.6313  -13.2498   19.8732 C   0  0  2  0  0  0
  -28.6882  -13.0995   20.9853 C   0  0  0  0  0  0
  -25.2328  -13.8226   20.5771 C   0  0  0  0  0  0
  -24.1665  -13.0450   20.9280 C   0  0  0  0  0  0
  -24.6327  -11.6949   20.8832 C   0  0  0  0  0  0
  -23.9061  -10.4301   21.0431 C   0  0  0  0  0  0
  -24.3562   -9.4178   21.9220 C   0  0  0  0  0  0
  -23.6204   -8.2231   22.0807 C   0  0  0  0  0  0
  -22.4245   -8.0275   21.3564 C   0  0  0  0  0  0
  -21.9892   -9.0227   20.4697 C   0  0  0  0  0  0
  -22.7220  -10.2119   20.3085 C   0  0  0  0  0  0
  -21.6827   -6.0742   22.5281 C   0  0  0  0  0  0
  -21.3981   -6.5645   23.8209 C   0  0  0  0  0  0
  -21.3639   -5.6790   24.9172 C   0  0  0  0  0  0
  -21.6045   -4.3053   24.7196 C   0  0  0  0  0  0
  -21.8773   -3.8148   23.4311 C   0  0  0  0  0  0
  -21.9148   -4.6973   22.3376 C   0  0  0  0  0  0
  -22.7681  -13.5236   21.1788 C   0  0  0  0  0  0
  -22.1657   -4.2183   21.0929 F   0  0  0  0  0  0
  -21.5601   -3.4557   25.7706 F   0  0  0  0  0  0
  -29.9680  -13.5520   20.4227 N   0  0  0  0  0  0
  -26.2805  -12.9506   20.3385 N   0  0  0  0  0  0
  -25.9243  -11.6637   20.5745 N   0  0  0  0  0  0
  -22.0192  -12.8405   22.0391 N   0  0  0  0  0  0
  -25.3825  -15.1971   20.4045 N   0  0  0  0  0  0
  -31.7797  -14.8762   20.2594 O   0  0  0  0  0  0
  -21.6583   -6.8910   21.4274 O   0  0  0  0  0  0
  -22.3420  -14.5508   20.6518 O   0  0  0  0  0  0
  -24.6380  -31.8535   23.2002 C   0  0  0  0  0  0
  -25.9228  -32.4780   23.8269 C   0  0  1  0  0  0
  -27.1123  -27.1101   20.2017 C   0  0  0  0  0  0
  -25.5936  -33.8552   24.2161 N   0  0  0  0  0  0
  -23.4305  -30.4942   21.5427 C   0  0  2  0  0  0
  -24.8685  -28.9382   20.0815 C   0  0  0  0  0  0
  -22.7571  -29.4620   22.4875 C   0  0  0  0  0  0
  -18.0446  -28.1433   22.8628 C   0  0  0  0  0  0
  -24.1476  -36.7264   23.2627 C   0  0  0  0  0  0
  -25.9799  -30.7212   21.4056 C   0  0  0  0  0  0
  -26.0337  -29.3340   20.7506 C   0  0  0  0  0  0
  -27.1561  -28.4235   20.8095 C   0  0  0  0  0  0
  -25.9753  -26.8597   19.4032 C   0  0  0  0  0  0
  -24.8651  -27.7293   19.3688 C   0  0  0  0  0  0
  -23.6471  -29.8505   20.1484 C   0  0  0  0  0  0
  -25.4114  -36.3033   24.0271 C   0  0  1  0  0  0
  -20.6000  -28.3837   23.1443 C   0  0  2  0  0  0
  -20.6901  -26.9585   22.5538 C   0  0  0  0  0  0
  -19.5857  -26.6766   21.5199 C   0  0  0  0  0  0
  -18.2171  -26.7905   22.1870 C   0  0  0  0  0  0
  -19.1676  -28.9040   23.2937 C   0  0  0  0  0  0
  -18.9515  -30.1796   23.8746 C   0  0  0  0  0  0
  -17.6452  -30.6855   24.0351 C   0  0  0  0  0  0
  -25.9037  -34.9423   23.5026 C   0  0  0  0  0  0
  -16.5407  -29.9241   23.6273 C   0  0  0  0  0  0
  -16.7396  -28.6545   23.0510 C   0  0  0  0  0  0
  -26.4505  -31.6615   25.0700 C   0  0  0  0  0  0
  -25.3594  -31.3809   26.1308 C   0  0  0  0  0  0
  -27.0380  -30.3053   24.6219 C   0  0  0  0  0  0
  -27.6018  -32.4304   25.7495 C   0  0  0  0  0  0
  -27.5565  -37.1792   24.8464 C   0  0  0  0  0  0
  -21.4249  -29.3130   22.3689 N   0  0  0  0  0  0
  -26.4308  -37.3774   23.9365 N   0  0  0  0  0  0
  -24.7010  -31.0393   22.1074 N   0  0  0  0  0  0
  -23.4300  -28.8084   23.2910 O   0  0  0  0  0  0
  -28.1033  -26.0900   20.4074 O   0  0  0  0  0  0
  -26.5665  -34.8907   22.4637 O   0  0  0  0  0  0
  -23.5510  -32.1374   23.7315 O   0  0  0  0  0  0
  -30.8410  -19.9284   22.3643 C   0  0  0  0  0  0
  -31.5980  -18.7827   22.7099 C   0  0  0  0  0  0
  -29.3815  -18.5496   21.0574 C   0  0  0  0  0  0
  -29.6718  -19.9260   21.5302 C   0  0  0  0  0  0
  -30.1534  -17.3187   21.3579 C   0  0  0  0  0  0
  -31.2498  -17.4959   22.2510 C   0  0  0  0  0  0
  -29.1233  -22.5863   21.8552 C   0  0  0  0  0  0
  -28.0263  -21.8120   20.3420 C   0  0  0  0  0  0
  -27.8954  -23.2215   21.0917 C   0  0  0  0  0  0
  -27.9435  -24.5674   20.1057 C   0  0  0  0  0  0
  -28.9591  -21.2686   21.2923 N   0  0  0  0  0  0
  -29.8212  -15.9221   20.8657 N   0  0  0  0  0  0
  -29.9050  -22.9907   22.7101 O   0  0  0  0  0  0
  -27.5488  -21.3368   19.3157 O   0  0  0  0  0  0
  -31.9765  -16.4385   22.7071 F   0  0  0  0  0  0
  -31.4529  -12.6776   19.1241 H   0  0  0  0  0  0
  -30.4006  -11.5232   19.8840 H   0  0  0  0  0  0
  -29.7671  -11.8597   17.4483 H   0  0  0  0  0  0
  -29.6025  -13.5604   17.7252 H   0  0  0  0  0  0
  -27.8158  -11.3663   18.7923 H   0  0  0  0  0  0
  -27.3741  -12.7176   17.7814 H   0  0  0  0  0  0
  -27.6418  -14.2923   19.5653 H   0  0  0  0  0  0
  -28.7544  -12.0463   21.2751 H   0  0  0  0  0  0
  -28.4083  -13.6466   21.8838 H   0  0  0  0  0  0
  -25.2632   -9.5679   22.4928 H   0  0  0  0  0  0
  -23.9857   -7.4659   22.7611 H   0  0  0  0  0  0
  -21.0805   -8.8719   19.9068 H   0  0  0  0  0  0
  -22.3559  -10.9659   19.6260 H   0  0  0  0  0  0
  -21.2027   -7.6166   23.9743 H   0  0  0  0  0  0
  -21.1520   -6.0542   25.9080 H   0  0  0  0  0  0
  -22.0590   -2.7636   23.2789 H   0  0  0  0  0  0
  -22.3597  -12.0067   22.4969 H   0  0  0  0  0  0
  -21.0846  -13.1769   22.2341 H   0  0  0  0  0  0
  -24.5446  -15.7721   20.3289 H   0  0  0  0  0  0
  -26.1680  -15.5975   19.9036 H   0  0  0  0  0  0
  -26.7228  -32.5443   23.0907 H   0  0  0  0  0  0
  -24.9948  -33.9561   25.0207 H   0  0  0  0  0  0
  -22.7302  -31.3205   21.4167 H   0  0  0  0  0  0
  -23.3768  -35.9614   23.3340 H   0  0  0  0  0  0
  -24.3524  -36.8893   22.2045 H   0  0  0  0  0  0
  -23.7243  -37.6449   23.6687 H   0  0  0  0  0  0
  -26.1127  -31.4693   20.6242 H   0  0  0  0  0  0
  -26.8624  -30.7903   22.0299 H   0  0  0  0  0  0
  -28.0135  -28.6920   21.4073 H   0  0  0  0  0  0
  -25.8798  -25.9768   18.7950 H   0  0  0  0  0  0
  -24.0025  -27.4844   18.7535 H   0  0  0  0  0  0
  -23.7619  -30.6397   19.4057 H   0  0  0  0  0  0
  -22.7650  -29.2899   19.8387 H   0  0  0  0  0  0
  -25.1352  -36.1850   25.0792 H   0  0  0  0  0  0
  -21.0023  -28.3531   24.1582 H   0  0  0  0  0  0
  -20.5672  -26.2546   23.3757 H   0  0  0  0  0  0
  -21.6801  -26.7640   22.1313 H   0  0  0  0  0  0
  -19.7108  -25.6846   21.0837 H   0  0  0  0  0  0
  -19.6531  -27.3986   20.6932 H   0  0  0  0  0  0
  -17.4240  -26.6297   21.4531 H   0  0  0  0  0  0
  -18.1208  -26.0240   22.9497 H   0  0  0  0  0  0
  -19.7996  -30.7839   24.1930 H   0  0  0  0  0  0
  -17.4945  -31.6659   24.4587 H   0  0  0  0  0  0
  -15.5369  -30.3138   23.7283 H   0  0  0  0  0  0
  -15.8841  -28.0722   22.7193 H   0  0  0  0  0  0
  -24.5788  -30.7179   25.7549 H   0  0  0  0  0  0
  -24.8707  -32.2986   26.4596 H   0  0  0  0  0  0
  -25.7725  -30.9001   27.0171 H   0  0  0  0  0  0
  -26.2974  -29.6825   24.1168 H   0  0  0  0  0  0
  -27.4022  -29.7324   25.4752 H   0  0  0  0  0  0
  -27.8894  -30.4415   23.9536 H   0  0  0  0  0  0
  -27.2680  -33.3654   26.2007 H   0  0  0  0  0  0
  -28.3907  -32.6759   25.0374 H   0  0  0  0  0  0
  -28.0590  -31.8414   26.5456 H   0  0  0  0  0  0
  -28.2590  -38.0059   24.7498 H   0  0  0  0  0  0
  -28.1003  -36.2585   24.6350 H   0  0  0  0  0  0
  -27.2200  -37.1509   25.8831 H   0  0  0  0  0  0
  -20.9349  -29.8862   21.6940 H   0  0  0  0  0  0
  -26.0167  -38.2854   24.1432 H   0  0  0  0  0  0
  -31.2269  -20.8413   22.8092 H   0  0  0  0  0  0
  -32.4641  -18.8948   23.3596 H   0  0  0  0  0  0
  -28.5018  -18.4394   20.4381 H   0  0  0  0  0  0
  -27.0191  -23.2664   21.7530 H   0  0  0  0  0  0
  -27.0952  -24.4444   19.4187 H   0  0  0  0  0  0
  -28.7787  -24.3560   19.4406 H   0  0  0  0  0  0
  -28.8352  -15.7737   20.7006 H   0  0  0  0  0  0
  1 25  1  0  0  0
  1 30  2  0  0  0
  1 82  1  0  0  0
  2  3  1  0  0  0
  2 25  1  0  0  0
  2 86  1  0  0  0
  2 87  1  0  0  0
  3  4  1  0  0  0
  3 88  1  0  0  0
  3 89  1  0  0  0
  4  5  1  0  0  0
  4 90  1  0  0  0
  4 91  1  0  0  0
  5  6  1  0  0  0
  5 26  1  0  0  0
  5 92  1  0  0  0
  6 25  1  0  0  0
  6 93  1  0  0  0
  6 94  1  0  0  0
  7  8  2  0  0  0
  7 26  1  0  0  0
  7 29  1  0  0  0
  8  9  1  0  0  0
  8 22  1  0  0  0
  9 10  1  0  0  0
  9 27  2  0  0  0
 10 11  2  0  0  0
 10 15  1  0  0  0
 11 12  1  0  0  0
 11 95  1  0  0  0
 12 13  2  0  0  0
 12 96  1  0  0  0
 13 14  1  0  0  0
 13 31  1  0  0  0
 14 15  2  0  0  0
 14 97  1  0  0  0
 15 98  1  0  0  0
 16 17  2  0  0  0
 16 21  1  0  0  0
 16 31  1  0  0  0
 17 18  1  0  0  0
 17 99  1  0  0  0
 18 19  2  0  0  0
 18100  1  0  0  0
 19 20  1  0  0  0
 19 24  1  0  0  0
 20 21  2  0  0  0
 20101  1  0  0  0
 21 23  1  0  0  0
 22 28  1  0  0  0
 22 32  2  0  0  0
 26 27  1  0  0  0
 28102  1  0  0  0
 28103  1  0  0  0
 29104  1  0  0  0
 29105  1  0  0  0
 33 34  1  0  0  0
 33 66  1  0  0  0
 33 70  2  0  0  0
 34 36  1  0  0  0
 34 59  1  0  0  0
 34106  1  0  0  0
 35 44  2  0  0  0
 35 45  1  0  0  0
 35 68  1  0  0  0
 36 56  1  0  0  0
 36107  1  0  0  0
 37 39  1  0  0  0
 37 47  1  0  0  0
 37 66  1  0  0  0
 37108  1  0  0  0
 38 43  2  0  0  0
 38 46  1  0  0  0
 38 47  1  0  0  0
 39 64  1  0  0  0
 39 67  2  0  0  0
 40 52  1  0  0  0
 40 53  2  0  0  0
 40 58  1  0  0  0
 41109  1  0  0  0
 41110  1  0  0  0
 41111  1  0  0  0
 41 48  1  0  0  0
 42 43  1  0  0  0
 42 66  1  0  0  0
 42112  1  0  0  0
 42113  1  0  0  0
 43 44  1  0  0  0
 44114  1  0  0  0
 45 46  2  0  0  0
 45115  1  0  0  0
 46116  1  0  0  0
 47117  1  0  0  0
 47118  1  0  0  0
 48 56  1  0  0  0
 48 65  1  0  0  0
 48119  1  0  0  0
 49 50  1  0  0  0
 49 53  1  0  0  0
 49 64  1  0  0  0
 49120  1  0  0  0
 50 51  1  0  0  0
 50121  1  0  0  0
 50122  1  0  0  0
 51 52  1  0  0  0
 51123  1  0  0  0
 51124  1  0  0  0
 52125  1  0  0  0
 52126  1  0  0  0
 53 54  1  0  0  0
 54 55  2  0  0  0
 54127  1  0  0  0
 55 57  1  0  0  0
 55128  1  0  0  0
 56 69  2  0  0  0
 57 58  2  0  0  0
 57129  1  0  0  0
 58130  1  0  0  0
 59 60  1  0  0  0
 59 61  1  0  0  0
 59 62  1  0  0  0
 60131  1  0  0  0
 60132  1  0  0  0
 60133  1  0  0  0
 61134  1  0  0  0
 61135  1  0  0  0
 61136  1  0  0  0
 62137  1  0  0  0
 62138  1  0  0  0
 62139  1  0  0  0
 63 65  1  0  0  0
 63140  1  0  0  0
 63141  1  0  0  0
 63142  1  0  0  0
 64143  1  0  0  0
 65144  1  0  0  0
 68 80  1  0  0  0
 71 72  2  0  0  0
 71 74  1  0  0  0
 71145  1  0  0  0
 72 76  1  0  0  0
 72146  1  0  0  0
 73 74  2  0  0  0
 73 75  1  0  0  0
 73147  1  0  0  0
 74 81  1  0  0  0
 75 76  2  0  0  0
 75 82  1  0  0  0
 76 85  1  0  0  0
 77 79  1  0  0  0
 77 81  1  0  0  0
 77 83  2  0  0  0
 78 79  1  0  0  0
 78 81  1  0  0  0
 78 84  2  0  0  0
 79 80  1  0  0  0
 79148  1  0  0  0
 80149  1  0  0  0
 80150  1  0  0  0
 82151  1  0  0  0
M  ISO  4   1 100  68 101  80 101  82 100
M  END
> <chiral flag>
0

> <version>
0

> <s_m_source_file>
/data/baiqing/PycharmProjects/Reinvent-master-3.2/result/LINK_invent/BTK/process_docking_weight1_custom_product_contain_oxygen_bond_distance_aromatic_linkinvent_7_9_3/rearranged_h_0069.sdf

> <i_m_source_file_index>
66

> <r_mmod_Potential_Energy-OPLS-2005>
311.701446533203

> <r_mmod_Stretch_Energy-OPLS-2005>
218.647109985352

> <r_mmod_Bend_Energy-OPLS-2005>
257.938385009766

> <r_mmod_Torsional_Energy-OPLS-2005>
216.224151611328

> <r_mmod_Improper_Torsional_Energy-OPLS-2005>
10.1555337905884

> <r_mmod_Van_der_Waal_Energy-OPLS-2005>
132.927139282227

> <r_mmod_Electrostatic_Energy-OPLS-2005>
-461.158203125

> <r_mmod_Solvation_Energy-OPLS-2005>
-234.753265380859

> <b_mmod_Minimization_Converged-OPLS-2005>
0

> <r_mmod_RMS_Derivative-OPLS-2005>
20.1402225494385

$$$$
68
                    3D
 Structure written by MMmdl.
152160  0  0  1  0            999 V2000
  -30.6086  -14.6552   20.4954 C   0  0  0  0  0  0
  -30.4411  -12.4009   19.4544 C   0  0  0  0  0  0
  -29.5100  -12.5067   18.2252 C   0  0  0  0  0  0
  -28.0327  -12.3410   18.6359 C   0  0  0  0  0  0
  -27.6524  -13.2141   19.8609 C   0  0  2  0  0  0
  -28.6965  -13.0727   20.9920 C   0  0  0  0  0  0
  -25.2557  -13.8161   20.5661 C   0  0  0  0  0  0
  -24.1831  -13.0435   20.9203 C   0  0  0  0  0  0
  -24.6393  -11.6904   20.8748 C   0  0  0  0  0  0
  -23.9061  -10.4289   21.0411 C   0  0  0  0  0  0
  -24.3615   -9.4204   21.9185 C   0  0  0  0  0  0
  -23.6290   -8.2242   22.0757 C   0  0  0  0  0  0
  -22.4272   -8.0281   21.3547 C   0  0  0  0  0  0
  -21.9905   -9.0257   20.4651 C   0  0  0  0  0  0
  -22.7234  -10.2135   20.3059 C   0  0  0  0  0  0
  -21.6853   -6.0733   22.5278 C   0  0  0  0  0  0
  -21.4015   -6.5636   23.8211 C   0  0  0  0  0  0
  -21.3659   -5.6790   24.9174 C   0  0  0  0  0  0
  -21.6044   -4.3054   24.7224 C   0  0  0  0  0  0
  -21.8820   -3.8145   23.4345 C   0  0  0  0  0  0
  -21.9193   -4.6961   22.3400 C   0  0  0  0  0  0
  -22.7854  -13.5234   21.1858 C   0  0  0  0  0  0
  -22.1663   -4.2148   21.0977 F   0  0  0  0  0  0
  -21.5627   -3.4537   25.7736 F   0  0  0  0  0  0
  -30.0110  -13.4222   20.4305 N   0  0  0  0  0  0
  -26.2979  -12.9335   20.3292 N   0  0  0  0  0  0
  -25.9317  -11.6496   20.5751 N   0  0  0  0  0  0
  -22.0488  -12.8235   22.0413 N   0  0  0  0  0  0
  -25.4253  -15.1877   20.4004 N   0  0  0  0  0  0
  -31.7739  -14.8183   20.1196 O   0  0  0  0  0  0
  -21.6638   -6.8877   21.4241 O   0  0  0  0  0  0
  -22.3547  -14.5540   20.6700 O   0  0  0  0  0  0
  -24.6256  -31.8597   23.2018 C   0  0  0  0  0  0
  -25.9104  -32.4779   23.8350 C   0  0  1  0  0  0
  -27.2262  -27.3188   20.1258 C   0  0  0  0  0  0
  -25.5919  -33.8580   24.2279 N   0  0  0  0  0  0
  -23.4198  -30.4821   21.5443 C   0  0  2  0  0  0
  -24.8675  -28.9332   20.1143 C   0  0  0  0  0  0
  -22.7472  -29.4622   22.4938 C   0  0  0  0  0  0
  -18.0287  -28.1385   22.8487 C   0  0  0  0  0  0
  -24.1490  -36.7296   23.2640 C   0  0  0  0  0  0
  -25.9599  -30.7904   21.3728 C   0  0  0  0  0  0
  -26.0355  -29.4162   20.7185 C   0  0  0  0  0  0
  -27.2195  -28.6212   20.7125 C   0  0  0  0  0  0
  -26.0399  -26.8891   19.4921 C   0  0  0  0  0  0
  -24.8712  -27.6747   19.4920 C   0  0  0  0  0  0
  -23.6353  -29.8138   20.1608 C   0  0  0  0  0  0
  -25.4115  -36.3085   24.0330 C   0  0  1  0  0  0
  -20.5886  -28.3690   23.1285 C   0  0  2  0  0  0
  -20.6776  -26.9413   22.5409 C   0  0  0  0  0  0
  -19.5750  -26.6386   21.5212 C   0  0  0  0  0  0
  -18.1932  -26.7929   22.1628 C   0  0  0  0  0  0
  -19.1538  -28.8856   23.2882 C   0  0  0  0  0  0
  -18.9461  -30.1459   23.8897 C   0  0  0  0  0  0
  -17.6461  -30.6588   24.0564 C   0  0  0  0  0  0
  -25.9049  -34.9452   23.5106 C   0  0  0  0  0  0
  -16.5353  -29.9086   23.6328 C   0  0  0  0  0  0
  -16.7274  -28.6504   23.0349 C   0  0  0  0  0  0
  -26.4491  -31.6589   25.0720 C   0  0  0  0  0  0
  -25.3727  -31.3729   26.1451 C   0  0  0  0  0  0
  -27.0332  -30.3014   24.6171 C   0  0  0  0  0  0
  -27.6056  -32.4320   25.7484 C   0  0  0  0  0  0
  -27.5577  -37.1809   24.8469 C   0  0  0  0  0  0
  -21.4186  -29.3043   22.3678 N   0  0  0  0  0  0
  -26.4298  -37.3774   23.9401 N   0  0  0  0  0  0
  -24.6871  -31.0608   22.0967 N   0  0  0  0  0  0
  -23.4196  -28.8164   23.3019 O   0  0  0  0  0  0
  -28.3470  -26.4779   20.1400 O   0  0  0  0  0  0
  -26.5619  -34.8918   22.4674 O   0  0  0  0  0  0
  -23.5420  -32.1395   23.7346 O   0  0  0  0  0  0
  -28.6324  -19.3423   20.4867 C   0  0  0  0  0  0
  -31.0039  -19.2932   20.1130 C   0  0  0  0  0  0
  -28.6626  -17.9300   20.7206 C   0  0  0  0  0  0
  -31.0316  -17.8812   20.3323 C   0  0  0  0  0  0
  -29.8048  -20.0689   20.1527 C   0  0  0  0  0  0
  -29.8518  -17.1482   20.6236 C   0  0  0  0  0  0
  -29.8183  -21.5337   19.7250 C   0  0  0  0  0  0
  -29.1110  -24.0207   19.8406 C   0  0  0  0  0  0
  -28.1585  -25.0592   20.5506 C   0  0  0  0  0  0
  -29.7816  -15.6974   20.8343 N   0  0  0  0  0  0
  -29.0930  -22.5871   20.2567 N   0  0  0  0  0  0
  -30.6359  -21.7852   18.6964 N   0  3  0  0  0  0
  -29.8615  -24.4039   18.9324 O   0  0  0  0  0  0
  -31.4816  -12.5327   19.1518 H   0  0  0  0  0  0
  -30.3830  -11.4058   19.8984 H   0  0  0  0  0  0
  -29.7776  -11.7521   17.4843 H   0  0  0  0  0  0
  -29.6494  -13.4737   17.7395 H   0  0  0  0  0  0
  -27.8727  -11.2882   18.8709 H   0  0  0  0  0  0
  -27.3787  -12.5662   17.7928 H   0  0  0  0  0  0
  -27.6687  -14.2477   19.5157 H   0  0  0  0  0  0
  -28.7114  -12.0505   21.3733 H   0  0  0  0  0  0
  -28.4382  -13.7027   21.8448 H   0  0  0  0  0  0
  -25.2762   -9.5679   22.4756 H   0  0  0  0  0  0
  -24.0000   -7.4631   22.7474 H   0  0  0  0  0  0
  -21.0836   -8.8778   19.8956 H   0  0  0  0  0  0
  -22.3695  -10.9676   19.6170 H   0  0  0  0  0  0
  -21.2009   -7.6145   23.9716 H   0  0  0  0  0  0
  -21.1477   -6.0519   25.9077 H   0  0  0  0  0  0
  -22.0600   -2.7607   23.2846 H   0  0  0  0  0  0
  -22.4095  -11.9898   22.4811 H   0  0  0  0  0  0
  -21.1108  -13.1275   22.2612 H   0  0  0  0  0  0
  -24.6411  -15.8271   20.4704 H   0  0  0  0  0  0
  -26.2378  -15.6073   19.9683 H   0  0  0  0  0  0
  -26.7173  -32.5451   23.1099 H   0  0  0  0  0  0
  -25.0065  -33.9726   25.0422 H   0  0  0  0  0  0
  -22.7135  -31.3021   21.3995 H   0  0  0  0  0  0
  -23.3742  -35.9641   23.3325 H   0  0  0  0  0  0
  -24.3577  -36.8892   22.2050 H   0  0  0  0  0  0
  -23.7259  -37.6512   23.6646 H   0  0  0  0  0  0
  -26.0900  -31.5520   20.6027 H   0  0  0  0  0  0
  -26.8408  -30.8416   22.0010 H   0  0  0  0  0  0
  -28.1173  -28.9886   21.1896 H   0  0  0  0  0  0
  -26.0049  -25.9333   18.9896 H   0  0  0  0  0  0
  -23.9782  -27.3014   19.0097 H   0  0  0  0  0  0
  -23.7544  -30.5886   19.4025 H   0  0  0  0  0  0
  -22.7553  -29.2426   19.8596 H   0  0  0  0  0  0
  -25.1297  -36.1942   25.0823 H   0  0  0  0  0  0
  -20.9980  -28.3265   24.1405 H   0  0  0  0  0  0
  -20.5677  -26.2299   23.3609 H   0  0  0  0  0  0
  -21.6645  -26.7446   22.1200 H   0  0  0  0  0  0
  -19.6911  -25.6297   21.1241 H   0  0  0  0  0  0
  -19.6683  -27.3196   20.6741 H   0  0  0  0  0  0
  -17.4198  -26.6672   21.4035 H   0  0  0  0  0  0
  -18.0336  -26.0074   22.9027 H   0  0  0  0  0  0
  -19.7938  -30.7277   24.2261 H   0  0  0  0  0  0
  -17.5014  -31.6268   24.5168 H   0  0  0  0  0  0
  -15.5353  -30.2986   23.7653 H   0  0  0  0  0  0
  -15.8675  -28.0823   22.7059 H   0  0  0  0  0  0
  -24.5894  -30.7086   25.7782 H   0  0  0  0  0  0
  -24.8927  -32.2897   26.4884 H   0  0  0  0  0  0
  -25.8053  -30.8901   27.0221 H   0  0  0  0  0  0
  -26.2904  -29.6761   24.1203 H   0  0  0  0  0  0
  -27.4042  -29.7274   25.4674 H   0  0  0  0  0  0
  -27.8767  -30.4303   23.9384 H   0  0  0  0  0  0
  -27.2677  -33.3627   26.2054 H   0  0  0  0  0  0
  -28.3866  -32.6868   25.0307 H   0  0  0  0  0  0
  -28.0720  -31.8446   26.5403 H   0  0  0  0  0  0
  -28.2617  -38.0084   24.7488 H   0  0  0  0  0  0
  -28.1051  -36.2615   24.6333 H   0  0  0  0  0  0
  -27.2291  -37.1506   25.8873 H   0  0  0  0  0  0
  -20.9361  -29.8765   21.6890 H   0  0  0  0  0  0
  -26.0182  -38.2857   24.1376 H   0  0  0  0  0  0
  -27.6811  -19.8549   20.5262 H   0  0  0  0  0  0
  -31.9402  -19.7799   19.8768 H   0  0  0  0  0  0
  -27.7286  -17.4390   20.9544 H   0  0  0  0  0  0
  -31.9804  -17.3684   20.2613 H   0  0  0  0  0  0
  -28.3455  -25.0015   21.6228 H   0  0  0  0  0  0
  -27.1366  -24.7114   20.4104 H   0  0  0  0  0  0
  -28.8787  -15.3717   21.1405 H   0  0  0  0  0  0
  -28.4998  -22.2853   21.0149 H   0  0  0  0  0  0
  -31.1241  -21.0354   18.2330 H   0  0  0  0  0  0
  -30.7101  -22.7354   18.3527 H   0  0  0  0  0  0
  1 25  1  0  0  0
  1 30  2  0  0  0
  1 80  1  0  0  0
  2  3  1  0  0  0
  2 25  1  0  0  0
  2 84  1  0  0  0
  2 85  1  0  0  0
  3  4  1  0  0  0
  3 86  1  0  0  0
  3 87  1  0  0  0
  4  5  1  0  0  0
  4 88  1  0  0  0
  4 89  1  0  0  0
  5  6  1  0  0  0
  5 26  1  0  0  0
  5 90  1  0  0  0
  6 25  1  0  0  0
  6 91  1  0  0  0
  6 92  1  0  0  0
  7  8  2  0  0  0
  7 26  1  0  0  0
  7 29  1  0  0  0
  8  9  1  0  0  0
  8 22  1  0  0  0
  9 10  1  0  0  0
  9 27  2  0  0  0
 10 11  2  0  0  0
 10 15  1  0  0  0
 11 12  1  0  0  0
 11 93  1  0  0  0
 12 13  2  0  0  0
 12 94  1  0  0  0
 13 14  1  0  0  0
 13 31  1  0  0  0
 14 15  2  0  0  0
 14 95  1  0  0  0
 15 96  1  0  0  0
 16 17  2  0  0  0
 16 21  1  0  0  0
 16 31  1  0  0  0
 17 18  1  0  0  0
 17 97  1  0  0  0
 18 19  2  0  0  0
 18 98  1  0  0  0
 19 20  1  0  0  0
 19 24  1  0  0  0
 20 21  2  0  0  0
 20 99  1  0  0  0
 21 23  1  0  0  0
 22 28  1  0  0  0
 22 32  2  0  0  0
 26 27  1  0  0  0
 28100  1  0  0  0
 28101  1  0  0  0
 29102  1  0  0  0
 29103  1  0  0  0
 33 34  1  0  0  0
 33 66  1  0  0  0
 33 70  2  0  0  0
 34 36  1  0  0  0
 34 59  1  0  0  0
 34104  1  0  0  0
 35 44  2  0  0  0
 35 45  1  0  0  0
 35 68  1  0  0  0
 36 56  1  0  0  0
 36105  1  0  0  0
 37 39  1  0  0  0
 37 47  1  0  0  0
 37 66  1  0  0  0
 37106  1  0  0  0
 38 43  2  0  0  0
 38 46  1  0  0  0
 38 47  1  0  0  0
 39 64  1  0  0  0
 39 67  2  0  0  0
 40 52  1  0  0  0
 40 53  2  0  0  0
 40 58  1  0  0  0
 41107  1  0  0  0
 41108  1  0  0  0
 41109  1  0  0  0
 41 48  1  0  0  0
 42 43  1  0  0  0
 42 66  1  0  0  0
 42110  1  0  0  0
 42111  1  0  0  0
 43 44  1  0  0  0
 44112  1  0  0  0
 45 46  2  0  0  0
 45113  1  0  0  0
 46114  1  0  0  0
 47115  1  0  0  0
 47116  1  0  0  0
 48 56  1  0  0  0
 48 65  1  0  0  0
 48117  1  0  0  0
 49 50  1  0  0  0
 49 53  1  0  0  0
 49 64  1  0  0  0
 49118  1  0  0  0
 50 51  1  0  0  0
 50119  1  0  0  0
 50120  1  0  0  0
 51 52  1  0  0  0
 51121  1  0  0  0
 51122  1  0  0  0
 52123  1  0  0  0
 52124  1  0  0  0
 53 54  1  0  0  0
 54 55  2  0  0  0
 54125  1  0  0  0
 55 57  1  0  0  0
 55126  1  0  0  0
 56 69  2  0  0  0
 57 58  2  0  0  0
 57127  1  0  0  0
 58128  1  0  0  0
 59 60  1  0  0  0
 59 61  1  0  0  0
 59 62  1  0  0  0
 60129  1  0  0  0
 60130  1  0  0  0
 60131  1  0  0  0
 61132  1  0  0  0
 61133  1  0  0  0
 61134  1  0  0  0
 62135  1  0  0  0
 62136  1  0  0  0
 62137  1  0  0  0
 63 65  1  0  0  0
 63138  1  0  0  0
 63139  1  0  0  0
 63140  1  0  0  0
 64141  1  0  0  0
 65142  1  0  0  0
 68 79  1  0  0  0
 71 73  2  0  0  0
 71 75  1  0  0  0
 71143  1  0  0  0
 72 74  1  0  0  0
 72 75  2  0  0  0
 72144  1  0  0  0
 73 76  1  0  0  0
 73145  1  0  0  0
 74 76  2  0  0  0
 74146  1  0  0  0
 75 77  1  0  0  0
 76 80  1  0  0  0
 77 81  1  0  0  0
 77 82  2  0  0  0
 78 79  1  0  0  0
 78 81  1  0  0  0
 78 83  2  0  0  0
 79147  1  0  0  0
 79148  1  0  0  0
 80149  1  0  0  0
 81150  1  0  0  0
 82151  1  0  0  0
 82152  1  0  0  0
M  CHG  1  82   1
M  ISO  4   1 100  68 101  79 101  80 100
M  END
> <chiral flag>
0

> <version>
0

> <s_m_source_file>
/data/baiqing/PycharmProjects/Reinvent-master-3.2/result/LINK_invent/BTK/process_docking_weight1_custom_product_contain_oxygen_bond_distance_aromatic_linkinvent_7_9_3/rearranged_h_0069.sdf

> <i_m_source_file_index>
67

> <r_mmod_Potential_Energy-OPLS-2005>
-213.933837890625

> <r_mmod_Stretch_Energy-OPLS-2005>
85.8899307250977

> <r_mmod_Bend_Energy-OPLS-2005>
144.363891601562

> <r_mmod_Torsional_Energy-OPLS-2005>
224.400650024414

> <r_mmod_Improper_Torsional_Energy-OPLS-2005>
5.34828853607178

> <r_mmod_Van_der_Waal_Energy-OPLS-2005>
156.283920288086

> <r_mmod_Electrostatic_Energy-OPLS-2005>
-419.147979736328

> <r_mmod_Solvation_Energy-OPLS-2005>
-461.139282226562

> <b_mmod_Minimization_Converged-OPLS-2005>
0

> <r_mmod_RMS_Derivative-OPLS-2005>
0.407842755317688

$$$$
69
                    3D
 Structure written by MMmdl.
158167  0  0  1  0            999 V2000
  -30.5635  -14.7451   20.3834 C   0  0  0  0  0  0
  -30.4366  -12.4476   19.4075 C   0  0  0  0  0  0
  -29.4662  -12.4177   18.2024 C   0  0  0  0  0  0
  -28.0168  -12.2110   18.6825 C   0  0  0  0  0  0
  -27.6240  -13.1873   19.8225 C   0  0  2  0  0  0
  -28.6871  -13.1176   20.9372 C   0  0  0  0  0  0
  -25.2424  -13.8172   20.5683 C   0  0  0  0  0  0
  -24.1699  -13.0419   20.9299 C   0  0  0  0  0  0
  -24.6201  -11.6882   20.8794 C   0  0  0  0  0  0
  -23.8915  -10.4244   21.0438 C   0  0  0  0  0  0
  -24.3490   -9.4177   21.9205 C   0  0  0  0  0  0
  -23.6214   -8.2185   22.0745 C   0  0  0  0  0  0
  -22.4225   -8.0186   21.3509 C   0  0  0  0  0  0
  -21.9810   -9.0158   20.4643 C   0  0  0  0  0  0
  -22.7089  -10.2071   20.3076 C   0  0  0  0  0  0
  -21.6824   -6.0684   22.5293 C   0  0  0  0  0  0
  -21.3971   -6.5593   23.8218 C   0  0  0  0  0  0
  -21.3677   -5.6757   24.9198 C   0  0  0  0  0  0
  -21.6045   -4.3040   24.7260 C   0  0  0  0  0  0
  -21.8826   -3.8102   23.4389 C   0  0  0  0  0  0
  -21.9170   -4.6898   22.3426 C   0  0  0  0  0  0
  -22.7718  -13.5232   21.1981 C   0  0  0  0  0  0
  -22.1624   -4.2068   21.1009 F   0  0  0  0  0  0
  -21.5667   -3.4545   25.7805 F   0  0  0  0  0  0
  -29.9722  -13.5041   20.3316 N   0  0  0  0  0  0
  -26.2789  -12.9223   20.3226 N   0  0  0  0  0  0
  -25.9116  -11.6436   20.5775 N   0  0  0  0  0  0
  -22.0317  -12.8193   22.0519 N   0  0  0  0  0  0
  -25.4258  -15.1867   20.4111 N   0  0  0  0  0  0
  -31.7779  -14.8648   20.1804 O   0  0  0  0  0  0
  -21.6604   -6.8784   21.4231 O   0  0  0  0  0  0
  -22.3397  -14.5558   20.6896 O   0  0  0  0  0  0
  -24.6470  -31.8475   23.1882 C   0  0  0  0  0  0
  -25.9263  -32.4658   23.8267 C   0  0  1  0  0  0
  -27.2081  -27.1835   20.0854 C   0  0  0  0  0  0
  -25.5990  -33.8476   24.2148 N   0  0  0  0  0  0
  -23.4456  -30.4704   21.5353 C   0  0  2  0  0  0
  -24.8778  -28.9074   20.0950 C   0  0  0  0  0  0
  -22.7598  -29.4609   22.4913 C   0  0  0  0  0  0
  -18.0295  -28.1416   22.8437 C   0  0  0  0  0  0
  -24.1463  -36.7213   23.2605 C   0  0  0  0  0  0
  -26.0065  -30.7077   21.4010 C   0  0  0  0  0  0
  -26.0549  -29.3360   20.7205 C   0  0  0  0  0  0
  -27.2145  -28.4861   20.7082 C   0  0  0  0  0  0
  -26.0183  -26.8660   19.3873 C   0  0  0  0  0  0
  -24.8713  -27.6849   19.4125 C   0  0  0  0  0  0
  -23.6549  -29.7997   20.1527 C   0  0  0  0  0  0
  -25.4085  -36.3016   24.0325 C   0  0  1  0  0  0
  -20.5904  -28.3754   23.1178 C   0  0  2  0  0  0
  -20.6741  -26.9459   22.5352 C   0  0  0  0  0  0
  -19.5720  -26.6416   21.5143 C   0  0  0  0  0  0
  -18.1902  -26.7970   22.1547 C   0  0  0  0  0  0
  -19.1553  -28.8915   23.2797 C   0  0  0  0  0  0
  -18.9505  -30.1490   23.8864 C   0  0  0  0  0  0
  -17.6514  -30.6599   24.0587 C   0  0  0  0  0  0
  -25.9103  -34.9400   23.5065 C   0  0  0  0  0  0
  -16.5383  -29.9094   23.6375 C   0  0  0  0  0  0
  -16.7281  -28.6516   23.0384 C   0  0  0  0  0  0
  -26.4455  -31.6607   25.0812 C   0  0  0  0  0  0
  -25.3561  -31.3988   26.1517 C   0  0  0  0  0  0
  -27.0176  -30.2884   24.6582 C   0  0  0  0  0  0
  -27.6137  -32.4319   25.7396 C   0  0  0  0  0  0
  -27.5617  -37.1640   24.8420 C   0  0  0  0  0  0
  -21.4322  -29.3076   22.3609 N   0  0  0  0  0  0
  -26.4199  -37.3805   23.9552 N   0  0  0  0  0  0
  -24.7195  -31.0342   22.0897 N   0  0  0  0  0  0
  -23.4240  -28.8229   23.3119 O   0  0  0  0  0  0
  -28.2754  -26.2359   20.1783 O   0  0  0  0  0  0
  -26.5725  -34.8953   22.4650 O   0  0  0  0  0  0
  -23.5593  -32.1369   23.7090 O   0  0  0  0  0  0
  -30.1663  -18.0644   16.7274 C   0  0  0  0  0  0
  -30.0592  -19.4417   16.5365 C   0  0  0  0  0  0
  -29.9950  -17.5287   18.0118 C   0  0  0  0  0  0
  -29.7179  -20.2604   17.6234 C   0  0  0  0  0  0
  -29.7682  -18.3111   19.1750 C   0  0  0  0  0  0
  -29.5520  -19.7848   18.9606 C   0  0  0  0  0  0
  -28.3735  -21.9813   19.6721 C   0  0  0  0  0  0
  -30.1873  -23.1453   20.5739 C   0  0  0  0  0  0
  -30.4227  -21.5927   20.5678 C   0  0  0  0  0  0
  -28.6820  -23.3829   20.3651 C   0  0  1  0  0  0
  -29.8859  -17.3882   20.4854 C   0  0  0  0  0  0
  -28.1503  -24.7891   19.6727 C   0  0  0  0  0  0
  -29.3033  -20.9603   19.8672 N   0  0  0  0  0  0
  -29.7158  -15.8441   20.4142 N   0  0  0  0  0  0
  -27.3326  -21.8421   19.0157 O   0  0  0  0  0  0
  -31.4524  -12.6250   19.0475 H   0  0  0  0  0  0
  -30.4629  -11.4760   19.9052 H   0  0  0  0  0  0
  -29.7385  -11.5970   17.5356 H   0  0  0  0  0  0
  -29.5365  -13.3317   17.6114 H   0  0  0  0  0  0
  -27.9655  -11.1882   19.0636 H   0  0  0  0  0  0
  -27.3061  -12.2386   17.8544 H   0  0  0  0  0  0
  -27.6143  -14.1859   19.3859 H   0  0  0  0  0  0
  -28.7361  -12.0934   21.3116 H   0  0  0  0  0  0
  -28.4288  -13.7456   21.7889 H   0  0  0  0  0  0
  -25.2613   -9.5713   22.4810 H   0  0  0  0  0  0
  -23.9978   -7.4564   22.7420 H   0  0  0  0  0  0
  -21.0780   -8.8604   19.8910 H   0  0  0  0  0  0
  -22.3499  -10.9589   19.6204 H   0  0  0  0  0  0
  -21.1912   -7.6093   23.9704 H   0  0  0  0  0  0
  -21.1510   -6.0507   25.9105 H   0  0  0  0  0  0
  -22.0592   -2.7555   23.2946 H   0  0  0  0  0  0
  -22.3834  -11.9807   22.4898 H   0  0  0  0  0  0
  -21.0929  -13.1219   22.2709 H   0  0  0  0  0  0
  -24.6913  -15.8670   20.5805 H   0  0  0  0  0  0
  -26.2839  -15.6117   20.0850 H   0  0  0  0  0  0
  -26.7386  -32.5150   23.1057 H   0  0  0  0  0  0
  -25.0095  -33.9545   25.0257 H   0  0  0  0  0  0
  -22.7506  -31.3001   21.3833 H   0  0  0  0  0  0
  -23.3860  -35.9395   23.2996 H   0  0  0  0  0  0
  -24.3668  -36.9098   22.2092 H   0  0  0  0  0  0
  -23.6982  -37.6241   23.6769 H   0  0  0  0  0  0
  -26.2248  -31.4669   20.6486 H   0  0  0  0  0  0
  -26.8567  -30.6974   22.0704 H   0  0  0  0  0  0
  -28.1119  -28.8050   21.2160 H   0  0  0  0  0  0
  -25.9252  -25.9690   18.7912 H   0  0  0  0  0  0
  -23.9883  -27.3742   18.8723 H   0  0  0  0  0  0
  -23.7735  -30.5689   19.3888 H   0  0  0  0  0  0
  -22.7683  -29.2374   19.8551 H   0  0  0  0  0  0
  -25.1186  -36.1807   25.0786 H   0  0  0  0  0  0
  -20.9978  -28.3304   24.1315 H   0  0  0  0  0  0
  -20.5531  -26.2423   23.3593 H   0  0  0  0  0  0
  -21.6614  -26.7379   22.1204 H   0  0  0  0  0  0
  -19.6886  -25.6339   21.1144 H   0  0  0  0  0  0
  -19.6622  -27.3251   20.6681 H   0  0  0  0  0  0
  -17.4171  -26.6776   21.3940 H   0  0  0  0  0  0
  -18.0285  -26.0082   22.8915 H   0  0  0  0  0  0
  -19.7994  -30.7279   24.2235 H   0  0  0  0  0  0
  -17.5060  -31.6255   24.5226 H   0  0  0  0  0  0
  -15.5381  -30.2973   23.7754 H   0  0  0  0  0  0
  -15.8673  -28.0790   22.7183 H   0  0  0  0  0  0
  -24.5920  -30.7050   25.7995 H   0  0  0  0  0  0
  -24.8506  -32.3183   26.4492 H   0  0  0  0  0  0
  -25.7794  -30.9625   27.0566 H   0  0  0  0  0  0
  -26.2759  -29.6704   24.1530 H   0  0  0  0  0  0
  -27.3512  -29.7198   25.5273 H   0  0  0  0  0  0
  -27.8825  -30.3948   24.0042 H   0  0  0  0  0  0
  -27.3010  -33.3886   26.1575 H   0  0  0  0  0  0
  -28.3999  -32.6389   25.0120 H   0  0  0  0  0  0
  -28.0680  -31.8645   26.5529 H   0  0  0  0  0  0
  -28.2421  -38.0154   24.7902 H   0  0  0  0  0  0
  -28.1302  -36.2774   24.5584 H   0  0  0  0  0  0
  -27.2472  -37.0515   25.8816 H   0  0  0  0  0  0
  -20.9673  -29.8736   21.6662 H   0  0  0  0  0  0
  -26.0060  -38.2797   24.1833 H   0  0  0  0  0  0
  -30.4006  -17.4160   15.8939 H   0  0  0  0  0  0
  -30.2424  -19.8693   15.5564 H   0  0  0  0  0  0
  -30.1040  -16.4585   18.0746 H   0  0  0  0  0  0
  -29.6309  -21.3154   17.3958 H   0  0  0  0  0  0
  -30.7557  -23.6157   19.7721 H   0  0  0  0  0  0
  -30.5273  -23.5914   21.5080 H   0  0  0  0  0  0
  -30.4954  -21.1837   21.5778 H   0  0  0  0  0  0
  -31.3599  -21.3439   20.0618 H   0  0  0  0  0  0
  -28.1898  -23.3194   21.3360 H   0  0  0  0  0  0
  -29.1659  -17.7501   21.2241 H   0  0  0  0  0  0
  -30.8665  -17.5708   20.9301 H   0  0  0  0  0  0
  -27.0936  -24.5618   19.5921 H   0  0  0  0  0  0
  -28.5226  -24.8005   18.6480 H   0  0  0  0  0  0
  -28.7550  -15.5413   20.4100 H   0  0  0  0  0  0
  1 25  1  0  0  0
  1 30  2  0  0  0
  1 84  1  0  0  0
  2  3  1  0  0  0
  2 25  1  0  0  0
  2 86  1  0  0  0
  2 87  1  0  0  0
  3  4  1  0  0  0
  3 88  1  0  0  0
  3 89  1  0  0  0
  4  5  1  0  0  0
  4 90  1  0  0  0
  4 91  1  0  0  0
  5  6  1  0  0  0
  5 26  1  0  0  0
  5 92  1  0  0  0
  6 25  1  0  0  0
  6 93  1  0  0  0
  6 94  1  0  0  0
  7  8  2  0  0  0
  7 26  1  0  0  0
  7 29  1  0  0  0
  8  9  1  0  0  0
  8 22  1  0  0  0
  9 10  1  0  0  0
  9 27  2  0  0  0
 10 11  2  0  0  0
 10 15  1  0  0  0
 11 12  1  0  0  0
 11 95  1  0  0  0
 12 13  2  0  0  0
 12 96  1  0  0  0
 13 14  1  0  0  0
 13 31  1  0  0  0
 14 15  2  0  0  0
 14 97  1  0  0  0
 15 98  1  0  0  0
 16 17  2  0  0  0
 16 21  1  0  0  0
 16 31  1  0  0  0
 17 18  1  0  0  0
 17 99  1  0  0  0
 18 19  2  0  0  0
 18100  1  0  0  0
 19 20  1  0  0  0
 19 24  1  0  0  0
 20 21  2  0  0  0
 20101  1  0  0  0
 21 23  1  0  0  0
 22 28  1  0  0  0
 22 32  2  0  0  0
 26 27  1  0  0  0
 28102  1  0  0  0
 28103  1  0  0  0
 29104  1  0  0  0
 29105  1  0  0  0
 33 34  1  0  0  0
 33 66  1  0  0  0
 33 70  2  0  0  0
 34 36  1  0  0  0
 34 59  1  0  0  0
 34106  1  0  0  0
 35 44  2  0  0  0
 35 45  1  0  0  0
 35 68  1  0  0  0
 36 56  1  0  0  0
 36107  1  0  0  0
 37 39  1  0  0  0
 37 47  1  0  0  0
 37 66  1  0  0  0
 37108  1  0  0  0
 38 43  2  0  0  0
 38 46  1  0  0  0
 38 47  1  0  0  0
 39 64  1  0  0  0
 39 67  2  0  0  0
 40 52  1  0  0  0
 40 53  2  0  0  0
 40 58  1  0  0  0
 41109  1  0  0  0
 41110  1  0  0  0
 41111  1  0  0  0
 41 48  1  0  0  0
 42 43  1  0  0  0
 42 66  1  0  0  0
 42112  1  0  0  0
 42113  1  0  0  0
 43 44  1  0  0  0
 44114  1  0  0  0
 45 46  2  0  0  0
 45115  1  0  0  0
 46116  1  0  0  0
 47117  1  0  0  0
 47118  1  0  0  0
 48 56  1  0  0  0
 48 65  1  0  0  0
 48119  1  0  0  0
 49 50  1  0  0  0
 49 53  1  0  0  0
 49 64  1  0  0  0
 49120  1  0  0  0
 50 51  1  0  0  0
 50121  1  0  0  0
 50122  1  0  0  0
 51 52  1  0  0  0
 51123  1  0  0  0
 51124  1  0  0  0
 52125  1  0  0  0
 52126  1  0  0  0
 53 54  1  0  0  0
 54 55  2  0  0  0
 54127  1  0  0  0
 55 57  1  0  0  0
 55128  1  0  0  0
 56 69  2  0  0  0
 57 58  2  0  0  0
 57129  1  0  0  0
 58130  1  0  0  0
 59 60  1  0  0  0
 59 61  1  0  0  0
 59 62  1  0  0  0
 60131  1  0  0  0
 60132  1  0  0  0
 60133  1  0  0  0
 61134  1  0  0  0
 61135  1  0  0  0
 61136  1  0  0  0
 62137  1  0  0  0
 62138  1  0  0  0
 62139  1  0  0  0
 63 65  1  0  0  0
 63140  1  0  0  0
 63141  1  0  0  0
 63142  1  0  0  0
 64143  1  0  0  0
 65144  1  0  0  0
 68 82  1  0  0  0
 71 72  2  0  0  0
 71 73  1  0  0  0
 71145  1  0  0  0
 72 74  1  0  0  0
 72146  1  0  0  0
 73 75  2  0  0  0
 73147  1  0  0  0
 74 76  2  0  0  0
 74148  1  0  0  0
 75 76  1  0  0  0
 75 81  1  0  0  0
 76 83  1  0  0  0
 77 80  1  0  0  0
 77 83  1  0  0  0
 77 85  2  0  0  0
 78 79  1  0  0  0
 78 80  1  0  0  0
 78149  1  0  0  0
 78150  1  0  0  0
 79 83  1  0  0  0
 79151  1  0  0  0
 79152  1  0  0  0
 80 82  1  0  0  0
 80153  1  0  0  0
 81 84  1  0  0  0
 81154  1  0  0  0
 81155  1  0  0  0
 82156  1  0  0  0
 82157  1  0  0  0
 84158  1  0  0  0
M  ISO  4   1 100  68 101  82 101  84 100
M  END
> <chiral flag>
0

> <version>
0

> <s_m_source_file>
/data/baiqing/PycharmProjects/Reinvent-master-3.2/result/LINK_invent/BTK/process_docking_weight1_custom_product_contain_oxygen_bond_distance_aromatic_linkinvent_7_9_3/rearranged_h_0069.sdf

> <i_m_source_file_index>
68

> <r_mmod_Potential_Energy-OPLS-2005>
427.663940429688

> <r_mmod_Stretch_Energy-OPLS-2005>
179.845977783203

> <r_mmod_Bend_Energy-OPLS-2005>
282.689300537109

> <r_mmod_Torsional_Energy-OPLS-2005>
288.591339111328

> <r_mmod_Improper_Torsional_Energy-OPLS-2005>
8.50335788726807

> <r_mmod_Van_der_Waal_Energy-OPLS-2005>
140.187866210938

> <r_mmod_Electrostatic_Energy-OPLS-2005>
-370.166015625

> <r_mmod_Solvation_Energy-OPLS-2005>
-228.914367675781

> <b_mmod_Minimization_Converged-OPLS-2005>
0

> <r_mmod_RMS_Derivative-OPLS-2005>
7.71889448165894

$$$$
70
                    3D
 Structure written by MMmdl.
160168  0  0  1  0            999 V2000
  -30.5881  -14.7649   20.4449 C   0  0  0  0  0  0
  -30.4436  -12.4468   19.5103 C   0  0  0  0  0  0
  -29.5315  -12.4498   18.2625 C   0  0  0  0  0  0
  -28.0521  -12.3011   18.6742 C   0  0  0  0  0  0
  -27.6440  -13.2234   19.8521 C   0  0  2  0  0  0
  -28.6825  -13.1759   20.9955 C   0  0  0  0  0  0
  -25.2527  -13.8181   20.5698 C   0  0  0  0  0  0
  -24.1791  -13.0449   20.9205 C   0  0  0  0  0  0
  -24.6354  -11.6921   20.8748 C   0  0  0  0  0  0
  -23.9022  -10.4310   21.0394 C   0  0  0  0  0  0
  -24.3614   -9.4256   21.9166 C   0  0  0  0  0  0
  -23.6323   -8.2276   22.0749 C   0  0  0  0  0  0
  -22.4301   -8.0296   21.3546 C   0  0  0  0  0  0
  -21.9896   -9.0245   20.4642 C   0  0  0  0  0  0
  -22.7208  -10.2134   20.3041 C   0  0  0  0  0  0
  -21.6863   -6.0749   22.5278 C   0  0  0  0  0  0
  -21.3992   -6.5648   23.8211 C   0  0  0  0  0  0
  -21.3635   -5.6804   24.9170 C   0  0  0  0  0  0
  -21.6045   -4.3069   24.7222 C   0  0  0  0  0  0
  -21.8840   -3.8161   23.4347 C   0  0  0  0  0  0
  -21.9201   -4.6979   22.3397 C   0  0  0  0  0  0
  -22.7817  -13.5246   21.1886 C   0  0  0  0  0  0
  -22.1690   -4.2157   21.0982 F   0  0  0  0  0  0
  -21.5603   -3.4554   25.7730 F   0  0  0  0  0  0
  -29.9877  -13.5253   20.4219 N   0  0  0  0  0  0
  -26.2934  -12.9352   20.3290 N   0  0  0  0  0  0
  -25.9283  -11.6516   20.5767 N   0  0  0  0  0  0
  -22.0467  -12.8203   22.0433 N   0  0  0  0  0  0
  -25.4244  -15.1904   20.4130 N   0  0  0  0  0  0
  -31.7693  -14.8744   20.0974 O   0  0  0  0  0  0
  -21.6674   -6.8896   21.4241 O   0  0  0  0  0  0
  -22.3494  -14.5574   20.6780 O   0  0  0  0  0  0
  -24.6246  -31.8518   23.1989 C   0  0  0  0  0  0
  -25.9085  -32.4747   23.8292 C   0  0  1  0  0  0
  -27.2093  -27.2620   20.1478 C   0  0  0  0  0  0
  -25.5892  -33.8559   24.2197 N   0  0  0  0  0  0
  -23.4220  -30.4799   21.5390 C   0  0  2  0  0  0
  -24.8704  -28.9320   20.1059 C   0  0  0  0  0  0
  -22.7439  -29.4620   22.4885 C   0  0  0  0  0  0
  -18.0270  -28.1389   22.8521 C   0  0  0  0  0  0
  -24.1475  -36.7274   23.2663 C   0  0  0  0  0  0
  -25.9660  -30.7722   21.3756 C   0  0  0  0  0  0
  -26.0369  -29.3927   20.7253 C   0  0  0  0  0  0
  -27.2079  -28.5684   20.7426 C   0  0  0  0  0  0
  -26.0282  -26.8836   19.4716 C   0  0  0  0  0  0
  -24.8705  -27.6849   19.4651 C   0  0  0  0  0  0
  -23.6373  -29.8130   20.1527 C   0  0  0  0  0  0
  -25.4097  -36.3045   24.0317 C   0  0  1  0  0  0
  -20.5865  -28.3668   23.1278 C   0  0  2  0  0  0
  -20.6764  -26.9390   22.5428 C   0  0  0  0  0  0
  -19.5743  -26.6355   21.5253 C   0  0  0  0  0  0
  -18.1906  -26.7942   22.1634 C   0  0  0  0  0  0
  -19.1532  -28.8841   23.2901 C   0  0  0  0  0  0
  -18.9492  -30.1436   23.8908 C   0  0  0  0  0  0
  -17.6498  -30.6599   24.0575 C   0  0  0  0  0  0
  -25.9037  -34.9439   23.5046 C   0  0  0  0  0  0
  -16.5370  -29.9091   23.6370 C   0  0  0  0  0  0
  -16.7261  -28.6509   23.0400 C   0  0  0  0  0  0
  -26.4479  -31.6617   25.0714 C   0  0  0  0  0  0
  -25.3714  -31.3793   26.1442 C   0  0  0  0  0  0
  -27.0321  -30.3045   24.6201 C   0  0  0  0  0  0
  -27.5988  -32.4398   25.7505 C   0  0  0  0  0  0
  -27.5524  -37.1753   24.8462 C   0  0  0  0  0  0
  -21.4170  -29.3031   22.3670 N   0  0  0  0  0  0
  -26.4237  -37.3771   23.9433 N   0  0  0  0  0  0
  -24.6908  -31.0525   22.0941 N   0  0  0  0  0  0
  -23.4169  -28.8170   23.2977 O   0  0  0  0  0  0
  -28.2906  -26.3554   20.2528 O   0  0  0  0  0  0
  -26.5664  -34.8928   22.4640 O   0  0  0  0  0  0
  -23.5406  -32.1316   23.7305 O   0  0  0  0  0  0
  -30.0589  -19.9561   22.9780 C   0  0  0  0  0  0
  -29.6750  -21.1657   22.3638 C   0  0  0  0  0  0
  -29.3625  -19.9354   20.3111 C   0  0  0  0  0  0
  -30.1157  -18.7241   22.2819 C   0  0  0  0  0  0
  -29.7652  -18.6578   20.8998 C   0  0  0  0  0  0
  -29.3063  -21.2056   21.0027 C   0  0  0  0  0  0
  -28.9185  -23.7965   20.7383 C   0  0  0  0  0  0
  -30.6120  -17.5135   23.0594 C   0  0  0  0  0  0
  -29.3038  -16.3210   17.6942 C   0  0  0  0  0  0
  -28.0436  -24.8972   19.9757 C   0  0  0  0  0  0
  -29.0458  -17.3892   18.7579 C   0  0  0  0  0  0
  -29.9251  -17.3026   20.0383 C   0  0  2  0  0  0
  -28.8370  -22.4614   20.3645 N   0  0  0  0  0  0
  -29.7823  -15.8839   20.6220 N   0  0  0  0  0  0
  -29.6522  -24.1714   21.6573 O   0  0  0  0  0  0
  -31.4887  -12.5621   19.2254 H   0  0  0  0  0  0
  -30.3867  -11.4814   20.0158 H   0  0  0  0  0  0
  -29.8080  -11.6252   17.6029 H   0  0  0  0  0  0
  -29.6911  -13.3540   17.6799 H   0  0  0  0  0  0
  -27.9136  -11.2600   18.9723 H   0  0  0  0  0  0
  -27.3929  -12.4516   17.8192 H   0  0  0  0  0  0
  -27.6280  -14.2376   19.4539 H   0  0  0  0  0  0
  -28.7177  -12.1864   21.4479 H   0  0  0  0  0  0
  -28.4099  -13.8624   21.7978 H   0  0  0  0  0  0
  -25.2749   -9.5754   22.4742 H   0  0  0  0  0  0
  -24.0028   -7.4673   22.7473 H   0  0  0  0  0  0
  -21.0803   -8.8753   19.8970 H   0  0  0  0  0  0
  -22.3642  -10.9661   19.6154 H   0  0  0  0  0  0
  -21.1989   -7.6167   23.9703 H   0  0  0  0  0  0
  -21.1392   -6.0531   25.9057 H   0  0  0  0  0  0
  -22.0628   -2.7615   23.2837 H   0  0  0  0  0  0
  -22.4097  -11.9862   22.4802 H   0  0  0  0  0  0
  -21.1052  -13.1161   22.2660 H   0  0  0  0  0  0
  -24.6503  -15.8397   20.4998 H   0  0  0  0  0  0
  -26.2769  -15.6296   20.0871 H   0  0  0  0  0  0
  -26.7147  -32.5415   23.1036 H   0  0  0  0  0  0
  -25.0012  -33.9707   25.0313 H   0  0  0  0  0  0
  -22.7192  -31.3022   21.3915 H   0  0  0  0  0  0
  -23.3744  -35.9595   23.3307 H   0  0  0  0  0  0
  -24.3605  -36.8925   22.2089 H   0  0  0  0  0  0
  -23.7202  -37.6452   23.6722 H   0  0  0  0  0  0
  -26.0951  -31.5253   20.5985 H   0  0  0  0  0  0
  -26.8486  -30.8278   22.0008 H   0  0  0  0  0  0
  -28.0925  -28.9091   21.2608 H   0  0  0  0  0  0
  -25.9539  -25.9418   18.9503 H   0  0  0  0  0  0
  -23.9834  -27.3310   18.9574 H   0  0  0  0  0  0
  -23.7508  -30.5853   19.3907 H   0  0  0  0  0  0
  -22.7616  -29.2348   19.8562 H   0  0  0  0  0  0
  -25.1289  -36.1857   25.0805 H   0  0  0  0  0  0
  -20.9965  -28.3218   24.1388 H   0  0  0  0  0  0
  -20.5697  -26.2281   23.3628 H   0  0  0  0  0  0
  -21.6613  -26.7419   22.1189 H   0  0  0  0  0  0
  -19.6928  -25.6277   21.1250 H   0  0  0  0  0  0
  -19.6691  -27.3182   20.6800 H   0  0  0  0  0  0
  -17.4195  -26.6714   21.4008 H   0  0  0  0  0  0
  -18.0275  -26.0055   22.8984 H   0  0  0  0  0  0
  -19.7992  -30.7238   24.2236 H   0  0  0  0  0  0
  -17.5104  -31.6323   24.5130 H   0  0  0  0  0  0
  -15.5390  -30.3046   23.7727 H   0  0  0  0  0  0
  -15.8640  -28.0851   22.7135 H   0  0  0  0  0  0
  -24.5859  -30.7179   25.7785 H   0  0  0  0  0  0
  -24.8983  -32.3015   26.4839 H   0  0  0  0  0  0
  -25.8035  -30.8977   27.0227 H   0  0  0  0  0  0
  -26.2892  -29.6825   24.1225 H   0  0  0  0  0  0
  -27.4023  -29.7289   25.4690 H   0  0  0  0  0  0
  -27.8765  -30.4354   23.9428 H   0  0  0  0  0  0
  -27.2525  -33.3717   26.2002 H   0  0  0  0  0  0
  -28.3856  -32.6934   25.0384 H   0  0  0  0  0  0
  -28.0624  -31.8610   26.5514 H   0  0  0  0  0  0
  -28.2485  -38.0096   24.7509 H   0  0  0  0  0  0
  -28.1009  -36.2598   24.6208 H   0  0  0  0  0  0
  -27.2259  -37.1307   25.8871 H   0  0  0  0  0  0
  -20.9308  -29.8826   21.6968 H   0  0  0  0  0  0
  -26.0067  -38.2796   24.1559 H   0  0  0  0  0  0
  -30.3365  -19.9914   24.0244 H   0  0  0  0  0  0
  -29.6636  -22.0617   22.9639 H   0  0  0  0  0  0
  -29.0870  -19.9952   19.2710 H   0  0  0  0  0  0
  -31.0428  -17.8038   24.0199 H   0  0  0  0  0  0
  -31.3938  -16.9964   22.5059 H   0  0  0  0  0  0
  -29.7990  -16.8168   23.2658 H   0  0  0  0  0  0
  -28.7577  -16.5630   16.7796 H   0  0  0  0  0  0
  -28.9598  -15.3483   18.0288 H   0  0  0  0  0  0
  -30.3682  -16.2695   17.4491 H   0  0  0  0  0  0
  -27.0267  -24.6392   20.2680 H   0  0  0  0  0  0
  -28.1127  -24.7231   18.8994 H   0  0  0  0  0  0
  -27.9881  -17.4059   19.0309 H   0  0  0  0  0  0
  -29.2428  -18.3105   18.2155 H   0  0  0  0  0  0
  -30.9605  -17.3608   19.6978 H   0  0  0  0  0  0
  -28.3169  -22.3224   19.5097 H   0  0  0  0  0  0
  -28.8557  -15.6628   20.9520 H   0  0  0  0  0  0
  1 25  1  0  0  0
  1 30  2  0  0  0
  1 84  1  0  0  0
  2  3  1  0  0  0
  2 25  1  0  0  0
  2 86  1  0  0  0
  2 87  1  0  0  0
  3  4  1  0  0  0
  3 88  1  0  0  0
  3 89  1  0  0  0
  4  5  1  0  0  0
  4 90  1  0  0  0
  4 91  1  0  0  0
  5  6  1  0  0  0
  5 26  1  0  0  0
  5 92  1  0  0  0
  6 25  1  0  0  0
  6 93  1  0  0  0
  6 94  1  0  0  0
  7  8  2  0  0  0
  7 26  1  0  0  0
  7 29  1  0  0  0
  8  9  1  0  0  0
  8 22  1  0  0  0
  9 10  1  0  0  0
  9 27  2  0  0  0
 10 11  2  0  0  0
 10 15  1  0  0  0
 11 12  1  0  0  0
 11 95  1  0  0  0
 12 13  2  0  0  0
 12 96  1  0  0  0
 13 14  1  0  0  0
 13 31  1  0  0  0
 14 15  2  0  0  0
 14 97  1  0  0  0
 15 98  1  0  0  0
 16 17  2  0  0  0
 16 21  1  0  0  0
 16 31  1  0  0  0
 17 18  1  0  0  0
 17 99  1  0  0  0
 18 19  2  0  0  0
 18100  1  0  0  0
 19 20  1  0  0  0
 19 24  1  0  0  0
 20 21  2  0  0  0
 20101  1  0  0  0
 21 23  1  0  0  0
 22 28  1  0  0  0
 22 32  2  0  0  0
 26 27  1  0  0  0
 28102  1  0  0  0
 28103  1  0  0  0
 29104  1  0  0  0
 29105  1  0  0  0
 33 34  1  0  0  0
 33 66  1  0  0  0
 33 70  2  0  0  0
 34 36  1  0  0  0
 34 59  1  0  0  0
 34106  1  0  0  0
 35 44  2  0  0  0
 35 45  1  0  0  0
 35 68  1  0  0  0
 36 56  1  0  0  0
 36107  1  0  0  0
 37 39  1  0  0  0
 37 47  1  0  0  0
 37 66  1  0  0  0
 37108  1  0  0  0
 38 43  2  0  0  0
 38 46  1  0  0  0
 38 47  1  0  0  0
 39 64  1  0  0  0
 39 67  2  0  0  0
 40 52  1  0  0  0
 40 53  2  0  0  0
 40 58  1  0  0  0
 41109  1  0  0  0
 41110  1  0  0  0
 41111  1  0  0  0
 41 48  1  0  0  0
 42 43  1  0  0  0
 42 66  1  0  0  0
 42112  1  0  0  0
 42113  1  0  0  0
 43 44  1  0  0  0
 44114  1  0  0  0
 45 46  2  0  0  0
 45115  1  0  0  0
 46116  1  0  0  0
 47117  1  0  0  0
 47118  1  0  0  0
 48 56  1  0  0  0
 48 65  1  0  0  0
 48119  1  0  0  0
 49 50  1  0  0  0
 49 53  1  0  0  0
 49 64  1  0  0  0
 49120  1  0  0  0
 50 51  1  0  0  0
 50121  1  0  0  0
 50122  1  0  0  0
 51 52  1  0  0  0
 51123  1  0  0  0
 51124  1  0  0  0
 52125  1  0  0  0
 52126  1  0  0  0
 53 54  1  0  0  0
 54 55  2  0  0  0
 54127  1  0  0  0
 55 57  1  0  0  0
 55128  1  0  0  0
 56 69  2  0  0  0
 57 58  2  0  0  0
 57129  1  0  0  0
 58130  1  0  0  0
 59 60  1  0  0  0
 59 61  1  0  0  0
 59 62  1  0  0  0
 60131  1  0  0  0
 60132  1  0  0  0
 60133  1  0  0  0
 61134  1  0  0  0
 61135  1  0  0  0
 61136  1  0  0  0
 62137  1  0  0  0
 62138  1  0  0  0
 62139  1  0  0  0
 63 65  1  0  0  0
 63140  1  0  0  0
 63141  1  0  0  0
 63142  1  0  0  0
 64143  1  0  0  0
 65144  1  0  0  0
 68 80  1  0  0  0
 71 72  2  0  0  0
 71 74  1  0  0  0
 71145  1  0  0  0
 72 76  1  0  0  0
 72146  1  0  0  0
 73 75  1  0  0  0
 73 76  2  0  0  0
 73147  1  0  0  0
 74 75  2  0  0  0
 74 78  1  0  0  0
 75 82  1  0  0  0
 76 83  1  0  0  0
 77 80  1  0  0  0
 77 83  1  0  0  0
 77 85  2  0  0  0
 78148  1  0  0  0
 78149  1  0  0  0
 78150  1  0  0  0
 79 81  1  0  0  0
 79151  1  0  0  0
 79152  1  0  0  0
 79153  1  0  0  0
 80154  1  0  0  0
 80155  1  0  0  0
 81156  1  0  0  0
 81157  1  0  0  0
 81 82  1  0  0  0
 82 84  1  0  0  0
 82158  1  0  0  0
 83159  1  0  0  0
 84160  1  0  0  0
M  ISO  4   1 100  68 101  80 101  84 100
M  END
> <chiral flag>
0

> <version>
0

> <s_m_source_file>
/data/baiqing/PycharmProjects/Reinvent-master-3.2/result/LINK_invent/BTK/process_docking_weight1_custom_product_contain_oxygen_bond_distance_aromatic_linkinvent_7_9_3/rearranged_h_0069.sdf

> <i_m_source_file_index>
69

> <r_mmod_Potential_Energy-OPLS-2005>
108.525497436523

> <r_mmod_Stretch_Energy-OPLS-2005>
126.310218811035

> <r_mmod_Bend_Energy-OPLS-2005>
167.544204711914

> <r_mmod_Torsional_Energy-OPLS-2005>
223.534698486328

> <r_mmod_Improper_Torsional_Energy-OPLS-2005>
7.06280851364136

> <r_mmod_Van_der_Waal_Energy-OPLS-2005>
149.653717041016

> <r_mmod_Electrostatic_Energy-OPLS-2005>
-420.695770263672

> <r_mmod_Solvation_Energy-OPLS-2005>
-240.782012939453

> <b_mmod_Minimization_Converged-OPLS-2005>
0

> <r_mmod_RMS_Derivative-OPLS-2005>
5.42568254470825

$$$$
71
                    3D
 Structure written by MMmdl.
148156  0  0  1  0            999 V2000
  -30.5220  -15.0437   20.4036 C   0  0  0  0  0  0
  -30.4379  -12.6537   19.5054 C   0  0  0  0  0  0
  -29.5227  -12.5371   18.2642 C   0  0  0  0  0  0
  -28.0607  -12.3060   18.6877 C   0  0  0  0  0  0
  -27.6222  -13.2566   19.8315 C   0  0  2  0  0  0
  -28.6639  -13.3374   20.9672 C   0  0  0  0  0  0
  -25.2435  -13.8228   20.5721 C   0  0  0  0  0  0
  -24.1766  -13.0443   20.9244 C   0  0  0  0  0  0
  -24.6394  -11.6930   20.8765 C   0  0  0  0  0  0
  -23.9083  -10.4295   21.0413 C   0  0  0  0  0  0
  -24.3630   -9.4206   21.9187 C   0  0  0  0  0  0
  -23.6300   -8.2243   22.0753 C   0  0  0  0  0  0
  -22.4280   -8.0284   21.3544 C   0  0  0  0  0  0
  -21.9923   -9.0260   20.4645 C   0  0  0  0  0  0
  -22.7257  -10.2137   20.3057 C   0  0  0  0  0  0
  -21.6854   -6.0739   22.5277 C   0  0  0  0  0  0
  -21.4015   -6.5642   23.8211 C   0  0  0  0  0  0
  -21.3658   -5.6794   24.9173 C   0  0  0  0  0  0
  -21.6045   -4.3057   24.7223 C   0  0  0  0  0  0
  -21.8819   -3.8148   23.4344 C   0  0  0  0  0  0
  -21.9194   -4.6966   22.3400 C   0  0  0  0  0  0
  -22.7785  -13.5207   21.1897 C   0  0  0  0  0  0
  -22.1662   -4.2153   21.0978 F   0  0  0  0  0  0
  -21.5629   -3.4538   25.7736 F   0  0  0  0  0  0
  -29.9253  -13.7745   20.3548 N   0  0  0  0  0  0
  -26.2856  -12.9471   20.3237 N   0  0  0  0  0  0
  -25.9327  -11.6593   20.5743 N   0  0  0  0  0  0
  -22.0434  -12.8187   22.0446 N   0  0  0  0  0  0
  -25.4088  -15.1958   20.4133 N   0  0  0  0  0  0
  -31.7360  -15.0590   20.1686 O   0  0  0  0  0  0
  -21.6643   -6.8882   21.4238 O   0  0  0  0  0  0
  -22.3466  -14.5508   20.6736 O   0  0  0  0  0  0
  -24.6505  -31.8372   23.1817 C   0  0  0  0  0  0
  -25.9246  -32.4658   23.8229 C   0  0  1  0  0  0
  -27.2158  -27.0635   20.1631 C   0  0  0  0  0  0
  -25.5966  -33.8466   24.2147 N   0  0  0  0  0  0
  -23.4579  -30.4547   21.5285 C   0  0  2  0  0  0
  -24.9086  -28.8690   20.1098 C   0  0  0  0  0  0
  -22.7601  -29.4517   22.4823 C   0  0  0  0  0  0
  -18.0314  -28.1408   22.8472 C   0  0  0  0  0  0
  -24.1493  -36.7241   23.2645 C   0  0  0  0  0  0
  -26.0186  -30.6886   21.3902 C   0  0  0  0  0  0
  -26.0893  -29.2922   20.7335 C   0  0  0  0  0  0
  -27.2427  -28.4078   20.7399 C   0  0  0  0  0  0
  -26.0073  -26.7614   19.4959 C   0  0  0  0  0  0
  -24.8851  -27.6199   19.4731 C   0  0  0  0  0  0
  -23.6891  -29.7807   20.1498 C   0  0  0  0  0  0
  -25.4127  -36.3007   24.0307 C   0  0  1  0  0  0
  -20.5930  -28.3743   23.1215 C   0  0  2  0  0  0
  -20.6797  -26.9438   22.5400 C   0  0  0  0  0  0
  -19.5769  -26.6387   21.5213 C   0  0  0  0  0  0
  -18.1952  -26.7944   22.1622 C   0  0  0  0  0  0
  -19.1571  -28.8891   23.2835 C   0  0  0  0  0  0
  -18.9487  -30.1485   23.8864 C   0  0  0  0  0  0
  -17.6484  -30.6600   24.0560 C   0  0  0  0  0  0
  -25.9084  -34.9387   23.5041 C   0  0  0  0  0  0
  -16.5374  -29.9094   23.6340 C   0  0  0  0  0  0
  -16.7298  -28.6512   23.0354 C   0  0  0  0  0  0
  -26.4545  -31.6549   25.0698 C   0  0  0  0  0  0
  -25.3708  -31.3756   26.1377 C   0  0  0  0  0  0
  -27.0421  -30.2936   24.6324 C   0  0  0  0  0  0
  -27.6060  -32.4327   25.7490 C   0  0  0  0  0  0
  -27.5569  -37.1778   24.8467 C   0  0  0  0  0  0
  -21.4285  -29.3056   22.3576 N   0  0  0  0  0  0
  -26.4283  -37.3727   23.9405 N   0  0  0  0  0  0
  -24.7296  -31.0162   22.0886 N   0  0  0  0  0  0
  -23.4211  -28.8069   23.3004 O   0  0  0  0  0  0
  -28.2415  -26.0268   20.2389 O   0  0  0  0  0  0
  -26.5680  -34.8899   22.4626 O   0  0  0  0  0  0
  -23.5607  -32.1279   23.6995 O   0  0  0  0  0  0
  -31.8649  -19.5095   20.6266 C   0  0  0  0  0  0
  -30.9861  -20.6121   20.5274 C   0  0  0  0  0  0
  -31.4359  -18.1640   20.6044 C   0  0  0  0  0  0
  -29.1772  -19.0126   20.3791 C   0  0  0  0  0  0
  -29.5847  -20.4712   20.3983 C   0  0  0  0  0  0
  -30.0776  -17.7989   20.4774 C   0  0  0  0  0  0
  -28.9969  -23.2121   20.3600 C   0  0  0  0  0  0
  -27.9076  -24.4764   20.1028 C   0  0  0  0  0  0
  -28.7313  -21.7855   20.2773 N   0  0  0  0  0  0
  -29.7509  -16.2668   20.4868 N   0  0  0  0  0  0
  -30.1346  -23.5828   20.6573 O   0  0  0  0  0  0
  -31.4670  -12.8213   19.1851 H   0  0  0  0  0  0
  -30.4530  -11.7187   20.0677 H   0  0  0  0  0  0
  -29.8591  -11.7247   17.6188 H   0  0  0  0  0  0
  -29.5924  -13.4502   17.6711 H   0  0  0  0  0  0
  -27.9766  -11.2704   19.0196 H   0  0  0  0  0  0
  -27.3942  -12.4057   17.8299 H   0  0  0  0  0  0
  -27.5687  -14.2462   19.3765 H   0  0  0  0  0  0
  -28.7768  -12.3767   21.4714 H   0  0  0  0  0  0
  -28.3468  -14.0528   21.7274 H   0  0  0  0  0  0
  -25.2770   -9.5684   22.4771 H   0  0  0  0  0  0
  -24.0007   -7.4633   22.7473 H   0  0  0  0  0  0
  -21.0854   -8.8783   19.8948 H   0  0  0  0  0  0
  -22.3712  -10.9681   19.6171 H   0  0  0  0  0  0
  -21.2006   -7.6149   23.9715 H   0  0  0  0  0  0
  -21.1481   -6.0524   25.9078 H   0  0  0  0  0  0
  -22.0598   -2.7610   23.2842 H   0  0  0  0  0  0
  -22.4064  -11.9854   22.4832 H   0  0  0  0  0  0
  -21.1046  -13.1201   22.2649 H   0  0  0  0  0  0
  -24.6358  -15.8443   20.5182 H   0  0  0  0  0  0
  -26.2447  -15.6342   20.0502 H   0  0  0  0  0  0
  -26.7307  -32.5242   23.0947 H   0  0  0  0  0  0
  -25.0069  -33.9565   25.0264 H   0  0  0  0  0  0
  -22.7647  -31.2828   21.3683 H   0  0  0  0  0  0
  -23.3755  -35.9575   23.3299 H   0  0  0  0  0  0
  -24.3569  -36.8889   22.2061 H   0  0  0  0  0  0
  -23.7254  -37.6433   23.6697 H   0  0  0  0  0  0
  -26.1802  -31.4382   20.6145 H   0  0  0  0  0  0
  -26.8867  -30.7435   22.0354 H   0  0  0  0  0  0
  -28.1393  -28.7268   21.2528 H   0  0  0  0  0  0
  -25.8913  -25.8079   19.0039 H   0  0  0  0  0  0
  -23.9856  -27.2910   18.9705 H   0  0  0  0  0  0
  -23.8338  -30.5538   19.3944 H   0  0  0  0  0  0
  -22.8023  -29.2283   19.8351 H   0  0  0  0  0  0
  -25.1320  -36.1824   25.0798 H   0  0  0  0  0  0
  -21.0020  -28.3346   24.1338 H   0  0  0  0  0  0
  -20.5697  -26.2358   23.3629 H   0  0  0  0  0  0
  -21.6662  -26.7442   22.1194 H   0  0  0  0  0  0
  -19.6933  -25.6289   21.1266 H   0  0  0  0  0  0
  -19.6708  -27.3180   20.6727 H   0  0  0  0  0  0
  -17.4219  -26.6687   21.4030 H   0  0  0  0  0  0
  -18.0347  -26.0097   22.9029 H   0  0  0  0  0  0
  -19.7964  -30.7305   24.2223 H   0  0  0  0  0  0
  -17.5040  -31.6278   24.5170 H   0  0  0  0  0  0
  -15.5373  -30.2986   23.7685 H   0  0  0  0  0  0
  -15.8696  -28.0826   22.7084 H   0  0  0  0  0  0
  -24.5907  -30.7086   25.7687 H   0  0  0  0  0  0
  -24.8877  -32.2943   26.4712 H   0  0  0  0  0  0
  -25.7973  -30.8985   27.0210 H   0  0  0  0  0  0
  -26.3055  -29.6635   24.1326 H   0  0  0  0  0  0
  -27.4006  -29.7263   25.4923 H   0  0  0  0  0  0
  -27.8973  -30.4149   23.9673 H   0  0  0  0  0  0
  -27.2652  -33.3668   26.1969 H   0  0  0  0  0  0
  -28.3925  -32.6823   25.0354 H   0  0  0  0  0  0
  -28.0668  -31.8515   26.5488 H   0  0  0  0  0  0
  -28.2580  -38.0080   24.7498 H   0  0  0  0  0  0
  -28.1073  -36.2604   24.6316 H   0  0  0  0  0  0
  -27.2282  -37.1447   25.8870 H   0  0  0  0  0  0
  -20.9511  -29.8758   21.6734 H   0  0  0  0  0  0
  -26.0145  -38.2792   24.1409 H   0  0  0  0  0  0
  -32.9234  -19.7062   20.7251 H   0  0  0  0  0  0
  -31.4396  -21.5900   20.5469 H   0  0  0  0  0  0
  -32.1991  -17.4058   20.6980 H   0  0  0  0  0  0
  -28.1196  -18.8144   20.2809 H   0  0  0  0  0  0
  -27.0616  -24.2795   20.7615 H   0  0  0  0  0  0
  -27.5341  -24.3206   19.0912 H   0  0  0  0  0  0
  -27.7552  -21.6080   20.0792 H   0  0  0  0  0  0
  -28.7644  -16.0703   20.5597 H   0  0  0  0  0  0
  1 25  1  0  0  0
  1 30  2  0  0  0
  1 80  1  0  0  0
  2  3  1  0  0  0
  2 25  1  0  0  0
  2 82  1  0  0  0
  2 83  1  0  0  0
  3  4  1  0  0  0
  3 84  1  0  0  0
  3 85  1  0  0  0
  4  5  1  0  0  0
  4 86  1  0  0  0
  4 87  1  0  0  0
  5  6  1  0  0  0
  5 26  1  0  0  0
  5 88  1  0  0  0
  6 25  1  0  0  0
  6 89  1  0  0  0
  6 90  1  0  0  0
  7  8  2  0  0  0
  7 26  1  0  0  0
  7 29  1  0  0  0
  8  9  1  0  0  0
  8 22  1  0  0  0
  9 10  1  0  0  0
  9 27  2  0  0  0
 10 11  2  0  0  0
 10 15  1  0  0  0
 11 12  1  0  0  0
 11 91  1  0  0  0
 12 13  2  0  0  0
 12 92  1  0  0  0
 13 14  1  0  0  0
 13 31  1  0  0  0
 14 15  2  0  0  0
 14 93  1  0  0  0
 15 94  1  0  0  0
 16 17  2  0  0  0
 16 21  1  0  0  0
 16 31  1  0  0  0
 17 18  1  0  0  0
 17 95  1  0  0  0
 18 19  2  0  0  0
 18 96  1  0  0  0
 19 20  1  0  0  0
 19 24  1  0  0  0
 20 21  2  0  0  0
 20 97  1  0  0  0
 21 23  1  0  0  0
 22 28  1  0  0  0
 22 32  2  0  0  0
 26 27  1  0  0  0
 28 98  1  0  0  0
 28 99  1  0  0  0
 29100  1  0  0  0
 29101  1  0  0  0
 33 34  1  0  0  0
 33 66  1  0  0  0
 33 70  2  0  0  0
 34 36  1  0  0  0
 34 59  1  0  0  0
 34102  1  0  0  0
 35 44  2  0  0  0
 35 45  1  0  0  0
 35 68  1  0  0  0
 36 56  1  0  0  0
 36103  1  0  0  0
 37 39  1  0  0  0
 37 47  1  0  0  0
 37 66  1  0  0  0
 37104  1  0  0  0
 38 43  2  0  0  0
 38 46  1  0  0  0
 38 47  1  0  0  0
 39 64  1  0  0  0
 39 67  2  0  0  0
 40 52  1  0  0  0
 40 53  2  0  0  0
 40 58  1  0  0  0
 41105  1  0  0  0
 41106  1  0  0  0
 41107  1  0  0  0
 41 48  1  0  0  0
 42 43  1  0  0  0
 42 66  1  0  0  0
 42108  1  0  0  0
 42109  1  0  0  0
 43 44  1  0  0  0
 44110  1  0  0  0
 45 46  2  0  0  0
 45111  1  0  0  0
 46112  1  0  0  0
 47113  1  0  0  0
 47114  1  0  0  0
 48 56  1  0  0  0
 48 65  1  0  0  0
 48115  1  0  0  0
 49 50  1  0  0  0
 49 53  1  0  0  0
 49 64  1  0  0  0
 49116  1  0  0  0
 50 51  1  0  0  0
 50117  1  0  0  0
 50118  1  0  0  0
 51 52  1  0  0  0
 51119  1  0  0  0
 51120  1  0  0  0
 52121  1  0  0  0
 52122  1  0  0  0
 53 54  1  0  0  0
 54 55  2  0  0  0
 54123  1  0  0  0
 55 57  1  0  0  0
 55124  1  0  0  0
 56 69  2  0  0  0
 57 58  2  0  0  0
 57125  1  0  0  0
 58126  1  0  0  0
 59 60  1  0  0  0
 59 61  1  0  0  0
 59 62  1  0  0  0
 60127  1  0  0  0
 60128  1  0  0  0
 60129  1  0  0  0
 61130  1  0  0  0
 61131  1  0  0  0
 61132  1  0  0  0
 62133  1  0  0  0
 62134  1  0  0  0
 62135  1  0  0  0
 63 65  1  0  0  0
 63136  1  0  0  0
 63137  1  0  0  0
 63138  1  0  0  0
 64139  1  0  0  0
 65140  1  0  0  0
 68 78  1  0  0  0
 71 72  2  0  0  0
 71 73  1  0  0  0
 71141  1  0  0  0
 72 75  1  0  0  0
 72142  1  0  0  0
 73 76  2  0  0  0
 73143  1  0  0  0
 74 75  2  0  0  0
 74 76  1  0  0  0
 74144  1  0  0  0
 75 79  1  0  0  0
 76 80  1  0  0  0
 77 78  1  0  0  0
 77 79  1  0  0  0
 77 81  2  0  0  0
 78145  1  0  0  0
 78146  1  0  0  0
 79147  1  0  0  0
 80148  1  0  0  0
M  ISO  4   1 100  68 101  78 101  80 100
M  END
> <chiral flag>
0

> <version>
0

> <s_m_source_file>
/data/baiqing/PycharmProjects/Reinvent-master-3.2/result/LINK_invent/BTK/process_docking_weight1_custom_product_contain_oxygen_bond_distance_aromatic_linkinvent_7_9_3/rearranged_h_0069.sdf

> <i_m_source_file_index>
70

> <r_mmod_Potential_Energy-OPLS-2005>
642.395446777344

> <r_mmod_Stretch_Energy-OPLS-2005>
346.726654052734

> <r_mmod_Bend_Energy-OPLS-2005>
270.735565185547

> <r_mmod_Torsional_Energy-OPLS-2005>
218.890808105469

> <r_mmod_Improper_Torsional_Energy-OPLS-2005>
4.89793395996094

> <r_mmod_Van_der_Waal_Energy-OPLS-2005>
135.26286315918

> <r_mmod_Electrostatic_Energy-OPLS-2005>
-350.632385253906

> <r_mmod_Solvation_Energy-OPLS-2005>
-248.620330810547

> <b_mmod_Minimization_Converged-OPLS-2005>
0

> <r_mmod_RMS_Derivative-OPLS-2005>
0.669019103050232

$$$$
72
                    3D
 Structure written by MMmdl.
152160  0  0  1  0            999 V2000
  -30.6138  -14.7511   20.4676 C   0  0  0  0  0  0
  -30.4221  -12.4593   19.4904 C   0  0  0  0  0  0
  -29.5103  -12.5165   18.2457 C   0  0  0  0  0  0
  -28.0337  -12.3418   18.6500 C   0  0  0  0  0  0
  -27.6363  -13.2364   19.8554 C   0  0  2  0  0  0
  -28.6764  -13.1754   20.9956 C   0  0  0  0  0  0
  -25.2470  -13.8195   20.5696 C   0  0  0  0  0  0
  -24.1772  -13.0445   20.9218 C   0  0  0  0  0  0
  -24.6360  -11.6923   20.8729 C   0  0  0  0  0  0
  -23.9029  -10.4307   21.0395 C   0  0  0  0  0  0
  -24.3589   -9.4228   21.9177 C   0  0  0  0  0  0
  -23.6288   -8.2246   22.0739 C   0  0  0  0  0  0
  -22.4275   -8.0269   21.3526 C   0  0  0  0  0  0
  -21.9903   -9.0233   20.4629 C   0  0  0  0  0  0
  -22.7202  -10.2134   20.3046 C   0  0  0  0  0  0
  -21.6862   -6.0729   22.5272 C   0  0  0  0  0  0
  -21.4020   -6.5630   23.8204 C   0  0  0  0  0  0
  -21.3662   -5.6779   24.9164 C   0  0  0  0  0  0
  -21.6051   -4.3043   24.7219 C   0  0  0  0  0  0
  -21.8817   -3.8136   23.4342 C   0  0  0  0  0  0
  -21.9195   -4.6956   22.3400 C   0  0  0  0  0  0
  -22.7803  -13.5235   21.1876 C   0  0  0  0  0  0
  -22.1668   -4.2144   21.0979 F   0  0  0  0  0  0
  -21.5627   -3.4527   25.7730 F   0  0  0  0  0  0
  -29.9779  -13.5285   20.4178 N   0  0  0  0  0  0
  -26.2889  -12.9412   20.3279 N   0  0  0  0  0  0
  -25.9294  -11.6554   20.5752 N   0  0  0  0  0  0
  -22.0446  -12.8202   22.0423 N   0  0  0  0  0  0
  -25.4158  -15.1928   20.4080 N   0  0  0  0  0  0
  -31.8043  -14.7988   20.1509 O   0  0  0  0  0  0
  -21.6645   -6.8867   21.4232 O   0  0  0  0  0  0
  -22.3496  -14.5554   20.6738 O   0  0  0  0  0  0
  -24.6305  -31.8519   23.1923 C   0  0  0  0  0  0
  -25.9129  -32.4728   23.8277 C   0  0  1  0  0  0
  -27.2179  -27.2478   20.1205 C   0  0  0  0  0  0
  -25.5923  -33.8531   24.2214 N   0  0  0  0  0  0
  -23.4279  -30.4741   21.5350 C   0  0  2  0  0  0
  -24.8719  -28.9146   20.1024 C   0  0  0  0  0  0
  -22.7493  -29.4588   22.4860 C   0  0  0  0  0  0
  -18.0296  -28.1376   22.8490 C   0  0  0  0  0  0
  -24.1497  -36.7279   23.2646 C   0  0  0  0  0  0
  -25.9736  -30.7581   21.3746 C   0  0  0  0  0  0
  -26.0417  -29.3800   20.7157 C   0  0  0  0  0  0
  -27.2096  -28.5547   20.7188 C   0  0  0  0  0  0
  -26.0240  -26.8454   19.4828 C   0  0  0  0  0  0
  -24.8689  -27.6565   19.4765 C   0  0  0  0  0  0
  -23.6461  -29.8078   20.1496 C   0  0  0  0  0  0
  -25.4117  -36.3060   24.0336 C   0  0  1  0  0  0
  -20.5905  -28.3687   23.1262 C   0  0  2  0  0  0
  -20.6788  -26.9399   22.5412 C   0  0  0  0  0  0
  -19.5776  -26.6377   21.5201 C   0  0  0  0  0  0
  -18.1950  -26.7931   22.1608 C   0  0  0  0  0  0
  -19.1556  -28.8847   23.2881 C   0  0  0  0  0  0
  -18.9484  -30.1450   23.8892 C   0  0  0  0  0  0
  -17.6491  -30.6593   24.0562 C   0  0  0  0  0  0
  -25.9073  -34.9432   23.5090 C   0  0  0  0  0  0
  -16.5376  -29.9097   23.6318 C   0  0  0  0  0  0
  -16.7285  -28.6503   23.0351 C   0  0  0  0  0  0
  -26.4496  -31.6559   25.0678 C   0  0  0  0  0  0
  -25.3726  -31.3728   26.1399 C   0  0  0  0  0  0
  -27.0330  -30.2968   24.6177 C   0  0  0  0  0  0
  -27.6046  -32.4282   25.7480 C   0  0  0  0  0  0
  -27.5573  -37.1790   24.8474 C   0  0  0  0  0  0
  -21.4195  -29.3030   22.3625 N   0  0  0  0  0  0
  -26.4283  -37.3753   23.9426 N   0  0  0  0  0  0
  -24.6967  -31.0472   22.0904 N   0  0  0  0  0  0
  -23.4195  -28.8123   23.2949 O   0  0  0  0  0  0
  -28.3331  -26.3827   20.2148 O   0  0  0  0  0  0
  -26.5657  -34.8918   22.4671 O   0  0  0  0  0  0
  -23.5452  -32.1339   23.7215 O   0  0  0  0  0  0
  -31.5131  -17.7574   20.1458 C   0  0  0  0  0  0
  -31.8688  -19.1049   19.9432 C   0  0  0  0  0  0
  -29.2521  -18.4789   20.6374 C   0  0  0  0  0  0
  -29.5983  -19.8930   20.4440 C   0  0  0  0  0  0
  -30.1945  -17.3672   20.4943 C   0  0  0  0  0  0
  -30.9400  -20.1523   20.0836 C   0  0  0  0  0  0
  -28.6666  -21.1100   20.6566 C   0  0  0  0  0  0
  -28.1070  -23.6945   20.3964 C   0  0  0  0  0  0
  -28.4541  -25.0260   19.5629 C   0  0  0  0  0  0
  -29.8621  -15.9123   20.6799 N   0  0  0  0  0  0
  -28.8693  -22.4110   20.1674 N   0  0  0  0  0  0
  -27.5805  -20.8938   21.4104 N   0  3  0  0  0  0
  -27.1621  -23.7043   21.1933 O   0  0  0  0  0  0
  -31.3597  -21.4237   19.8614 F   0  0  0  0  0  0
  -31.4659  -12.5731   19.1930 H   0  0  0  0  0  0
  -30.3558  -11.4841   19.9752 H   0  0  0  0  0  0
  -29.7990  -11.7453   17.5299 H   0  0  0  0  0  0
  -29.6432  -13.4729   17.7350 H   0  0  0  0  0  0
  -27.8830  -11.2904   18.9009 H   0  0  0  0  0  0
  -27.3823  -12.5473   17.7992 H   0  0  0  0  0  0
  -27.6291  -14.2600   19.4803 H   0  0  0  0  0  0
  -28.7083  -12.1798   21.4402 H   0  0  0  0  0  0
  -28.4049  -13.8582   21.8026 H   0  0  0  0  0  0
  -25.2731   -9.5726   22.4753 H   0  0  0  0  0  0
  -24.0007   -7.4647   22.7465 H   0  0  0  0  0  0
  -21.0830   -8.8732   19.8936 H   0  0  0  0  0  0
  -22.3634  -10.9661   19.6159 H   0  0  0  0  0  0
  -21.2010   -7.6139   23.9705 H   0  0  0  0  0  0
  -21.1492   -6.0510   25.9066 H   0  0  0  0  0  0
  -22.0600   -2.7601   23.2835 H   0  0  0  0  0  0
  -22.4069  -11.9865   22.4802 H   0  0  0  0  0  0
  -21.1065  -13.1223   22.2635 H   0  0  0  0  0  0
  -24.6361  -15.8371   20.4839 H   0  0  0  0  0  0
  -26.2440  -15.6190   20.0123 H   0  0  0  0  0  0
  -26.7170  -32.5372   23.0983 H   0  0  0  0  0  0
  -25.0027  -33.9641   25.0333 H   0  0  0  0  0  0
  -22.7287  -31.2986   21.3851 H   0  0  0  0  0  0
  -23.3756  -35.9612   23.3310 H   0  0  0  0  0  0
  -24.3584  -36.8901   22.2062 H   0  0  0  0  0  0
  -23.7264  -37.6485   23.6665 H   0  0  0  0  0  0
  -26.1198  -31.5137   20.6016 H   0  0  0  0  0  0
  -26.8509  -30.8042   22.0095 H   0  0  0  0  0  0
  -28.1043  -28.8981   21.2188 H   0  0  0  0  0  0
  -25.9464  -25.8757   19.0151 H   0  0  0  0  0  0
  -23.9709  -27.2972   18.9927 H   0  0  0  0  0  0
  -23.7771  -30.5854   19.3965 H   0  0  0  0  0  0
  -22.7629  -29.2484   19.8339 H   0  0  0  0  0  0
  -25.1299  -36.1889   25.0823 H   0  0  0  0  0  0
  -21.0004  -28.3265   24.1378 H   0  0  0  0  0  0
  -20.5661  -26.2280   23.3600 H   0  0  0  0  0  0
  -21.6654  -26.7406   22.1208 H   0  0  0  0  0  0
  -19.6938  -25.6278   21.1241 H   0  0  0  0  0  0
  -19.6743  -27.3181   20.6727 H   0  0  0  0  0  0
  -17.4211  -26.6656   21.4027 H   0  0  0  0  0  0
  -18.0357  -26.0087   22.9011 H   0  0  0  0  0  0
  -19.7967  -30.7254   24.2264 H   0  0  0  0  0  0
  -17.5062  -31.6281   24.5153 H   0  0  0  0  0  0
  -15.5384  -30.3017   23.7654 H   0  0  0  0  0  0
  -15.8676  -28.0828   22.7087 H   0  0  0  0  0  0
  -24.5987  -30.6938   25.7792 H   0  0  0  0  0  0
  -24.8817  -32.2896   26.4675 H   0  0  0  0  0  0
  -25.8080  -30.9076   27.0257 H   0  0  0  0  0  0
  -26.2895  -29.6731   24.1189 H   0  0  0  0  0  0
  -27.4009  -29.7201   25.4680 H   0  0  0  0  0  0
  -27.8786  -30.4234   23.9407 H   0  0  0  0  0  0
  -27.2660  -33.3635   26.1929 H   0  0  0  0  0  0
  -28.3945  -32.6729   25.0374 H   0  0  0  0  0  0
  -28.0590  -31.8470   26.5510 H   0  0  0  0  0  0
  -28.2576  -38.0092   24.7506 H   0  0  0  0  0  0
  -28.1081  -36.2624   24.6317 H   0  0  0  0  0  0
  -27.2294  -37.1467   25.8873 H   0  0  0  0  0  0
  -20.9337  -29.8796   21.6890 H   0  0  0  0  0  0
  -26.0168  -38.2833   24.1405 H   0  0  0  0  0  0
  -32.3095  -17.0464   20.0112 H   0  0  0  0  0  0
  -32.8878  -19.3380   19.6715 H   0  0  0  0  0  0
  -28.2341  -18.2398   20.9074 H   0  0  0  0  0  0
  -27.8974  -25.0002   18.6264 H   0  0  0  0  0  0
  -29.4961  -24.9433   19.2553 H   0  0  0  0  0  0
  -28.9058  -15.7207   20.9351 H   0  0  0  0  0  0
  -29.6914  -22.4153   19.5781 H   0  0  0  0  0  0
  -27.4081  -19.9953   21.8327 H   0  0  0  0  0  0
  -26.9722  -21.6742   21.6236 H   0  0  0  0  0  0
  1 25  1  0  0  0
  1 30  2  0  0  0
  1 80  1  0  0  0
  2  3  1  0  0  0
  2 25  1  0  0  0
  2 85  1  0  0  0
  2 86  1  0  0  0
  3  4  1  0  0  0
  3 87  1  0  0  0
  3 88  1  0  0  0
  4  5  1  0  0  0
  4 89  1  0  0  0
  4 90  1  0  0  0
  5  6  1  0  0  0
  5 26  1  0  0  0
  5 91  1  0  0  0
  6 25  1  0  0  0
  6 92  1  0  0  0
  6 93  1  0  0  0
  7  8  2  0  0  0
  7 26  1  0  0  0
  7 29  1  0  0  0
  8  9  1  0  0  0
  8 22  1  0  0  0
  9 10  1  0  0  0
  9 27  2  0  0  0
 10 11  2  0  0  0
 10 15  1  0  0  0
 11 12  1  0  0  0
 11 94  1  0  0  0
 12 13  2  0  0  0
 12 95  1  0  0  0
 13 14  1  0  0  0
 13 31  1  0  0  0
 14 15  2  0  0  0
 14 96  1  0  0  0
 15 97  1  0  0  0
 16 17  2  0  0  0
 16 21  1  0  0  0
 16 31  1  0  0  0
 17 18  1  0  0  0
 17 98  1  0  0  0
 18 19  2  0  0  0
 18 99  1  0  0  0
 19 20  1  0  0  0
 19 24  1  0  0  0
 20 21  2  0  0  0
 20100  1  0  0  0
 21 23  1  0  0  0
 22 28  1  0  0  0
 22 32  2  0  0  0
 26 27  1  0  0  0
 28101  1  0  0  0
 28102  1  0  0  0
 29103  1  0  0  0
 29104  1  0  0  0
 33 34  1  0  0  0
 33 66  1  0  0  0
 33 70  2  0  0  0
 34 36  1  0  0  0
 34 59  1  0  0  0
 34105  1  0  0  0
 35 44  2  0  0  0
 35 45  1  0  0  0
 35 68  1  0  0  0
 36 56  1  0  0  0
 36106  1  0  0  0
 37 39  1  0  0  0
 37 47  1  0  0  0
 37 66  1  0  0  0
 37107  1  0  0  0
 38 43  2  0  0  0
 38 46  1  0  0  0
 38 47  1  0  0  0
 39 64  1  0  0  0
 39 67  2  0  0  0
 40 52  1  0  0  0
 40 53  2  0  0  0
 40 58  1  0  0  0
 41108  1  0  0  0
 41109  1  0  0  0
 41110  1  0  0  0
 41 48  1  0  0  0
 42 43  1  0  0  0
 42 66  1  0  0  0
 42111  1  0  0  0
 42112  1  0  0  0
 43 44  1  0  0  0
 44113  1  0  0  0
 45 46  2  0  0  0
 45114  1  0  0  0
 46115  1  0  0  0
 47116  1  0  0  0
 47117  1  0  0  0
 48 56  1  0  0  0
 48 65  1  0  0  0
 48118  1  0  0  0
 49 50  1  0  0  0
 49 53  1  0  0  0
 49 64  1  0  0  0
 49119  1  0  0  0
 50 51  1  0  0  0
 50120  1  0  0  0
 50121  1  0  0  0
 51 52  1  0  0  0
 51122  1  0  0  0
 51123  1  0  0  0
 52124  1  0  0  0
 52125  1  0  0  0
 53 54  1  0  0  0
 54 55  2  0  0  0
 54126  1  0  0  0
 55 57  1  0  0  0
 55127  1  0  0  0
 56 69  2  0  0  0
 57 58  2  0  0  0
 57128  1  0  0  0
 58129  1  0  0  0
 59 60  1  0  0  0
 59 61  1  0  0  0
 59 62  1  0  0  0
 60130  1  0  0  0
 60131  1  0  0  0
 60132  1  0  0  0
 61133  1  0  0  0
 61134  1  0  0  0
 61135  1  0  0  0
 62136  1  0  0  0
 62137  1  0  0  0
 62138  1  0  0  0
 63 65  1  0  0  0
 63139  1  0  0  0
 63140  1  0  0  0
 63141  1  0  0  0
 64142  1  0  0  0
 65143  1  0  0  0
 68 79  1  0  0  0
 71 72  2  0  0  0
 71 75  1  0  0  0
 71144  1  0  0  0
 72 76  1  0  0  0
 72145  1  0  0  0
 73 74  1  0  0  0
 73 75  2  0  0  0
 73146  1  0  0  0
 74 76  2  0  0  0
 74 77  1  0  0  0
 75 80  1  0  0  0
 76 84  1  0  0  0
 77 81  1  0  0  0
 77 82  2  0  0  0
 78 79  1  0  0  0
 78 81  1  0  0  0
 78 83  2  0  0  0
 79147  1  0  0  0
 79148  1  0  0  0
 80149  1  0  0  0
 81150  1  0  0  0
 82151  1  0  0  0
 82152  1  0  0  0
M  CHG  1  82   1
M  ISO  4   1 100  68 101  79 101  80 100
M  END
> <chiral flag>
0

> <version>
0

> <s_m_source_file>
/data/baiqing/PycharmProjects/Reinvent-master-3.2/result/LINK_invent/BTK/process_docking_weight1_custom_product_contain_oxygen_bond_distance_aromatic_linkinvent_7_9_3/rearranged_h_0069.sdf

> <i_m_source_file_index>
71

> <r_mmod_Potential_Energy-OPLS-2005>
-125.45532989502

> <r_mmod_Stretch_Energy-OPLS-2005>
141.292358398438

> <r_mmod_Bend_Energy-OPLS-2005>
187.148880004883

> <r_mmod_Torsional_Energy-OPLS-2005>
202.154312133789

> <r_mmod_Improper_Torsional_Energy-OPLS-2005>
5.26663637161255

> <r_mmod_Van_der_Waal_Energy-OPLS-2005>
153.80500793457

> <r_mmod_Electrostatic_Energy-OPLS-2005>
-445.784912109375

> <r_mmod_Solvation_Energy-OPLS-2005>
-457.751098632812

> <b_mmod_Minimization_Converged-OPLS-2005>
0

> <r_mmod_RMS_Derivative-OPLS-2005>
2.87437605857849

$$$$
73
                    3D
 Structure written by MMmdl.
157165  0  0  1  0            999 V2000
  -30.7320  -14.4734   20.5715 C   0  0  0  0  0  0
  -30.4115  -12.3082   19.4293 C   0  0  0  0  0  0
  -29.4915  -12.4988   18.2081 C   0  0  0  0  0  0
  -28.0137  -12.3636   18.6211 C   0  0  0  0  0  0
  -27.6578  -13.2136   19.8706 C   0  0  2  0  0  0
  -28.7009  -13.0258   20.9959 C   0  0  0  0  0  0
  -25.2569  -13.8178   20.5683 C   0  0  0  0  0  0
  -24.1832  -13.0446   20.9185 C   0  0  0  0  0  0
  -24.6395  -11.6913   20.8740 C   0  0  0  0  0  0
  -23.9065  -10.4296   21.0408 C   0  0  0  0  0  0
  -24.3615   -9.4210   21.9189 C   0  0  0  0  0  0
  -23.6289   -8.2247   22.0757 C   0  0  0  0  0  0
  -22.4272   -8.0286   21.3546 C   0  0  0  0  0  0
  -21.9914   -9.0258   20.4644 C   0  0  0  0  0  0
  -22.7241  -10.2138   20.3053 C   0  0  0  0  0  0
  -21.6852   -6.0737   22.5278 C   0  0  0  0  0  0
  -21.4010   -6.5639   23.8212 C   0  0  0  0  0  0
  -21.3657   -5.6794   24.9174 C   0  0  0  0  0  0
  -21.6049   -4.3058   24.7225 C   0  0  0  0  0  0
  -21.8819   -3.8149   23.4347 C   0  0  0  0  0  0
  -21.9191   -4.6965   22.3402 C   0  0  0  0  0  0
  -22.7858  -13.5239   21.1854 C   0  0  0  0  0  0
  -22.1661   -4.2150   21.0980 F   0  0  0  0  0  0
  -21.5632   -3.4543   25.7739 F   0  0  0  0  0  0
  -30.0291  -13.3152   20.4331 N   0  0  0  0  0  0
  -26.3008  -12.9359   20.3356 N   0  0  0  0  0  0
  -25.9323  -11.6513   20.5767 N   0  0  0  0  0  0
  -22.0505  -12.8216   22.0404 N   0  0  0  0  0  0
  -25.4284  -15.1898   20.4076 N   0  0  0  0  0  0
  -31.8633  -14.6102   20.0980 O   0  0  0  0  0  0
  -21.6637   -6.8881   21.4241 O   0  0  0  0  0  0
  -22.3541  -14.5551   20.6714 O   0  0  0  0  0  0
  -24.6175  -31.8680   23.2114 C   0  0  0  0  0  0
  -25.9067  -32.4819   23.8407 C   0  0  1  0  0  0
  -27.2220  -27.4099   20.0939 C   0  0  0  0  0  0
  -25.5917  -33.8619   24.2333 N   0  0  0  0  0  0
  -23.4048  -30.4949   21.5536 C   0  0  2  0  0  0
  -24.8476  -28.9668   20.1109 C   0  0  0  0  0  0
  -22.7424  -29.4660   22.4987 C   0  0  0  0  0  0
  -18.0274  -28.1379   22.8499 C   0  0  0  0  0  0
  -24.1485  -36.7305   23.2641 C   0  0  0  0  0  0
  -25.9386  -30.8252   21.3703 C   0  0  0  0  0  0
  -26.0125  -29.4617   20.7107 C   0  0  0  0  0  0
  -27.2024  -28.6917   20.6991 C   0  0  0  0  0  0
  -26.0369  -26.9521   19.4665 C   0  0  0  0  0  0
  -24.8566  -27.7124   19.4843 C   0  0  0  0  0  0
  -23.6118  -29.8356   20.1661 C   0  0  0  0  0  0
  -25.4112  -36.3111   24.0337 C   0  0  1  0  0  0
  -20.5868  -28.3670   23.1314 C   0  0  2  0  0  0
  -20.6764  -26.9406   22.5415 C   0  0  0  0  0  0
  -19.5735  -26.6382   21.5216 C   0  0  0  0  0  0
  -18.1917  -26.7926   22.1629 C   0  0  0  0  0  0
  -19.1526  -28.8844   23.2897 C   0  0  0  0  0  0
  -18.9453  -30.1452   23.8899 C   0  0  0  0  0  0
  -17.6456  -30.6589   24.0564 C   0  0  0  0  0  0
  -25.9040  -34.9476   23.5130 C   0  0  0  0  0  0
  -16.5345  -29.9087   23.6334 C   0  0  0  0  0  0
  -16.7262  -28.6504   23.0353 C   0  0  0  0  0  0
  -26.4485  -31.6599   25.0739 C   0  0  0  0  0  0
  -25.3741  -31.3672   26.1467 C   0  0  0  0  0  0
  -27.0351  -30.3056   24.6128 C   0  0  0  0  0  0
  -27.6048  -32.4328   25.7514 C   0  0  0  0  0  0
  -27.5579  -37.1808   24.8470 C   0  0  0  0  0  0
  -21.4150  -29.3037   22.3722 N   0  0  0  0  0  0
  -26.4297  -37.3797   23.9410 N   0  0  0  0  0  0
  -24.6721  -31.0766   22.1030 N   0  0  0  0  0  0
  -23.4190  -28.8191   23.3025 O   0  0  0  0  0  0
  -28.3669  -26.6258   20.1435 O   0  0  0  0  0  0
  -26.5594  -34.8926   22.4688 O   0  0  0  0  0  0
  -23.5361  -32.1443   23.7496 O   0  0  0  0  0  0
  -31.7376  -19.3947   21.8193 C   0  0  0  0  0  0
  -31.8960  -16.9648   21.9476 C   0  0  0  0  0  0
  -29.8960  -18.0103   21.0234 C   0  0  0  0  0  0
  -32.4526  -18.2358   22.1772 C   0  0  0  0  0  0
  -30.4456  -19.3069   21.2428 C   0  0  0  0  0  0
  -30.6221  -16.8310   21.3501 C   0  0  0  0  0  0
  -29.9210  -21.7880   21.0438 C   0  0  0  0  0  0
  -33.8320  -18.3508   22.7966 C   0  0  0  0  0  0
  -28.9226  -22.7782   20.4100 C   0  0  0  0  0  0
  -29.2767  -24.2930   20.5529 C   0  0  0  0  0  0
  -28.1698  -25.2032   19.9732 C   0  0  0  0  0  0
  -29.6894  -20.4662   20.8413 N   0  0  0  0  0  0
  -30.0730  -15.5264   21.1066 N   0  0  0  0  0  0
  -30.8559  -22.2341   21.7115 O   0  0  0  0  0  0
  -31.4580  -12.3828   19.1297 H   0  0  0  0  0  0
  -30.2945  -11.3054   19.8433 H   0  0  0  0  0  0
  -29.7312  -11.7647   17.4376 H   0  0  0  0  0  0
  -29.6640  -13.4800   17.7627 H   0  0  0  0  0  0
  -27.8234  -11.3090   18.8247 H   0  0  0  0  0  0
  -27.3640  -12.6321   17.7873 H   0  0  0  0  0  0
  -27.6936  -14.2572   19.5571 H   0  0  0  0  0  0
  -28.6776  -12.0020   21.3723 H   0  0  0  0  0  0
  -28.4672  -13.6590   21.8532 H   0  0  0  0  0  0
  -25.2757   -9.5692   22.4767 H   0  0  0  0  0  0
  -23.9999   -7.4641   22.7478 H   0  0  0  0  0  0
  -21.0851   -8.8777   19.8942 H   0  0  0  0  0  0
  -22.3703  -10.9678   19.6160 H   0  0  0  0  0  0
  -21.1998   -7.6148   23.9714 H   0  0  0  0  0  0
  -21.1482   -6.0525   25.9078 H   0  0  0  0  0  0
  -22.0600   -2.7613   23.2848 H   0  0  0  0  0  0
  -22.4117  -11.9853   22.4756 H   0  0  0  0  0  0
  -21.1127  -13.1240   22.2632 H   0  0  0  0  0  0
  -24.6622  -15.8461   20.5118 H   0  0  0  0  0  0
  -26.2794  -15.6262   20.0764 H   0  0  0  0  0  0
  -26.7133  -32.5526   23.1163 H   0  0  0  0  0  0
  -25.0083  -33.9780   25.0488 H   0  0  0  0  0  0
  -22.6940  -31.3131   21.4190 H   0  0  0  0  0  0
  -23.3761  -35.9624   23.3306 H   0  0  0  0  0  0
  -24.3567  -36.8927   22.2055 H   0  0  0  0  0  0
  -23.7226  -37.6503   23.6662 H   0  0  0  0  0  0
  -26.0596  -31.5945   20.6061 H   0  0  0  0  0  0
  -26.8235  -30.8708   21.9935 H   0  0  0  0  0  0
  -28.0973  -29.0659   21.1765 H   0  0  0  0  0  0
  -25.9931  -26.0004   18.9578 H   0  0  0  0  0  0
  -23.9643  -27.3285   19.0087 H   0  0  0  0  0  0
  -23.7200  -30.6146   19.4107 H   0  0  0  0  0  0
  -22.7332  -29.2593   19.8695 H   0  0  0  0  0  0
  -25.1285  -36.1977   25.0830 H   0  0  0  0  0  0
  -20.9956  -28.3241   24.1435 H   0  0  0  0  0  0
  -20.5692  -26.2270   23.3601 H   0  0  0  0  0  0
  -21.6632  -26.7462   22.1192 H   0  0  0  0  0  0
  -19.6897  -25.6299   21.1233 H   0  0  0  0  0  0
  -19.6672  -27.3198   20.6756 H   0  0  0  0  0  0
  -17.4191  -26.6699   21.4022 H   0  0  0  0  0  0
  -18.0297  -26.0064   22.9016 H   0  0  0  0  0  0
  -19.7931  -30.7272   24.2256 H   0  0  0  0  0  0
  -17.5015  -31.6267   24.5170 H   0  0  0  0  0  0
  -15.5345  -30.2988   23.7662 H   0  0  0  0  0  0
  -15.8664  -28.0825   22.7063 H   0  0  0  0  0  0
  -24.5927  -30.7019   25.7776 H   0  0  0  0  0  0
  -24.8914  -32.2809   26.4942 H   0  0  0  0  0  0
  -25.8091  -30.8811   27.0210 H   0  0  0  0  0  0
  -26.2916  -29.6782   24.1199 H   0  0  0  0  0  0
  -27.4157  -29.7319   25.4590 H   0  0  0  0  0  0
  -27.8726  -30.4396   23.9276 H   0  0  0  0  0  0
  -27.2660  -33.3618   26.2113 H   0  0  0  0  0  0
  -28.3850  -32.6906   25.0339 H   0  0  0  0  0  0
  -28.0727  -31.8443   26.5415 H   0  0  0  0  0  0
  -28.2597  -38.0107   24.7541 H   0  0  0  0  0  0
  -28.1079  -36.2639   24.6287 H   0  0  0  0  0  0
  -27.2285  -37.1450   25.8869 H   0  0  0  0  0  0
  -20.9305  -29.8765   21.6952 H   0  0  0  0  0  0
  -26.0188  -38.2875   24.1420 H   0  0  0  0  0  0
  -32.2161  -20.3455   21.9922 H   0  0  0  0  0  0
  -32.4641  -16.0874   22.2255 H   0  0  0  0  0  0
  -28.9164  -17.9178   20.5750 H   0  0  0  0  0  0
  -34.0383  -19.3678   23.1322 H   0  0  0  0  0  0
  -34.5969  -18.0718   22.0711 H   0  0  0  0  0  0
  -33.9224  -17.6899   23.6594 H   0  0  0  0  0  0
  -27.9484  -22.5928   20.8639 H   0  0  0  0  0  0
  -28.8220  -22.5306   19.3526 H   0  0  0  0  0  0
  -30.2238  -24.5024   20.0547 H   0  0  0  0  0  0
  -29.4192  -24.5370   21.6064 H   0  0  0  0  0  0
  -27.2446  -24.8989   20.4667 H   0  0  0  0  0  0
  -28.0543  -24.9893   18.9092 H   0  0  0  0  0  0
  -28.8474  -20.2697   20.3172 H   0  0  0  0  0  0
  -29.0893  -15.3938   21.2878 H   0  0  0  0  0  0
  1 25  1  0  0  0
  1 30  2  0  0  0
  1 83  1  0  0  0
  2  3  1  0  0  0
  2 25  1  0  0  0
  2 85  1  0  0  0
  2 86  1  0  0  0
  3  4  1  0  0  0
  3 87  1  0  0  0
  3 88  1  0  0  0
  4  5  1  0  0  0
  4 89  1  0  0  0
  4 90  1  0  0  0
  5  6  1  0  0  0
  5 26  1  0  0  0
  5 91  1  0  0  0
  6 25  1  0  0  0
  6 92  1  0  0  0
  6 93  1  0  0  0
  7  8  2  0  0  0
  7 26  1  0  0  0
  7 29  1  0  0  0
  8  9  1  0  0  0
  8 22  1  0  0  0
  9 10  1  0  0  0
  9 27  2  0  0  0
 10 11  2  0  0  0
 10 15  1  0  0  0
 11 12  1  0  0  0
 11 94  1  0  0  0
 12 13  2  0  0  0
 12 95  1  0  0  0
 13 14  1  0  0  0
 13 31  1  0  0  0
 14 15  2  0  0  0
 14 96  1  0  0  0
 15 97  1  0  0  0
 16 17  2  0  0  0
 16 21  1  0  0  0
 16 31  1  0  0  0
 17 18  1  0  0  0
 17 98  1  0  0  0
 18 19  2  0  0  0
 18 99  1  0  0  0
 19 20  1  0  0  0
 19 24  1  0  0  0
 20 21  2  0  0  0
 20100  1  0  0  0
 21 23  1  0  0  0
 22 28  1  0  0  0
 22 32  2  0  0  0
 26 27  1  0  0  0
 28101  1  0  0  0
 28102  1  0  0  0
 29103  1  0  0  0
 29104  1  0  0  0
 33 34  1  0  0  0
 33 66  1  0  0  0
 33 70  2  0  0  0
 34 36  1  0  0  0
 34 59  1  0  0  0
 34105  1  0  0  0
 35 44  2  0  0  0
 35 45  1  0  0  0
 35 68  1  0  0  0
 36 56  1  0  0  0
 36106  1  0  0  0
 37 39  1  0  0  0
 37 47  1  0  0  0
 37 66  1  0  0  0
 37107  1  0  0  0
 38 43  2  0  0  0
 38 46  1  0  0  0
 38 47  1  0  0  0
 39 64  1  0  0  0
 39 67  2  0  0  0
 40 52  1  0  0  0
 40 53  2  0  0  0
 40 58  1  0  0  0
 41108  1  0  0  0
 41109  1  0  0  0
 41110  1  0  0  0
 41 48  1  0  0  0
 42 43  1  0  0  0
 42 66  1  0  0  0
 42111  1  0  0  0
 42112  1  0  0  0
 43 44  1  0  0  0
 44113  1  0  0  0
 45 46  2  0  0  0
 45114  1  0  0  0
 46115  1  0  0  0
 47116  1  0  0  0
 47117  1  0  0  0
 48 56  1  0  0  0
 48 65  1  0  0  0
 48118  1  0  0  0
 49 50  1  0  0  0
 49 53  1  0  0  0
 49 64  1  0  0  0
 49119  1  0  0  0
 50 51  1  0  0  0
 50120  1  0  0  0
 50121  1  0  0  0
 51 52  1  0  0  0
 51122  1  0  0  0
 51123  1  0  0  0
 52124  1  0  0  0
 52125  1  0  0  0
 53 54  1  0  0  0
 54 55  2  0  0  0
 54126  1  0  0  0
 55 57  1  0  0  0
 55127  1  0  0  0
 56 69  2  0  0  0
 57 58  2  0  0  0
 57128  1  0  0  0
 58129  1  0  0  0
 59 60  1  0  0  0
 59 61  1  0  0  0
 59 62  1  0  0  0
 60130  1  0  0  0
 60131  1  0  0  0
 60132  1  0  0  0
 61133  1  0  0  0
 61134  1  0  0  0
 61135  1  0  0  0
 62136  1  0  0  0
 62137  1  0  0  0
 62138  1  0  0  0
 63 65  1  0  0  0
 63139  1  0  0  0
 63140  1  0  0  0
 63141  1  0  0  0
 64142  1  0  0  0
 65143  1  0  0  0
 68 81  1  0  0  0
 71 74  2  0  0  0
 71 75  1  0  0  0
 71144  1  0  0  0
 72 74  1  0  0  0
 72 76  2  0  0  0
 72145  1  0  0  0
 73 75  2  0  0  0
 73 76  1  0  0  0
 73146  1  0  0  0
 74 78  1  0  0  0
 75 82  1  0  0  0
 76 83  1  0  0  0
 77 79  1  0  0  0
 77 82  1  0  0  0
 77 84  2  0  0  0
 78147  1  0  0  0
 78148  1  0  0  0
 78149  1  0  0  0
 79 80  1  0  0  0
 79150  1  0  0  0
 79151  1  0  0  0
 80 81  1  0  0  0
 80152  1  0  0  0
 80153  1  0  0  0
 81154  1  0  0  0
 81155  1  0  0  0
 82156  1  0  0  0
 83157  1  0  0  0
M  ISO  4   1 100  68 101  81 101  83 100
M  END
> <chiral flag>
0

> <version>
0

> <s_m_source_file>
/data/baiqing/PycharmProjects/Reinvent-master-3.2/result/LINK_invent/BTK/process_docking_weight1_custom_product_contain_oxygen_bond_distance_aromatic_linkinvent_7_9_3/rearranged_h_0069.sdf

> <i_m_source_file_index>
72

> <r_mmod_Potential_Energy-OPLS-2005>
-75.9528503417969

> <r_mmod_Stretch_Energy-OPLS-2005>
43.5529899597168

> <r_mmod_Bend_Energy-OPLS-2005>
102.220924377441

> <r_mmod_Torsional_Energy-OPLS-2005>
222.655029296875

> <r_mmod_Improper_Torsional_Energy-OPLS-2005>
3.52967357635498

> <r_mmod_Van_der_Waal_Energy-OPLS-2005>
167.605407714844

> <r_mmod_Electrostatic_Energy-OPLS-2005>
-396.611022949219

> <r_mmod_Solvation_Energy-OPLS-2005>
-236.575576782227

> <b_mmod_Minimization_Converged-OPLS-2005>
0

> <r_mmod_RMS_Derivative-OPLS-2005>
0.693717777729034

$$$$
74
                    3D
 Structure written by MMmdl.
151159  0  0  1  0            999 V2000
  -30.6154  -14.7290   20.4305 C   0  0  0  0  0  0
  -30.4260  -12.4369   19.4787 C   0  0  0  0  0  0
  -29.5097  -12.5027   18.2374 C   0  0  0  0  0  0
  -28.0335  -12.3371   18.6453 C   0  0  0  0  0  0
  -27.6402  -13.2348   19.8492 C   0  0  2  0  0  0
  -28.6824  -13.1664   20.9864 C   0  0  0  0  0  0
  -25.2496  -13.8212   20.5690 C   0  0  0  0  0  0
  -24.1792  -13.0447   20.9204 C   0  0  0  0  0  0
  -24.6384  -11.6927   20.8739 C   0  0  0  0  0  0
  -23.9065  -10.4300   21.0403 C   0  0  0  0  0  0
  -24.3620   -9.4216   21.9179 C   0  0  0  0  0  0
  -23.6298   -8.2248   22.0752 C   0  0  0  0  0  0
  -22.4279   -8.0280   21.3545 C   0  0  0  0  0  0
  -21.9906   -9.0252   20.4649 C   0  0  0  0  0  0
  -22.7232  -10.2136   20.3058 C   0  0  0  0  0  0
  -21.6857   -6.0734   22.5278 C   0  0  0  0  0  0
  -21.4017   -6.5637   23.8210 C   0  0  0  0  0  0
  -21.3662   -5.6791   24.9172 C   0  0  0  0  0  0
  -21.6045   -4.3052   24.7222 C   0  0  0  0  0  0
  -21.8821   -3.8144   23.4343 C   0  0  0  0  0  0
  -21.9195   -4.6961   22.3400 C   0  0  0  0  0  0
  -22.7813  -13.5224   21.1862 C   0  0  0  0  0  0
  -22.1665   -4.2147   21.0976 F   0  0  0  0  0  0
  -21.5628   -3.4536   25.7735 F   0  0  0  0  0  0
  -29.9876  -13.5041   20.4079 N   0  0  0  0  0  0
  -26.2921  -12.9421   20.3265 N   0  0  0  0  0  0
  -25.9314  -11.6560   20.5738 N   0  0  0  0  0  0
  -22.0458  -12.8221   22.0424 N   0  0  0  0  0  0
  -25.4192  -15.1938   20.4118 N   0  0  0  0  0  0
  -31.8123  -14.7952   20.1361 O   0  0  0  0  0  0
  -21.6645   -6.8877   21.4240 O   0  0  0  0  0  0
  -22.3489  -14.5518   20.6694 O   0  0  0  0  0  0
  -24.6307  -31.8547   23.1978 C   0  0  0  0  0  0
  -25.9141  -32.4742   23.8316 C   0  0  1  0  0  0
  -27.2195  -27.2670   20.1182 C   0  0  0  0  0  0
  -25.5943  -33.8548   24.2231 N   0  0  0  0  0  0
  -23.4249  -30.4784   21.5405 C   0  0  2  0  0  0
  -24.8697  -28.9245   20.1080 C   0  0  0  0  0  0
  -22.7486  -29.4603   22.4904 C   0  0  0  0  0  0
  -18.0287  -28.1381   22.8478 C   0  0  0  0  0  0
  -24.1490  -36.7287   23.2632 C   0  0  0  0  0  0
  -25.9708  -30.7685   21.3765 C   0  0  0  0  0  0
  -26.0402  -29.3927   20.7153 C   0  0  0  0  0  0
  -27.2137  -28.5751   20.7102 C   0  0  0  0  0  0
  -26.0177  -26.8579   19.4968 C   0  0  0  0  0  0
  -24.8630  -27.6651   19.4903 C   0  0  0  0  0  0
  -23.6409  -29.8114   20.1559 C   0  0  0  0  0  0
  -25.4117  -36.3061   24.0312 C   0  0  1  0  0  0
  -20.5888  -28.3687   23.1272 C   0  0  2  0  0  0
  -20.6769  -26.9407   22.5404 C   0  0  0  0  0  0
  -19.5746  -26.6376   21.5206 C   0  0  0  0  0  0
  -18.1930  -26.7920   22.1625 C   0  0  0  0  0  0
  -19.1540  -28.8854   23.2867 C   0  0  0  0  0  0
  -18.9466  -30.1460   23.8874 C   0  0  0  0  0  0
  -17.6465  -30.6582   24.0561 C   0  0  0  0  0  0
  -25.9069  -34.9435   23.5074 C   0  0  0  0  0  0
  -16.5356  -29.9078   23.6332 C   0  0  0  0  0  0
  -16.7276  -28.6502   23.0342 C   0  0  0  0  0  0
  -26.4500  -31.6577   25.0715 C   0  0  0  0  0  0
  -25.3728  -31.3743   26.1441 C   0  0  0  0  0  0
  -27.0342  -30.2978   24.6234 C   0  0  0  0  0  0
  -27.6033  -32.4336   25.7503 C   0  0  0  0  0  0
  -27.5584  -37.1789   24.8450 C   0  0  0  0  0  0
  -21.4195  -29.3034   22.3656 N   0  0  0  0  0  0
  -26.4277  -37.3774   23.9420 N   0  0  0  0  0  0
  -24.6944  -31.0524   22.0943 N   0  0  0  0  0  0
  -23.4192  -28.8148   23.3003 O   0  0  0  0  0  0
  -28.3459  -26.4166   20.1951 O   0  0  0  0  0  0
  -26.5650  -34.8919   22.4648 O   0  0  0  0  0  0
  -23.5466  -32.1367   23.7292 O   0  0  0  0  0  0
  -31.1160  -18.6623   18.3377 C   0  0  0  0  0  0
  -30.5111  -19.8283   18.8366 C   0  0  0  0  0  0
  -30.8936  -17.4078   18.9313 C   0  0  0  0  0  0
  -29.4311  -18.4826   20.5515 C   0  0  0  0  0  0
  -29.6340  -19.7993   19.9461 C   0  0  0  0  0  0
  -30.0627  -17.2551   20.0656 C   0  0  0  0  0  0
  -28.8867  -22.3038   19.7739 C   0  0  0  0  0  0
  -28.5431  -23.6821   20.5165 C   0  0  0  0  0  0
  -28.4173  -25.0294   19.6202 C   0  0  0  0  0  0
  -29.0679  -21.0906   20.4375 N   0  0  0  0  0  0
  -29.8531  -15.8805   20.6082 N   0  0  0  0  0  0
  -28.9458  -22.3524   18.5432 O   0  0  0  0  0  0
  -31.4692  -12.5484   19.1781 H   0  0  0  0  0  0
  -30.3587  -11.4602   19.9609 H   0  0  0  0  0  0
  -29.7883  -11.7297   17.5198 H   0  0  0  0  0  0
  -29.6469  -13.4586   17.7298 H   0  0  0  0  0  0
  -27.8806  -11.2882   18.9012 H   0  0  0  0  0  0
  -27.3824  -12.5412   17.7943 H   0  0  0  0  0  0
  -27.6357  -14.2575   19.4711 H   0  0  0  0  0  0
  -28.7077  -12.1705   21.4309 H   0  0  0  0  0  0
  -28.4212  -13.8553   21.7906 H   0  0  0  0  0  0
  -25.2769   -9.5692   22.4748 H   0  0  0  0  0  0
  -24.0012   -7.4638   22.7468 H   0  0  0  0  0  0
  -21.0838   -8.8767   19.8954 H   0  0  0  0  0  0
  -22.3688  -10.9672   19.6165 H   0  0  0  0  0  0
  -21.2014   -7.6147   23.9713 H   0  0  0  0  0  0
  -21.1481   -6.0522   25.9076 H   0  0  0  0  0  0
  -22.0600   -2.7607   23.2843 H   0  0  0  0  0  0
  -22.4081  -11.9904   22.4848 H   0  0  0  0  0  0
  -21.1070  -13.1241   22.2606 H   0  0  0  0  0  0
  -24.6515  -15.8481   20.5201 H   0  0  0  0  0  0
  -26.2652  -15.6324   20.0706 H   0  0  0  0  0  0
  -26.7207  -32.5383   23.1058 H   0  0  0  0  0  0
  -25.0057  -33.9676   25.0352 H   0  0  0  0  0  0
  -22.7220  -31.3013   21.3948 H   0  0  0  0  0  0
  -23.3754  -35.9614   23.3254 H   0  0  0  0  0  0
  -24.3583  -36.8959   22.2054 H   0  0  0  0  0  0
  -23.7239  -37.6470   23.6695 H   0  0  0  0  0  0
  -26.1161  -31.5331   20.6118 H   0  0  0  0  0  0
  -26.8463  -30.8109   22.0126 H   0  0  0  0  0  0
  -28.1115  -28.9286   21.1966 H   0  0  0  0  0  0
  -25.9175  -25.8911   19.0328 H   0  0  0  0  0  0
  -23.9625  -27.2969   19.0193 H   0  0  0  0  0  0
  -23.7671  -30.5870   19.3990 H   0  0  0  0  0  0
  -22.7585  -29.2454   19.8512 H   0  0  0  0  0  0
  -25.1300  -36.1875   25.0800 H   0  0  0  0  0  0
  -20.9986  -28.3258   24.1393 H   0  0  0  0  0  0
  -20.5655  -26.2299   23.3605 H   0  0  0  0  0  0
  -21.6642  -26.7423   22.1216 H   0  0  0  0  0  0
  -19.6903  -25.6284   21.1245 H   0  0  0  0  0  0
  -19.6685  -27.3179   20.6731 H   0  0  0  0  0  0
  -17.4198  -26.6664   21.4028 H   0  0  0  0  0  0
  -18.0337  -26.0062   22.9027 H   0  0  0  0  0  0
  -19.7945  -30.7288   24.2218 H   0  0  0  0  0  0
  -17.5021  -31.6259   24.5172 H   0  0  0  0  0  0
  -15.5357  -30.2977   23.7668 H   0  0  0  0  0  0
  -15.8676  -28.0828   22.7046 H   0  0  0  0  0  0
  -24.5896  -30.7092   25.7780 H   0  0  0  0  0  0
  -24.8941  -32.2928   26.4853 H   0  0  0  0  0  0
  -25.8060  -30.8934   27.0221 H   0  0  0  0  0  0
  -26.2930  -29.6722   24.1245 H   0  0  0  0  0  0
  -27.3964  -29.7253   25.4782 H   0  0  0  0  0  0
  -27.8840  -30.4206   23.9515 H   0  0  0  0  0  0
  -27.2598  -33.3623   26.2074 H   0  0  0  0  0  0
  -28.3860  -32.6919   25.0358 H   0  0  0  0  0  0
  -28.0685  -31.8474   26.5437 H   0  0  0  0  0  0
  -28.2559  -38.0129   24.7562 H   0  0  0  0  0  0
  -28.1131  -36.2667   24.6192 H   0  0  0  0  0  0
  -27.2324  -37.1333   25.8856 H   0  0  0  0  0  0
  -20.9367  -29.8768   21.6880 H   0  0  0  0  0  0
  -26.0140  -38.2833   24.1459 H   0  0  0  0  0  0
  -31.7690  -18.7316   17.4788 H   0  0  0  0  0  0
  -30.7544  -20.7569   18.3420 H   0  0  0  0  0  0
  -31.3800  -16.5582   18.4753 H   0  0  0  0  0  0
  -28.7772  -18.4145   21.4089 H   0  0  0  0  0  0
  -29.3215  -23.8395   21.2628 H   0  0  0  0  0  0
  -27.6184  -23.5413   21.0761 H   0  0  0  0  0  0
  -27.6605  -24.8633   18.8596 H   0  0  0  0  0  0
  -29.3319  -25.0626   19.0287 H   0  0  0  0  0  0
  -28.8205  -21.1081   21.4181 H   0  0  0  0  0  0
  -28.9523  -15.7181   21.0328 H   0  0  0  0  0  0
  1 25  1  0  0  0
  1 30  2  0  0  0
  1 81  1  0  0  0
  2  3  1  0  0  0
  2 25  1  0  0  0
  2 83  1  0  0  0
  2 84  1  0  0  0
  3  4  1  0  0  0
  3 85  1  0  0  0
  3 86  1  0  0  0
  4  5  1  0  0  0
  4 87  1  0  0  0
  4 88  1  0  0  0
  5  6  1  0  0  0
  5 26  1  0  0  0
  5 89  1  0  0  0
  6 25  1  0  0  0
  6 90  1  0  0  0
  6 91  1  0  0  0
  7  8  2  0  0  0
  7 26  1  0  0  0
  7 29  1  0  0  0
  8  9  1  0  0  0
  8 22  1  0  0  0
  9 10  1  0  0  0
  9 27  2  0  0  0
 10 11  2  0  0  0
 10 15  1  0  0  0
 11 12  1  0  0  0
 11 92  1  0  0  0
 12 13  2  0  0  0
 12 93  1  0  0  0
 13 14  1  0  0  0
 13 31  1  0  0  0
 14 15  2  0  0  0
 14 94  1  0  0  0
 15 95  1  0  0  0
 16 17  2  0  0  0
 16 21  1  0  0  0
 16 31  1  0  0  0
 17 18  1  0  0  0
 17 96  1  0  0  0
 18 19  2  0  0  0
 18 97  1  0  0  0
 19 20  1  0  0  0
 19 24  1  0  0  0
 20 21  2  0  0  0
 20 98  1  0  0  0
 21 23  1  0  0  0
 22 28  1  0  0  0
 22 32  2  0  0  0
 26 27  1  0  0  0
 28 99  1  0  0  0
 28100  1  0  0  0
 29101  1  0  0  0
 29102  1  0  0  0
 33 34  1  0  0  0
 33 66  1  0  0  0
 33 70  2  0  0  0
 34 36  1  0  0  0
 34 59  1  0  0  0
 34103  1  0  0  0
 35 44  2  0  0  0
 35 45  1  0  0  0
 35 68  1  0  0  0
 36 56  1  0  0  0
 36104  1  0  0  0
 37 39  1  0  0  0
 37 47  1  0  0  0
 37 66  1  0  0  0
 37105  1  0  0  0
 38 43  2  0  0  0
 38 46  1  0  0  0
 38 47  1  0  0  0
 39 64  1  0  0  0
 39 67  2  0  0  0
 40 52  1  0  0  0
 40 53  2  0  0  0
 40 58  1  0  0  0
 41106  1  0  0  0
 41107  1  0  0  0
 41108  1  0  0  0
 41 48  1  0  0  0
 42 43  1  0  0  0
 42 66  1  0  0  0
 42109  1  0  0  0
 42110  1  0  0  0
 43 44  1  0  0  0
 44111  1  0  0  0
 45 46  2  0  0  0
 45112  1  0  0  0
 46113  1  0  0  0
 47114  1  0  0  0
 47115  1  0  0  0
 48 56  1  0  0  0
 48 65  1  0  0  0
 48116  1  0  0  0
 49 50  1  0  0  0
 49 53  1  0  0  0
 49 64  1  0  0  0
 49117  1  0  0  0
 50 51  1  0  0  0
 50118  1  0  0  0
 50119  1  0  0  0
 51 52  1  0  0  0
 51120  1  0  0  0
 51121  1  0  0  0
 52122  1  0  0  0
 52123  1  0  0  0
 53 54  1  0  0  0
 54 55  2  0  0  0
 54124  1  0  0  0
 55 57  1  0  0  0
 55125  1  0  0  0
 56 69  2  0  0  0
 57 58  2  0  0  0
 57126  1  0  0  0
 58127  1  0  0  0
 59 60  1  0  0  0
 59 61  1  0  0  0
 59 62  1  0  0  0
 60128  1  0  0  0
 60129  1  0  0  0
 60130  1  0  0  0
 61131  1  0  0  0
 61132  1  0  0  0
 61133  1  0  0  0
 62134  1  0  0  0
 62135  1  0  0  0
 62136  1  0  0  0
 63 65  1  0  0  0
 63137  1  0  0  0
 63138  1  0  0  0
 63139  1  0  0  0
 64140  1  0  0  0
 65141  1  0  0  0
 68 79  1  0  0  0
 71 72  2  0  0  0
 71 73  1  0  0  0
 71142  1  0  0  0
 72 75  1  0  0  0
 72143  1  0  0  0
 73 76  2  0  0  0
 73144  1  0  0  0
 74 75  2  0  0  0
 74 76  1  0  0  0
 74145  1  0  0  0
 75 80  1  0  0  0
 76 81  1  0  0  0
 77 78  1  0  0  0
 77 80  1  0  0  0
 77 82  2  0  0  0
 78 79  1  0  0  0
 78146  1  0  0  0
 78147  1  0  0  0
 79148  1  0  0  0
 79149  1  0  0  0
 80150  1  0  0  0
 81151  1  0  0  0
M  ISO  4   1 100  68 101  79 101  81 100
M  END
> <chiral flag>
0

> <version>
0

> <s_m_source_file>
/data/baiqing/PycharmProjects/Reinvent-master-3.2/result/LINK_invent/BTK/process_docking_weight1_custom_product_contain_oxygen_bond_distance_aromatic_linkinvent_7_9_3/rearranged_h_0069.sdf

> <i_m_source_file_index>
73

> <r_mmod_Potential_Energy-OPLS-2005>
140.410675048828

> <r_mmod_Stretch_Energy-OPLS-2005>
126.903961181641

> <r_mmod_Bend_Energy-OPLS-2005>
167.898818969727

> <r_mmod_Torsional_Energy-OPLS-2005>
232.681365966797

> <r_mmod_Improper_Torsional_Energy-OPLS-2005>
4.74691677093506

> <r_mmod_Van_der_Waal_Energy-OPLS-2005>
149.580291748047

> <r_mmod_Electrostatic_Energy-OPLS-2005>
-385.980712890625

> <r_mmod_Solvation_Energy-OPLS-2005>
-234.019821166992

> <b_mmod_Minimization_Converged-OPLS-2005>
0

> <r_mmod_RMS_Derivative-OPLS-2005>
1.03019344806671

$$$$
75
                    3D
 Structure written by MMmdl.
154162  0  0  1  0            999 V2000
  -30.6283  -14.7585   20.4317 C   0  0  0  0  0  0
  -30.4313  -12.4567   19.4565 C   0  0  0  0  0  0
  -29.5049  -12.4813   18.2203 C   0  0  0  0  0  0
  -28.0334  -12.3020   18.6501 C   0  0  0  0  0  0
  -27.6333  -13.2299   19.8254 C   0  0  2  0  0  0
  -28.6829  -13.2013   20.9569 C   0  0  0  0  0  0
  -25.2473  -13.8184   20.5673 C   0  0  0  0  0  0
  -24.1784  -13.0427   20.9226 C   0  0  0  0  0  0
  -24.6384  -11.6894   20.8733 C   0  0  0  0  0  0
  -23.9044  -10.4286   21.0402 C   0  0  0  0  0  0
  -24.3605   -9.4188   21.9179 C   0  0  0  0  0  0
  -23.6296   -8.2219   22.0744 C   0  0  0  0  0  0
  -22.4260   -8.0274   21.3545 C   0  0  0  0  0  0
  -21.9904   -9.0230   20.4630 C   0  0  0  0  0  0
  -22.7228  -10.2118   20.3042 C   0  0  0  0  0  0
  -21.6845   -6.0700   22.5282 C   0  0  0  0  0  0
  -21.4013   -6.5614   23.8206 C   0  0  0  0  0  0
  -21.3658   -5.6767   24.9176 C   0  0  0  0  0  0
  -21.6055   -4.3048   24.7228 C   0  0  0  0  0  0
  -21.8810   -3.8117   23.4357 C   0  0  0  0  0  0
  -21.9192   -4.6916   22.3411 C   0  0  0  0  0  0
  -22.7799  -13.5203   21.1899 C   0  0  0  0  0  0
  -22.1653   -4.2112   21.0992 F   0  0  0  0  0  0
  -21.5634   -3.4540   25.7748 F   0  0  0  0  0  0
  -29.9816  -13.5434   20.3576 N   0  0  0  0  0  0
  -26.2898  -12.9399   20.3182 N   0  0  0  0  0  0
  -25.9312  -11.6545   20.5715 N   0  0  0  0  0  0
  -22.0439  -12.8184   22.0452 N   0  0  0  0  0  0
  -25.4144  -15.1914   20.4050 N   0  0  0  0  0  0
  -31.8394  -14.8106   20.2101 O   0  0  0  0  0  0
  -21.6633   -6.8856   21.4254 O   0  0  0  0  0  0
  -22.3466  -14.5484   20.6701 O   0  0  0  0  0  0
  -24.6332  -31.8538   23.1954 C   0  0  0  0  0  0
  -25.9160  -32.4739   23.8312 C   0  0  1  0  0  0
  -27.2356  -27.2685   20.1223 C   0  0  0  0  0  0
  -25.5924  -33.8541   24.2218 N   0  0  0  0  0  0
  -23.4303  -30.4762   21.5338 C   0  0  2  0  0  0
  -24.8810  -28.9193   20.1047 C   0  0  0  0  0  0
  -22.7507  -29.4583   22.4822 C   0  0  0  0  0  0
  -18.0299  -28.1418   22.8485 C   0  0  0  0  0  0
  -24.1485  -36.7282   23.2640 C   0  0  0  0  0  0
  -25.9753  -30.7722   21.3684 C   0  0  0  0  0  0
  -26.0482  -29.3916   20.7162 C   0  0  0  0  0  0
  -27.2229  -28.5759   20.7156 C   0  0  0  0  0  0
  -26.0386  -26.8495   19.5015 C   0  0  0  0  0  0
  -24.8808  -27.6568   19.4859 C   0  0  0  0  0  0
  -23.6534  -29.8099   20.1471 C   0  0  0  0  0  0
  -25.4108  -36.3051   24.0320 C   0  0  1  0  0  0
  -20.5923  -28.3732   23.1233 C   0  0  2  0  0  0
  -20.6790  -26.9439   22.5406 C   0  0  0  0  0  0
  -19.5747  -26.6393   21.5227 C   0  0  0  0  0  0
  -18.1923  -26.7957   22.1631 C   0  0  0  0  0  0
  -19.1572  -28.8884   23.2866 C   0  0  0  0  0  0
  -18.9484  -30.1476   23.8905 C   0  0  0  0  0  0
  -17.6479  -30.6598   24.0591 C   0  0  0  0  0  0
  -25.9056  -34.9426   23.5073 C   0  0  0  0  0  0
  -16.5370  -29.9105   23.6332 C   0  0  0  0  0  0
  -16.7293  -28.6537   23.0342 C   0  0  0  0  0  0
  -26.4536  -31.6591   25.0704 C   0  0  0  0  0  0
  -25.3767  -31.3785   26.1431 C   0  0  0  0  0  0
  -27.0385  -30.3006   24.6166 C   0  0  0  0  0  0
  -27.6056  -32.4365   25.7500 C   0  0  0  0  0  0
  -27.5564  -37.1765   24.8447 C   0  0  0  0  0  0
  -21.4221  -29.3073   22.3608 N   0  0  0  0  0  0
  -26.4249  -37.3773   23.9429 N   0  0  0  0  0  0
  -24.6990  -31.0515   22.0908 N   0  0  0  0  0  0
  -23.4222  -28.8111   23.2900 O   0  0  0  0  0  0
  -28.3661  -26.4228   20.1996 O   0  0  0  0  0  0
  -26.5606  -34.8915   22.4624 O   0  0  0  0  0  0
  -23.5458  -32.1332   23.7237 O   0  0  0  0  0  0
  -30.8484  -20.0084   21.6606 C   0  0  0  0  0  0
  -31.3030  -17.5898   21.6045 C   0  0  0  0  0  0
  -29.4683  -18.5314   20.3125 C   0  0  0  0  0  0
  -31.5836  -18.8844   22.0923 C   0  0  0  0  0  0
  -29.7799  -19.8975   20.7357 C   0  0  0  0  0  0
  -30.2132  -17.3448   20.7424 C   0  0  0  0  0  0
  -29.3170  -22.4817   20.4131 C   0  0  0  0  0  0
  -32.6516  -19.0579   23.1543 C   0  0  0  0  0  0
  -28.2089  -23.6436   20.2926 C   0  0  0  0  0  0
  -28.4849  -25.0694   19.5552 C   0  0  0  0  0  0
  -28.9989  -21.1211   20.3633 N   0  0  0  0  0  0
  -29.8630  -15.9263   20.4345 N   0  0  0  0  0  0
  -30.4869  -22.8460   20.5615 O   0  0  0  0  0  0
  -31.4738  -12.5766   19.1511 H   0  0  0  0  0  0
  -30.3768  -11.4897   19.9584 H   0  0  0  0  0  0
  -29.7882  -11.6881   17.5238 H   0  0  0  0  0  0
  -29.6288  -13.4209   17.6787 H   0  0  0  0  0  0
  -27.9151  -11.2628   18.9526 H   0  0  0  0  0  0
  -27.3634  -12.4450   17.8016 H   0  0  0  0  0  0
  -27.6157  -14.2406   19.4159 H   0  0  0  0  0  0
  -28.7176  -12.2179   21.4294 H   0  0  0  0  0  0
  -28.4174  -13.9178   21.7369 H   0  0  0  0  0  0
  -25.2754   -9.5639   22.4751 H   0  0  0  0  0  0
  -23.9980   -7.4595   22.7464 H   0  0  0  0  0  0
  -21.0828   -8.8751   19.8946 H   0  0  0  0  0  0
  -22.3703  -10.9641   19.6131 H   0  0  0  0  0  0
  -21.2009   -7.6126   23.9703 H   0  0  0  0  0  0
  -21.1496   -6.0513   25.9085 H   0  0  0  0  0  0
  -22.0596   -2.7581   23.2882 H   0  0  0  0  0  0
  -22.4054  -11.9885   22.4897 H   0  0  0  0  0  0
  -21.1038  -13.1170   22.2593 H   0  0  0  0  0  0
  -24.6401  -15.8407   20.5022 H   0  0  0  0  0  0
  -26.2555  -15.6364   20.0615 H   0  0  0  0  0  0
  -26.7231  -32.5394   23.1057 H   0  0  0  0  0  0
  -25.0177  -33.9680   25.0427 H   0  0  0  0  0  0
  -22.7303  -31.3015   21.3820 H   0  0  0  0  0  0
  -23.3714  -35.9639   23.3281 H   0  0  0  0  0  0
  -24.3615  -36.8924   22.2062 H   0  0  0  0  0  0
  -23.7252  -37.6476   23.6700 H   0  0  0  0  0  0
  -26.1040  -31.5289   20.5926 H   0  0  0  0  0  0
  -26.8595  -30.8335   21.9932 H   0  0  0  0  0  0
  -28.1169  -28.9331   21.2087 H   0  0  0  0  0  0
  -25.9574  -25.8736   19.0497 H   0  0  0  0  0  0
  -23.9874  -27.2866   19.0044 H   0  0  0  0  0  0
  -23.7884  -30.5891   19.3936 H   0  0  0  0  0  0
  -22.7732  -29.2453   19.8296 H   0  0  0  0  0  0
  -25.1283  -36.1880   25.0805 H   0  0  0  0  0  0
  -21.0060  -28.3343   24.1338 H   0  0  0  0  0  0
  -20.5694  -26.2368   23.3635 H   0  0  0  0  0  0
  -21.6645  -26.7449   22.1190 H   0  0  0  0  0  0
  -19.6907  -25.6309   21.1232 H   0  0  0  0  0  0
  -19.6655  -27.3239   20.6782 H   0  0  0  0  0  0
  -17.4202  -26.6735   21.4020 H   0  0  0  0  0  0
  -18.0291  -26.0113   22.9042 H   0  0  0  0  0  0
  -19.7984  -30.7289   24.2260 H   0  0  0  0  0  0
  -17.5055  -31.6275   24.5217 H   0  0  0  0  0  0
  -15.5389  -30.3018   23.7640 H   0  0  0  0  0  0
  -15.8708  -28.0866   22.7017 H   0  0  0  0  0  0
  -24.5920  -30.7155   25.7776 H   0  0  0  0  0  0
  -24.8997  -32.2989   26.4803 H   0  0  0  0  0  0
  -25.8080  -30.9001   27.0236 H   0  0  0  0  0  0
  -26.2966  -29.6731   24.1206 H   0  0  0  0  0  0
  -27.4115  -29.7287   25.4679 H   0  0  0  0  0  0
  -27.8841  -30.4268   23.9404 H   0  0  0  0  0  0
  -27.2613  -33.3668   26.2039 H   0  0  0  0  0  0
  -28.3906  -32.6918   25.0378 H   0  0  0  0  0  0
  -28.0704  -31.8538   26.5458 H   0  0  0  0  0  0
  -28.2511  -38.0126   24.7544 H   0  0  0  0  0  0
  -28.1115  -36.2639   24.6187 H   0  0  0  0  0  0
  -27.2309  -37.1331   25.8856 H   0  0  0  0  0  0
  -20.9417  -29.8869   21.6877 H   0  0  0  0  0  0
  -26.0094  -38.2819   24.1491 H   0  0  0  0  0  0
  -31.1028  -20.9709   22.0868 H   0  0  0  0  0  0
  -31.9108  -16.7697   21.9599 H   0  0  0  0  0  0
  -28.6272  -18.3934   19.6446 H   0  0  0  0  0  0
  -33.2802  -18.1719   23.2562 H   0  0  0  0  0  0
  -32.1763  -19.2345   24.1222 H   0  0  0  0  0  0
  -33.2977  -19.9063   22.9326 H   0  0  0  0  0  0
  -27.8678  -23.8597   21.3063 H   0  0  0  0  0  0
  -27.3517  -23.1911   19.7913 H   0  0  0  0  0  0
  -29.5127  -25.0419   19.1912 H   0  0  0  0  0  0
  -27.9093  -25.0796   18.6286 H   0  0  0  0  0  0
  -28.0474  -20.9443   20.0680 H   0  0  0  0  0  0
  -28.8841  -15.7636   20.2539 H   0  0  0  0  0  0
  1 25  1  0  0  0
  1 30  2  0  0  0
  1 82  1  0  0  0
  2  3  1  0  0  0
  2 25  1  0  0  0
  2 84  1  0  0  0
  2 85  1  0  0  0
  3  4  1  0  0  0
  3 86  1  0  0  0
  3 87  1  0  0  0
  4  5  1  0  0  0
  4 88  1  0  0  0
  4 89  1  0  0  0
  5  6  1  0  0  0
  5 26  1  0  0  0
  5 90  1  0  0  0
  6 25  1  0  0  0
  6 91  1  0  0  0
  6 92  1  0  0  0
  7  8  2  0  0  0
  7 26  1  0  0  0
  7 29  1  0  0  0
  8  9  1  0  0  0
  8 22  1  0  0  0
  9 10  1  0  0  0
  9 27  2  0  0  0
 10 11  2  0  0  0
 10 15  1  0  0  0
 11 12  1  0  0  0
 11 93  1  0  0  0
 12 13  2  0  0  0
 12 94  1  0  0  0
 13 14  1  0  0  0
 13 31  1  0  0  0
 14 15  2  0  0  0
 14 95  1  0  0  0
 15 96  1  0  0  0
 16 17  2  0  0  0
 16 21  1  0  0  0
 16 31  1  0  0  0
 17 18  1  0  0  0
 17 97  1  0  0  0
 18 19  2  0  0  0
 18 98  1  0  0  0
 19 20  1  0  0  0
 19 24  1  0  0  0
 20 21  2  0  0  0
 20 99  1  0  0  0
 21 23  1  0  0  0
 22 28  1  0  0  0
 22 32  2  0  0  0
 26 27  1  0  0  0
 28100  1  0  0  0
 28101  1  0  0  0
 29102  1  0  0  0
 29103  1  0  0  0
 33 34  1  0  0  0
 33 66  1  0  0  0
 33 70  2  0  0  0
 34 36  1  0  0  0
 34 59  1  0  0  0
 34104  1  0  0  0
 35 44  2  0  0  0
 35 45  1  0  0  0
 35 68  1  0  0  0
 36 56  1  0  0  0
 36105  1  0  0  0
 37 39  1  0  0  0
 37 47  1  0  0  0
 37 66  1  0  0  0
 37106  1  0  0  0
 38 43  2  0  0  0
 38 46  1  0  0  0
 38 47  1  0  0  0
 39 64  1  0  0  0
 39 67  2  0  0  0
 40 52  1  0  0  0
 40 53  2  0  0  0
 40 58  1  0  0  0
 41107  1  0  0  0
 41108  1  0  0  0
 41109  1  0  0  0
 41 48  1  0  0  0
 42 43  1  0  0  0
 42 66  1  0  0  0
 42110  1  0  0  0
 42111  1  0  0  0
 43 44  1  0  0  0
 44112  1  0  0  0
 45 46  2  0  0  0
 45113  1  0  0  0
 46114  1  0  0  0
 47115  1  0  0  0
 47116  1  0  0  0
 48 56  1  0  0  0
 48 65  1  0  0  0
 48117  1  0  0  0
 49 50  1  0  0  0
 49 53  1  0  0  0
 49 64  1  0  0  0
 49118  1  0  0  0
 50 51  1  0  0  0
 50119  1  0  0  0
 50120  1  0  0  0
 51 52  1  0  0  0
 51121  1  0  0  0
 51122  1  0  0  0
 52123  1  0  0  0
 52124  1  0  0  0
 53 54  1  0  0  0
 54 55  2  0  0  0
 54125  1  0  0  0
 55 57  1  0  0  0
 55126  1  0  0  0
 56 69  2  0  0  0
 57 58  2  0  0  0
 57127  1  0  0  0
 58128  1  0  0  0
 59 60  1  0  0  0
 59 61  1  0  0  0
 59 62  1  0  0  0
 60129  1  0  0  0
 60130  1  0  0  0
 60131  1  0  0  0
 61132  1  0  0  0
 61133  1  0  0  0
 61134  1  0  0  0
 62135  1  0  0  0
 62136  1  0  0  0
 62137  1  0  0  0
 63 65  1  0  0  0
 63138  1  0  0  0
 63139  1  0  0  0
 63140  1  0  0  0
 64141  1  0  0  0
 65142  1  0  0  0
 68 80  1  0  0  0
 71 74  2  0  0  0
 71 75  1  0  0  0
 71143  1  0  0  0
 72 74  1  0  0  0
 72 76  2  0  0  0
 72144  1  0  0  0
 73 75  2  0  0  0
 73 76  1  0  0  0
 73145  1  0  0  0
 74 78  1  0  0  0
 75 81  1  0  0  0
 76 82  1  0  0  0
 77 79  1  0  0  0
 77 81  1  0  0  0
 77 83  2  0  0  0
 78146  1  0  0  0
 78147  1  0  0  0
 78148  1  0  0  0
 79 80  1  0  0  0
 79149  1  0  0  0
 79150  1  0  0  0
 80151  1  0  0  0
 80152  1  0  0  0
 81153  1  0  0  0
 82154  1  0  0  0
M  ISO  4   1 100  68 101  80 101  82 100
M  END
> <chiral flag>
0

> <version>
0

> <s_m_source_file>
/data/baiqing/PycharmProjects/Reinvent-master-3.2/result/LINK_invent/BTK/process_docking_weight1_custom_product_contain_oxygen_bond_distance_aromatic_linkinvent_7_9_3/rearranged_h_0069.sdf

> <i_m_source_file_index>
74

> <r_mmod_Potential_Energy-OPLS-2005>
179.576324462891

> <r_mmod_Stretch_Energy-OPLS-2005>
135.895095825195

> <r_mmod_Bend_Energy-OPLS-2005>
183.284194946289

> <r_mmod_Torsional_Energy-OPLS-2005>
236.21647644043

> <r_mmod_Improper_Torsional_Energy-OPLS-2005>
8.60268115997314

> <r_mmod_Van_der_Waal_Energy-OPLS-2005>
137.448715209961

> <r_mmod_Electrostatic_Energy-OPLS-2005>
-368.944854736328

> <r_mmod_Solvation_Energy-OPLS-2005>
-242.350021362305

> <b_mmod_Minimization_Converged-OPLS-2005>
0

> <r_mmod_RMS_Derivative-OPLS-2005>
5.53964376449585

$$$$
76
                    3D
 Structure written by MMmdl.
161170  0  0  1  0            999 V2000
  -30.6299  -14.7551   20.4652 C   0  0  0  0  0  0
  -30.4236  -12.4643   19.4759 C   0  0  0  0  0  0
  -29.5052  -12.5057   18.2359 C   0  0  0  0  0  0
  -28.0326  -12.3301   18.6510 C   0  0  0  0  0  0
  -27.6369  -13.2367   19.8473 C   0  0  2  0  0  0
  -28.6816  -13.1918   20.9832 C   0  0  0  0  0  0
  -25.2485  -13.8206   20.5700 C   0  0  0  0  0  0
  -24.1786  -13.0443   20.9216 C   0  0  0  0  0  0
  -24.6384  -11.6925   20.8755 C   0  0  0  0  0  0
  -23.9068  -10.4295   21.0409 C   0  0  0  0  0  0
  -24.3619   -9.4208   21.9183 C   0  0  0  0  0  0
  -23.6295   -8.2244   22.0754 C   0  0  0  0  0  0
  -22.4276   -8.0282   21.3544 C   0  0  0  0  0  0
  -21.9915   -9.0253   20.4645 C   0  0  0  0  0  0
  -22.7243  -10.2133   20.3055 C   0  0  0  0  0  0
  -21.6855   -6.0734   22.5278 C   0  0  0  0  0  0
  -21.4013   -6.5639   23.8209 C   0  0  0  0  0  0
  -21.3659   -5.6793   24.9174 C   0  0  0  0  0  0
  -21.6044   -4.3056   24.7226 C   0  0  0  0  0  0
  -21.8820   -3.8146   23.4347 C   0  0  0  0  0  0
  -21.9191   -4.6962   22.3402 C   0  0  0  0  0  0
  -22.7807  -13.5220   21.1878 C   0  0  0  0  0  0
  -22.1662   -4.2148   21.0980 F   0  0  0  0  0  0
  -21.5628   -3.4541   25.7738 F   0  0  0  0  0  0
  -29.9787  -13.5414   20.3936 N   0  0  0  0  0  0
  -26.2911  -12.9423   20.3279 N   0  0  0  0  0  0
  -25.9314  -11.6561   20.5758 N   0  0  0  0  0  0
  -22.0457  -12.8201   22.0428 N   0  0  0  0  0  0
  -25.4163  -15.1932   20.4114 N   0  0  0  0  0  0
  -31.8212  -14.7974   20.1454 O   0  0  0  0  0  0
  -21.6643   -6.8876   21.4239 O   0  0  0  0  0  0
  -22.3490  -14.5527   20.6725 O   0  0  0  0  0  0
  -24.6329  -31.8528   23.1964 C   0  0  0  0  0  0
  -25.9148  -32.4740   23.8310 C   0  0  1  0  0  0
  -27.2181  -27.2435   20.1238 C   0  0  0  0  0  0
  -25.5941  -33.8542   24.2238 N   0  0  0  0  0  0
  -23.4291  -30.4754   21.5402 C   0  0  2  0  0  0
  -24.8742  -28.9184   20.1084 C   0  0  0  0  0  0
  -22.7508  -29.4586   22.4904 C   0  0  0  0  0  0
  -18.0293  -28.1384   22.8481 C   0  0  0  0  0  0
  -24.1495  -36.7279   23.2641 C   0  0  0  0  0  0
  -25.9760  -30.7594   21.3778 C   0  0  0  0  0  0
  -26.0455  -29.3803   20.7194 C   0  0  0  0  0  0
  -27.2152  -28.5541   20.7175 C   0  0  0  0  0  0
  -26.0182  -26.8495   19.4887 C   0  0  0  0  0  0
  -24.8667  -27.6621   19.4838 C   0  0  0  0  0  0
  -23.6469  -29.8084   20.1565 C   0  0  0  0  0  0
  -25.4123  -36.3062   24.0326 C   0  0  1  0  0  0
  -20.5896  -28.3692   23.1274 C   0  0  2  0  0  0
  -20.6780  -26.9408   22.5412 C   0  0  0  0  0  0
  -19.5758  -26.6374   21.5212 C   0  0  0  0  0  0
  -18.1934  -26.7925   22.1620 C   0  0  0  0  0  0
  -19.1545  -28.8854   23.2870 C   0  0  0  0  0  0
  -18.9469  -30.1455   23.8891 C   0  0  0  0  0  0
  -17.6468  -30.6585   24.0560 C   0  0  0  0  0  0
  -25.9065  -34.9433   23.5087 C   0  0  0  0  0  0
  -16.5359  -29.9082   23.6335 C   0  0  0  0  0  0
  -16.7278  -28.6500   23.0354 C   0  0  0  0  0  0
  -26.4505  -31.6579   25.0716 C   0  0  0  0  0  0
  -25.3721  -31.3743   26.1435 C   0  0  0  0  0  0
  -27.0362  -30.3000   24.6212 C   0  0  0  0  0  0
  -27.6049  -32.4331   25.7498 C   0  0  0  0  0  0
  -27.5582  -37.1795   24.8467 C   0  0  0  0  0  0
  -21.4213  -29.3040   22.3663 N   0  0  0  0  0  0
  -26.4294  -37.3764   23.9411 N   0  0  0  0  0  0
  -24.6987  -31.0481   22.0941 N   0  0  0  0  0  0
  -23.4206  -28.8124   23.3003 O   0  0  0  0  0  0
  -28.3374  -26.3772   20.2062 O   0  0  0  0  0  0
  -26.5630  -34.8913   22.4653 O   0  0  0  0  0  0
  -23.5479  -32.1360   23.7258 O   0  0  0  0  0  0
  -32.1683  -18.8837   21.3865 C   0  0  0  0  0  0
  -31.6729  -17.5893   21.1842 C   0  0  0  0  0  0
  -29.5278  -18.5621   20.5948 C   0  0  0  0  0  0
  -31.3761  -20.0357   21.2147 C   0  0  0  0  0  0
  -30.0198  -19.9370   20.7676 C   0  0  0  0  0  0
  -30.3415  -17.3538   20.7850 C   0  0  0  0  0  0
  -29.5402  -22.4460   20.1386 C   0  0  0  0  0  0
  -27.3856  -22.7934   20.9609 C   0  0  0  0  0  0
  -27.8680  -21.3282   21.2145 C   0  0  0  0  0  0
  -28.6352  -23.6482   20.6533 C   0  0  1  0  0  0
  -32.0474  -21.3436   21.6170 C   0  0  0  0  0  0
  -29.2614  -24.1714   21.9624 C   0  0  0  0  0  0
  -28.3874  -24.9522   19.6949 C   0  0  0  0  0  0
  -29.1971  -21.1920   20.6208 N   0  0  0  0  0  0
  -29.8928  -15.9293   20.6562 N   0  0  0  0  0  0
  -30.4634  -22.6519   19.3454 O   0  0  0  0  0  0
  -31.4652  -12.5760   19.1712 H   0  0  0  0  0  0
  -30.3628  -11.4939   19.9706 H   0  0  0  0  0  0
  -29.7895  -11.7263   17.5275 H   0  0  0  0  0  0
  -29.6307  -13.4558   17.7138 H   0  0  0  0  0  0
  -27.8908  -11.2827   18.9190 H   0  0  0  0  0  0
  -27.3750  -12.5167   17.8010 H   0  0  0  0  0  0
  -27.6245  -14.2546   19.4570 H   0  0  0  0  0  0
  -28.7207  -12.2014   21.4391 H   0  0  0  0  0  0
  -28.4161  -13.8876   21.7807 H   0  0  0  0  0  0
  -25.2759   -9.5687   22.4765 H   0  0  0  0  0  0
  -24.0003   -7.4635   22.7473 H   0  0  0  0  0  0
  -21.0846   -8.8768   19.8949 H   0  0  0  0  0  0
  -22.3694  -10.9672   19.6170 H   0  0  0  0  0  0
  -21.2007   -7.6147   23.9712 H   0  0  0  0  0  0
  -21.1483   -6.0524   25.9075 H   0  0  0  0  0  0
  -22.0598   -2.7608   23.2848 H   0  0  0  0  0  0
  -22.4084  -11.9865   22.4814 H   0  0  0  0  0  0
  -21.1072  -13.1214   22.2639 H   0  0  0  0  0  0
  -24.6455  -15.8441   20.5182 H   0  0  0  0  0  0
  -26.2566  -15.6331   20.0590 H   0  0  0  0  0  0
  -26.7209  -32.5379   23.1043 H   0  0  0  0  0  0
  -25.0100  -33.9671   25.0392 H   0  0  0  0  0  0
  -22.7266  -31.2984   21.3930 H   0  0  0  0  0  0
  -23.3754  -35.9611   23.3300 H   0  0  0  0  0  0
  -24.3580  -36.8912   22.2056 H   0  0  0  0  0  0
  -23.7249  -37.6479   23.6672 H   0  0  0  0  0  0
  -26.1179  -31.5190   20.6079 H   0  0  0  0  0  0
  -26.8522  -30.8064   22.0124 H   0  0  0  0  0  0
  -28.1114  -28.9011   21.2120 H   0  0  0  0  0  0
  -25.9163  -25.8916   19.0063 H   0  0  0  0  0  0
  -23.9680  -27.3025   19.0021 H   0  0  0  0  0  0
  -23.7734  -30.5840   19.4005 H   0  0  0  0  0  0
  -22.7644  -29.2438   19.8507 H   0  0  0  0  0  0
  -25.1303  -36.1902   25.0814 H   0  0  0  0  0  0
  -20.9984  -28.3266   24.1397 H   0  0  0  0  0  0
  -20.5687  -26.2293   23.3612 H   0  0  0  0  0  0
  -21.6646  -26.7432   22.1201 H   0  0  0  0  0  0
  -19.6926  -25.6280   21.1248 H   0  0  0  0  0  0
  -19.6707  -27.3179   20.6738 H   0  0  0  0  0  0
  -17.4206  -26.6677   21.4016 H   0  0  0  0  0  0
  -18.0330  -26.0064   22.9014 H   0  0  0  0  0  0
  -19.7945  -30.7270   24.2256 H   0  0  0  0  0  0
  -17.5022  -31.6267   24.5156 H   0  0  0  0  0  0
  -15.5359  -30.2980   23.7658 H   0  0  0  0  0  0
  -15.8679  -28.0818   22.7071 H   0  0  0  0  0  0
  -24.5913  -30.7069   25.7775 H   0  0  0  0  0  0
  -24.8892  -32.2911   26.4819 H   0  0  0  0  0  0
  -25.8028  -30.8961   27.0242 H   0  0  0  0  0  0
  -26.2955  -29.6740   24.1225 H   0  0  0  0  0  0
  -27.4039  -29.7271   25.4735 H   0  0  0  0  0  0
  -27.8829  -30.4283   23.9467 H   0  0  0  0  0  0
  -27.2653  -33.3647   26.2035 H   0  0  0  0  0  0
  -28.3878  -32.6863   25.0341 H   0  0  0  0  0  0
  -28.0688  -31.8484   26.5452 H   0  0  0  0  0  0
  -28.2588  -38.0102   24.7504 H   0  0  0  0  0  0
  -28.1084  -36.2623   24.6293 H   0  0  0  0  0  0
  -27.2294  -37.1451   25.8870 H   0  0  0  0  0  0
  -20.9396  -29.8781   21.6887 H   0  0  0  0  0  0
  -26.0170  -38.2839   24.1399 H   0  0  0  0  0  0
  -33.1912  -18.9824   21.7239 H   0  0  0  0  0  0
  -32.3528  -16.7760   21.3868 H   0  0  0  0  0  0
  -28.4945  -18.4346   20.3051 H   0  0  0  0  0  0
  -26.8128  -23.1786   21.8054 H   0  0  0  0  0  0
  -26.7145  -22.8023   20.1006 H   0  0  0  0  0  0
  -27.1742  -20.5999   20.7933 H   0  0  0  0  0  0
  -27.9464  -21.1326   22.2846 H   0  0  0  0  0  0
  -32.8812  -21.1648   22.2970 H   0  0  0  0  0  0
  -31.3669  -22.0047   22.1501 H   0  0  0  0  0  0
  -32.4535  -21.8603   20.7479 H   0  0  0  0  0  0
  -29.4872  -23.3688   22.6653 H   0  0  0  0  0  0
  -28.5848  -24.8592   22.4700 H   0  0  0  0  0  0
  -30.1881  -24.7121   21.7665 H   0  0  0  0  0  0
  -27.5708  -24.7259   19.0175 H   0  0  0  0  0  0
  -29.2400  -24.9843   19.0166 H   0  0  0  0  0  0
  -28.8968  -15.7826   20.7226 H   0  0  0  0  0  0
  1 25  1  0  0  0
  1 30  2  0  0  0
  1 85  1  0  0  0
  2  3  1  0  0  0
  2 25  1  0  0  0
  2 87  1  0  0  0
  2 88  1  0  0  0
  3  4  1  0  0  0
  3 89  1  0  0  0
  3 90  1  0  0  0
  4  5  1  0  0  0
  4 91  1  0  0  0
  4 92  1  0  0  0
  5  6  1  0  0  0
  5 26  1  0  0  0
  5 93  1  0  0  0
  6 25  1  0  0  0
  6 94  1  0  0  0
  6 95  1  0  0  0
  7  8  2  0  0  0
  7 26  1  0  0  0
  7 29  1  0  0  0
  8  9  1  0  0  0
  8 22  1  0  0  0
  9 10  1  0  0  0
  9 27  2  0  0  0
 10 11  2  0  0  0
 10 15  1  0  0  0
 11 12  1  0  0  0
 11 96  1  0  0  0
 12 13  2  0  0  0
 12 97  1  0  0  0
 13 14  1  0  0  0
 13 31  1  0  0  0
 14 15  2  0  0  0
 14 98  1  0  0  0
 15 99  1  0  0  0
 16 17  2  0  0  0
 16 21  1  0  0  0
 16 31  1  0  0  0
 17 18  1  0  0  0
 17100  1  0  0  0
 18 19  2  0  0  0
 18101  1  0  0  0
 19 20  1  0  0  0
 19 24  1  0  0  0
 20 21  2  0  0  0
 20102  1  0  0  0
 21 23  1  0  0  0
 22 28  1  0  0  0
 22 32  2  0  0  0
 26 27  1  0  0  0
 28103  1  0  0  0
 28104  1  0  0  0
 29105  1  0  0  0
 29106  1  0  0  0
 33 34  1  0  0  0
 33 66  1  0  0  0
 33 70  2  0  0  0
 34 36  1  0  0  0
 34 59  1  0  0  0
 34107  1  0  0  0
 35 44  2  0  0  0
 35 45  1  0  0  0
 35 68  1  0  0  0
 36 56  1  0  0  0
 36108  1  0  0  0
 37 39  1  0  0  0
 37 47  1  0  0  0
 37 66  1  0  0  0
 37109  1  0  0  0
 38 43  2  0  0  0
 38 46  1  0  0  0
 38 47  1  0  0  0
 39 64  1  0  0  0
 39 67  2  0  0  0
 40 52  1  0  0  0
 40 53  2  0  0  0
 40 58  1  0  0  0
 41110  1  0  0  0
 41111  1  0  0  0
 41112  1  0  0  0
 41 48  1  0  0  0
 42 43  1  0  0  0
 42 66  1  0  0  0
 42113  1  0  0  0
 42114  1  0  0  0
 43 44  1  0  0  0
 44115  1  0  0  0
 45 46  2  0  0  0
 45116  1  0  0  0
 46117  1  0  0  0
 47118  1  0  0  0
 47119  1  0  0  0
 48 56  1  0  0  0
 48 65  1  0  0  0
 48120  1  0  0  0
 49 50  1  0  0  0
 49 53  1  0  0  0
 49 64  1  0  0  0
 49121  1  0  0  0
 50 51  1  0  0  0
 50122  1  0  0  0
 50123  1  0  0  0
 51 52  1  0  0  0
 51124  1  0  0  0
 51125  1  0  0  0
 52126  1  0  0  0
 52127  1  0  0  0
 53 54  1  0  0  0
 54 55  2  0  0  0
 54128  1  0  0  0
 55 57  1  0  0  0
 55129  1  0  0  0
 56 69  2  0  0  0
 57 58  2  0  0  0
 57130  1  0  0  0
 58131  1  0  0  0
 59 60  1  0  0  0
 59 61  1  0  0  0
 59 62  1  0  0  0
 60132  1  0  0  0
 60133  1  0  0  0
 60134  1  0  0  0
 61135  1  0  0  0
 61136  1  0  0  0
 61137  1  0  0  0
 62138  1  0  0  0
 62139  1  0  0  0
 62140  1  0  0  0
 63 65  1  0  0  0
 63141  1  0  0  0
 63142  1  0  0  0
 63143  1  0  0  0
 64144  1  0  0  0
 65145  1  0  0  0
 68 83  1  0  0  0
 71 72  2  0  0  0
 71 74  1  0  0  0
 71146  1  0  0  0
 72 76  1  0  0  0
 72147  1  0  0  0
 73 75  1  0  0  0
 73 76  2  0  0  0
 73148  1  0  0  0
 74 75  2  0  0  0
 74 81  1  0  0  0
 75 84  1  0  0  0
 76 85  1  0  0  0
 77 80  1  0  0  0
 77 84  1  0  0  0
 77 86  2  0  0  0
 78 79  1  0  0  0
 78 80  1  0  0  0
 78149  1  0  0  0
 78150  1  0  0  0
 79 84  1  0  0  0
 79151  1  0  0  0
 79152  1  0  0  0
 80 82  1  0  0  0
 80 83  1  0  0  0
 81153  1  0  0  0
 81154  1  0  0  0
 81155  1  0  0  0
 82156  1  0  0  0
 82157  1  0  0  0
 82158  1  0  0  0
 83159  1  0  0  0
 83160  1  0  0  0
 85161  1  0  0  0
M  ISO  4   1 100  68 101  83 101  85 100
M  END
> <chiral flag>
0

> <version>
0

> <s_m_source_file>
/data/baiqing/PycharmProjects/Reinvent-master-3.2/result/LINK_invent/BTK/process_docking_weight1_custom_product_contain_oxygen_bond_distance_aromatic_linkinvent_7_9_3/rearranged_h_0069.sdf

> <i_m_source_file_index>
75

> <r_mmod_Potential_Energy-OPLS-2005>
346.925659179688

> <r_mmod_Stretch_Energy-OPLS-2005>
145.986038208008

> <r_mmod_Bend_Energy-OPLS-2005>
216.101593017578

> <r_mmod_Torsional_Energy-OPLS-2005>
296.472442626953

> <r_mmod_Improper_Torsional_Energy-OPLS-2005>
6.13737010955811

> <r_mmod_Van_der_Waal_Energy-OPLS-2005>
147.066833496094

> <r_mmod_Electrostatic_Energy-OPLS-2005>
-334.827087402344

> <r_mmod_Solvation_Energy-OPLS-2005>
-220.298431396484

> <b_mmod_Minimization_Converged-OPLS-2005>
0

> <r_mmod_RMS_Derivative-OPLS-2005>
0.803458631038666

$$$$
77
                    3D
 Structure written by MMmdl.
166175  0  0  1  0            999 V2000
  -30.6027  -14.6487   20.5161 C   0  0  0  0  0  0
  -30.4474  -12.4016   19.4482 C   0  0  0  0  0  0
  -29.5110  -12.5183   18.2236 C   0  0  0  0  0  0
  -28.0332  -12.3526   18.6341 C   0  0  0  0  0  0
  -27.6583  -13.2134   19.8698 C   0  0  2  0  0  0
  -28.7037  -13.0431   20.9953 C   0  0  0  0  0  0
  -25.2580  -13.8165   20.5689 C   0  0  0  0  0  0
  -24.1845  -13.0434   20.9206 C   0  0  0  0  0  0
  -24.6407  -11.6903   20.8751 C   0  0  0  0  0  0
  -23.9069  -10.4286   21.0409 C   0  0  0  0  0  0
  -24.3614   -9.4199   21.9187 C   0  0  0  0  0  0
  -23.6286   -8.2236   22.0756 C   0  0  0  0  0  0
  -22.4269   -8.0278   21.3546 C   0  0  0  0  0  0
  -21.9907   -9.0253   20.4649 C   0  0  0  0  0  0
  -22.7240  -10.2130   20.3058 C   0  0  0  0  0  0
  -21.6847   -6.0733   22.5282 C   0  0  0  0  0  0
  -21.4013   -6.5637   23.8217 C   0  0  0  0  0  0
  -21.3661   -5.6791   24.9180 C   0  0  0  0  0  0
  -21.6043   -4.3054   24.7230 C   0  0  0  0  0  0
  -21.8818   -3.8144   23.4351 C   0  0  0  0  0  0
  -21.9190   -4.6961   22.3406 C   0  0  0  0  0  0
  -22.7865  -13.5231   21.1862 C   0  0  0  0  0  0
  -22.1660   -4.2146   21.0984 F   0  0  0  0  0  0
  -21.5629   -3.4538   25.7743 F   0  0  0  0  0  0
  -30.0197  -13.4079   20.4417 N   0  0  0  0  0  0
  -26.3016  -12.9340   20.3346 N   0  0  0  0  0  0
  -25.9335  -11.6496   20.5766 N   0  0  0  0  0  0
  -22.0490  -12.8225   22.0409 N   0  0  0  0  0  0
  -25.4275  -15.1881   20.4046 N   0  0  0  0  0  0
  -31.7423  -14.8495   20.0844 O   0  0  0  0  0  0
  -21.6631   -6.8876   21.4243 O   0  0  0  0  0  0
  -22.3557  -14.5540   20.6710 O   0  0  0  0  0  0
  -24.6268  -31.8596   23.2016 C   0  0  0  0  0  0
  -25.9112  -32.4779   23.8347 C   0  0  1  0  0  0
  -27.2268  -27.3115   20.1156 C   0  0  0  0  0  0
  -25.5924  -33.8579   24.2275 N   0  0  0  0  0  0
  -23.4215  -30.4830   21.5440 C   0  0  2  0  0  0
  -24.8680  -28.9377   20.1093 C   0  0  0  0  0  0
  -22.7480  -29.4629   22.4928 C   0  0  0  0  0  0
  -18.0295  -28.1393   22.8494 C   0  0  0  0  0  0
  -24.1489  -36.7290   23.2639 C   0  0  0  0  0  0
  -25.9635  -30.7864   21.3755 C   0  0  0  0  0  0
  -26.0367  -29.4133   20.7169 C   0  0  0  0  0  0
  -27.2169  -28.6114   20.7122 C   0  0  0  0  0  0
  -26.0352  -26.8950   19.4763 C   0  0  0  0  0  0
  -24.8699  -27.6838   19.4803 C   0  0  0  0  0  0
  -23.6364  -29.8182   20.1589 C   0  0  0  0  0  0
  -25.4116  -36.3085   24.0329 C   0  0  1  0  0  0
  -20.5897  -28.3697   23.1282 C   0  0  2  0  0  0
  -20.6787  -26.9420   22.5412 C   0  0  0  0  0  0
  -19.5760  -26.6390   21.5219 C   0  0  0  0  0  0
  -18.1940  -26.7938   22.1629 C   0  0  0  0  0  0
  -19.1549  -28.8861   23.2886 C   0  0  0  0  0  0
  -18.9469  -30.1464   23.8899 C   0  0  0  0  0  0
  -17.6469  -30.6593   24.0570 C   0  0  0  0  0  0
  -25.9052  -34.9454   23.5103 C   0  0  0  0  0  0
  -16.5360  -29.9094   23.6334 C   0  0  0  0  0  0
  -16.7282  -28.6513   23.0353 C   0  0  0  0  0  0
  -26.4492  -31.6590   25.0720 C   0  0  0  0  0  0
  -25.3723  -31.3735   26.1444 C   0  0  0  0  0  0
  -27.0333  -30.3014   24.6178 C   0  0  0  0  0  0
  -27.6049  -32.4326   25.7493 C   0  0  0  0  0  0
  -27.5583  -37.1803   24.8467 C   0  0  0  0  0  0
  -21.4193  -29.3047   22.3668 N   0  0  0  0  0  0
  -26.4297  -37.3779   23.9409 N   0  0  0  0  0  0
  -24.6893  -31.0603   22.0968 N   0  0  0  0  0  0
  -23.4199  -28.8175   23.3016 O   0  0  0  0  0  0
  -28.3451  -26.4602   20.1803 O   0  0  0  0  0  0
  -26.5620  -34.8923   22.4672 O   0  0  0  0  0  0
  -23.5431  -32.1397   23.7340 O   0  0  0  0  0  0
  -28.6612  -19.2720   21.5538 C   0  0  0  0  0  0
  -30.6112  -17.9075   20.1059 C   0  0  0  0  0  0
  -28.7288  -17.8436   21.6293 C   0  0  0  0  0  0
  -30.5129  -19.3375   20.0231 C   0  0  0  0  0  0
  -29.5252  -20.0625   20.7572 C   0  0  0  0  0  0
  -29.7412  -17.1162   20.9111 C   0  0  0  0  0  0
  -29.1692  -22.4746   19.8853 C   0  0  0  0  0  0
  -27.7308  -17.1538   22.5199 C   0  0  0  0  0  0
  -29.1975  -23.6884   21.9193 C   0  0  0  0  0  0
  -29.6037  -22.2113   22.1264 C   0  0  0  0  0  0
  -29.2731  -23.9612   20.4070 C   0  0  1  0  0  0
  -31.5213  -20.0835   19.1668 C   0  0  0  0  0  0
  -26.4230  -17.8777   22.8256 C   0  0  0  0  0  0
  -30.6643  -24.4995   20.0126 C   0  0  0  0  0  0
  -28.1705  -25.0087   19.9036 C   0  0  0  0  0  0
  -29.4405  -21.5335   20.8422 N   0  0  0  0  0  0
  -29.7923  -15.6450   20.9959 N   0  0  0  0  0  0
  -28.8891  -22.2192   18.7105 O   0  0  0  0  0  0
  -27.8899  -16.0244   22.9926 O   0  0  0  0  0  0
  -31.4861  -12.5416   19.1437 H   0  0  0  0  0  0
  -30.3956  -11.3998   19.8776 H   0  0  0  0  0  0
  -29.7762  -11.7721   17.4732 H   0  0  0  0  0  0
  -29.6504  -13.4906   17.7482 H   0  0  0  0  0  0
  -27.8676  -11.2977   18.8557 H   0  0  0  0  0  0
  -27.3795  -12.5914   17.7943 H   0  0  0  0  0  0
  -27.6836  -14.2534   19.5440 H   0  0  0  0  0  0
  -28.7189  -12.0103   21.3463 H   0  0  0  0  0  0
  -28.4414  -13.6402   21.8688 H   0  0  0  0  0  0
  -25.2759   -9.5669   22.4764 H   0  0  0  0  0  0
  -23.9992   -7.4622   22.7471 H   0  0  0  0  0  0
  -21.0841   -8.8769   19.8952 H   0  0  0  0  0  0
  -22.3698  -10.9668   19.6168 H   0  0  0  0  0  0
  -21.2004   -7.6145   23.9720 H   0  0  0  0  0  0
  -21.1488   -6.0523   25.9084 H   0  0  0  0  0  0
  -22.0594   -2.7605   23.2855 H   0  0  0  0  0  0
  -22.4088  -11.9883   22.4807 H   0  0  0  0  0  0
  -21.1112  -13.1268   22.2609 H   0  0  0  0  0  0
  -24.6517  -15.8345   20.4946 H   0  0  0  0  0  0
  -26.2586  -15.6144   20.0169 H   0  0  0  0  0  0
  -26.7178  -32.5440   23.1089 H   0  0  0  0  0  0
  -25.0069  -33.9726   25.0420 H   0  0  0  0  0  0
  -22.7166  -31.3045   21.4009 H   0  0  0  0  0  0
  -23.3754  -35.9618   23.3308 H   0  0  0  0  0  0
  -24.3582  -36.8902   22.2053 H   0  0  0  0  0  0
  -23.7239  -37.6494   23.6654 H   0  0  0  0  0  0
  -26.0987  -31.5497   20.6082 H   0  0  0  0  0  0
  -26.8434  -30.8334   22.0058 H   0  0  0  0  0  0
  -28.1114  -28.9714   21.2010 H   0  0  0  0  0  0
  -25.9724  -25.9422   18.9725 H   0  0  0  0  0  0
  -23.9757  -27.3157   18.9958 H   0  0  0  0  0  0
  -23.7554  -30.5953   19.4027 H   0  0  0  0  0  0
  -22.7564  -29.2477   19.8561 H   0  0  0  0  0  0
  -25.1299  -36.1938   25.0822 H   0  0  0  0  0  0
  -20.9995  -28.3273   24.1401 H   0  0  0  0  0  0
  -20.5704  -26.2303   23.3613 H   0  0  0  0  0  0
  -21.6653  -26.7460   22.1194 H   0  0  0  0  0  0
  -19.6919  -25.6301   21.1249 H   0  0  0  0  0  0
  -19.6696  -27.3204   20.6751 H   0  0  0  0  0  0
  -17.4212  -26.6693   21.4030 H   0  0  0  0  0  0
  -18.0334  -26.0086   22.9029 H   0  0  0  0  0  0
  -19.7944  -30.7289   24.2261 H   0  0  0  0  0  0
  -17.5023  -31.6273   24.5174 H   0  0  0  0  0  0
  -15.5361  -30.2997   23.7655 H   0  0  0  0  0  0
  -15.8684  -28.0834   22.7057 H   0  0  0  0  0  0
  -24.5893  -30.7090   25.7771 H   0  0  0  0  0  0
  -24.8917  -32.2903   26.4867 H   0  0  0  0  0  0
  -25.8043  -30.8911   27.0220 H   0  0  0  0  0  0
  -26.2906  -29.6771   24.1195 H   0  0  0  0  0  0
  -27.4024  -29.7264   25.4681 H   0  0  0  0  0  0
  -27.8779  -30.4303   23.9407 H   0  0  0  0  0  0
  -27.2653  -33.3622   26.2077 H   0  0  0  0  0  0
  -28.3854  -32.6897   25.0318 H   0  0  0  0  0  0
  -28.0720  -31.8446   26.5406 H   0  0  0  0  0  0
  -28.2601  -38.0098   24.7517 H   0  0  0  0  0  0
  -28.1077  -36.2632   24.6290 H   0  0  0  0  0  0
  -27.2302  -37.1448   25.8870 H   0  0  0  0  0  0
  -20.9374  -29.8756   21.6866 H   0  0  0  0  0  0
  -26.0178  -38.2854   24.1409 H   0  0  0  0  0  0
  -27.9216  -19.8008   22.1368 H   0  0  0  0  0  0
  -31.3826  -17.4101   19.5347 H   0  0  0  0  0  0
  -29.8246  -24.3648   22.5011 H   0  0  0  0  0  0
  -28.1748  -23.8283   22.2730 H   0  0  0  0  0  0
  -29.0107  -21.7462   22.9141 H   0  0  0  0  0  0
  -30.6522  -22.1412   22.4195 H   0  0  0  0  0  0
  -32.3449  -19.4368   18.8632 H   0  0  0  0  0  0
  -31.9489  -20.9256   19.7119 H   0  0  0  0  0  0
  -31.0445  -20.4649   18.2637 H   0  0  0  0  0  0
  -26.5732  -18.6195   23.6091 H   0  0  0  0  0  0
  -25.6712  -17.1660   23.1651 H   0  0  0  0  0  0
  -26.0404  -18.3735   21.9340 H   0  0  0  0  0  0
  -31.4639  -23.8078   20.2820 H   0  0  0  0  0  0
  -30.8734  -25.4465   20.5108 H   0  0  0  0  0  0
  -30.7296  -24.6740   18.9380 H   0  0  0  0  0  0
  -27.2169  -24.6787   20.3176 H   0  0  0  0  0  0
  -28.0762  -24.9059   18.8215 H   0  0  0  0  0  0
  -28.9875  -15.2553   21.4687 H   0  0  0  0  0  0
  1 25  1  0  0  0
  1 30  2  0  0  0
  1 87  1  0  0  0
  2  3  1  0  0  0
  2 25  1  0  0  0
  2 90  1  0  0  0
  2 91  1  0  0  0
  3  4  1  0  0  0
  3 92  1  0  0  0
  3 93  1  0  0  0
  4  5  1  0  0  0
  4 94  1  0  0  0
  4 95  1  0  0  0
  5  6  1  0  0  0
  5 26  1  0  0  0
  5 96  1  0  0  0
  6 25  1  0  0  0
  6 97  1  0  0  0
  6 98  1  0  0  0
  7  8  2  0  0  0
  7 26  1  0  0  0
  7 29  1  0  0  0
  8  9  1  0  0  0
  8 22  1  0  0  0
  9 10  1  0  0  0
  9 27  2  0  0  0
 10 11  2  0  0  0
 10 15  1  0  0  0
 11 12  1  0  0  0
 11 99  1  0  0  0
 12 13  2  0  0  0
 12100  1  0  0  0
 13 14  1  0  0  0
 13 31  1  0  0  0
 14 15  2  0  0  0
 14101  1  0  0  0
 15102  1  0  0  0
 16 17  2  0  0  0
 16 21  1  0  0  0
 16 31  1  0  0  0
 17 18  1  0  0  0
 17103  1  0  0  0
 18 19  2  0  0  0
 18104  1  0  0  0
 19 20  1  0  0  0
 19 24  1  0  0  0
 20 21  2  0  0  0
 20105  1  0  0  0
 21 23  1  0  0  0
 22 28  1  0  0  0
 22 32  2  0  0  0
 26 27  1  0  0  0
 28106  1  0  0  0
 28107  1  0  0  0
 29108  1  0  0  0
 29109  1  0  0  0
 33 34  1  0  0  0
 33 66  1  0  0  0
 33 70  2  0  0  0
 34 36  1  0  0  0
 34 59  1  0  0  0
 34110  1  0  0  0
 35 44  2  0  0  0
 35 45  1  0  0  0
 35 68  1  0  0  0
 36 56  1  0  0  0
 36111  1  0  0  0
 37 39  1  0  0  0
 37 47  1  0  0  0
 37 66  1  0  0  0
 37112  1  0  0  0
 38 43  2  0  0  0
 38 46  1  0  0  0
 38 47  1  0  0  0
 39 64  1  0  0  0
 39 67  2  0  0  0
 40 52  1  0  0  0
 40 53  2  0  0  0
 40 58  1  0  0  0
 41113  1  0  0  0
 41114  1  0  0  0
 41115  1  0  0  0
 41 48  1  0  0  0
 42 43  1  0  0  0
 42 66  1  0  0  0
 42116  1  0  0  0
 42117  1  0  0  0
 43 44  1  0  0  0
 44118  1  0  0  0
 45 46  2  0  0  0
 45119  1  0  0  0
 46120  1  0  0  0
 47121  1  0  0  0
 47122  1  0  0  0
 48 56  1  0  0  0
 48 65  1  0  0  0
 48123  1  0  0  0
 49 50  1  0  0  0
 49 53  1  0  0  0
 49 64  1  0  0  0
 49124  1  0  0  0
 50 51  1  0  0  0
 50125  1  0  0  0
 50126  1  0  0  0
 51 52  1  0  0  0
 51127  1  0  0  0
 51128  1  0  0  0
 52129  1  0  0  0
 52130  1  0  0  0
 53 54  1  0  0  0
 54 55  2  0  0  0
 54131  1  0  0  0
 55 57  1  0  0  0
 55132  1  0  0  0
 56 69  2  0  0  0
 57 58  2  0  0  0
 57133  1  0  0  0
 58134  1  0  0  0
 59 60  1  0  0  0
 59 61  1  0  0  0
 59 62  1  0  0  0
 60135  1  0  0  0
 60136  1  0  0  0
 60137  1  0  0  0
 61138  1  0  0  0
 61139  1  0  0  0
 61140  1  0  0  0
 62141  1  0  0  0
 62142  1  0  0  0
 62143  1  0  0  0
 63 65  1  0  0  0
 63144  1  0  0  0
 63145  1  0  0  0
 63146  1  0  0  0
 64147  1  0  0  0
 65148  1  0  0  0
 68 85  1  0  0  0
 71 73  2  0  0  0
 71 75  1  0  0  0
 71149  1  0  0  0
 72 74  1  0  0  0
 72 76  2  0  0  0
 72150  1  0  0  0
 73 76  1  0  0  0
 73 78  1  0  0  0
 74 75  2  0  0  0
 74 82  1  0  0  0
 75 86  1  0  0  0
 76 87  1  0  0  0
 77 81  1  0  0  0
 77 86  1  0  0  0
 77 88  2  0  0  0
 78 83  1  0  0  0
 78 89  2  0  0  0
 79 80  1  0  0  0
 79 81  1  0  0  0
 79151  1  0  0  0
 79152  1  0  0  0
 80 86  1  0  0  0
 80153  1  0  0  0
 80154  1  0  0  0
 81 84  1  0  0  0
 81 85  1  0  0  0
 82155  1  0  0  0
 82156  1  0  0  0
 82157  1  0  0  0
 83158  1  0  0  0
 83159  1  0  0  0
 83160  1  0  0  0
 84161  1  0  0  0
 84162  1  0  0  0
 84163  1  0  0  0
 85164  1  0  0  0
 85165  1  0  0  0
 87166  1  0  0  0
M  ISO  4   1 100  68 101  85 101  87 100
M  END
> <chiral flag>
0

> <version>
0

> <s_m_source_file>
/data/baiqing/PycharmProjects/Reinvent-master-3.2/result/LINK_invent/BTK/process_docking_weight1_custom_product_contain_oxygen_bond_distance_aromatic_linkinvent_7_9_3/rearranged_h_0069.sdf

> <i_m_source_file_index>
76

> <r_mmod_Potential_Energy-OPLS-2005>
231.226043701172

> <r_mmod_Stretch_Energy-OPLS-2005>
90.9670486450195

> <r_mmod_Bend_Energy-OPLS-2005>
174.146667480469

> <r_mmod_Torsional_Energy-OPLS-2005>
319.551574707031

> <r_mmod_Improper_Torsional_Energy-OPLS-2005>
3.96705365180969

> <r_mmod_Van_der_Waal_Energy-OPLS-2005>
141.343826293945

> <r_mmod_Electrostatic_Energy-OPLS-2005>
-333.602966308594

> <r_mmod_Solvation_Energy-OPLS-2005>
-216.808334350586

> <b_mmod_Minimization_Converged-OPLS-2005>
0

> <r_mmod_RMS_Derivative-OPLS-2005>
0.636360883712769

$$$$
78
                    3D
 Structure written by MMmdl.
150158  0  0  1  0            999 V2000
  -30.6178  -14.8139   20.4533 C   0  0  0  0  0  0
  -30.4261  -12.5025   19.4829 C   0  0  0  0  0  0
  -29.5086  -12.5106   18.2415 C   0  0  0  0  0  0
  -28.0387  -12.3227   18.6597 C   0  0  0  0  0  0
  -27.6338  -13.2416   19.8431 C   0  0  2  0  0  0
  -28.6790  -13.2286   20.9793 C   0  0  0  0  0  0
  -25.2475  -13.8215   20.5710 C   0  0  0  0  0  0
  -24.1783  -13.0443   20.9225 C   0  0  0  0  0  0
  -24.6392  -11.6926   20.8759 C   0  0  0  0  0  0
  -23.9076  -10.4295   21.0411 C   0  0  0  0  0  0
  -24.3625   -9.4208   21.9186 C   0  0  0  0  0  0
  -23.6298   -8.2244   22.0755 C   0  0  0  0  0  0
  -22.4280   -8.0283   21.3544 C   0  0  0  0  0  0
  -21.9918   -9.0257   20.4647 C   0  0  0  0  0  0
  -22.7249  -10.2136   20.3058 C   0  0  0  0  0  0
  -21.6855   -6.0738   22.5279 C   0  0  0  0  0  0
  -21.4015   -6.5641   23.8213 C   0  0  0  0  0  0
  -21.3660   -5.6793   24.9174 C   0  0  0  0  0  0
  -21.6044   -4.3056   24.7224 C   0  0  0  0  0  0
  -21.8819   -3.8148   23.4345 C   0  0  0  0  0  0
  -21.9193   -4.6965   22.3402 C   0  0  0  0  0  0
  -22.7802  -13.5215   21.1877 C   0  0  0  0  0  0
  -22.1662   -4.2150   21.0980 F   0  0  0  0  0  0
  -21.5628   -3.4539   25.7737 F   0  0  0  0  0  0
  -29.9685  -13.5937   20.3824 N   0  0  0  0  0  0
  -26.2902  -12.9439   20.3272 N   0  0  0  0  0  0
  -25.9324  -11.6573   20.5760 N   0  0  0  0  0  0
  -22.0453  -12.8200   22.0432 N   0  0  0  0  0  0
  -25.4140  -15.1943   20.4123 N   0  0  0  0  0  0
  -31.8140  -14.8406   20.1500 O   0  0  0  0  0  0
  -21.6643   -6.8881   21.4241 O   0  0  0  0  0  0
  -22.3485  -14.5518   20.6722 O   0  0  0  0  0  0
  -24.6364  -31.8510   23.1953 C   0  0  0  0  0  0
  -25.9170  -32.4730   23.8310 C   0  0  1  0  0  0
  -27.2134  -27.2042   20.1317 C   0  0  0  0  0  0
  -25.5947  -33.8534   24.2229 N   0  0  0  0  0  0
  -23.4351  -30.4741   21.5397 C   0  0  2  0  0  0
  -24.8812  -28.9145   20.1094 C   0  0  0  0  0  0
  -22.7527  -29.4583   22.4889 C   0  0  0  0  0  0
  -18.0298  -28.1391   22.8484 C   0  0  0  0  0  0
  -24.1491  -36.7270   23.2640 C   0  0  0  0  0  0
  -25.9864  -30.7442   21.3859 C   0  0  0  0  0  0
  -26.0550  -29.3622   20.7274 C   0  0  0  0  0  0
  -27.2196  -28.5187   20.7302 C   0  0  0  0  0  0
  -26.0139  -26.8463   19.4732 C   0  0  0  0  0  0
  -24.8691  -27.6669   19.4715 C   0  0  0  0  0  0
  -23.6562  -29.8091   20.1561 C   0  0  0  0  0  0
  -25.4121  -36.3053   24.0321 C   0  0  1  0  0  0
  -20.5905  -28.3707   23.1255 C   0  0  2  0  0  0
  -20.6783  -26.9419   22.5405 C   0  0  0  0  0  0
  -19.5757  -26.6384   21.5212 C   0  0  0  0  0  0
  -18.1939  -26.7933   22.1625 C   0  0  0  0  0  0
  -19.1553  -28.8867   23.2864 C   0  0  0  0  0  0
  -18.9471  -30.1466   23.8885 C   0  0  0  0  0  0
  -17.6469  -30.6590   24.0561 C   0  0  0  0  0  0
  -25.9065  -34.9426   23.5080 C   0  0  0  0  0  0
  -16.5360  -29.9084   23.6334 C   0  0  0  0  0  0
  -16.7283  -28.6502   23.0356 C   0  0  0  0  0  0
  -26.4515  -31.6576   25.0725 C   0  0  0  0  0  0
  -25.3718  -31.3744   26.1432 C   0  0  0  0  0  0
  -27.0376  -30.2983   24.6262 C   0  0  0  0  0  0
  -27.6057  -32.4330   25.7504 C   0  0  0  0  0  0
  -27.5577  -37.1792   24.8466 C   0  0  0  0  0  0
  -21.4228  -29.3047   22.3636 N   0  0  0  0  0  0
  -26.4289  -37.3759   23.9409 N   0  0  0  0  0  0
  -24.7053  -31.0428   22.0957 N   0  0  0  0  0  0
  -23.4206  -28.8124   23.3006 O   0  0  0  0  0  0
  -28.3011  -26.2805   20.2010 O   0  0  0  0  0  0
  -26.5642  -34.8910   22.4652 O   0  0  0  0  0  0
  -23.5502  -32.1358   23.7217 O   0  0  0  0  0  0
  -31.6751  -17.6061   21.2785 C   0  0  0  0  0  0
  -32.2358  -18.8686   21.5147 C   0  0  0  0  0  0
  -29.6022  -18.7016   20.5779 C   0  0  0  0  0  0
  -30.3580  -17.4396   20.7905 C   0  0  0  0  0  0
  -30.1771  -20.0399   20.8284 C   0  0  0  0  0  0
  -31.5084  -20.0454   21.2962 C   0  0  0  0  0  0
  -28.1702  -24.8514   19.9942 C   0  0  0  0  0  0
  -28.9053  -23.8083   20.5658 C   0  0  0  0  0  0
  -28.7289  -22.3071   20.2730 C   0  0  0  0  0  0
  -29.7156  -21.4732   20.7787 N   0  0  0  0  0  0
  -29.8910  -16.0112   20.6178 N   0  0  0  0  0  0
  -27.7850  -21.8409   19.6337 O   0  0  0  0  0  0
  -29.8361  -24.1526   21.4704 O   0  0  0  0  0  0
  -32.1091  -21.2326   21.5665 F   0  0  0  0  0  0
  -31.4661  -12.6213   19.1751 H   0  0  0  0  0  0
  -30.3774  -11.5399   19.9944 H   0  0  0  0  0  0
  -29.8038  -11.7234   17.5463 H   0  0  0  0  0  0
  -29.6220  -13.4537   17.7046 H   0  0  0  0  0  0
  -27.9121  -11.2777   18.9453 H   0  0  0  0  0  0
  -27.3774  -12.4865   17.8080 H   0  0  0  0  0  0
  -27.6116  -14.2528   19.4362 H   0  0  0  0  0  0
  -28.7341  -12.2468   21.4519 H   0  0  0  0  0  0
  -28.4035  -13.9350   21.7641 H   0  0  0  0  0  0
  -25.2769   -9.5684   22.4764 H   0  0  0  0  0  0
  -24.0006   -7.4635   22.7474 H   0  0  0  0  0  0
  -21.0850   -8.8778   19.8951 H   0  0  0  0  0  0
  -22.3708  -10.9676   19.6168 H   0  0  0  0  0  0
  -21.2008   -7.6149   23.9716 H   0  0  0  0  0  0
  -21.1481   -6.0524   25.9077 H   0  0  0  0  0  0
  -22.0598   -2.7610   23.2846 H   0  0  0  0  0  0
  -22.4077  -11.9865   22.4820 H   0  0  0  0  0  0
  -21.1067  -13.1215   22.2637 H   0  0  0  0  0  0
  -24.6429  -15.8443   20.5215 H   0  0  0  0  0  0
  -26.2548  -15.6362   20.0641 H   0  0  0  0  0  0
  -26.7232  -32.5356   23.1040 H   0  0  0  0  0  0
  -25.0084  -33.9660   25.0369 H   0  0  0  0  0  0
  -22.7343  -31.2984   21.3919 H   0  0  0  0  0  0
  -23.3757  -35.9597   23.3295 H   0  0  0  0  0  0
  -24.3578  -36.8905   22.2057 H   0  0  0  0  0  0
  -23.7240  -37.6464   23.6676 H   0  0  0  0  0  0
  -26.1360  -31.5021   20.6157 H   0  0  0  0  0  0
  -26.8601  -30.7910   22.0243 H   0  0  0  0  0  0
  -28.1154  -28.8539   21.2337 H   0  0  0  0  0  0
  -25.9102  -25.9033   18.9631 H   0  0  0  0  0  0
  -23.9723  -27.3212   18.9758 H   0  0  0  0  0  0
  -23.7872  -30.5860   19.4020 H   0  0  0  0  0  0
  -22.7721  -29.2484   19.8473 H   0  0  0  0  0  0
  -25.1306  -36.1889   25.0813 H   0  0  0  0  0  0
  -21.0002  -28.3290   24.1375 H   0  0  0  0  0  0
  -20.5682  -26.2318   23.3615 H   0  0  0  0  0  0
  -21.6649  -26.7436   22.1199 H   0  0  0  0  0  0
  -19.6917  -25.6292   21.1247 H   0  0  0  0  0  0
  -19.6693  -27.3189   20.6737 H   0  0  0  0  0  0
  -17.4207  -26.6680   21.4029 H   0  0  0  0  0  0
  -18.0340  -26.0077   22.9024 H   0  0  0  0  0  0
  -19.7946  -30.7287   24.2250 H   0  0  0  0  0  0
  -17.5020  -31.6269   24.5164 H   0  0  0  0  0  0
  -15.5359  -30.2981   23.7666 H   0  0  0  0  0  0
  -15.8684  -28.0816   22.7080 H   0  0  0  0  0  0
  -24.5903  -30.7082   25.7756 H   0  0  0  0  0  0
  -24.8898  -32.2918   26.4819 H   0  0  0  0  0  0
  -25.8018  -30.8946   27.0233 H   0  0  0  0  0  0
  -26.2980  -29.6715   24.1266 H   0  0  0  0  0  0
  -27.4011  -29.7267   25.4812 H   0  0  0  0  0  0
  -27.8877  -30.4240   23.9554 H   0  0  0  0  0  0
  -27.2658  -33.3644   26.2045 H   0  0  0  0  0  0
  -28.3887  -32.6869   25.0346 H   0  0  0  0  0  0
  -28.0703  -31.8480   26.5451 H   0  0  0  0  0  0
  -28.2591  -38.0093   24.7514 H   0  0  0  0  0  0
  -28.1077  -36.2623   24.6293 H   0  0  0  0  0  0
  -27.2294  -37.1440   25.8869 H   0  0  0  0  0  0
  -20.9422  -29.8766   21.6831 H   0  0  0  0  0  0
  -26.0161  -38.2830   24.1411 H   0  0  0  0  0  0
  -32.3009  -16.7582   21.5097 H   0  0  0  0  0  0
  -33.2468  -18.9381   21.8881 H   0  0  0  0  0  0
  -28.5795  -18.6433   20.2346 H   0  0  0  0  0  0
  -27.4123  -24.6060   19.2689 H   0  0  0  0  0  0
  -30.4571  -22.0445   21.1610 H   0  0  0  0  0  0
  -28.8912  -15.8803   20.6449 H   0  0  0  0  0  0
  -29.9898  -23.4007   22.0264 H   0  0  0  0  0  0
  1 25  1  0  0  0
  1 30  2  0  0  0
  1 81  1  0  0  0
  2  3  1  0  0  0
  2 25  1  0  0  0
  2 85  1  0  0  0
  2 86  1  0  0  0
  3  4  1  0  0  0
  3 87  1  0  0  0
  3 88  1  0  0  0
  4  5  1  0  0  0
  4 89  1  0  0  0
  4 90  1  0  0  0
  5  6  1  0  0  0
  5 26  1  0  0  0
  5 91  1  0  0  0
  6 25  1  0  0  0
  6 92  1  0  0  0
  6 93  1  0  0  0
  7  8  2  0  0  0
  7 26  1  0  0  0
  7 29  1  0  0  0
  8  9  1  0  0  0
  8 22  1  0  0  0
  9 10  1  0  0  0
  9 27  2  0  0  0
 10 11  2  0  0  0
 10 15  1  0  0  0
 11 12  1  0  0  0
 11 94  1  0  0  0
 12 13  2  0  0  0
 12 95  1  0  0  0
 13 14  1  0  0  0
 13 31  1  0  0  0
 14 15  2  0  0  0
 14 96  1  0  0  0
 15 97  1  0  0  0
 16 17  2  0  0  0
 16 21  1  0  0  0
 16 31  1  0  0  0
 17 18  1  0  0  0
 17 98  1  0  0  0
 18 19  2  0  0  0
 18 99  1  0  0  0
 19 20  1  0  0  0
 19 24  1  0  0  0
 20 21  2  0  0  0
 20100  1  0  0  0
 21 23  1  0  0  0
 22 28  1  0  0  0
 22 32  2  0  0  0
 26 27  1  0  0  0
 28101  1  0  0  0
 28102  1  0  0  0
 29103  1  0  0  0
 29104  1  0  0  0
 33 34  1  0  0  0
 33 66  1  0  0  0
 33 70  2  0  0  0
 34 36  1  0  0  0
 34 59  1  0  0  0
 34105  1  0  0  0
 35 44  2  0  0  0
 35 45  1  0  0  0
 35 68  1  0  0  0
 36 56  1  0  0  0
 36106  1  0  0  0
 37 39  1  0  0  0
 37 47  1  0  0  0
 37 66  1  0  0  0
 37107  1  0  0  0
 38 43  2  0  0  0
 38 46  1  0  0  0
 38 47  1  0  0  0
 39 64  1  0  0  0
 39 67  2  0  0  0
 40 52  1  0  0  0
 40 53  2  0  0  0
 40 58  1  0  0  0
 41108  1  0  0  0
 41109  1  0  0  0
 41110  1  0  0  0
 41 48  1  0  0  0
 42 43  1  0  0  0
 42 66  1  0  0  0
 42111  1  0  0  0
 42112  1  0  0  0
 43 44  1  0  0  0
 44113  1  0  0  0
 45 46  2  0  0  0
 45114  1  0  0  0
 46115  1  0  0  0
 47116  1  0  0  0
 47117  1  0  0  0
 48 56  1  0  0  0
 48 65  1  0  0  0
 48118  1  0  0  0
 49 50  1  0  0  0
 49 53  1  0  0  0
 49 64  1  0  0  0
 49119  1  0  0  0
 50 51  1  0  0  0
 50120  1  0  0  0
 50121  1  0  0  0
 51 52  1  0  0  0
 51122  1  0  0  0
 51123  1  0  0  0
 52124  1  0  0  0
 52125  1  0  0  0
 53 54  1  0  0  0
 54 55  2  0  0  0
 54126  1  0  0  0
 55 57  1  0  0  0
 55127  1  0  0  0
 56 69  2  0  0  0
 57 58  2  0  0  0
 57128  1  0  0  0
 58129  1  0  0  0
 59 60  1  0  0  0
 59 61  1  0  0  0
 59 62  1  0  0  0
 60130  1  0  0  0
 60131  1  0  0  0
 60132  1  0  0  0
 61133  1  0  0  0
 61134  1  0  0  0
 61135  1  0  0  0
 62136  1  0  0  0
 62137  1  0  0  0
 62138  1  0  0  0
 63 65  1  0  0  0
 63139  1  0  0  0
 63140  1  0  0  0
 63141  1  0  0  0
 64142  1  0  0  0
 65143  1  0  0  0
 68 77  1  0  0  0
 71 72  2  0  0  0
 71 74  1  0  0  0
 71144  1  0  0  0
 72 76  1  0  0  0
 72145  1  0  0  0
 73 74  2  0  0  0
 73 75  1  0  0  0
 73146  1  0  0  0
 74 81  1  0  0  0
 75 76  2  0  0  0
 75 80  1  0  0  0
 76 84  1  0  0  0
 77 78  2  0  0  0
 77147  1  0  0  0
 78 79  1  0  0  0
 78 83  1  0  0  0
 79 80  1  0  0  0
 79 82  2  0  0  0
 80148  1  0  0  0
 81149  1  0  0  0
 83150  1  0  0  0
M  ISO  4   1 100  68 101  77 101  81 100
M  END
> <chiral flag>
0

> <version>
0

> <s_m_source_file>
/data/baiqing/PycharmProjects/Reinvent-master-3.2/result/LINK_invent/BTK/process_docking_weight1_custom_product_contain_oxygen_bond_distance_aromatic_linkinvent_7_9_3/rearranged_h_0069.sdf

> <i_m_source_file_index>
77

> <r_mmod_Potential_Energy-OPLS-2005>
245.042602539062

> <r_mmod_Stretch_Energy-OPLS-2005>
166.747680664062

> <r_mmod_Bend_Energy-OPLS-2005>
245.594787597656

> <r_mmod_Torsional_Energy-OPLS-2005>
224.218872070312

> <r_mmod_Improper_Torsional_Energy-OPLS-2005>
6.05237197875977

> <r_mmod_Van_der_Waal_Energy-OPLS-2005>
148.673721313477

> <r_mmod_Electrostatic_Energy-OPLS-2005>
-430.092132568359

> <r_mmod_Solvation_Energy-OPLS-2005>
-236.019134521484

> <b_mmod_Minimization_Converged-OPLS-2005>
0

> <r_mmod_RMS_Derivative-OPLS-2005>
0.156905606389046

$$$$
79
                    3D
 Structure written by MMmdl.
155163  0  0  1  0            999 V2000
  -30.6040  -14.8056   20.4445 C   0  0  0  0  0  0
  -30.4338  -12.4963   19.4676 C   0  0  0  0  0  0
  -29.5077  -12.5040   18.2328 C   0  0  0  0  0  0
  -28.0376  -12.3172   18.6540 C   0  0  0  0  0  0
  -27.6346  -13.2353   19.8379 C   0  0  2  0  0  0
  -28.6831  -13.2117   20.9694 C   0  0  0  0  0  0
  -25.2478  -13.8203   20.5679 C   0  0  0  0  0  0
  -24.1790  -13.0437   20.9219 C   0  0  0  0  0  0
  -24.6397  -11.6920   20.8754 C   0  0  0  0  0  0
  -23.9081  -10.4287   21.0411 C   0  0  0  0  0  0
  -24.3632   -9.4194   21.9178 C   0  0  0  0  0  0
  -23.6301   -8.2233   22.0749 C   0  0  0  0  0  0
  -22.4279   -8.0279   21.3545 C   0  0  0  0  0  0
  -21.9921   -9.0251   20.4642 C   0  0  0  0  0  0
  -22.7257  -10.2126   20.3052 C   0  0  0  0  0  0
  -21.6853   -6.0741   22.5278 C   0  0  0  0  0  0
  -21.4013   -6.5642   23.8212 C   0  0  0  0  0  0
  -21.3660   -5.6791   24.9170 C   0  0  0  0  0  0
  -21.6041   -4.3054   24.7216 C   0  0  0  0  0  0
  -21.8825   -3.8152   23.4337 C   0  0  0  0  0  0
  -21.9190   -4.6971   22.3396 C   0  0  0  0  0  0
  -22.7804  -13.5195   21.1886 C   0  0  0  0  0  0
  -22.1660   -4.2160   21.0972 F   0  0  0  0  0  0
  -21.5629   -3.4534   25.7728 F   0  0  0  0  0  0
  -29.9717  -13.5794   20.3700 N   0  0  0  0  0  0
  -26.2906  -12.9415   20.3239 N   0  0  0  0  0  0
  -25.9323  -11.6555   20.5743 N   0  0  0  0  0  0
  -22.0473  -12.8165   22.0448 N   0  0  0  0  0  0
  -25.4138  -15.1928   20.4083 N   0  0  0  0  0  0
  -31.8111  -14.8642   20.1909 O   0  0  0  0  0  0
  -21.6638   -6.8886   21.4245 O   0  0  0  0  0  0
  -22.3471  -14.5496   20.6738 O   0  0  0  0  0  0
  -24.6343  -31.8523   23.1946 C   0  0  0  0  0  0
  -25.9149  -32.4751   23.8311 C   0  0  1  0  0  0
  -27.2220  -27.2253   20.1398 C   0  0  0  0  0  0
  -25.5928  -33.8552   24.2234 N   0  0  0  0  0  0
  -23.4348  -30.4700   21.5396 C   0  0  2  0  0  0
  -24.8843  -28.9054   20.1184 C   0  0  0  0  0  0
  -22.7523  -29.4575   22.4909 C   0  0  0  0  0  0
  -18.0282  -28.1407   22.8490 C   0  0  0  0  0  0
  -24.1482  -36.7268   23.2645 C   0  0  0  0  0  0
  -25.9840  -30.7501   21.3834 C   0  0  0  0  0  0
  -26.0585  -29.3673   20.7299 C   0  0  0  0  0  0
  -27.2336  -28.5411   20.7267 C   0  0  0  0  0  0
  -26.0253  -26.8340   19.5070 C   0  0  0  0  0  0
  -24.8735  -27.6463   19.4974 C   0  0  0  0  0  0
  -23.6587  -29.7987   20.1587 C   0  0  0  0  0  0
  -25.4122  -36.3068   24.0325 C   0  0  1  0  0  0
  -20.5897  -28.3714   23.1275 C   0  0  2  0  0  0
  -20.6787  -26.9432   22.5413 C   0  0  0  0  0  0
  -19.5757  -26.6399   21.5220 C   0  0  0  0  0  0
  -18.1931  -26.7951   22.1622 C   0  0  0  0  0  0
  -19.1540  -28.8880   23.2873 C   0  0  0  0  0  0
  -18.9466  -30.1490   23.8883 C   0  0  0  0  0  0
  -17.6466  -30.6611   24.0574 C   0  0  0  0  0  0
  -25.9062  -34.9440   23.5086 C   0  0  0  0  0  0
  -16.5358  -29.9110   23.6346 C   0  0  0  0  0  0
  -16.7270  -28.6527   23.0366 C   0  0  0  0  0  0
  -26.4498  -31.6595   25.0720 C   0  0  0  0  0  0
  -25.3693  -31.3774   26.1420 C   0  0  0  0  0  0
  -27.0373  -30.3018   24.6239 C   0  0  0  0  0  0
  -27.6057  -32.4333   25.7488 C   0  0  0  0  0  0
  -27.5573  -37.1801   24.8470 C   0  0  0  0  0  0
  -21.4222  -29.3047   22.3657 N   0  0  0  0  0  0
  -26.4288  -37.3776   23.9408 N   0  0  0  0  0  0
  -24.7030  -31.0444   22.0947 N   0  0  0  0  0  0
  -23.4202  -28.8119   23.3021 O   0  0  0  0  0  0
  -28.2932  -26.2931   20.1172 O   0  0  0  0  0  0
  -26.5635  -34.8914   22.4656 O   0  0  0  0  0  0
  -23.5479  -32.1366   23.7210 O   0  0  0  0  0  0
  -31.4098  -17.6763   21.4557 C   0  0  0  0  0  0
  -29.4665  -18.6150   20.3274 C   0  0  0  0  0  0
  -31.8449  -18.9876   21.7612 C   0  0  0  0  0  0
  -30.2198  -17.4172   20.7389 C   0  0  0  0  0  0
  -29.8910  -19.9924   20.6185 C   0  0  0  0  0  0
  -31.0961  -20.1182   21.3437 C   0  0  0  0  0  0
  -28.6422  -23.7343   20.4303 C   0  0  0  0  0  0
  -28.1591  -25.0205   20.7687 C   0  0  0  0  0  0
  -33.1052  -19.1494   22.5015 C   0  0  0  0  0  0
  -28.5577  -22.2367   20.7991 C   0  0  0  0  0  0
  -33.4423  -18.3061   23.4796 N   0  0  0  0  0  0
  -29.3344  -21.3012   20.1285 N   0  0  0  0  0  0
  -29.8340  -15.9763   20.5335 N   0  0  0  0  0  0
  -33.9649  -20.1265   22.2091 N   0  3  0  0  0  0
  -27.7460  -21.7796   21.6190 O   0  0  0  0  0  0
  -31.5594  -21.3679   21.6085 F   0  0  0  0  0  0
  -31.4702  -12.6302   19.1532 H   0  0  0  0  0  0
  -30.3973  -11.5319   19.9757 H   0  0  0  0  0  0
  -29.7996  -11.7176   17.5356 H   0  0  0  0  0  0
  -29.6193  -13.4476   17.6954 H   0  0  0  0  0  0
  -27.9110  -11.2725   18.9380 H   0  0  0  0  0  0
  -27.3748  -12.4836   17.8040 H   0  0  0  0  0  0
  -27.6146  -14.2469   19.4318 H   0  0  0  0  0  0
  -28.7374  -12.2250   21.4314 H   0  0  0  0  0  0
  -28.4102  -13.9133   21.7598 H   0  0  0  0  0  0
  -25.2790   -9.5656   22.4739 H   0  0  0  0  0  0
  -24.0015   -7.4618   22.7458 H   0  0  0  0  0  0
  -21.0856   -8.8765   19.8940 H   0  0  0  0  0  0
  -22.3724  -10.9659   19.6147 H   0  0  0  0  0  0
  -21.2012   -7.6152   23.9719 H   0  0  0  0  0  0
  -21.1474   -6.0517   25.9073 H   0  0  0  0  0  0
  -22.0606   -2.7617   23.2824 H   0  0  0  0  0  0
  -22.4113  -11.9816   22.4802 H   0  0  0  0  0  0
  -21.1090  -13.1156   22.2697 H   0  0  0  0  0  0
  -24.6398  -15.8399   20.5119 H   0  0  0  0  0  0
  -26.2486  -15.6352   20.0487 H   0  0  0  0  0  0
  -26.7219  -32.5385   23.1053 H   0  0  0  0  0  0
  -25.0081  -33.9696   25.0383 H   0  0  0  0  0  0
  -22.7332  -31.2926   21.3901 H   0  0  0  0  0  0
  -23.3747  -35.9595   23.3316 H   0  0  0  0  0  0
  -24.3564  -36.8874   22.2054 H   0  0  0  0  0  0
  -23.7221  -37.6469   23.6660 H   0  0  0  0  0  0
  -26.1320  -31.5048   20.6104 H   0  0  0  0  0  0
  -26.8595  -30.8011   22.0198 H   0  0  0  0  0  0
  -28.1357  -28.8918   21.2088 H   0  0  0  0  0  0
  -25.9751  -25.8646   19.0305 H   0  0  0  0  0  0
  -23.9738  -27.2860   19.0164 H   0  0  0  0  0  0
  -23.7912  -30.5722   19.4006 H   0  0  0  0  0  0
  -22.7778  -29.2329   19.8509 H   0  0  0  0  0  0
  -25.1312  -36.1910   25.0818 H   0  0  0  0  0  0
  -20.9987  -28.3280   24.1395 H   0  0  0  0  0  0
  -20.5705  -26.2314   23.3611 H   0  0  0  0  0  0
  -21.6655  -26.7466   22.1204 H   0  0  0  0  0  0
  -19.6912  -25.6298   21.1267 H   0  0  0  0  0  0
  -19.6711  -27.3194   20.6738 H   0  0  0  0  0  0
  -17.4217  -26.6695   21.4015 H   0  0  0  0  0  0
  -18.0338  -26.0095   22.9021 H   0  0  0  0  0  0
  -19.7938  -30.7329   24.2231 H   0  0  0  0  0  0
  -17.5014  -31.6283   24.5192 H   0  0  0  0  0  0
  -15.5359  -30.3022   23.7687 H   0  0  0  0  0  0
  -15.8658  -28.0857   22.7099 H   0  0  0  0  0  0
  -24.5871  -30.7127   25.7723 H   0  0  0  0  0  0
  -24.8883  -32.2964   26.4783 H   0  0  0  0  0  0
  -25.7971  -30.8974   27.0229 H   0  0  0  0  0  0
  -26.2985  -29.6745   24.1238 H   0  0  0  0  0  0
  -27.4036  -29.7300   25.4772 H   0  0  0  0  0  0
  -27.8860  -30.4317   23.9522 H   0  0  0  0  0  0
  -27.2693  -33.3651   26.2042 H   0  0  0  0  0  0
  -28.3878  -32.6852   25.0315 H   0  0  0  0  0  0
  -28.0714  -31.8461   26.5414 H   0  0  0  0  0  0
  -28.2626  -38.0070   24.7521 H   0  0  0  0  0  0
  -28.1036  -36.2608   24.6306 H   0  0  0  0  0  0
  -27.2292  -37.1470   25.8873 H   0  0  0  0  0  0
  -20.9409  -29.8740   21.6840 H   0  0  0  0  0  0
  -26.0154  -38.2842   24.1407 H   0  0  0  0  0  0
  -32.0165  -16.8470   21.7870 H   0  0  0  0  0  0
  -28.5596  -18.4794   19.7567 H   0  0  0  0  0  0
  -28.5517  -23.6951   21.5014 H   0  0  0  0  0  0
  -27.5969  -25.2076   21.6851 H   0  0  0  0  0  0
  -32.7992  -17.5808   23.7613 H   0  0  0  0  0  0
  -34.3070  -18.3879   23.9921 H   0  0  0  0  0  0
  -29.8877  -21.7236   19.3957 H   0  0  0  0  0  0
  -28.8415  -15.8086   20.4803 H   0  0  0  0  0  0
  -33.6742  -20.8345   21.5481 H   0  0  0  0  0  0
  -34.8394  -20.2541   22.6923 H   0  0  0  0  0  0
  1 25  1  0  0  0
  1 30  2  0  0  0
  1 83  1  0  0  0
  2  3  1  0  0  0
  2 25  1  0  0  0
  2 87  1  0  0  0
  2 88  1  0  0  0
  3  4  1  0  0  0
  3 89  1  0  0  0
  3 90  1  0  0  0
  4  5  1  0  0  0
  4 91  1  0  0  0
  4 92  1  0  0  0
  5  6  1  0  0  0
  5 26  1  0  0  0
  5 93  1  0  0  0
  6 25  1  0  0  0
  6 94  1  0  0  0
  6 95  1  0  0  0
  7  8  2  0  0  0
  7 26  1  0  0  0
  7 29  1  0  0  0
  8  9  1  0  0  0
  8 22  1  0  0  0
  9 10  1  0  0  0
  9 27  2  0  0  0
 10 11  2  0  0  0
 10 15  1  0  0  0
 11 12  1  0  0  0
 11 96  1  0  0  0
 12 13  2  0  0  0
 12 97  1  0  0  0
 13 14  1  0  0  0
 13 31  1  0  0  0
 14 15  2  0  0  0
 14 98  1  0  0  0
 15 99  1  0  0  0
 16 17  2  0  0  0
 16 21  1  0  0  0
 16 31  1  0  0  0
 17 18  1  0  0  0
 17100  1  0  0  0
 18 19  2  0  0  0
 18101  1  0  0  0
 19 20  1  0  0  0
 19 24  1  0  0  0
 20 21  2  0  0  0
 20102  1  0  0  0
 21 23  1  0  0  0
 22 28  1  0  0  0
 22 32  2  0  0  0
 26 27  1  0  0  0
 28103  1  0  0  0
 28104  1  0  0  0
 29105  1  0  0  0
 29106  1  0  0  0
 33 34  1  0  0  0
 33 66  1  0  0  0
 33 70  2  0  0  0
 34 36  1  0  0  0
 34 59  1  0  0  0
 34107  1  0  0  0
 35 44  2  0  0  0
 35 45  1  0  0  0
 35 68  1  0  0  0
 36 56  1  0  0  0
 36108  1  0  0  0
 37 39  1  0  0  0
 37 47  1  0  0  0
 37 66  1  0  0  0
 37109  1  0  0  0
 38 43  2  0  0  0
 38 46  1  0  0  0
 38 47  1  0  0  0
 39 64  1  0  0  0
 39 67  2  0  0  0
 40 52  1  0  0  0
 40 53  2  0  0  0
 40 58  1  0  0  0
 41110  1  0  0  0
 41111  1  0  0  0
 41112  1  0  0  0
 41 48  1  0  0  0
 42 43  1  0  0  0
 42 66  1  0  0  0
 42113  1  0  0  0
 42114  1  0  0  0
 43 44  1  0  0  0
 44115  1  0  0  0
 45 46  2  0  0  0
 45116  1  0  0  0
 46117  1  0  0  0
 47118  1  0  0  0
 47119  1  0  0  0
 48 56  1  0  0  0
 48 65  1  0  0  0
 48120  1  0  0  0
 49 50  1  0  0  0
 49 53  1  0  0  0
 49 64  1  0  0  0
 49121  1  0  0  0
 50 51  1  0  0  0
 50122  1  0  0  0
 50123  1  0  0  0
 51 52  1  0  0  0
 51124  1  0  0  0
 51125  1  0  0  0
 52126  1  0  0  0
 52127  1  0  0  0
 53 54  1  0  0  0
 54 55  2  0  0  0
 54128  1  0  0  0
 55 57  1  0  0  0
 55129  1  0  0  0
 56 69  2  0  0  0
 57 58  2  0  0  0
 57130  1  0  0  0
 58131  1  0  0  0
 59 60  1  0  0  0
 59 61  1  0  0  0
 59 62  1  0  0  0
 60132  1  0  0  0
 60133  1  0  0  0
 60134  1  0  0  0
 61135  1  0  0  0
 61136  1  0  0  0
 61137  1  0  0  0
 62138  1  0  0  0
 62139  1  0  0  0
 62140  1  0  0  0
 63 65  1  0  0  0
 63141  1  0  0  0
 63142  1  0  0  0
 63143  1  0  0  0
 64144  1  0  0  0
 65145  1  0  0  0
 68 78  1  0  0  0
 71 73  2  0  0  0
 71 74  1  0  0  0
 71146  1  0  0  0
 72 74  2  0  0  0
 72 75  1  0  0  0
 72147  1  0  0  0
 73 76  1  0  0  0
 73 79  1  0  0  0
 74 83  1  0  0  0
 75 76  2  0  0  0
 75 82  1  0  0  0
 76 86  1  0  0  0
 77 78  2  0  0  0
 77 80  1  0  0  0
 77148  1  0  0  0
 78149  1  0  0  0
 79 81  1  0  0  0
 79 84  2  0  0  0
 80 82  1  0  0  0
 80 85  2  0  0  0
 81150  1  0  0  0
 81151  1  0  0  0
 82152  1  0  0  0
 83153  1  0  0  0
 84154  1  0  0  0
 84155  1  0  0  0
M  CHG  1  84   1
M  ISO  4   1 100  68 101  78 101  83 100
M  END
> <chiral flag>
0

> <version>
0

> <s_m_source_file>
/data/baiqing/PycharmProjects/Reinvent-master-3.2/result/LINK_invent/BTK/process_docking_weight1_custom_product_contain_oxygen_bond_distance_aromatic_linkinvent_7_9_3/rearranged_h_0069.sdf

> <i_m_source_file_index>
78

> <r_mmod_Potential_Energy-OPLS-2005>
204.530746459961

> <r_mmod_Stretch_Energy-OPLS-2005>
157.114868164062

> <r_mmod_Bend_Energy-OPLS-2005>
407.713562011719

> <r_mmod_Torsional_Energy-OPLS-2005>
299.059661865234

> <r_mmod_Improper_Torsional_Energy-OPLS-2005>
26.275764465332

> <r_mmod_Van_der_Waal_Energy-OPLS-2005>
157.363922119141

> <r_mmod_Electrostatic_Energy-OPLS-2005>
-494.441253662109

> <r_mmod_Solvation_Energy-OPLS-2005>
-461.895141601562

> <b_mmod_Minimization_Converged-OPLS-2005>
0

> <r_mmod_RMS_Derivative-OPLS-2005>
1.8555760383606

$$$$
80
                    3D
 Structure written by MMmdl.
151159  0  0  1  0            999 V2000
  -30.5236  -15.0395   20.4104 C   0  0  0  0  0  0
  -30.4418  -12.6540   19.4967 C   0  0  0  0  0  0
  -29.5232  -12.5377   18.2581 C   0  0  0  0  0  0
  -28.0610  -12.3069   18.6829 C   0  0  0  0  0  0
  -27.6230  -13.2554   19.8289 C   0  0  2  0  0  0
  -28.6676  -13.3340   20.9614 C   0  0  0  0  0  0
  -25.2439  -13.8223   20.5726 C   0  0  0  0  0  0
  -24.1768  -13.0433   20.9239 C   0  0  0  0  0  0
  -24.6397  -11.6923   20.8755 C   0  0  0  0  0  0
  -23.9082  -10.4290   21.0403 C   0  0  0  0  0  0
  -24.3627   -9.4206   21.9183 C   0  0  0  0  0  0
  -23.6298   -8.2242   22.0755 C   0  0  0  0  0  0
  -22.4281   -8.0279   21.3542 C   0  0  0  0  0  0
  -21.9917   -9.0255   20.4644 C   0  0  0  0  0  0
  -22.7252  -10.2132   20.3054 C   0  0  0  0  0  0
  -21.6854   -6.0733   22.5278 C   0  0  0  0  0  0
  -21.4016   -6.5639   23.8210 C   0  0  0  0  0  0
  -21.3661   -5.6792   24.9173 C   0  0  0  0  0  0
  -21.6045   -4.3054   24.7225 C   0  0  0  0  0  0
  -21.8818   -3.8145   23.4346 C   0  0  0  0  0  0
  -21.9193   -4.6960   22.3402 C   0  0  0  0  0  0
  -22.7785  -13.5197   21.1890 C   0  0  0  0  0  0
  -22.1662   -4.2146   21.0978 F   0  0  0  0  0  0
  -21.5630   -3.4538   25.7737 F   0  0  0  0  0  0
  -29.9268  -13.7725   20.3442 N   0  0  0  0  0  0
  -26.2865  -12.9468   20.3229 N   0  0  0  0  0  0
  -25.9331  -11.6589   20.5731 N   0  0  0  0  0  0
  -22.0438  -12.8181   22.0444 N   0  0  0  0  0  0
  -25.4078  -15.1957   20.4159 N   0  0  0  0  0  0
  -31.7433  -15.0677   20.2083 O   0  0  0  0  0  0
  -21.6643   -6.8876   21.4240 O   0  0  0  0  0  0
  -22.3464  -14.5498   20.6730 O   0  0  0  0  0  0
  -24.6536  -31.8390   23.1866 C   0  0  0  0  0  0
  -25.9275  -32.4664   23.8270 C   0  0  1  0  0  0
  -27.2019  -27.0447   20.1337 C   0  0  0  0  0  0
  -25.5992  -33.8475   24.2177 N   0  0  0  0  0  0
  -23.4588  -30.4633   21.5352 C   0  0  2  0  0  0
  -24.9036  -28.8894   20.1097 C   0  0  0  0  0  0
  -22.7617  -29.4533   22.4834 C   0  0  0  0  0  0
  -18.0317  -28.1404   22.8477 C   0  0  0  0  0  0
  -24.1493  -36.7234   23.2644 C   0  0  0  0  0  0
  -26.0256  -30.6818   21.4025 C   0  0  0  0  0  0
  -26.0890  -29.2889   20.7364 C   0  0  0  0  0  0
  -27.2314  -28.3844   20.7345 C   0  0  0  0  0  0
  -25.9794  -26.7912   19.4681 C   0  0  0  0  0  0
  -24.8680  -27.6545   19.4614 C   0  0  0  0  0  0
  -23.6884  -29.8028   20.1531 C   0  0  0  0  0  0
  -25.4131  -36.3013   24.0311 C   0  0  1  0  0  0
  -20.5938  -28.3741   23.1209 C   0  0  2  0  0  0
  -20.6797  -26.9435   22.5397 C   0  0  0  0  0  0
  -19.5765  -26.6386   21.5212 C   0  0  0  0  0  0
  -18.1950  -26.7941   22.1627 C   0  0  0  0  0  0
  -19.1577  -28.8891   23.2835 C   0  0  0  0  0  0
  -18.9488  -30.1483   23.8868 C   0  0  0  0  0  0
  -17.6482  -30.6596   24.0559 C   0  0  0  0  0  0
  -25.9087  -34.9387   23.5051 C   0  0  0  0  0  0
  -16.5373  -29.9088   23.6338 C   0  0  0  0  0  0
  -16.7300  -28.6505   23.0363 C   0  0  0  0  0  0
  -26.4554  -31.6559   25.0747 C   0  0  0  0  0  0
  -25.3706  -31.3779   26.1419 C   0  0  0  0  0  0
  -27.0429  -30.2935   24.6403 C   0  0  0  0  0  0
  -27.6067  -32.4343   25.7541 C   0  0  0  0  0  0
  -27.5567  -37.1788   24.8475 C   0  0  0  0  0  0
  -21.4301  -29.3061   22.3577 N   0  0  0  0  0  0
  -26.4290  -37.3729   23.9396 N   0  0  0  0  0  0
  -24.7335  -31.0173   22.0949 N   0  0  0  0  0  0
  -23.4226  -28.8066   23.3000 O   0  0  0  0  0  0
  -28.2397  -26.0062   20.2327 O   0  0  0  0  0  0
  -26.5670  -34.8894   22.4629 O   0  0  0  0  0  0
  -23.5635  -32.1310   23.7030 O   0  0  0  0  0  0
  -29.2344  -19.0008   20.2587 C   0  0  0  0  0  0
  -30.8186  -20.5644   21.2107 C   0  0  0  0  0  0
  -31.2552  -18.1151   21.2604 C   0  0  0  0  0  0
  -29.5825  -20.4438   20.5367 C   0  0  0  0  0  0
  -30.0490  -17.7778   20.6087 C   0  0  0  0  0  0
  -31.6204  -19.4504   21.5546 C   0  0  0  0  0  0
  -28.9467  -23.1653   20.5239 C   0  0  0  0  0  0
  -27.1272  -23.9573   18.8212 C   0  0  0  0  0  0
  -28.2776  -24.4826   19.7001 C   0  0  2  0  0  0
  -28.8553  -21.7706   20.1376 N   0  0  0  0  0  0
  -29.7434  -16.2552   20.4329 N   0  0  0  0  0  0
  -29.5719  -23.4481   21.5483 O   0  0  0  0  0  0
  -32.7936  -19.6731   22.1937 F   0  0  0  0  0  0
  -31.4698  -12.8281   19.1753 H   0  0  0  0  0  0
  -30.4599  -11.7187   20.0587 H   0  0  0  0  0  0
  -29.8589  -11.7272   17.6101 H   0  0  0  0  0  0
  -29.5923  -13.4517   17.6660 H   0  0  0  0  0  0
  -27.9748  -11.2709   19.0127 H   0  0  0  0  0  0
  -27.3941  -12.4098   17.8262 H   0  0  0  0  0  0
  -27.5676  -14.2459   19.3762 H   0  0  0  0  0  0
  -28.7824  -12.3730   21.4641 H   0  0  0  0  0  0
  -28.3525  -14.0488   21.7233 H   0  0  0  0  0  0
  -25.2767   -9.5683   22.4763 H   0  0  0  0  0  0
  -24.0004   -7.4633   22.7476 H   0  0  0  0  0  0
  -21.0849   -8.8775   19.8947 H   0  0  0  0  0  0
  -22.3709  -10.9672   19.6166 H   0  0  0  0  0  0
  -21.2011   -7.6147   23.9712 H   0  0  0  0  0  0
  -21.1485   -6.0522   25.9075 H   0  0  0  0  0  0
  -22.0596   -2.7607   23.2846 H   0  0  0  0  0  0
  -22.4065  -11.9855   22.4848 H   0  0  0  0  0  0
  -21.1051  -13.1193   22.2643 H   0  0  0  0  0  0
  -24.6359  -15.8433   20.5315 H   0  0  0  0  0  0
  -26.2474  -15.6413   20.0714 H   0  0  0  0  0  0
  -26.7341  -32.5232   23.0990 H   0  0  0  0  0  0
  -25.0116  -33.9581   25.0308 H   0  0  0  0  0  0
  -22.7653  -31.2927   21.3825 H   0  0  0  0  0  0
  -23.3756  -35.9565   23.3312 H   0  0  0  0  0  0
  -24.3566  -36.8866   22.2055 H   0  0  0  0  0  0
  -23.7253  -37.6434   23.6681 H   0  0  0  0  0  0
  -26.1993  -31.4347   20.6326 H   0  0  0  0  0  0
  -26.8894  -30.7253   22.0538 H   0  0  0  0  0  0
  -28.1283  -28.6875   21.2562 H   0  0  0  0  0  0
  -25.7749  -25.8831   18.9515 H   0  0  0  0  0  0
  -23.9650  -27.3399   18.9563 H   0  0  0  0  0  0
  -23.8375  -30.5818   19.4046 H   0  0  0  0  0  0
  -22.7992  -29.2569   19.8329 H   0  0  0  0  0  0
  -25.1324  -36.1835   25.0804 H   0  0  0  0  0  0
  -21.0030  -28.3334   24.1331 H   0  0  0  0  0  0
  -20.5688  -26.2357   23.3626 H   0  0  0  0  0  0
  -21.6659  -26.7432   22.1193 H   0  0  0  0  0  0
  -19.6921  -25.6290   21.1260 H   0  0  0  0  0  0
  -19.6693  -27.3180   20.6728 H   0  0  0  0  0  0
  -17.4216  -26.6690   21.4035 H   0  0  0  0  0  0
  -18.0349  -26.0093   22.9034 H   0  0  0  0  0  0
  -19.7962  -30.7310   24.2226 H   0  0  0  0  0  0
  -17.5032  -31.6271   24.5170 H   0  0  0  0  0  0
  -15.5371  -30.2977   23.7677 H   0  0  0  0  0  0
  -15.8703  -28.0808   22.7100 H   0  0  0  0  0  0
  -24.5906  -30.7105   25.7738 H   0  0  0  0  0  0
  -24.8873  -32.2970   26.4741 H   0  0  0  0  0  0
  -25.7967  -30.9026   27.0263 H   0  0  0  0  0  0
  -26.3078  -29.6643   24.1374 H   0  0  0  0  0  0
  -27.3956  -29.7260   25.5025 H   0  0  0  0  0  0
  -27.9026  -30.4137   23.9808 H   0  0  0  0  0  0
  -27.2648  -33.3670   26.2037 H   0  0  0  0  0  0
  -28.3925  -32.6859   25.0406 H   0  0  0  0  0  0
  -28.0680  -31.8522   26.5528 H   0  0  0  0  0  0
  -28.2608  -38.0058   24.7469 H   0  0  0  0  0  0
  -28.1040  -36.2587   24.6377 H   0  0  0  0  0  0
  -27.2274  -37.1525   25.8876 H   0  0  0  0  0  0
  -20.9525  -29.8787   21.6759 H   0  0  0  0  0  0
  -26.0152  -38.2802   24.1368 H   0  0  0  0  0  0
  -28.2986  -18.8245   19.7483 H   0  0  0  0  0  0
  -31.2009  -21.5413   21.4631 H   0  0  0  0  0  0
  -31.9303  -17.3336   21.5757 H   0  0  0  0  0  0
  -26.1956  -23.8756   19.3810 H   0  0  0  0  0  0
  -27.3317  -22.9636   18.4256 H   0  0  0  0  0  0
  -26.9933  -24.5742   17.9328 H   0  0  0  0  0  0
  -29.0693  -24.6129   18.9615 H   0  0  0  0  0  0
  -28.1969  -21.6470   19.3803 H   0  0  0  0  0  0
  -28.7582  -16.0568   20.3480 H   0  0  0  0  0  0
  1 25  1  0  0  0
  1 30  2  0  0  0
  1 81  1  0  0  0
  2  3  1  0  0  0
  2 25  1  0  0  0
  2 84  1  0  0  0
  2 85  1  0  0  0
  3  4  1  0  0  0
  3 86  1  0  0  0
  3 87  1  0  0  0
  4  5  1  0  0  0
  4 88  1  0  0  0
  4 89  1  0  0  0
  5  6  1  0  0  0
  5 26  1  0  0  0
  5 90  1  0  0  0
  6 25  1  0  0  0
  6 91  1  0  0  0
  6 92  1  0  0  0
  7  8  2  0  0  0
  7 26  1  0  0  0
  7 29  1  0  0  0
  8  9  1  0  0  0
  8 22  1  0  0  0
  9 10  1  0  0  0
  9 27  2  0  0  0
 10 11  2  0  0  0
 10 15  1  0  0  0
 11 12  1  0  0  0
 11 93  1  0  0  0
 12 13  2  0  0  0
 12 94  1  0  0  0
 13 14  1  0  0  0
 13 31  1  0  0  0
 14 15  2  0  0  0
 14 95  1  0  0  0
 15 96  1  0  0  0
 16 17  2  0  0  0
 16 21  1  0  0  0
 16 31  1  0  0  0
 17 18  1  0  0  0
 17 97  1  0  0  0
 18 19  2  0  0  0
 18 98  1  0  0  0
 19 20  1  0  0  0
 19 24  1  0  0  0
 20 21  2  0  0  0
 20 99  1  0  0  0
 21 23  1  0  0  0
 22 28  1  0  0  0
 22 32  2  0  0  0
 26 27  1  0  0  0
 28100  1  0  0  0
 28101  1  0  0  0
 29102  1  0  0  0
 29103  1  0  0  0
 33 34  1  0  0  0
 33 66  1  0  0  0
 33 70  2  0  0  0
 34 36  1  0  0  0
 34 59  1  0  0  0
 34104  1  0  0  0
 35 44  2  0  0  0
 35 45  1  0  0  0
 35 68  1  0  0  0
 36 56  1  0  0  0
 36105  1  0  0  0
 37 39  1  0  0  0
 37 47  1  0  0  0
 37 66  1  0  0  0
 37106  1  0  0  0
 38 43  2  0  0  0
 38 46  1  0  0  0
 38 47  1  0  0  0
 39 64  1  0  0  0
 39 67  2  0  0  0
 40 52  1  0  0  0
 40 53  2  0  0  0
 40 58  1  0  0  0
 41107  1  0  0  0
 41108  1  0  0  0
 41109  1  0  0  0
 41 48  1  0  0  0
 42 43  1  0  0  0
 42 66  1  0  0  0
 42110  1  0  0  0
 42111  1  0  0  0
 43 44  1  0  0  0
 44112  1  0  0  0
 45 46  2  0  0  0
 45113  1  0  0  0
 46114  1  0  0  0
 47115  1  0  0  0
 47116  1  0  0  0
 48 56  1  0  0  0
 48 65  1  0  0  0
 48117  1  0  0  0
 49 50  1  0  0  0
 49 53  1  0  0  0
 49 64  1  0  0  0
 49118  1  0  0  0
 50 51  1  0  0  0
 50119  1  0  0  0
 50120  1  0  0  0
 51 52  1  0  0  0
 51121  1  0  0  0
 51122  1  0  0  0
 52123  1  0  0  0
 52124  1  0  0  0
 53 54  1  0  0  0
 54 55  2  0  0  0
 54125  1  0  0  0
 55 57  1  0  0  0
 55126  1  0  0  0
 56 69  2  0  0  0
 57 58  2  0  0  0
 57127  1  0  0  0
 58128  1  0  0  0
 59 60  1  0  0  0
 59 61  1  0  0  0
 59 62  1  0  0  0
 60129  1  0  0  0
 60130  1  0  0  0
 60131  1  0  0  0
 61132  1  0  0  0
 61133  1  0  0  0
 61134  1  0  0  0
 62135  1  0  0  0
 62136  1  0  0  0
 62137  1  0  0  0
 63 65  1  0  0  0
 63138  1  0  0  0
 63139  1  0  0  0
 63140  1  0  0  0
 64141  1  0  0  0
 65142  1  0  0  0
 68 79  1  0  0  0
 71 74  2  0  0  0
 71 75  1  0  0  0
 71143  1  0  0  0
 72 74  1  0  0  0
 72 76  2  0  0  0
 72144  1  0  0  0
 73 75  2  0  0  0
 73 76  1  0  0  0
 73145  1  0  0  0
 74 80  1  0  0  0
 75 81  1  0  0  0
 76 83  1  0  0  0
 77 79  1  0  0  0
 77 80  1  0  0  0
 77 82  2  0  0  0
 78146  1  0  0  0
 78147  1  0  0  0
 78148  1  0  0  0
 78 79  1  0  0  0
 79149  1  0  0  0
 80150  1  0  0  0
 81151  1  0  0  0
M  ISO  4   1 100  68 101  79 101  81 100
M  END
> <chiral flag>
0

> <version>
0

> <s_m_source_file>
/data/baiqing/PycharmProjects/Reinvent-master-3.2/result/LINK_invent/BTK/process_docking_weight1_custom_product_contain_oxygen_bond_distance_aromatic_linkinvent_7_9_3/rearranged_h_0069.sdf

> <i_m_source_file_index>
79

> <r_mmod_Potential_Energy-OPLS-2005>
745.310119628906

> <r_mmod_Stretch_Energy-OPLS-2005>
354.2216796875

> <r_mmod_Bend_Energy-OPLS-2005>
318.705230712891

> <r_mmod_Torsional_Energy-OPLS-2005>
236.921295166016

> <r_mmod_Improper_Torsional_Energy-OPLS-2005>
6.43588638305664

> <r_mmod_Van_der_Waal_Energy-OPLS-2005>
143.057571411133

> <r_mmod_Electrostatic_Energy-OPLS-2005>
-336.878295898438

> <r_mmod_Solvation_Energy-OPLS-2005>
-248.031677246094

> <b_mmod_Minimization_Converged-OPLS-2005>
0

> <r_mmod_RMS_Derivative-OPLS-2005>
0.602680921554565

$$$$
81
                    3D
 Structure written by MMmdl.
157166  0  0  1  0            999 V2000
  -30.6000  -14.8151   20.4331 C   0  0  0  0  0  0
  -30.4342  -12.5033   19.4887 C   0  0  0  0  0  0
  -29.5159  -12.5142   18.2456 C   0  0  0  0  0  0
  -28.0427  -12.3311   18.6562 C   0  0  0  0  0  0
  -27.6382  -13.2436   19.8453 C   0  0  2  0  0  0
  -28.6775  -13.2186   20.9845 C   0  0  0  0  0  0
  -25.2492  -13.8215   20.5698 C   0  0  0  0  0  0
  -24.1812  -13.0452   20.9212 C   0  0  0  0  0  0
  -24.6411  -11.6920   20.8749 C   0  0  0  0  0  0
  -23.9089  -10.4293   21.0412 C   0  0  0  0  0  0
  -24.3632   -9.4214   21.9194 C   0  0  0  0  0  0
  -23.6305   -8.2257   22.0769 C   0  0  0  0  0  0
  -22.4290   -8.0285   21.3559 C   0  0  0  0  0  0
  -21.9928   -9.0262   20.4668 C   0  0  0  0  0  0
  -22.7259  -10.2136   20.3075 C   0  0  0  0  0  0
  -21.6848   -6.0731   22.5270 C   0  0  0  0  0  0
  -21.4005   -6.5638   23.8193 C   0  0  0  0  0  0
  -21.3663   -5.6805   24.9156 C   0  0  0  0  0  0
  -21.6042   -4.3066   24.7224 C   0  0  0  0  0  0
  -21.8819   -3.8154   23.4343 C   0  0  0  0  0  0
  -21.9191   -4.6964   22.3393 C   0  0  0  0  0  0
  -22.7830  -13.5214   21.1848 C   0  0  0  0  0  0
  -22.1665   -4.2142   21.0984 F   0  0  0  0  0  0
  -21.5637   -3.4555   25.7739 F   0  0  0  0  0  0
  -29.9715  -13.5830   20.4000 N   0  0  0  0  0  0
  -26.2916  -12.9439   20.3235 N   0  0  0  0  0  0
  -25.9347  -11.6565   20.5750 N   0  0  0  0  0  0
  -22.0482  -12.8207   22.0407 N   0  0  0  0  0  0
  -25.4167  -15.1944   20.4132 N   0  0  0  0  0  0
  -31.8038  -14.8540   20.1602 O   0  0  0  0  0  0
  -21.6652   -6.8877   21.4236 O   0  0  0  0  0  0
  -22.3508  -14.5505   20.6668 O   0  0  0  0  0  0
  -24.6346  -31.8509   23.1989 C   0  0  0  0  0  0
  -25.9153  -32.4725   23.8346 C   0  0  1  0  0  0
  -27.2202  -27.2212   20.1342 C   0  0  0  0  0  0
  -25.5945  -33.8535   24.2263 N   0  0  0  0  0  0
  -23.4324  -30.4724   21.5423 C   0  0  2  0  0  0
  -24.8830  -28.9161   20.1112 C   0  0  0  0  0  0
  -22.7496  -29.4572   22.4910 C   0  0  0  0  0  0
  -18.0282  -28.1377   22.8466 C   0  0  0  0  0  0
  -24.1487  -36.7285   23.2634 C   0  0  0  0  0  0
  -25.9823  -30.7482   21.3882 C   0  0  0  0  0  0
  -26.0539  -29.3670   20.7312 C   0  0  0  0  0  0
  -27.2214  -28.5295   20.7396 C   0  0  0  0  0  0
  -26.0304  -26.8636   19.4601 C   0  0  0  0  0  0
  -24.8777  -27.6721   19.4660 C   0  0  0  0  0  0
  -23.6541  -29.8061   20.1591 C   0  0  0  0  0  0
  -25.4113  -36.3054   24.0320 C   0  0  1  0  0  0
  -20.5885  -28.3697   23.1256 C   0  0  2  0  0  0
  -20.6772  -26.9412   22.5407 C   0  0  0  0  0  0
  -19.5765  -26.6368   21.5204 C   0  0  0  0  0  0
  -18.1938  -26.7909   22.1615 C   0  0  0  0  0  0
  -19.1536  -28.8857   23.2851 C   0  0  0  0  0  0
  -18.9463  -30.1442   23.8881 C   0  0  0  0  0  0
  -17.6473  -30.6584   24.0549 C   0  0  0  0  0  0
  -25.9056  -34.9414   23.5095 C   0  0  0  0  0  0
  -16.5354  -29.9076   23.6326 C   0  0  0  0  0  0
  -16.7267  -28.6485   23.0349 C   0  0  0  0  0  0
  -26.4518  -31.6560   25.0753 C   0  0  0  0  0  0
  -25.3711  -31.3759   26.1463 C   0  0  0  0  0  0
  -27.0380  -30.2952   24.6295 C   0  0  0  0  0  0
  -27.6057  -32.4309   25.7540 C   0  0  0  0  0  0
  -27.5576  -37.1810   24.8462 C   0  0  0  0  0  0
  -21.4201  -29.3041   22.3647 N   0  0  0  0  0  0
  -26.4288  -37.3759   23.9393 N   0  0  0  0  0  0
  -24.7023  -31.0433   22.0984 N   0  0  0  0  0  0
  -23.4182  -28.8083   23.2993 O   0  0  0  0  0  0
  -28.2918  -26.2819   20.2195 O   0  0  0  0  0  0
  -26.5630  -34.8899   22.4665 O   0  0  0  0  0  0
  -23.5478  -32.1350   23.7247 O   0  0  0  0  0  0
  -30.6874  -19.9346   18.8456 C   0  0  0  0  0  0
  -29.5178  -18.6722   20.5157 C   0  0  0  0  0  0
  -30.9819  -17.5066   18.9686 C   0  0  0  0  0  0
  -29.7921  -20.0121   19.9435 C   0  0  0  0  0  0
  -31.2512  -18.7386   18.3582 C   0  0  0  0  0  0
  -30.1136  -17.3935   20.0740 C   0  0  0  0  0  0
  -28.1405  -22.1072   20.6137 C   0  0  0  0  0  0
  -29.8995  -22.6491   19.7210 C   0  0  0  0  0  0
  -28.8993  -23.5332   20.5717 C   0  0  2  0  0  0
  -29.3315  -23.9104   21.9974 C   0  0  0  0  0  0
  -28.0352  -24.7963   19.9721 C   0  0  0  0  0  0
  -29.3337  -21.4087   20.3237 N   0  0  0  0  0  0
  -32.0900  -18.7682   17.2438 N   0  0  0  0  0  0
  -29.8559  -15.9980   20.5993 N   0  0  0  0  0  0
  -26.9976  -21.7139   20.7310 O   0  0  0  0  0  0
  -31.4729  -12.6339   19.1793 H   0  0  0  0  0  0
  -30.3955  -11.5372   19.9937 H   0  0  0  0  0  0
  -29.8121  -11.7267   17.5508 H   0  0  0  0  0  0
  -29.6367  -13.4572   17.7094 H   0  0  0  0  0  0
  -27.9051  -11.2834   18.9285 H   0  0  0  0  0  0
  -27.3856  -12.5076   17.8030 H   0  0  0  0  0  0
  -27.6187  -14.2589   19.4489 H   0  0  0  0  0  0
  -28.7248  -12.2323   21.4497 H   0  0  0  0  0  0
  -28.3955  -13.9157   21.7758 H   0  0  0  0  0  0
  -25.2773   -9.5668   22.4771 H   0  0  0  0  0  0
  -23.9991   -7.4648   22.7496 H   0  0  0  0  0  0
  -21.0848   -8.8794   19.8982 H   0  0  0  0  0  0
  -22.3722  -10.9680   19.6195 H   0  0  0  0  0  0
  -21.1985   -7.6148   23.9674 H   0  0  0  0  0  0
  -21.1493   -6.0548   25.9048 H   0  0  0  0  0  0
  -22.0594   -2.7618   23.2850 H   0  0  0  0  0  0
  -22.4121  -11.9882   22.4832 H   0  0  0  0  0  0
  -21.1098  -13.1225   22.2597 H   0  0  0  0  0  0
  -24.6421  -15.8398   20.5171 H   0  0  0  0  0  0
  -26.2513  -15.6381   20.0531 H   0  0  0  0  0  0
  -26.7209  -32.5357   23.1076 H   0  0  0  0  0  0
  -25.0102  -33.9694   25.0416 H   0  0  0  0  0  0
  -22.7301  -31.2966   21.3941 H   0  0  0  0  0  0
  -23.3748  -35.9627   23.3283 H   0  0  0  0  0  0
  -24.3563  -36.8923   22.2050 H   0  0  0  0  0  0
  -23.7258  -37.6483   23.6672 H   0  0  0  0  0  0
  -26.1254  -31.5059   20.6160 H   0  0  0  0  0  0
  -26.8574  -30.7998   22.0234 H   0  0  0  0  0  0
  -28.1072  -28.8595   21.2652 H   0  0  0  0  0  0
  -25.9558  -25.9266   18.9280 H   0  0  0  0  0  0
  -23.9839  -27.3223   18.9696 H   0  0  0  0  0  0
  -23.7822  -30.5820   19.4040 H   0  0  0  0  0  0
  -22.7706  -29.2433   19.8530 H   0  0  0  0  0  0
  -25.1300  -36.1901   25.0817 H   0  0  0  0  0  0
  -20.9962  -28.3271   24.1383 H   0  0  0  0  0  0
  -20.5652  -26.2314   23.3609 H   0  0  0  0  0  0
  -21.6643  -26.7438   22.1221 H   0  0  0  0  0  0
  -19.6944  -25.6271   21.1242 H   0  0  0  0  0  0
  -19.6694  -27.3162   20.6715 H   0  0  0  0  0  0
  -17.4197  -26.6609   21.4012 H   0  0  0  0  0  0
  -18.0367  -26.0058   22.9032 H   0  0  0  0  0  0
  -19.7935  -30.7241   24.2248 H   0  0  0  0  0  0
  -17.5029  -31.6259   24.5143 H   0  0  0  0  0  0
  -15.5348  -30.2986   23.7665 H   0  0  0  0  0  0
  -15.8655  -28.0800   22.7107 H   0  0  0  0  0  0
  -24.5870  -30.7128   25.7800 H   0  0  0  0  0  0
  -24.8937  -32.2955   26.4842 H   0  0  0  0  0  0
  -25.7993  -30.8958   27.0263 H   0  0  0  0  0  0
  -26.3009  -29.6682   24.1263 H   0  0  0  0  0  0
  -27.3957  -29.7236   25.4868 H   0  0  0  0  0  0
  -27.8922  -30.4199   23.9638 H   0  0  0  0  0  0
  -27.2642  -33.3593   26.2128 H   0  0  0  0  0  0
  -28.3874  -32.6884   25.0383 H   0  0  0  0  0  0
  -28.0714  -31.8429   26.5456 H   0  0  0  0  0  0
  -28.2600  -38.0102   24.7481 H   0  0  0  0  0  0
  -28.1068  -36.2624   24.6317 H   0  0  0  0  0  0
  -27.2286  -37.1491   25.8868 H   0  0  0  0  0  0
  -20.9385  -29.8776   21.6869 H   0  0  0  0  0  0
  -26.0156  -38.2835   24.1372 H   0  0  0  0  0  0
  -30.9645  -20.8380   18.3236 H   0  0  0  0  0  0
  -28.8308  -18.6327   21.3490 H   0  0  0  0  0  0
  -31.4507  -16.6293   18.5471 H   0  0  0  0  0  0
  -30.9508  -22.8363   19.9521 H   0  0  0  0  0  0
  -29.7240  -22.7268   18.6427 H   0  0  0  0  0  0
  -29.8408  -23.0890   22.5053 H   0  0  0  0  0  0
  -28.4765  -24.1912   22.6150 H   0  0  0  0  0  0
  -30.0204  -24.7558   21.9926 H   0  0  0  0  0  0
  -27.9942  -24.6902   18.8878 H   0  0  0  0  0  0
  -27.0147  -24.6111   20.3082 H   0  0  0  0  0  0
  -32.0048  -19.5583   16.6109 H   0  0  0  0  0  0
  -32.2236  -17.8951   16.7422 H   0  0  0  0  0  0
  -28.9341  -15.8547   20.9865 H   0  0  0  0  0  0
  1 25  1  0  0  0
  1 30  2  0  0  0
  1 84  1  0  0  0
  2  3  1  0  0  0
  2 25  1  0  0  0
  2 86  1  0  0  0
  2 87  1  0  0  0
  3  4  1  0  0  0
  3 88  1  0  0  0
  3 89  1  0  0  0
  4  5  1  0  0  0
  4 90  1  0  0  0
  4 91  1  0  0  0
  5  6  1  0  0  0
  5 26  1  0  0  0
  5 92  1  0  0  0
  6 25  1  0  0  0
  6 93  1  0  0  0
  6 94  1  0  0  0
  7  8  2  0  0  0
  7 26  1  0  0  0
  7 29  1  0  0  0
  8  9  1  0  0  0
  8 22  1  0  0  0
  9 10  1  0  0  0
  9 27  2  0  0  0
 10 11  2  0  0  0
 10 15  1  0  0  0
 11 12  1  0  0  0
 11 95  1  0  0  0
 12 13  2  0  0  0
 12 96  1  0  0  0
 13 14  1  0  0  0
 13 31  1  0  0  0
 14 15  2  0  0  0
 14 97  1  0  0  0
 15 98  1  0  0  0
 16 17  2  0  0  0
 16 21  1  0  0  0
 16 31  1  0  0  0
 17 18  1  0  0  0
 17 99  1  0  0  0
 18 19  2  0  0  0
 18100  1  0  0  0
 19 20  1  0  0  0
 19 24  1  0  0  0
 20 21  2  0  0  0
 20101  1  0  0  0
 21 23  1  0  0  0
 22 28  1  0  0  0
 22 32  2  0  0  0
 26 27  1  0  0  0
 28102  1  0  0  0
 28103  1  0  0  0
 29104  1  0  0  0
 29105  1  0  0  0
 33 34  1  0  0  0
 33 66  1  0  0  0
 33 70  2  0  0  0
 34 36  1  0  0  0
 34 59  1  0  0  0
 34106  1  0  0  0
 35 44  2  0  0  0
 35 45  1  0  0  0
 35 68  1  0  0  0
 36 56  1  0  0  0
 36107  1  0  0  0
 37 39  1  0  0  0
 37 47  1  0  0  0
 37 66  1  0  0  0
 37108  1  0  0  0
 38 43  2  0  0  0
 38 46  1  0  0  0
 38 47  1  0  0  0
 39 64  1  0  0  0
 39 67  2  0  0  0
 40 52  1  0  0  0
 40 53  2  0  0  0
 40 58  1  0  0  0
 41109  1  0  0  0
 41110  1  0  0  0
 41111  1  0  0  0
 41 48  1  0  0  0
 42 43  1  0  0  0
 42 66  1  0  0  0
 42112  1  0  0  0
 42113  1  0  0  0
 43 44  1  0  0  0
 44114  1  0  0  0
 45 46  2  0  0  0
 45115  1  0  0  0
 46116  1  0  0  0
 47117  1  0  0  0
 47118  1  0  0  0
 48 56  1  0  0  0
 48 65  1  0  0  0
 48119  1  0  0  0
 49 50  1  0  0  0
 49 53  1  0  0  0
 49 64  1  0  0  0
 49120  1  0  0  0
 50 51  1  0  0  0
 50121  1  0  0  0
 50122  1  0  0  0
 51 52  1  0  0  0
 51123  1  0  0  0
 51124  1  0  0  0
 52125  1  0  0  0
 52126  1  0  0  0
 53 54  1  0  0  0
 54 55  2  0  0  0
 54127  1  0  0  0
 55 57  1  0  0  0
 55128  1  0  0  0
 56 69  2  0  0  0
 57 58  2  0  0  0
 57129  1  0  0  0
 58130  1  0  0  0
 59 60  1  0  0  0
 59 61  1  0  0  0
 59 62  1  0  0  0
 60131  1  0  0  0
 60132  1  0  0  0
 60133  1  0  0  0
 61134  1  0  0  0
 61135  1  0  0  0
 61136  1  0  0  0
 62137  1  0  0  0
 62138  1  0  0  0
 62139  1  0  0  0
 63 65  1  0  0  0
 63140  1  0  0  0
 63141  1  0  0  0
 63142  1  0  0  0
 64143  1  0  0  0
 65144  1  0  0  0
 68 81  1  0  0  0
 71 74  2  0  0  0
 71 75  1  0  0  0
 71145  1  0  0  0
 72 74  1  0  0  0
 72 76  2  0  0  0
 72146  1  0  0  0
 73 75  2  0  0  0
 73 76  1  0  0  0
 73147  1  0  0  0
 74 82  1  0  0  0
 75 83  1  0  0  0
 76 84  1  0  0  0
 77 79  1  0  0  0
 77 82  1  0  0  0
 77 85  2  0  0  0
 78 79  1  0  0  0
 78 82  1  0  0  0
 78148  1  0  0  0
 78149  1  0  0  0
 79 80  1  0  0  0
 79 81  1  0  0  0
 80150  1  0  0  0
 80151  1  0  0  0
 80152  1  0  0  0
 81153  1  0  0  0
 81154  1  0  0  0
 83155  1  0  0  0
 83156  1  0  0  0
 84157  1  0  0  0
M  ISO  4   1 100  68 101  81 101  84 100
M  END
> <chiral flag>
0

> <version>
0

> <s_m_source_file>
/data/baiqing/PycharmProjects/Reinvent-master-3.2/result/LINK_invent/BTK/process_docking_weight1_custom_product_contain_oxygen_bond_distance_aromatic_linkinvent_7_9_3/rearranged_h_0069.sdf

> <i_m_source_file_index>
80

> <r_mmod_Potential_Energy-OPLS-2005>
373.872406005859

> <r_mmod_Stretch_Energy-OPLS-2005>
172.88346862793

> <r_mmod_Bend_Energy-OPLS-2005>
221.998748779297

> <r_mmod_Torsional_Energy-OPLS-2005>
257.597381591797

> <r_mmod_Improper_Torsional_Energy-OPLS-2005>
11.2420654296875

> <r_mmod_Van_der_Waal_Energy-OPLS-2005>
146.090469360352

> <r_mmod_Electrostatic_Energy-OPLS-2005>
-321.357360839844

> <r_mmod_Solvation_Energy-OPLS-2005>
-233.149185180664

> <b_mmod_Minimization_Converged-OPLS-2005>
0

> <r_mmod_RMS_Derivative-OPLS-2005>
4.29040050506592

$$$$
82
                    3D
 Structure written by MMmdl.
155163  0  0  1  0            999 V2000
  -30.5969  -14.7576   20.5028 C   0  0  0  0  0  0
  -30.4443  -12.4790   19.4633 C   0  0  0  0  0  0
  -29.5150  -12.5172   18.2301 C   0  0  0  0  0  0
  -28.0427  -12.3264   18.6463 C   0  0  0  0  0  0
  -27.6409  -13.2264   19.8442 C   0  0  2  0  0  0
  -28.6853  -13.1615   20.9790 C   0  0  0  0  0  0
  -25.2511  -13.8177   20.5639 C   0  0  0  0  0  0
  -24.1796  -13.0434   20.9195 C   0  0  0  0  0  0
  -24.6385  -11.6918   20.8740 C   0  0  0  0  0  0
  -23.9072  -10.4291   21.0413 C   0  0  0  0  0  0
  -24.3624   -9.4211   21.9189 C   0  0  0  0  0  0
  -23.6287   -8.2253   22.0773 C   0  0  0  0  0  0
  -22.4268   -8.0284   21.3554 C   0  0  0  0  0  0
  -21.9897   -9.0271   20.4666 C   0  0  0  0  0  0
  -22.7250  -10.2140   20.3066 C   0  0  0  0  0  0
  -21.6848   -6.0732   22.5283 C   0  0  0  0  0  0
  -21.4012   -6.5637   23.8218 C   0  0  0  0  0  0
  -21.3666   -5.6795   24.9181 C   0  0  0  0  0  0
  -21.6037   -4.3054   24.7232 C   0  0  0  0  0  0
  -21.8827   -3.8144   23.4354 C   0  0  0  0  0  0
  -21.9187   -4.6957   22.3407 C   0  0  0  0  0  0
  -22.7821  -13.5239   21.1851 C   0  0  0  0  0  0
  -22.1655   -4.2148   21.0986 F   0  0  0  0  0  0
  -21.5629   -3.4534   25.7746 F   0  0  0  0  0  0
  -29.9806  -13.5307   20.3941 N   0  0  0  0  0  0
  -26.2929  -12.9371   20.3222 N   0  0  0  0  0  0
  -25.9312  -11.6518   20.5717 N   0  0  0  0  0  0
  -22.0445  -12.8244   22.0408 N   0  0  0  0  0  0
  -25.4173  -15.1895   20.3987 N   0  0  0  0  0  0
  -31.7994  -14.8680   20.2485 O   0  0  0  0  0  0
  -21.6636   -6.8879   21.4250 O   0  0  0  0  0  0
  -22.3530  -14.5554   20.6706 O   0  0  0  0  0  0
  -24.6305  -31.8555   23.1972 C   0  0  0  0  0  0
  -25.9141  -32.4758   23.8314 C   0  0  1  0  0  0
  -27.2335  -27.2779   20.1366 C   0  0  0  0  0  0
  -25.5960  -33.8547   24.2259 N   0  0  0  0  0  0
  -23.4285  -30.4754   21.5378 C   0  0  2  0  0  0
  -24.8792  -28.9195   20.1138 C   0  0  0  0  0  0
  -22.7513  -29.4609   22.4914 C   0  0  0  0  0  0
  -18.0303  -28.1411   22.8492 C   0  0  0  0  0  0
  -24.1478  -36.7258   23.2645 C   0  0  0  0  0  0
  -25.9711  -30.7763   21.3699 C   0  0  0  0  0  0
  -26.0503  -29.3979   20.7168 C   0  0  0  0  0  0
  -27.2343  -28.5927   20.7091 C   0  0  0  0  0  0
  -26.0427  -26.8621   19.5069 C   0  0  0  0  0  0
  -24.8796  -27.6571   19.4988 C   0  0  0  0  0  0
  -23.6474  -29.8024   20.1567 C   0  0  0  0  0  0
  -25.4106  -36.3048   24.0325 C   0  0  1  0  0  0
  -20.5906  -28.3701   23.1288 C   0  0  2  0  0  0
  -20.6773  -26.9421   22.5415 C   0  0  0  0  0  0
  -19.5738  -26.6398   21.5225 C   0  0  0  0  0  0
  -18.1925  -26.7948   22.1641 C   0  0  0  0  0  0
  -19.1556  -28.8879   23.2880 C   0  0  0  0  0  0
  -18.9474  -30.1490   23.8879 C   0  0  0  0  0  0
  -17.6467  -30.6596   24.0573 C   0  0  0  0  0  0
  -25.9061  -34.9433   23.5088 C   0  0  0  0  0  0
  -16.5364  -29.9093   23.6339 C   0  0  0  0  0  0
  -16.7286  -28.6526   23.0336 C   0  0  0  0  0  0
  -26.4536  -31.6563   25.0686 C   0  0  0  0  0  0
  -25.3780  -31.3697   26.1414 C   0  0  0  0  0  0
  -27.0408  -30.2994   24.6145 C   0  0  0  0  0  0
  -27.6087  -32.4324   25.7465 C   0  0  0  0  0  0
  -27.5568  -37.1784   24.8470 C   0  0  0  0  0  0
  -21.4220  -29.3036   22.3651 N   0  0  0  0  0  0
  -26.4279  -37.3752   23.9422 N   0  0  0  0  0  0
  -24.6958  -31.0548   22.0927 N   0  0  0  0  0  0
  -23.4212  -28.8149   23.3017 O   0  0  0  0  0  0
  -28.3389  -26.3988   20.1485 O   0  0  0  0  0  0
  -26.5609  -34.8922   22.4641 O   0  0  0  0  0  0
  -23.5467  -32.1383   23.7278 O   0  0  0  0  0  0
  -30.2679  -19.8717   22.2508 C   0  0  0  0  0  0
  -30.6023  -17.4419   22.3285 C   0  0  0  0  0  0
  -29.5445  -18.4825   20.3961 C   0  0  0  0  0  0
  -30.7272  -18.7181   22.9289 C   0  0  0  0  0  0
  -29.6648  -19.8159   20.9731 C   0  0  0  0  0  0
  -30.0136  -17.2678   21.0545 C   0  0  0  0  0  0
  -31.1856  -19.8719   25.1175 C   0  0  0  0  0  0
  -31.2923  -18.8171   24.2887 C   0  0  0  0  0  0
  -28.9260  -22.3211   20.8614 C   0  0  0  0  0  0
  -28.9494  -23.7069   20.0547 C   0  0  0  0  0  0
  -28.1465  -24.9903   20.6412 C   0  0  0  0  0  0
  -29.2890  -21.0960   20.3062 N   0  0  0  0  0  0
  -29.7774  -15.8793   20.5793 N   0  0  0  0  0  0
  -28.5400  -22.3731   22.0308 O   0  0  0  0  0  0
  -31.4812  -12.6323   19.1561 H   0  0  0  0  0  0
  -30.4092  -11.5001   19.9462 H   0  0  0  0  0  0
  -29.8078  -11.7473   17.5155 H   0  0  0  0  0  0
  -29.6331  -13.4715   17.7126 H   0  0  0  0  0  0
  -27.9112  -11.2767   18.9130 H   0  0  0  0  0  0
  -27.3858  -12.5078   17.7946 H   0  0  0  0  0  0
  -27.6319  -14.2462   19.4594 H   0  0  0  0  0  0
  -28.7309  -12.1626   21.4161 H   0  0  0  0  0  0
  -28.4144  -13.8386   21.7911 H   0  0  0  0  0  0
  -25.2771   -9.5676   22.4768 H   0  0  0  0  0  0
  -23.9993   -7.4635   22.7479 H   0  0  0  0  0  0
  -21.0838   -8.8803   19.8952 H   0  0  0  0  0  0
  -22.3727  -10.9681   19.6172 H   0  0  0  0  0  0
  -21.2018   -7.6146   23.9732 H   0  0  0  0  0  0
  -21.1468   -6.0514   25.9091 H   0  0  0  0  0  0
  -22.0592   -2.7602   23.2859 H   0  0  0  0  0  0
  -22.4043  -11.9931   22.4843 H   0  0  0  0  0  0
  -21.1068  -13.1302   22.2595 H   0  0  0  0  0  0
  -24.6406  -15.8341   20.5014 H   0  0  0  0  0  0
  -26.2521  -15.6298   20.0355 H   0  0  0  0  0  0
  -26.7203  -32.5418   23.1066 H   0  0  0  0  0  0
  -25.0138  -33.9663   25.0431 H   0  0  0  0  0  0
  -22.7240  -31.2962   21.3858 H   0  0  0  0  0  0
  -23.3741  -35.9587   23.3302 H   0  0  0  0  0  0
  -24.3576  -36.8868   22.2064 H   0  0  0  0  0  0
  -23.7240  -37.6466   23.6663 H   0  0  0  0  0  0
  -26.1025  -31.5351   20.5952 H   0  0  0  0  0  0
  -26.8529  -30.8348   21.9950 H   0  0  0  0  0  0
  -28.1344  -28.9603   21.1792 H   0  0  0  0  0  0
  -26.0032  -25.8961   19.0249 H   0  0  0  0  0  0
  -23.9833  -27.2823   19.0243 H   0  0  0  0  0  0
  -23.7701  -30.5726   19.3947 H   0  0  0  0  0  0
  -22.7683  -29.2316   19.8557 H   0  0  0  0  0  0
  -25.1289  -36.1877   25.0813 H   0  0  0  0  0  0
  -21.0024  -28.3277   24.1406 H   0  0  0  0  0  0
  -20.5675  -26.2319   23.3626 H   0  0  0  0  0  0
  -21.6639  -26.7422   22.1218 H   0  0  0  0  0  0
  -19.6877  -25.6316   21.1245 H   0  0  0  0  0  0
  -19.6668  -27.3220   20.6772 H   0  0  0  0  0  0
  -17.4204  -26.6733   21.4033 H   0  0  0  0  0  0
  -18.0290  -26.0100   22.9047 H   0  0  0  0  0  0
  -19.7946  -30.7328   24.2218 H   0  0  0  0  0  0
  -17.5014  -31.6261   24.5201 H   0  0  0  0  0  0
  -15.5364  -30.2975   23.7675 H   0  0  0  0  0  0
  -15.8697  -28.0846   22.7018 H   0  0  0  0  0  0
  -24.5962  -30.7030   25.7753 H   0  0  0  0  0  0
  -24.8985  -32.2871   26.4845 H   0  0  0  0  0  0
  -25.8144  -30.8895   27.0183 H   0  0  0  0  0  0
  -26.2994  -29.6705   24.1212 H   0  0  0  0  0  0
  -27.4154  -29.7278   25.4648 H   0  0  0  0  0  0
  -27.8825  -30.4273   23.9334 H   0  0  0  0  0  0
  -27.2673  -33.3613   26.2038 H   0  0  0  0  0  0
  -28.3918  -32.6900   25.0321 H   0  0  0  0  0  0
  -28.0734  -31.8465   26.5405 H   0  0  0  0  0  0
  -28.2586  -38.0080   24.7525 H   0  0  0  0  0  0
  -28.1069  -36.2626   24.6285 H   0  0  0  0  0  0
  -27.2298  -37.1399   25.8874 H   0  0  0  0  0  0
  -20.9421  -29.8762   21.6839 H   0  0  0  0  0  0
  -26.0140  -38.2803   24.1466 H   0  0  0  0  0  0
  -30.4089  -20.8347   22.7183 H   0  0  0  0  0  0
  -30.9249  -16.5735   22.8861 H   0  0  0  0  0  0
  -29.0725  -18.3911   19.4291 H   0  0  0  0  0  0
  -31.6520  -19.8557   26.0919 H   0  0  0  0  0  0
  -30.6352  -20.7662   24.8607 H   0  0  0  0  0  0
  -31.8556  -17.9632   24.6367 H   0  0  0  0  0  0
  -30.0027  -23.9833   19.9950 H   0  0  0  0  0  0
  -28.6356  -23.5228   19.0275 H   0  0  0  0  0  0
  -28.4054  -25.0520   21.6973 H   0  0  0  0  0  0
  -27.0885  -24.7323   20.6398 H   0  0  0  0  0  0
  -29.3866  -21.0983   19.2995 H   0  0  0  0  0  0
  -28.8081  -15.6654   20.4091 H   0  0  0  0  0  0
  1 25  1  0  0  0
  1 30  2  0  0  0
  1 83  1  0  0  0
  2  3  1  0  0  0
  2 25  1  0  0  0
  2 85  1  0  0  0
  2 86  1  0  0  0
  3  4  1  0  0  0
  3 87  1  0  0  0
  3 88  1  0  0  0
  4  5  1  0  0  0
  4 89  1  0  0  0
  4 90  1  0  0  0
  5  6  1  0  0  0
  5 26  1  0  0  0
  5 91  1  0  0  0
  6 25  1  0  0  0
  6 92  1  0  0  0
  6 93  1  0  0  0
  7  8  2  0  0  0
  7 26  1  0  0  0
  7 29  1  0  0  0
  8  9  1  0  0  0
  8 22  1  0  0  0
  9 10  1  0  0  0
  9 27  2  0  0  0
 10 11  2  0  0  0
 10 15  1  0  0  0
 11 12  1  0  0  0
 11 94  1  0  0  0
 12 13  2  0  0  0
 12 95  1  0  0  0
 13 14  1  0  0  0
 13 31  1  0  0  0
 14 15  2  0  0  0
 14 96  1  0  0  0
 15 97  1  0  0  0
 16 17  2  0  0  0
 16 21  1  0  0  0
 16 31  1  0  0  0
 17 18  1  0  0  0
 17 98  1  0  0  0
 18 19  2  0  0  0
 18 99  1  0  0  0
 19 20  1  0  0  0
 19 24  1  0  0  0
 20 21  2  0  0  0
 20100  1  0  0  0
 21 23  1  0  0  0
 22 28  1  0  0  0
 22 32  2  0  0  0
 26 27  1  0  0  0
 28101  1  0  0  0
 28102  1  0  0  0
 29103  1  0  0  0
 29104  1  0  0  0
 33 34  1  0  0  0
 33 66  1  0  0  0
 33 70  2  0  0  0
 34 36  1  0  0  0
 34 59  1  0  0  0
 34105  1  0  0  0
 35 44  2  0  0  0
 35 45  1  0  0  0
 35 68  1  0  0  0
 36 56  1  0  0  0
 36106  1  0  0  0
 37 39  1  0  0  0
 37 47  1  0  0  0
 37 66  1  0  0  0
 37107  1  0  0  0
 38 43  2  0  0  0
 38 46  1  0  0  0
 38 47  1  0  0  0
 39 64  1  0  0  0
 39 67  2  0  0  0
 40 52  1  0  0  0
 40 53  2  0  0  0
 40 58  1  0  0  0
 41108  1  0  0  0
 41109  1  0  0  0
 41110  1  0  0  0
 41 48  1  0  0  0
 42 43  1  0  0  0
 42 66  1  0  0  0
 42111  1  0  0  0
 42112  1  0  0  0
 43 44  1  0  0  0
 44113  1  0  0  0
 45 46  2  0  0  0
 45114  1  0  0  0
 46115  1  0  0  0
 47116  1  0  0  0
 47117  1  0  0  0
 48 56  1  0  0  0
 48 65  1  0  0  0
 48118  1  0  0  0
 49 50  1  0  0  0
 49 53  1  0  0  0
 49 64  1  0  0  0
 49119  1  0  0  0
 50 51  1  0  0  0
 50120  1  0  0  0
 50121  1  0  0  0
 51 52  1  0  0  0
 51122  1  0  0  0
 51123  1  0  0  0
 52124  1  0  0  0
 52125  1  0  0  0
 53 54  1  0  0  0
 54 55  2  0  0  0
 54126  1  0  0  0
 55 57  1  0  0  0
 55127  1  0  0  0
 56 69  2  0  0  0
 57 58  2  0  0  0
 57128  1  0  0  0
 58129  1  0  0  0
 59 60  1  0  0  0
 59 61  1  0  0  0
 59 62  1  0  0  0
 60130  1  0  0  0
 60131  1  0  0  0
 60132  1  0  0  0
 61133  1  0  0  0
 61134  1  0  0  0
 61135  1  0  0  0
 62136  1  0  0  0
 62137  1  0  0  0
 62138  1  0  0  0
 63 65  1  0  0  0
 63139  1  0  0  0
 63140  1  0  0  0
 63141  1  0  0  0
 64142  1  0  0  0
 65143  1  0  0  0
 68 81  1  0  0  0
 71 74  2  0  0  0
 71 75  1  0  0  0
 71144  1  0  0  0
 72 74  1  0  0  0
 72 76  2  0  0  0
 72145  1  0  0  0
 73 75  2  0  0  0
 73 76  1  0  0  0
 73146  1  0  0  0
 74 78  1  0  0  0
 75 82  1  0  0  0
 76 83  1  0  0  0
 77 78  2  0  0  0
 77147  1  0  0  0
 77148  1  0  0  0
 78149  1  0  0  0
 79 80  1  0  0  0
 79 82  1  0  0  0
 79 84  2  0  0  0
 80 81  1  0  0  0
 80150  1  0  0  0
 80151  1  0  0  0
 81152  1  0  0  0
 81153  1  0  0  0
 82154  1  0  0  0
 83155  1  0  0  0
M  ISO  4   1 100  68 101  81 101  83 100
M  END
> <chiral flag>
0

> <version>
0

> <s_m_source_file>
/data/baiqing/PycharmProjects/Reinvent-master-3.2/result/LINK_invent/BTK/process_docking_weight1_custom_product_contain_oxygen_bond_distance_aromatic_linkinvent_7_9_3/rearranged_h_0069.sdf

> <i_m_source_file_index>
81

> <r_mmod_Potential_Energy-OPLS-2005>
177.406631469727

> <r_mmod_Stretch_Energy-OPLS-2005>
123.407485961914

> <r_mmod_Bend_Energy-OPLS-2005>
157.473205566406

> <r_mmod_Torsional_Energy-OPLS-2005>
275.319854736328

> <r_mmod_Improper_Torsional_Energy-OPLS-2005>
9.30873775482178

> <r_mmod_Van_der_Waal_Energy-OPLS-2005>
139.465286254883

> <r_mmod_Electrostatic_Energy-OPLS-2005>
-375.725250244141

> <r_mmod_Solvation_Energy-OPLS-2005>
-237.135345458984

> <b_mmod_Minimization_Converged-OPLS-2005>
0

> <r_mmod_RMS_Derivative-OPLS-2005>
3.1246919631958

$$$$
83
                    3D
 Structure written by MMmdl.
158166  0  0  1  0            999 V2000
  -30.5281  -14.7431   20.4009 C   0  0  0  0  0  0
  -30.4082  -12.4173   19.5003 C   0  0  0  0  0  0
  -29.5114  -12.5263   18.2458 C   0  0  0  0  0  0
  -28.0269  -12.3498   18.6306 C   0  0  0  0  0  0
  -27.6298  -13.2196   19.8548 C   0  0  2  0  0  0
  -28.6588  -13.1171   20.9952 C   0  0  0  0  0  0
  -25.2413  -13.8097   20.5756 C   0  0  0  0  0  0
  -24.1719  -13.0295   20.9271 C   0  0  0  0  0  0
  -24.6314  -11.6773   20.8776 C   0  0  0  0  0  0
  -23.8982  -10.4159   21.0468 C   0  0  0  0  0  0
  -24.3525   -9.4073   21.9249 C   0  0  0  0  0  0
  -23.6202   -8.2111   22.0754 C   0  0  0  0  0  0
  -22.4200   -8.0150   21.3559 C   0  0  0  0  0  0
  -21.9835   -9.0119   20.4655 C   0  0  0  0  0  0
  -22.7144  -10.2019   20.3109 C   0  0  0  0  0  0
  -21.6838   -6.0616   22.5282 C   0  0  0  0  0  0
  -21.3982   -6.5547   23.8179 C   0  0  0  0  0  0
  -21.3681   -5.6748   24.9181 C   0  0  0  0  0  0
  -21.6098   -4.3006   24.7242 C   0  0  0  0  0  0
  -21.8804   -3.8035   23.4369 C   0  0  0  0  0  0
  -21.9166   -4.6854   22.3400 C   0  0  0  0  0  0
  -22.7735  -13.5036   21.1989 C   0  0  0  0  0  0
  -22.1649   -4.1998   21.0996 F   0  0  0  0  0  0
  -21.5733   -3.4525   25.7792 F   0  0  0  0  0  0
  -29.9681  -13.4813   20.4328 N   0  0  0  0  0  0
  -26.2807  -12.9276   20.3254 N   0  0  0  0  0  0
  -25.9227  -11.6425   20.5709 N   0  0  0  0  0  0
  -22.0393  -12.8085   22.0614 N   0  0  0  0  0  0
  -25.4109  -15.1895   20.4288 N   0  0  0  0  0  0
  -31.7151  -14.8756   20.0771 O   0  0  0  0  0  0
  -21.6601   -6.8751   21.4223 O   0  0  0  0  0  0
  -22.3378  -14.5262   20.6705 O   0  0  0  0  0  0
  -24.6334  -31.8555   23.1924 C   0  0  0  0  0  0
  -25.9150  -32.4732   23.8241 C   0  0  1  0  0  0
  -27.1930  -27.2364   20.1407 C   0  0  0  0  0  0
  -25.5983  -33.8529   24.2219 N   0  0  0  0  0  0
  -23.4201  -30.4734   21.5427 C   0  0  2  0  0  0
  -24.8600  -28.9084   20.1153 C   0  0  0  0  0  0
  -22.7458  -29.4550   22.4944 C   0  0  0  0  0  0
  -18.0220  -28.1399   22.8402 C   0  0  0  0  0  0
  -24.1491  -36.7271   23.2623 C   0  0  0  0  0  0
  -25.9665  -30.7604   21.3653 C   0  0  0  0  0  0
  -26.0342  -29.3783   20.7166 C   0  0  0  0  0  0
  -27.2096  -28.5583   20.7083 C   0  0  0  0  0  0
  -25.9979  -26.8237   19.5239 C   0  0  0  0  0  0
  -24.8460  -27.6392   19.5110 C   0  0  0  0  0  0
  -23.6343  -29.8055   20.1598 C   0  0  0  0  0  0
  -25.4098  -36.3025   24.0309 C   0  0  1  0  0  0
  -20.5856  -28.3673   23.1220 C   0  0  2  0  0  0
  -20.6670  -26.9416   22.5306 C   0  0  0  0  0  0
  -19.5603  -26.6372   21.5126 C   0  0  0  0  0  0
  -18.1821  -26.7912   22.1616 C   0  0  0  0  0  0
  -19.1544  -28.8821   23.2804 C   0  0  0  0  0  0
  -18.9510  -30.1418   23.8834 C   0  0  0  0  0  0
  -17.6521  -30.6577   24.0580 C   0  0  0  0  0  0
  -25.9059  -34.9443   23.5086 C   0  0  0  0  0  0
  -16.5384  -29.9131   23.6351 C   0  0  0  0  0  0
  -16.7241  -28.6539   23.0377 C   0  0  0  0  0  0
  -26.4485  -31.6549   25.0669 C   0  0  0  0  0  0
  -25.3651  -31.3768   26.1370 C   0  0  0  0  0  0
  -27.0345  -30.2943   24.6194 C   0  0  0  0  0  0
  -27.6026  -32.4257   25.7458 C   0  0  0  0  0  0
  -27.5567  -37.1798   24.8463 C   0  0  0  0  0  0
  -21.4188  -29.3026   22.3676 N   0  0  0  0  0  0
  -26.4245  -37.3752   23.9421 N   0  0  0  0  0  0
  -24.6937  -31.0486   22.0911 N   0  0  0  0  0  0
  -23.4149  -28.8132   23.3096 O   0  0  0  0  0  0
  -28.3079  -26.3792   20.0672 O   0  0  0  0  0  0
  -26.5629  -34.8910   22.4655 O   0  0  0  0  0  0
  -23.5485  -32.1408   23.7248 O   0  0  0  0  0  0
  -29.2431  -19.5626   18.3305 C   0  0  0  0  0  0
  -29.8128  -17.1734   18.5056 C   0  0  0  0  0  0
  -29.2119  -18.4504   20.4920 C   0  0  0  0  0  0
  -29.5850  -18.3331   17.7167 C   0  0  0  0  0  0
  -29.0344  -19.6911   19.7276 C   0  0  0  0  0  0
  -29.6237  -17.1718   19.9032 C   0  0  0  0  0  0
  -29.6868  -18.2370   16.2168 C   0  0  0  0  0  0
  -28.7166  -22.3184   19.7977 C   0  0  0  0  0  0
  -26.5534  -23.1559   21.0195 C   0  0  0  0  0  0
  -28.3536  -25.0053   20.6844 C   0  0  0  0  0  0
  -27.7450  -23.5881   20.1343 C   0  0  1  0  0  0
  -29.3454  -17.0532   15.7169 N   0  0  0  0  0  0
  -28.5233  -21.0042   20.2559 N   0  0  0  0  0  0
  -29.6888  -15.8430   20.5946 N   0  0  0  0  0  0
  -29.9855  -19.1980   15.5014 O   0  0  0  0  0  0
  -29.6724  -22.5655   19.0626 O   0  0  0  0  0  0
  -31.4624  -12.4953   19.2444 H   0  0  0  0  0  0
  -30.2777  -11.4305   19.9459 H   0  0  0  0  0  0
  -29.8111  -11.7814   17.5059 H   0  0  0  0  0  0
  -29.6555  -13.5029   17.7768 H   0  0  0  0  0  0
  -27.8728  -11.2998   18.8702 H   0  0  0  0  0  0
  -27.3777  -12.5641   17.7822 H   0  0  0  0  0  0
  -27.6315  -14.2535   19.5049 H   0  0  0  0  0  0
  -28.6678  -12.0945   21.3768 H   0  0  0  0  0  0
  -28.3747  -13.7280   21.8548 H   0  0  0  0  0  0
  -25.2646   -9.5457   22.4874 H   0  0  0  0  0  0
  -23.9906   -7.4429   22.7388 H   0  0  0  0  0  0
  -21.0781   -8.8511   19.8930 H   0  0  0  0  0  0
  -22.3543  -10.9539   19.6193 H   0  0  0  0  0  0
  -21.1938   -7.6043   23.9665 H   0  0  0  0  0  0
  -21.1591   -6.0483   25.9101 H   0  0  0  0  0  0
  -22.0568   -2.7479   23.2925 H   0  0  0  0  0  0
  -22.3956  -11.9715   22.5023 H   0  0  0  0  0  0
  -21.1006  -13.1099   22.2826 H   0  0  0  0  0  0
  -24.6431  -15.8388   20.5716 H   0  0  0  0  0  0
  -26.2399  -15.6672   20.0882 H   0  0  0  0  0  0
  -26.7181  -32.5361   23.0938 H   0  0  0  0  0  0
  -25.0146  -33.9634   25.0370 H   0  0  0  0  0  0
  -22.7161  -31.3004   21.3988 H   0  0  0  0  0  0
  -23.3757  -35.9629   23.3280 H   0  0  0  0  0  0
  -24.3580  -36.8912   22.2058 H   0  0  0  0  0  0
  -23.7271  -37.6469   23.6660 H   0  0  0  0  0  0
  -26.0935  -31.5210   20.5961 H   0  0  0  0  0  0
  -26.8482  -30.8146   21.9923 H   0  0  0  0  0  0
  -28.1196  -28.9318   21.1565 H   0  0  0  0  0  0
  -25.9533  -25.8525   19.0522 H   0  0  0  0  0  0
  -23.9465  -27.2810   19.0263 H   0  0  0  0  0  0
  -23.7572  -30.5855   19.4025 H   0  0  0  0  0  0
  -22.7495  -29.2394   19.8581 H   0  0  0  0  0  0
  -25.1282  -36.1853   25.0791 H   0  0  0  0  0  0
  -20.9860  -28.3241   24.1355 H   0  0  0  0  0  0
  -20.5529  -26.2307   23.3515 H   0  0  0  0  0  0
  -21.6550  -26.7367   22.1139 H   0  0  0  0  0  0
  -19.6800  -25.6297   21.1153 H   0  0  0  0  0  0
  -19.6536  -27.3185   20.6610 H   0  0  0  0  0  0
  -17.4092  -26.6623   21.4031 H   0  0  0  0  0  0
  -18.0284  -26.0102   22.9103 H   0  0  0  0  0  0
  -19.8027  -30.7166   24.2298 H   0  0  0  0  0  0
  -17.5183  -31.6201   24.5325 H   0  0  0  0  0  0
  -15.5402  -30.3100   23.7758 H   0  0  0  0  0  0
  -15.8591  -28.0851   22.7174 H   0  0  0  0  0  0
  -24.5818  -30.7124   25.7669 H   0  0  0  0  0  0
  -24.8842  -32.2993   26.4637 H   0  0  0  0  0  0
  -25.7907  -30.9004   27.0205 H   0  0  0  0  0  0
  -26.2987  -29.6665   24.1145 H   0  0  0  0  0  0
  -27.3950  -29.7218   25.4746 H   0  0  0  0  0  0
  -27.8857  -30.4183   23.9498 H   0  0  0  0  0  0
  -27.2630  -33.3550   26.2010 H   0  0  0  0  0  0
  -28.3857  -32.6796   25.0312 H   0  0  0  0  0  0
  -28.0633  -31.8368   26.5390 H   0  0  0  0  0  0
  -28.2562  -38.0107   24.7481 H   0  0  0  0  0  0
  -28.1085  -36.2652   24.6292 H   0  0  0  0  0  0
  -27.2313  -37.1445   25.8868 H   0  0  0  0  0  0
  -20.9411  -29.8865   21.7017 H   0  0  0  0  0  0
  -26.0145  -38.2825   24.1417 H   0  0  0  0  0  0
  -29.0984  -20.4218   17.6882 H   0  0  0  0  0  0
  -30.0903  -16.2423   18.0314 H   0  0  0  0  0  0
  -29.0198  -18.4872   21.5548 H   0  0  0  0  0  0
  -25.9467  -22.3960   20.5273 H   0  0  0  0  0  0
  -25.8889  -23.9967   21.2132 H   0  0  0  0  0  0
  -26.8876  -22.7680   21.9852 H   0  0  0  0  0  0
  -29.4230  -24.8319   20.8038 H   0  0  0  0  0  0
  -28.0160  -25.1443   21.7115 H   0  0  0  0  0  0
  -27.2980  -23.8366   19.1729 H   0  0  0  0  0  0
  -29.0188  -16.3273   16.3397 H   0  0  0  0  0  0
  -29.4201  -16.8514   14.7313 H   0  0  0  0  0  0
  -27.8406  -20.9121   20.9987 H   0  0  0  0  0  0
  -28.8152  -15.5725   21.0187 H   0  0  0  0  0  0
  1 25  1  0  0  0
  1 30  2  0  0  0
  1 84  1  0  0  0
  2  3  1  0  0  0
  2 25  1  0  0  0
  2 87  1  0  0  0
  2 88  1  0  0  0
  3  4  1  0  0  0
  3 89  1  0  0  0
  3 90  1  0  0  0
  4  5  1  0  0  0
  4 91  1  0  0  0
  4 92  1  0  0  0
  5  6  1  0  0  0
  5 26  1  0  0  0
  5 93  1  0  0  0
  6 25  1  0  0  0
  6 94  1  0  0  0
  6 95  1  0  0  0
  7  8  2  0  0  0
  7 26  1  0  0  0
  7 29  1  0  0  0
  8  9  1  0  0  0
  8 22  1  0  0  0
  9 10  1  0  0  0
  9 27  2  0  0  0
 10 11  2  0  0  0
 10 15  1  0  0  0
 11 12  1  0  0  0
 11 96  1  0  0  0
 12 13  2  0  0  0
 12 97  1  0  0  0
 13 14  1  0  0  0
 13 31  1  0  0  0
 14 15  2  0  0  0
 14 98  1  0  0  0
 15 99  1  0  0  0
 16 17  2  0  0  0
 16 21  1  0  0  0
 16 31  1  0  0  0
 17 18  1  0  0  0
 17100  1  0  0  0
 18 19  2  0  0  0
 18101  1  0  0  0
 19 20  1  0  0  0
 19 24  1  0  0  0
 20 21  2  0  0  0
 20102  1  0  0  0
 21 23  1  0  0  0
 22 28  1  0  0  0
 22 32  2  0  0  0
 26 27  1  0  0  0
 28103  1  0  0  0
 28104  1  0  0  0
 29105  1  0  0  0
 29106  1  0  0  0
 33 34  1  0  0  0
 33 66  1  0  0  0
 33 70  2  0  0  0
 34 36  1  0  0  0
 34 59  1  0  0  0
 34107  1  0  0  0
 35 44  2  0  0  0
 35 45  1  0  0  0
 35 68  1  0  0  0
 36 56  1  0  0  0
 36108  1  0  0  0
 37 39  1  0  0  0
 37 47  1  0  0  0
 37 66  1  0  0  0
 37109  1  0  0  0
 38 43  2  0  0  0
 38 46  1  0  0  0
 38 47  1  0  0  0
 39 64  1  0  0  0
 39 67  2  0  0  0
 40 52  1  0  0  0
 40 53  2  0  0  0
 40 58  1  0  0  0
 41110  1  0  0  0
 41111  1  0  0  0
 41112  1  0  0  0
 41 48  1  0  0  0
 42 43  1  0  0  0
 42 66  1  0  0  0
 42113  1  0  0  0
 42114  1  0  0  0
 43 44  1  0  0  0
 44115  1  0  0  0
 45 46  2  0  0  0
 45116  1  0  0  0
 46117  1  0  0  0
 47118  1  0  0  0
 47119  1  0  0  0
 48 56  1  0  0  0
 48 65  1  0  0  0
 48120  1  0  0  0
 49 50  1  0  0  0
 49 53  1  0  0  0
 49 64  1  0  0  0
 49121  1  0  0  0
 50 51  1  0  0  0
 50122  1  0  0  0
 50123  1  0  0  0
 51 52  1  0  0  0
 51124  1  0  0  0
 51125  1  0  0  0
 52126  1  0  0  0
 52127  1  0  0  0
 53 54  1  0  0  0
 54 55  2  0  0  0
 54128  1  0  0  0
 55 57  1  0  0  0
 55129  1  0  0  0
 56 69  2  0  0  0
 57 58  2  0  0  0
 57130  1  0  0  0
 58131  1  0  0  0
 59 60  1  0  0  0
 59 61  1  0  0  0
 59 62  1  0  0  0
 60132  1  0  0  0
 60133  1  0  0  0
 60134  1  0  0  0
 61135  1  0  0  0
 61136  1  0  0  0
 61137  1  0  0  0
 62138  1  0  0  0
 62139  1  0  0  0
 62140  1  0  0  0
 63 65  1  0  0  0
 63141  1  0  0  0
 63142  1  0  0  0
 63143  1  0  0  0
 64144  1  0  0  0
 65145  1  0  0  0
 68 80  1  0  0  0
 71 74  2  0  0  0
 71 75  1  0  0  0
 71146  1  0  0  0
 72 74  1  0  0  0
 72 76  2  0  0  0
 72147  1  0  0  0
 73 75  2  0  0  0
 73 76  1  0  0  0
 73148  1  0  0  0
 74 77  1  0  0  0
 75 83  1  0  0  0
 76 84  1  0  0  0
 77 82  1  0  0  0
 77 85  2  0  0  0
 78 81  1  0  0  0
 78 83  1  0  0  0
 78 86  2  0  0  0
 79149  1  0  0  0
 79150  1  0  0  0
 79151  1  0  0  0
 79 81  1  0  0  0
 80 81  1  0  0  0
 80152  1  0  0  0
 80153  1  0  0  0
 81154  1  0  0  0
 82155  1  0  0  0
 82156  1  0  0  0
 83157  1  0  0  0
 84158  1  0  0  0
M  ISO  4   1 100  68 101  80 101  84 100
M  END
> <chiral flag>
0

> <version>
0

> <s_m_source_file>
/data/baiqing/PycharmProjects/Reinvent-master-3.2/result/LINK_invent/BTK/process_docking_weight1_custom_product_contain_oxygen_bond_distance_aromatic_linkinvent_7_9_3/rearranged_h_0069.sdf

> <i_m_source_file_index>
82

> <r_mmod_Potential_Energy-OPLS-2005>
72.2180709838867

> <r_mmod_Stretch_Energy-OPLS-2005>
153.946670532227

> <r_mmod_Bend_Energy-OPLS-2005>
202.349166870117

> <r_mmod_Torsional_Energy-OPLS-2005>
303.987243652344

> <r_mmod_Improper_Torsional_Energy-OPLS-2005>
7.27723217010498

> <r_mmod_Van_der_Waal_Energy-OPLS-2005>
132.00032043457

> <r_mmod_Electrostatic_Energy-OPLS-2005>
-528.834167480469

> <r_mmod_Solvation_Energy-OPLS-2005>
-287.616607666016

> <b_mmod_Minimization_Converged-OPLS-2005>
0

> <r_mmod_RMS_Derivative-OPLS-2005>
10.9476509094238

$$$$
84
                    3D
 Structure written by MMmdl.
166175  0  0  1  0            999 V2000
  -30.5928  -14.7613   20.4728 C   0  0  0  0  0  0
  -30.4386  -12.4652   19.4876 C   0  0  0  0  0  0
  -29.5167  -12.5195   18.2472 C   0  0  0  0  0  0
  -28.0418  -12.3351   18.6536 C   0  0  0  0  0  0
  -27.6477  -13.2133   19.8693 C   0  0  2  0  0  0
  -28.6920  -13.1446   21.0068 C   0  0  0  0  0  0
  -25.2569  -13.8214   20.5624 C   0  0  0  0  0  0
  -24.1808  -13.0481   20.9098 C   0  0  0  0  0  0
  -24.6364  -11.6930   20.8726 C   0  0  0  0  0  0
  -23.9039  -10.4304   21.0405 C   0  0  0  0  0  0
  -24.3586   -9.4209   21.9173 C   0  0  0  0  0  0
  -23.6276   -8.2242   22.0732 C   0  0  0  0  0  0
  -22.4253   -8.0286   21.3536 C   0  0  0  0  0  0
  -21.9896   -9.0258   20.4636 C   0  0  0  0  0  0
  -22.7223  -10.2137   20.3049 C   0  0  0  0  0  0
  -21.6838   -6.0738   22.5284 C   0  0  0  0  0  0
  -21.4014   -6.5631   23.8221 C   0  0  0  0  0  0
  -21.3655   -5.6779   24.9180 C   0  0  0  0  0  0
  -21.6048   -4.3042   24.7221 C   0  0  0  0  0  0
  -21.8829   -3.8147   23.4338 C   0  0  0  0  0  0
  -21.9185   -4.6968   22.3401 C   0  0  0  0  0  0
  -22.7855  -13.5282   21.1830 C   0  0  0  0  0  0
  -22.1663   -4.2159   21.0975 F   0  0  0  0  0  0
  -21.5622   -3.4515   25.7726 F   0  0  0  0  0  0
  -29.9956  -13.5158   20.4382 N   0  0  0  0  0  0
  -26.2977  -12.9335   20.3393 N   0  0  0  0  0  0
  -25.9302  -11.6497   20.5824 N   0  0  0  0  0  0
  -22.0479  -12.8261   22.0370 N   0  0  0  0  0  0
  -25.4455  -15.1956   20.4034 N   0  0  0  0  0  0
  -31.7360  -14.9007   20.0291 O   0  0  0  0  0  0
  -21.6604   -6.8888   21.4251 O   0  0  0  0  0  0
  -22.3590  -14.5643   20.6751 O   0  0  0  0  0  0
  -24.6346  -31.8518   23.1961 C   0  0  0  0  0  0
  -25.9172  -32.4723   23.8316 C   0  0  1  0  0  0
  -27.2296  -27.2516   20.1309 C   0  0  0  0  0  0
  -25.5965  -33.8521   24.2249 N   0  0  0  0  0  0
  -23.4305  -30.4737   21.5386 C   0  0  2  0  0  0
  -24.8777  -28.9164   20.1069 C   0  0  0  0  0  0
  -22.7511  -29.4586   22.4897 C   0  0  0  0  0  0
  -18.0283  -28.1394   22.8475 C   0  0  0  0  0  0
  -24.1472  -36.7256   23.2647 C   0  0  0  0  0  0
  -25.9756  -30.7633   21.3738 C   0  0  0  0  0  0
  -26.0466  -29.3837   20.7191 C   0  0  0  0  0  0
  -27.2191  -28.5624   20.7221 C   0  0  0  0  0  0
  -26.0316  -26.8488   19.4962 C   0  0  0  0  0  0
  -24.8764  -27.6584   19.4832 C   0  0  0  0  0  0
  -23.6482  -29.8039   20.1547 C   0  0  0  0  0  0
  -25.4097  -36.3040   24.0335 C   0  0  1  0  0  0
  -20.5892  -28.3705   23.1259 C   0  0  2  0  0  0
  -20.6762  -26.9423   22.5403 C   0  0  0  0  0  0
  -19.5739  -26.6384   21.5206 C   0  0  0  0  0  0
  -18.1922  -26.7943   22.1615 C   0  0  0  0  0  0
  -19.1541  -28.8865   23.2860 C   0  0  0  0  0  0
  -18.9467  -30.1470   23.8878 C   0  0  0  0  0  0
  -17.6466  -30.6594   24.0561 C   0  0  0  0  0  0
  -25.9056  -34.9415   23.5087 C   0  0  0  0  0  0
  -16.5354  -29.9091   23.6339 C   0  0  0  0  0  0
  -16.7271  -28.6507   23.0359 C   0  0  0  0  0  0
  -26.4547  -31.6552   25.0708 C   0  0  0  0  0  0
  -25.3779  -31.3700   26.1432 C   0  0  0  0  0  0
  -27.0416  -30.2981   24.6203 C   0  0  0  0  0  0
  -27.6097  -32.4301   25.7485 C   0  0  0  0  0  0
  -27.5563  -37.1776   24.8473 C   0  0  0  0  0  0
  -21.4217  -29.3040   22.3646 N   0  0  0  0  0  0
  -26.4263  -37.3752   23.9431 N   0  0  0  0  0  0
  -24.6994  -31.0485   22.0928 N   0  0  0  0  0  0
  -23.4199  -28.8143   23.3018 O   0  0  0  0  0  0
  -28.3530  -26.3925   20.2257 O   0  0  0  0  0  0
  -26.5615  -34.8907   22.4647 O   0  0  0  0  0  0
  -23.5496  -32.1338   23.7264 O   0  0  0  0  0  0
  -28.1104  -19.3290   18.9990 C   0  0  0  0  0  0
  -28.6247  -16.9321   19.1323 C   0  0  0  0  0  0
  -29.6123  -18.4948   20.7206 C   0  0  0  0  0  0
  -27.9210  -18.0048   18.5504 C   0  0  0  0  0  0
  -28.9640  -19.6491   20.0803 C   0  0  0  0  0  0
  -29.4563  -17.1104   20.2549 C   0  0  0  0  0  0
  -29.8312  -21.7147   21.3418 C   0  0  0  0  0  0
  -26.9332  -17.7264   17.5086 C   0  0  0  0  0  0
  -26.0167  -18.4372   15.2912 C   0  0  0  0  0  0
  -29.7128  -23.2633   21.3322 C   0  0  0  0  0  0
  -28.3325  -22.2356   19.7071 C   0  0  0  0  0  0
  -28.4631  -23.6123   20.4947 C   0  0  2  0  0  0
  -26.3040  -19.4451   14.1853 C   0  0  0  0  0  0
  -28.4446  -25.0051   19.6448 C   0  0  0  0  0  0
  -29.0455  -21.1115   20.4271 N   0  0  0  0  0  0
  -29.8715  -15.8534   20.9425 N   0  0  0  0  0  0
  -26.9319  -18.4839   16.3919 N   0  0  0  0  0  0
  -26.0510  -16.7375   17.7139 N   0  3  0  0  0  0
  -30.5846  -21.1334   22.1251 O   0  0  0  0  0  0
  -25.0629  -17.6527   15.2381 O   0  0  0  0  0  0
  -31.4776  -12.5993   19.1859 H   0  0  0  0  0  0
  -30.3943  -11.4829   19.9592 H   0  0  0  0  0  0
  -29.8053  -11.7512   17.5285 H   0  0  0  0  0  0
  -29.6401  -13.4768   17.7395 H   0  0  0  0  0  0
  -27.8924  -11.2823   18.8952 H   0  0  0  0  0  0
  -27.3886  -12.5499   17.8070 H   0  0  0  0  0  0
  -27.6352  -14.2309   19.5001 H   0  0  0  0  0  0
  -28.7341  -12.1401   21.4317 H   0  0  0  0  0  0
  -28.4112  -13.8076   21.8259 H   0  0  0  0  0  0
  -25.2728   -9.5673   22.4749 H   0  0  0  0  0  0
  -23.9995   -7.4613   22.7426 H   0  0  0  0  0  0
  -21.0836   -8.8768   19.8931 H   0  0  0  0  0  0
  -22.3688  -10.9664   19.6146 H   0  0  0  0  0  0
  -21.2017   -7.6142   23.9715 H   0  0  0  0  0  0
  -21.1462   -6.0513   25.9077 H   0  0  0  0  0  0
  -22.0615   -2.7610   23.2825 H   0  0  0  0  0  0
  -22.4064  -11.9890   22.4722 H   0  0  0  0  0  0
  -21.1117  -13.1307   22.2610 H   0  0  0  0  0  0
  -24.6782  -15.7599   20.7548 H   0  0  0  0  0  0
  -26.3309  -15.5343   20.7578 H   0  0  0  0  0  0
  -26.7244  -32.5376   23.1062 H   0  0  0  0  0  0
  -25.0163  -33.9646   25.0433 H   0  0  0  0  0  0
  -22.7296  -31.2967   21.3898 H   0  0  0  0  0  0
  -23.3735  -35.9587   23.3288 H   0  0  0  0  0  0
  -24.3580  -36.8896   22.2070 H   0  0  0  0  0  0
  -23.7216  -37.6447   23.6676 H   0  0  0  0  0  0
  -26.1113  -31.5197   20.5993 H   0  0  0  0  0  0
  -26.8559  -30.8166   22.0038 H   0  0  0  0  0  0
  -28.1117  -28.9170   21.2190 H   0  0  0  0  0  0
  -25.9374  -25.8837   19.0264 H   0  0  0  0  0  0
  -23.9815  -27.2925   18.9979 H   0  0  0  0  0  0
  -23.7711  -30.5766   19.3952 H   0  0  0  0  0  0
  -22.7679  -29.2329   19.8534 H   0  0  0  0  0  0
  -25.1279  -36.1869   25.0826 H   0  0  0  0  0  0
  -20.9986  -28.3267   24.1383 H   0  0  0  0  0  0
  -20.5634  -26.2325   23.3613 H   0  0  0  0  0  0
  -21.6631  -26.7431   22.1212 H   0  0  0  0  0  0
  -19.6901  -25.6284   21.1259 H   0  0  0  0  0  0
  -19.6689  -27.3173   20.6719 H   0  0  0  0  0  0
  -17.4205  -26.6694   21.4009 H   0  0  0  0  0  0
  -18.0321  -26.0087   22.9011 H   0  0  0  0  0  0
  -19.7946  -30.7285   24.2239 H   0  0  0  0  0  0
  -17.5026  -31.6281   24.5159 H   0  0  0  0  0  0
  -15.5351  -30.2992   23.7678 H   0  0  0  0  0  0
  -15.8669  -28.0827   22.7087 H   0  0  0  0  0  0
  -24.5977  -30.7014   25.7771 H   0  0  0  0  0  0
  -24.8941  -32.2862   26.4835 H   0  0  0  0  0  0
  -25.8118  -30.8909   27.0225 H   0  0  0  0  0  0
  -26.3014  -29.6694   24.1248 H   0  0  0  0  0  0
  -27.4131  -29.7275   25.4729 H   0  0  0  0  0  0
  -27.8867  -30.4263   23.9439 H   0  0  0  0  0  0
  -27.2720  -33.3622   26.2031 H   0  0  0  0  0  0
  -28.3934  -32.6825   25.0327 H   0  0  0  0  0  0
  -28.0747  -31.8444   26.5434 H   0  0  0  0  0  0
  -28.2566  -38.0083   24.7528 H   0  0  0  0  0  0
  -28.1061  -36.2617   24.6266 H   0  0  0  0  0  0
  -27.2300  -37.1394   25.8880 H   0  0  0  0  0  0
  -20.9414  -29.8767   21.6854 H   0  0  0  0  0  0
  -26.0126  -38.2816   24.1437 H   0  0  0  0  0  0
  -27.5475  -20.1098   18.5092 H   0  0  0  0  0  0
  -28.4642  -15.9461   18.7275 H   0  0  0  0  0  0
  -30.2185  -18.6649   21.5977 H   0  0  0  0  0  0
  -30.6162  -23.6713   20.8776 H   0  0  0  0  0  0
  -29.6424  -23.6566   22.3472 H   0  0  0  0  0  0
  -28.7785  -22.3401   18.7149 H   0  0  0  0  0  0
  -27.2756  -22.0066   19.5645 H   0  0  0  0  0  0
  -27.6160  -23.6602   21.1798 H   0  0  0  0  0  0
  -27.3079  -19.3021   13.7861 H   0  0  0  0  0  0
  -26.2202  -20.4623   14.5674 H   0  0  0  0  0  0
  -25.5926  -19.3295   13.3664 H   0  0  0  0  0  0
  -27.7185  -24.8847   18.8455 H   0  0  0  0  0  0
  -29.3863  -25.0202   19.0960 H   0  0  0  0  0  0
  -29.1575  -15.5327   21.5784 H   0  0  0  0  0  0
  -27.7052  -19.1296   16.3870 H   0  0  0  0  0  0
  -25.9576  -16.2729   18.6132 H   0  0  0  0  0  0
  -25.3459  -16.5708   17.0082 H   0  0  0  0  0  0
  1 25  1  0  0  0
  1 30  2  0  0  0
  1 86  1  0  0  0
  2  3  1  0  0  0
  2 25  1  0  0  0
  2 91  1  0  0  0
  2 92  1  0  0  0
  3  4  1  0  0  0
  3 93  1  0  0  0
  3 94  1  0  0  0
  4  5  1  0  0  0
  4 95  1  0  0  0
  4 96  1  0  0  0
  5  6  1  0  0  0
  5 26  1  0  0  0
  5 97  1  0  0  0
  6 25  1  0  0  0
  6 98  1  0  0  0
  6 99  1  0  0  0
  7  8  2  0  0  0
  7 26  1  0  0  0
  7 29  1  0  0  0
  8  9  1  0  0  0
  8 22  1  0  0  0
  9 10  1  0  0  0
  9 27  2  0  0  0
 10 11  2  0  0  0
 10 15  1  0  0  0
 11 12  1  0  0  0
 11100  1  0  0  0
 12 13  2  0  0  0
 12101  1  0  0  0
 13 14  1  0  0  0
 13 31  1  0  0  0
 14 15  2  0  0  0
 14102  1  0  0  0
 15103  1  0  0  0
 16 17  2  0  0  0
 16 21  1  0  0  0
 16 31  1  0  0  0
 17 18  1  0  0  0
 17104  1  0  0  0
 18 19  2  0  0  0
 18105  1  0  0  0
 19 20  1  0  0  0
 19 24  1  0  0  0
 20 21  2  0  0  0
 20106  1  0  0  0
 21 23  1  0  0  0
 22 28  1  0  0  0
 22 32  2  0  0  0
 26 27  1  0  0  0
 28107  1  0  0  0
 28108  1  0  0  0
 29109  1  0  0  0
 29110  1  0  0  0
 33 34  1  0  0  0
 33 66  1  0  0  0
 33 70  2  0  0  0
 34 36  1  0  0  0
 34 59  1  0  0  0
 34111  1  0  0  0
 35 44  2  0  0  0
 35 45  1  0  0  0
 35 68  1  0  0  0
 36 56  1  0  0  0
 36112  1  0  0  0
 37 39  1  0  0  0
 37 47  1  0  0  0
 37 66  1  0  0  0
 37113  1  0  0  0
 38 43  2  0  0  0
 38 46  1  0  0  0
 38 47  1  0  0  0
 39 64  1  0  0  0
 39 67  2  0  0  0
 40 52  1  0  0  0
 40 53  2  0  0  0
 40 58  1  0  0  0
 41114  1  0  0  0
 41115  1  0  0  0
 41116  1  0  0  0
 41 48  1  0  0  0
 42 43  1  0  0  0
 42 66  1  0  0  0
 42117  1  0  0  0
 42118  1  0  0  0
 43 44  1  0  0  0
 44119  1  0  0  0
 45 46  2  0  0  0
 45120  1  0  0  0
 46121  1  0  0  0
 47122  1  0  0  0
 47123  1  0  0  0
 48 56  1  0  0  0
 48 65  1  0  0  0
 48124  1  0  0  0
 49 50  1  0  0  0
 49 53  1  0  0  0
 49 64  1  0  0  0
 49125  1  0  0  0
 50 51  1  0  0  0
 50126  1  0  0  0
 50127  1  0  0  0
 51 52  1  0  0  0
 51128  1  0  0  0
 51129  1  0  0  0
 52130  1  0  0  0
 52131  1  0  0  0
 53 54  1  0  0  0
 54 55  2  0  0  0
 54132  1  0  0  0
 55 57  1  0  0  0
 55133  1  0  0  0
 56 69  2  0  0  0
 57 58  2  0  0  0
 57134  1  0  0  0
 58135  1  0  0  0
 59 60  1  0  0  0
 59 61  1  0  0  0
 59 62  1  0  0  0
 60136  1  0  0  0
 60137  1  0  0  0
 60138  1  0  0  0
 61139  1  0  0  0
 61140  1  0  0  0
 61141  1  0  0  0
 62142  1  0  0  0
 62143  1  0  0  0
 62144  1  0  0  0
 63 65  1  0  0  0
 63145  1  0  0  0
 63146  1  0  0  0
 63147  1  0  0  0
 64148  1  0  0  0
 65149  1  0  0  0
 68 84  1  0  0  0
 71 74  2  0  0  0
 71 75  1  0  0  0
 71150  1  0  0  0
 72 74  1  0  0  0
 72 76  2  0  0  0
 72151  1  0  0  0
 73 75  2  0  0  0
 73 76  1  0  0  0
 73152  1  0  0  0
 74 78  1  0  0  0
 75 85  1  0  0  0
 76 86  1  0  0  0
 77 80  1  0  0  0
 77 85  1  0  0  0
 77 89  2  0  0  0
 78 87  1  0  0  0
 78 88  2  0  0  0
 79 83  1  0  0  0
 79 87  1  0  0  0
 79 90  2  0  0  0
 80 82  1  0  0  0
 80153  1  0  0  0
 80154  1  0  0  0
 81 82  1  0  0  0
 81 85  1  0  0  0
 81155  1  0  0  0
 81156  1  0  0  0
 82 84  1  0  0  0
 82157  1  0  0  0
 83158  1  0  0  0
 83159  1  0  0  0
 83160  1  0  0  0
 84161  1  0  0  0
 84162  1  0  0  0
 86163  1  0  0  0
 87164  1  0  0  0
 88165  1  0  0  0
 88166  1  0  0  0
M  CHG  1  88   1
M  ISO  4   1 100  68 101  84 101  86 100
M  END
> <chiral flag>
0

> <version>
0

> <s_m_source_file>
/data/baiqing/PycharmProjects/Reinvent-master-3.2/result/LINK_invent/BTK/process_docking_weight1_custom_product_contain_oxygen_bond_distance_aromatic_linkinvent_7_9_3/rearranged_h_0069.sdf

> <i_m_source_file_index>
83

> <r_mmod_Potential_Energy-OPLS-2005>
-67.0148391723633

> <r_mmod_Stretch_Energy-OPLS-2005>
135.79753112793

> <r_mmod_Bend_Energy-OPLS-2005>
233.962631225586

> <r_mmod_Torsional_Energy-OPLS-2005>
310.286193847656

> <r_mmod_Improper_Torsional_Energy-OPLS-2005>
12.0666580200195

> <r_mmod_Van_der_Waal_Energy-OPLS-2005>
141.179473876953

> <r_mmod_Electrostatic_Energy-OPLS-2005>
-505.057495117188

> <r_mmod_Solvation_Energy-OPLS-2005>
-484.28857421875

> <b_mmod_Minimization_Converged-OPLS-2005>
0

> <r_mmod_RMS_Derivative-OPLS-2005>
2.17265939712524

$$$$
85
                    3D
 Structure written by MMmdl.
158166  0  0  1  0            999 V2000
  -30.6196  -14.6413   20.4999 C   0  0  0  0  0  0
  -30.4421  -12.3941   19.4495 C   0  0  0  0  0  0
  -29.5083  -12.5063   18.2231 C   0  0  0  0  0  0
  -28.0308  -12.3440   18.6364 C   0  0  0  0  0  0
  -27.6532  -13.2155   19.8643 C   0  0  2  0  0  0
  -28.7000  -13.0684   20.9923 C   0  0  0  0  0  0
  -25.2548  -13.8157   20.5684 C   0  0  0  0  0  0
  -24.1813  -13.0418   20.9165 C   0  0  0  0  0  0
  -24.6391  -11.6896   20.8724 C   0  0  0  0  0  0
  -23.9064  -10.4282   21.0397 C   0  0  0  0  0  0
  -24.3616   -9.4202   21.9180 C   0  0  0  0  0  0
  -23.6289   -8.2240   22.0753 C   0  0  0  0  0  0
  -22.4271   -8.0277   21.3545 C   0  0  0  0  0  0
  -21.9907   -9.0249   20.4646 C   0  0  0  0  0  0
  -22.7237  -10.2126   20.3050 C   0  0  0  0  0  0
  -21.6852   -6.0734   22.5280 C   0  0  0  0  0  0
  -21.4013   -6.5639   23.8214 C   0  0  0  0  0  0
  -21.3658   -5.6791   24.9177 C   0  0  0  0  0  0
  -21.6044   -4.3054   24.7228 C   0  0  0  0  0  0
  -21.8820   -3.8145   23.4348 C   0  0  0  0  0  0
  -21.9193   -4.6961   22.3403 C   0  0  0  0  0  0
  -22.7839  -13.5216   21.1843 C   0  0  0  0  0  0
  -22.1662   -4.2147   21.0981 F   0  0  0  0  0  0
  -21.5628   -3.4538   25.7740 F   0  0  0  0  0  0
  -30.0158  -13.4128   20.4282 N   0  0  0  0  0  0
  -26.2991  -12.9347   20.3338 N   0  0  0  0  0  0
  -25.9324  -11.6500   20.5764 N   0  0  0  0  0  0
  -22.0491  -12.8209   22.0409 N   0  0  0  0  0  0
  -25.4210  -15.1883   20.4158 N   0  0  0  0  0  0
  -31.7856  -14.8082   20.1298 O   0  0  0  0  0  0
  -21.6637   -6.8874   21.4241 O   0  0  0  0  0  0
  -22.3521  -14.5526   20.6703 O   0  0  0  0  0  0
  -24.6259  -31.8602   23.2026 C   0  0  0  0  0  0
  -25.9107  -32.4783   23.8354 C   0  0  1  0  0  0
  -27.2273  -27.3247   20.1133 C   0  0  0  0  0  0
  -25.5920  -33.8582   24.2283 N   0  0  0  0  0  0
  -23.4191  -30.4841   21.5454 C   0  0  2  0  0  0
  -24.8652  -28.9391   20.1124 C   0  0  0  0  0  0
  -22.7474  -29.4630   22.4940 C   0  0  0  0  0  0
  -18.0288  -28.1387   22.8489 C   0  0  0  0  0  0
  -24.1489  -36.7293   23.2640 C   0  0  0  0  0  0
  -25.9599  -30.7931   21.3720 C   0  0  0  0  0  0
  -26.0345  -29.4209   20.7141 C   0  0  0  0  0  0
  -27.2183  -28.6263   20.7026 C   0  0  0  0  0  0
  -26.0305  -26.8907   19.4965 C   0  0  0  0  0  0
  -24.8652  -27.6790   19.4960 C   0  0  0  0  0  0
  -23.6332  -29.8186   20.1606 C   0  0  0  0  0  0
  -25.4114  -36.3087   24.0332 C   0  0  1  0  0  0
  -20.5887  -28.3689   23.1288 C   0  0  2  0  0  0
  -20.6780  -26.9414   22.5411 C   0  0  0  0  0  0
  -19.5755  -26.6386   21.5213 C   0  0  0  0  0  0
  -18.1933  -26.7933   22.1623 C   0  0  0  0  0  0
  -19.1542  -28.8852   23.2884 C   0  0  0  0  0  0
  -18.9464  -30.1454   23.8901 C   0  0  0  0  0  0
  -17.6466  -30.6590   24.0566 C   0  0  0  0  0  0
  -25.9045  -34.9456   23.5107 C   0  0  0  0  0  0
  -16.5356  -29.9092   23.6330 C   0  0  0  0  0  0
  -16.7275  -28.6507   23.0355 C   0  0  0  0  0  0
  -26.4492  -31.6592   25.0722 C   0  0  0  0  0  0
  -25.3729  -31.3729   26.1451 C   0  0  0  0  0  0
  -27.0331  -30.3020   24.6164 C   0  0  0  0  0  0
  -27.6051  -32.4324   25.7497 C   0  0  0  0  0  0
  -27.5580  -37.1804   24.8469 C   0  0  0  0  0  0
  -21.4187  -29.3046   22.3684 N   0  0  0  0  0  0
  -26.4294  -37.3780   23.9410 N   0  0  0  0  0  0
  -24.6875  -31.0622   22.0970 N   0  0  0  0  0  0
  -23.4204  -28.8170   23.3015 O   0  0  0  0  0  0
  -28.3574  -26.4933   20.1537 O   0  0  0  0  0  0
  -26.5615  -34.8924   22.4674 O   0  0  0  0  0  0
  -23.5424  -32.1392   23.7358 O   0  0  0  0  0  0
  -31.0780  -19.3058   20.5657 C   0  0  0  0  0  0
  -31.0931  -17.8783   20.5811 C   0  0  0  0  0  0
  -29.8879  -20.0888   20.6852 C   0  0  0  0  0  0
  -29.8953  -17.1345   20.7108 C   0  0  0  0  0  0
  -28.6732  -19.3352   20.7620 C   0  0  0  0  0  0
  -28.6989  -17.9007   20.7769 C   0  0  0  0  0  0
  -30.0327  -21.6041   20.8095 C   0  0  0  0  0  0
  -30.5607  -24.5008   19.2814 C   0  0  0  0  0  0
  -28.1740  -25.0293   20.0176 C   0  0  0  0  0  0
  -29.4431  -24.1050   20.2638 C   0  0  1  0  0  0
  -27.4134  -19.9465   20.8550 N   0  0  0  0  0  0
  -31.0603  -22.0421   21.5414 N   0  0  0  0  0  0
  -29.7903  -15.6790   20.8222 N   0  0  0  0  0  0
  -29.2417  -22.5868   20.2562 N   0  3  0  0  0  0
  -27.5225  -17.2315   20.8810 F   0  0  0  0  0  0
  -31.4822  -12.5255   19.1452 H   0  0  0  0  0  0
  -30.3834  -11.3980   19.8910 H   0  0  0  0  0  0
  -29.7726  -11.7534   17.4793 H   0  0  0  0  0  0
  -29.6488  -13.4748   17.7407 H   0  0  0  0  0  0
  -27.8681  -11.2906   18.8682 H   0  0  0  0  0  0
  -27.3759  -12.5728   17.7949 H   0  0  0  0  0  0
  -27.6683  -14.2506   19.5224 H   0  0  0  0  0  0
  -28.7117  -12.0457   21.3721 H   0  0  0  0  0  0
  -28.4456  -13.6970   21.8472 H   0  0  0  0  0  0
  -25.2762   -9.5678   22.4753 H   0  0  0  0  0  0
  -23.9999   -7.4631   22.7470 H   0  0  0  0  0  0
  -21.0840   -8.8766   19.8952 H   0  0  0  0  0  0
  -22.3697  -10.9662   19.6156 H   0  0  0  0  0  0
  -21.2004   -7.6147   23.9717 H   0  0  0  0  0  0
  -21.1480   -6.0521   25.9080 H   0  0  0  0  0  0
  -22.0599   -2.7607   23.2850 H   0  0  0  0  0  0
  -22.4111  -11.9867   22.4787 H   0  0  0  0  0  0
  -21.1111  -13.1234   22.2624 H   0  0  0  0  0  0
  -24.6540  -15.8350   20.5584 H   0  0  0  0  0  0
  -26.2893  -15.6616   20.1970 H   0  0  0  0  0  0
  -26.7176  -32.5449   23.1103 H   0  0  0  0  0  0
  -25.0079  -33.9732   25.0435 H   0  0  0  0  0  0
  -22.7126  -31.3044   21.4024 H   0  0  0  0  0  0
  -23.3749  -35.9627   23.3307 H   0  0  0  0  0  0
  -24.3580  -36.8905   22.2053 H   0  0  0  0  0  0
  -23.7243  -37.6501   23.6653 H   0  0  0  0  0  0
  -26.0901  -31.5564   20.6039 H   0  0  0  0  0  0
  -26.8413  -30.8419   21.9996 H   0  0  0  0  0  0
  -28.1171  -28.9933   21.1781 H   0  0  0  0  0  0
  -25.9639  -25.9282   19.0129 H   0  0  0  0  0  0
  -23.9684  -27.3027   19.0227 H   0  0  0  0  0  0
  -23.7526  -30.5944   19.4036 H   0  0  0  0  0  0
  -22.7533  -29.2477   19.8588 H   0  0  0  0  0  0
  -25.1294  -36.1939   25.0825 H   0  0  0  0  0  0
  -20.9974  -28.3255   24.1410 H   0  0  0  0  0  0
  -20.5687  -26.2293   23.3607 H   0  0  0  0  0  0
  -21.6649  -26.7454   22.1199 H   0  0  0  0  0  0
  -19.6920  -25.6297   21.1242 H   0  0  0  0  0  0
  -19.6695  -27.3197   20.6745 H   0  0  0  0  0  0
  -17.4206  -26.6678   21.4025 H   0  0  0  0  0  0
  -18.0335  -26.0078   22.9020 H   0  0  0  0  0  0
  -19.7941  -30.7269   24.2271 H   0  0  0  0  0  0
  -17.5024  -31.6273   24.5163 H   0  0  0  0  0  0
  -15.5357  -30.3000   23.7656 H   0  0  0  0  0  0
  -15.8671  -28.0829   22.7074 H   0  0  0  0  0  0
  -24.5904  -30.7078   25.7783 H   0  0  0  0  0  0
  -24.8922  -32.2897   26.4875 H   0  0  0  0  0  0
  -25.8056  -30.8912   27.0228 H   0  0  0  0  0  0
  -26.2901  -29.6778   24.1185 H   0  0  0  0  0  0
  -27.4040  -29.7266   25.4657 H   0  0  0  0  0  0
  -27.8765  -30.4319   23.9378 H   0  0  0  0  0  0
  -27.2658  -33.3621   26.2080 H   0  0  0  0  0  0
  -28.3861  -32.6888   25.0326 H   0  0  0  0  0  0
  -28.0718  -31.8445   26.5412 H   0  0  0  0  0  0
  -28.2599  -38.0099   24.7505 H   0  0  0  0  0  0
  -28.1072  -36.2627   24.6302 H   0  0  0  0  0  0
  -27.2297  -37.1465   25.8873 H   0  0  0  0  0  0
  -20.9358  -29.8767   21.6898 H   0  0  0  0  0  0
  -26.0173  -38.2856   24.1405 H   0  0  0  0  0  0
  -32.0312  -19.8099   20.4847 H   0  0  0  0  0  0
  -32.0423  -17.3657   20.5199 H   0  0  0  0  0  0
  -31.0512  -25.4167   19.6120 H   0  0  0  0  0  0
  -30.1654  -24.6876   18.2826 H   0  0  0  0  0  0
  -31.3301  -23.7341   19.1907 H   0  0  0  0  0  0
  -27.3834  -24.7128   20.6997 H   0  0  0  0  0  0
  -27.8169  -24.8197   19.0090 H   0  0  0  0  0  0
  -29.7919  -24.3489   21.2683 H   0  0  0  0  0  0
  -27.3382  -20.7584   21.4572 H   0  0  0  0  0  0
  -26.6609  -19.2907   21.0456 H   0  0  0  0  0  0
  -31.6368  -21.3729   22.0295 H   0  0  0  0  0  0
  -31.2535  -23.0187   21.6765 H   0  0  0  0  0  0
  -28.8626  -15.3727   21.0704 H   0  0  0  0  0  0
  -28.4735  -22.2374   19.6920 H   0  0  0  0  0  0
  1 25  1  0  0  0
  1 30  2  0  0  0
  1 83  1  0  0  0
  2  3  1  0  0  0
  2 25  1  0  0  0
  2 86  1  0  0  0
  2 87  1  0  0  0
  3  4  1  0  0  0
  3 88  1  0  0  0
  3 89  1  0  0  0
  4  5  1  0  0  0
  4 90  1  0  0  0
  4 91  1  0  0  0
  5  6  1  0  0  0
  5 26  1  0  0  0
  5 92  1  0  0  0
  6 25  1  0  0  0
  6 93  1  0  0  0
  6 94  1  0  0  0
  7  8  2  0  0  0
  7 26  1  0  0  0
  7 29  1  0  0  0
  8  9  1  0  0  0
  8 22  1  0  0  0
  9 10  1  0  0  0
  9 27  2  0  0  0
 10 11  2  0  0  0
 10 15  1  0  0  0
 11 12  1  0  0  0
 11 95  1  0  0  0
 12 13  2  0  0  0
 12 96  1  0  0  0
 13 14  1  0  0  0
 13 31  1  0  0  0
 14 15  2  0  0  0
 14 97  1  0  0  0
 15 98  1  0  0  0
 16 17  2  0  0  0
 16 21  1  0  0  0
 16 31  1  0  0  0
 17 18  1  0  0  0
 17 99  1  0  0  0
 18 19  2  0  0  0
 18100  1  0  0  0
 19 20  1  0  0  0
 19 24  1  0  0  0
 20 21  2  0  0  0
 20101  1  0  0  0
 21 23  1  0  0  0
 22 28  1  0  0  0
 22 32  2  0  0  0
 26 27  1  0  0  0
 28102  1  0  0  0
 28103  1  0  0  0
 29104  1  0  0  0
 29105  1  0  0  0
 33 34  1  0  0  0
 33 66  1  0  0  0
 33 70  2  0  0  0
 34 36  1  0  0  0
 34 59  1  0  0  0
 34106  1  0  0  0
 35 44  2  0  0  0
 35 45  1  0  0  0
 35 68  1  0  0  0
 36 56  1  0  0  0
 36107  1  0  0  0
 37 39  1  0  0  0
 37 47  1  0  0  0
 37 66  1  0  0  0
 37108  1  0  0  0
 38 43  2  0  0  0
 38 46  1  0  0  0
 38 47  1  0  0  0
 39 64  1  0  0  0
 39 67  2  0  0  0
 40 52  1  0  0  0
 40 53  2  0  0  0
 40 58  1  0  0  0
 41109  1  0  0  0
 41110  1  0  0  0
 41111  1  0  0  0
 41 48  1  0  0  0
 42 43  1  0  0  0
 42 66  1  0  0  0
 42112  1  0  0  0
 42113  1  0  0  0
 43 44  1  0  0  0
 44114  1  0  0  0
 45 46  2  0  0  0
 45115  1  0  0  0
 46116  1  0  0  0
 47117  1  0  0  0
 47118  1  0  0  0
 48 56  1  0  0  0
 48 65  1  0  0  0
 48119  1  0  0  0
 49 50  1  0  0  0
 49 53  1  0  0  0
 49 64  1  0  0  0
 49120  1  0  0  0
 50 51  1  0  0  0
 50121  1  0  0  0
 50122  1  0  0  0
 51 52  1  0  0  0
 51123  1  0  0  0
 51124  1  0  0  0
 52125  1  0  0  0
 52126  1  0  0  0
 53 54  1  0  0  0
 54 55  2  0  0  0
 54127  1  0  0  0
 55 57  1  0  0  0
 55128  1  0  0  0
 56 69  2  0  0  0
 57 58  2  0  0  0
 57129  1  0  0  0
 58130  1  0  0  0
 59 60  1  0  0  0
 59 61  1  0  0  0
 59 62  1  0  0  0
 60131  1  0  0  0
 60132  1  0  0  0
 60133  1  0  0  0
 61134  1  0  0  0
 61135  1  0  0  0
 61136  1  0  0  0
 62137  1  0  0  0
 62138  1  0  0  0
 62139  1  0  0  0
 63 65  1  0  0  0
 63140  1  0  0  0
 63141  1  0  0  0
 63142  1  0  0  0
 64143  1  0  0  0
 65144  1  0  0  0
 68 79  1  0  0  0
 71 72  2  0  0  0
 71 73  1  0  0  0
 71145  1  0  0  0
 72 74  1  0  0  0
 72146  1  0  0  0
 73 75  2  0  0  0
 73 77  1  0  0  0
 74 76  2  0  0  0
 74 83  1  0  0  0
 75 76  1  0  0  0
 75 81  1  0  0  0
 76 85  1  0  0  0
 77 82  1  0  0  0
 77 84  2  0  0  0
 78147  1  0  0  0
 78148  1  0  0  0
 78149  1  0  0  0
 78 80  1  0  0  0
 79 80  1  0  0  0
 79150  1  0  0  0
 79151  1  0  0  0
 80 84  1  0  0  0
 80152  1  0  0  0
 81153  1  0  0  0
 81154  1  0  0  0
 82155  1  0  0  0
 82156  1  0  0  0
 83157  1  0  0  0
 84158  1  0  0  0
M  CHG  1  84   1
M  ISO  4   1 100  68 101  79 101  83 100
M  END
> <chiral flag>
0

> <version>
0

> <s_m_source_file>
/data/baiqing/PycharmProjects/Reinvent-master-3.2/result/LINK_invent/BTK/process_docking_weight1_custom_product_contain_oxygen_bond_distance_aromatic_linkinvent_7_9_3/rearranged_h_0069.sdf

> <i_m_source_file_index>
84

> <r_mmod_Potential_Energy-OPLS-2005>
-46.0610313415527

> <r_mmod_Stretch_Energy-OPLS-2005>
82.5191955566406

> <r_mmod_Bend_Energy-OPLS-2005>
145.486511230469

> <r_mmod_Torsional_Energy-OPLS-2005>
218.217056274414

> <r_mmod_Improper_Torsional_Energy-OPLS-2005>
9.53497982025146

> <r_mmod_Van_der_Waal_Energy-OPLS-2005>
151.100997924805

> <r_mmod_Electrostatic_Energy-OPLS-2005>
-284.50732421875

> <r_mmod_Solvation_Energy-OPLS-2005>
-415.248779296875

> <b_mmod_Minimization_Converged-OPLS-2005>
0

> <r_mmod_RMS_Derivative-OPLS-2005>
0.577853977680206

$$$$
86
                    3D
 Structure written by MMmdl.
148156  0  0  1  0            999 V2000
  -30.5192  -15.0474   20.4022 C   0  0  0  0  0  0
  -30.4396  -12.6581   19.4999 C   0  0  0  0  0  0
  -29.5220  -12.5343   18.2610 C   0  0  0  0  0  0
  -28.0614  -12.3002   18.6878 C   0  0  0  0  0  0
  -27.6214  -13.2549   19.8278 C   0  0  2  0  0  0
  -28.6642  -13.3408   20.9619 C   0  0  0  0  0  0
  -25.2433  -13.8220   20.5715 C   0  0  0  0  0  0
  -24.1764  -13.0438   20.9244 C   0  0  0  0  0  0
  -24.6387  -11.6925   20.8761 C   0  0  0  0  0  0
  -23.9075  -10.4293   21.0409 C   0  0  0  0  0  0
  -24.3625   -9.4208   21.9185 C   0  0  0  0  0  0
  -23.6297   -8.2243   22.0753 C   0  0  0  0  0  0
  -22.4280   -8.0280   21.3542 C   0  0  0  0  0  0
  -21.9918   -9.0254   20.4644 C   0  0  0  0  0  0
  -22.7247  -10.2133   20.3056 C   0  0  0  0  0  0
  -21.6854   -6.0735   22.5276 C   0  0  0  0  0  0
  -21.4014   -6.5640   23.8209 C   0  0  0  0  0  0
  -21.3661   -5.6794   24.9172 C   0  0  0  0  0  0
  -21.6043   -4.3056   24.7223 C   0  0  0  0  0  0
  -21.8820   -3.8147   23.4345 C   0  0  0  0  0  0
  -21.9193   -4.6963   22.3400 C   0  0  0  0  0  0
  -22.7784  -13.5205   21.1896 C   0  0  0  0  0  0
  -22.1662   -4.2150   21.0978 F   0  0  0  0  0  0
  -21.5630   -3.4538   25.7736 F   0  0  0  0  0  0
  -29.9231  -13.7792   20.3451 N   0  0  0  0  0  0
  -26.2855  -12.9459   20.3223 N   0  0  0  0  0  0
  -25.9320  -11.6586   20.5738 N   0  0  0  0  0  0
  -22.0434  -12.8188   22.0446 N   0  0  0  0  0  0
  -25.4079  -15.1948   20.4119 N   0  0  0  0  0  0
  -31.7371  -15.0672   20.1864 O   0  0  0  0  0  0
  -21.6642   -6.8878   21.4239 O   0  0  0  0  0  0
  -22.3468  -14.5506   20.6731 O   0  0  0  0  0  0
  -24.6503  -31.8376   23.1830 C   0  0  0  0  0  0
  -25.9247  -32.4659   23.8233 C   0  0  1  0  0  0
  -27.2136  -27.0645   20.1621 C   0  0  0  0  0  0
  -25.5969  -33.8468   24.2153 N   0  0  0  0  0  0
  -23.4573  -30.4560   21.5299 C   0  0  2  0  0  0
  -24.9073  -28.8712   20.1113 C   0  0  0  0  0  0
  -22.7597  -29.4520   22.4829 C   0  0  0  0  0  0
  -18.0314  -28.1402   22.8476 C   0  0  0  0  0  0
  -24.1493  -36.7240   23.2645 C   0  0  0  0  0  0
  -26.0182  -30.6897   21.3909 C   0  0  0  0  0  0
  -26.0885  -29.2934   20.7343 C   0  0  0  0  0  0
  -27.2423  -28.4090   20.7385 C   0  0  0  0  0  0
  -26.0038  -26.7638   19.4964 C   0  0  0  0  0  0
  -24.8821  -27.6223   19.4749 C   0  0  0  0  0  0
  -23.6885  -29.7836   20.1510 C   0  0  0  0  0  0
  -25.4127  -36.3010   24.0308 C   0  0  1  0  0  0
  -20.5928  -28.3741   23.1217 C   0  0  2  0  0  0
  -20.6797  -26.9436   22.5403 C   0  0  0  0  0  0
  -19.5770  -26.6387   21.5214 C   0  0  0  0  0  0
  -18.1951  -26.7940   22.1622 C   0  0  0  0  0  0
  -19.1571  -28.8888   23.2838 C   0  0  0  0  0  0
  -18.9487  -30.1479   23.8869 C   0  0  0  0  0  0
  -17.6484  -30.6596   24.0559 C   0  0  0  0  0  0
  -25.9085  -34.9388   23.5047 C   0  0  0  0  0  0
  -16.5374  -29.9089   23.6336 C   0  0  0  0  0  0
  -16.7298  -28.6508   23.0356 C   0  0  0  0  0  0
  -26.4550  -31.6547   25.0696 C   0  0  0  0  0  0
  -25.3714  -31.3743   26.1374 C   0  0  0  0  0  0
  -27.0427  -30.2937   24.6311 C   0  0  0  0  0  0
  -27.6070  -32.4320   25.7486 C   0  0  0  0  0  0
  -27.5572  -37.1773   24.8465 C   0  0  0  0  0  0
  -21.4281  -29.3057   22.3578 N   0  0  0  0  0  0
  -26.4283  -37.3731   23.9410 N   0  0  0  0  0  0
  -24.7291  -31.0170   22.0896 N   0  0  0  0  0  0
  -23.4206  -28.8067   23.3007 O   0  0  0  0  0  0
  -28.2419  -26.0294   20.2248 O   0  0  0  0  0  0
  -26.5680  -34.8900   22.4630 O   0  0  0  0  0  0
  -23.5608  -32.1285   23.7012 O   0  0  0  0  0  0
  -29.2165  -19.0278   20.3389 C   0  0  0  0  0  0
  -31.3796  -18.1307   20.9602 C   0  0  0  0  0  0
  -30.0732  -17.7970   20.5502 C   0  0  0  0  0  0
  -29.6130  -20.4787   20.5227 C   0  0  0  0  0  0
  -31.7928  -19.4612   21.1814 C   0  0  0  0  0  0
  -30.9512  -20.5843   20.9945 C   0  0  0  0  0  0
  -29.0272  -23.2240   20.2629 C   0  0  0  0  0  0
  -27.8985  -24.4752   20.1845 C   0  0  0  0  0  0
  -28.7633  -21.7961   20.3437 N   0  0  0  0  0  0
  -29.7443  -16.2696   20.4498 N   0  0  0  0  0  0
  -30.1920  -23.6143   20.1771 O   0  0  0  0  0  0
  -33.0574  -19.6695   21.6214 F   0  0  0  0  0  0
  -31.4751  -21.7808   21.3391 F   0  0  0  0  0  0
  -31.4672  -12.8320   19.1772 H   0  0  0  0  0  0
  -30.4603  -11.7255   20.0660 H   0  0  0  0  0  0
  -29.8601  -11.7203   17.6185 H   0  0  0  0  0  0
  -29.5881  -13.4447   17.6639 H   0  0  0  0  0  0
  -27.9820  -11.2665   19.0260 H   0  0  0  0  0  0
  -27.3930  -12.3920   17.8307 H   0  0  0  0  0  0
  -27.5648  -14.2421   19.3679 H   0  0  0  0  0  0
  -28.7802  -12.3818   21.4688 H   0  0  0  0  0  0
  -28.3465  -14.0589   21.7195 H   0  0  0  0  0  0
  -25.2765   -9.5687   22.4771 H   0  0  0  0  0  0
  -24.0003   -7.4634   22.7475 H   0  0  0  0  0  0
  -21.0851   -8.8775   19.8949 H   0  0  0  0  0  0
  -22.3701  -10.9676   19.6171 H   0  0  0  0  0  0
  -21.2005   -7.6148   23.9712 H   0  0  0  0  0  0
  -21.1483   -6.0524   25.9076 H   0  0  0  0  0  0
  -22.0597   -2.7609   23.2844 H   0  0  0  0  0  0
  -22.4063  -11.9856   22.4836 H   0  0  0  0  0  0
  -21.1046  -13.1201   22.2645 H   0  0  0  0  0  0
  -24.6324  -15.8411   20.5113 H   0  0  0  0  0  0
  -26.2419  -15.6343   20.0461 H   0  0  0  0  0  0
  -26.7300  -32.5249   23.0944 H   0  0  0  0  0  0
  -25.0071  -33.9568   25.0270 H   0  0  0  0  0  0
  -22.7643  -31.2846   21.3712 H   0  0  0  0  0  0
  -23.3763  -35.9563   23.3285 H   0  0  0  0  0  0
  -24.3575  -36.8904   22.2065 H   0  0  0  0  0  0
  -23.7241  -37.6420   23.6708 H   0  0  0  0  0  0
  -26.1778  -31.4390   20.6145 H   0  0  0  0  0  0
  -26.8870  -30.7455   22.0350 H   0  0  0  0  0  0
  -28.1407  -28.7292   21.2472 H   0  0  0  0  0  0
  -25.8845  -25.8146   18.9983 H   0  0  0  0  0  0
  -23.9822  -27.2949   18.9721 H   0  0  0  0  0  0
  -23.8351  -30.5582   19.3972 H   0  0  0  0  0  0
  -22.8007  -29.2329   19.8353 H   0  0  0  0  0  0
  -25.1318  -36.1824   25.0798 H   0  0  0  0  0  0
  -21.0023  -28.3344   24.1340 H   0  0  0  0  0  0
  -20.5700  -26.2354   23.3630 H   0  0  0  0  0  0
  -21.6661  -26.7440   22.1194 H   0  0  0  0  0  0
  -19.6933  -25.6291   21.1262 H   0  0  0  0  0  0
  -19.6707  -27.3182   20.6731 H   0  0  0  0  0  0
  -17.4220  -26.6690   21.4026 H   0  0  0  0  0  0
  -18.0341  -26.0089   22.9025 H   0  0  0  0  0  0
  -19.7963  -30.7297   24.2234 H   0  0  0  0  0  0
  -17.5039  -31.6275   24.5165 H   0  0  0  0  0  0
  -15.5372  -30.2983   23.7679 H   0  0  0  0  0  0
  -15.8697  -28.0818   22.7087 H   0  0  0  0  0  0
  -24.5920  -30.7066   25.7680 H   0  0  0  0  0  0
  -24.8873  -32.2926   26.4709 H   0  0  0  0  0  0
  -25.7982  -30.8971   27.0206 H   0  0  0  0  0  0
  -26.3059  -29.6633   24.1321 H   0  0  0  0  0  0
  -27.4032  -29.7260   25.4900 H   0  0  0  0  0  0
  -27.8969  -30.4157   23.9646 H   0  0  0  0  0  0
  -27.2670  -33.3667   26.1957 H   0  0  0  0  0  0
  -28.3938  -32.6801   25.0349 H   0  0  0  0  0  0
  -28.0669  -31.8505   26.5487 H   0  0  0  0  0  0
  -28.2568  -38.0089   24.7520 H   0  0  0  0  0  0
  -28.1090  -36.2617   24.6283 H   0  0  0  0  0  0
  -27.2290  -37.1405   25.8867 H   0  0  0  0  0  0
  -20.9505  -29.8765   21.6743 H   0  0  0  0  0  0
  -26.0142  -38.2791   24.1431 H   0  0  0  0  0  0
  -28.1994  -18.8498   20.0207 H   0  0  0  0  0  0
  -32.1026  -17.3542   21.1579 H   0  0  0  0  0  0
  -27.1819  -24.2922   20.9854 H   0  0  0  0  0  0
  -27.3580  -24.2835   19.2591 H   0  0  0  0  0  0
  -27.7711  -21.6128   20.2798 H   0  0  0  0  0  0
  -28.7547  -16.0748   20.4326 H   0  0  0  0  0  0
  1 25  1  0  0  0
  1 30  2  0  0  0
  1 80  1  0  0  0
  2  3  1  0  0  0
  2 25  1  0  0  0
  2 84  1  0  0  0
  2 85  1  0  0  0
  3  4  1  0  0  0
  3 86  1  0  0  0
  3 87  1  0  0  0
  4  5  1  0  0  0
  4 88  1  0  0  0
  4 89  1  0  0  0
  5  6  1  0  0  0
  5 26  1  0  0  0
  5 90  1  0  0  0
  6 25  1  0  0  0
  6 91  1  0  0  0
  6 92  1  0  0  0
  7  8  2  0  0  0
  7 26  1  0  0  0
  7 29  1  0  0  0
  8  9  1  0  0  0
  8 22  1  0  0  0
  9 10  1  0  0  0
  9 27  2  0  0  0
 10 11  2  0  0  0
 10 15  1  0  0  0
 11 12  1  0  0  0
 11 93  1  0  0  0
 12 13  2  0  0  0
 12 94  1  0  0  0
 13 14  1  0  0  0
 13 31  1  0  0  0
 14 15  2  0  0  0
 14 95  1  0  0  0
 15 96  1  0  0  0
 16 17  2  0  0  0
 16 21  1  0  0  0
 16 31  1  0  0  0
 17 18  1  0  0  0
 17 97  1  0  0  0
 18 19  2  0  0  0
 18 98  1  0  0  0
 19 20  1  0  0  0
 19 24  1  0  0  0
 20 21  2  0  0  0
 20 99  1  0  0  0
 21 23  1  0  0  0
 22 28  1  0  0  0
 22 32  2  0  0  0
 26 27  1  0  0  0
 28100  1  0  0  0
 28101  1  0  0  0
 29102  1  0  0  0
 29103  1  0  0  0
 33 34  1  0  0  0
 33 66  1  0  0  0
 33 70  2  0  0  0
 34 36  1  0  0  0
 34 59  1  0  0  0
 34104  1  0  0  0
 35 44  2  0  0  0
 35 45  1  0  0  0
 35 68  1  0  0  0
 36 56  1  0  0  0
 36105  1  0  0  0
 37 39  1  0  0  0
 37 47  1  0  0  0
 37 66  1  0  0  0
 37106  1  0  0  0
 38 43  2  0  0  0
 38 46  1  0  0  0
 38 47  1  0  0  0
 39 64  1  0  0  0
 39 67  2  0  0  0
 40 52  1  0  0  0
 40 53  2  0  0  0
 40 58  1  0  0  0
 41107  1  0  0  0
 41108  1  0  0  0
 41109  1  0  0  0
 41 48  1  0  0  0
 42 43  1  0  0  0
 42 66  1  0  0  0
 42110  1  0  0  0
 42111  1  0  0  0
 43 44  1  0  0  0
 44112  1  0  0  0
 45 46  2  0  0  0
 45113  1  0  0  0
 46114  1  0  0  0
 47115  1  0  0  0
 47116  1  0  0  0
 48 56  1  0  0  0
 48 65  1  0  0  0
 48117  1  0  0  0
 49 50  1  0  0  0
 49 53  1  0  0  0
 49 64  1  0  0  0
 49118  1  0  0  0
 50 51  1  0  0  0
 50119  1  0  0  0
 50120  1  0  0  0
 51 52  1  0  0  0
 51121  1  0  0  0
 51122  1  0  0  0
 52123  1  0  0  0
 52124  1  0  0  0
 53 54  1  0  0  0
 54 55  2  0  0  0
 54125  1  0  0  0
 55 57  1  0  0  0
 55126  1  0  0  0
 56 69  2  0  0  0
 57 58  2  0  0  0
 57127  1  0  0  0
 58128  1  0  0  0
 59 60  1  0  0  0
 59 61  1  0  0  0
 59 62  1  0  0  0
 60129  1  0  0  0
 60130  1  0  0  0
 60131  1  0  0  0
 61132  1  0  0  0
 61133  1  0  0  0
 61134  1  0  0  0
 62135  1  0  0  0
 62136  1  0  0  0
 62137  1  0  0  0
 63 65  1  0  0  0
 63138  1  0  0  0
 63139  1  0  0  0
 63140  1  0  0  0
 64141  1  0  0  0
 65142  1  0  0  0
 68 78  1  0  0  0
 71 73  2  0  0  0
 71 74  1  0  0  0
 71143  1  0  0  0
 72 73  1  0  0  0
 72 75  2  0  0  0
 72144  1  0  0  0
 73 80  1  0  0  0
 74 76  2  0  0  0
 74 79  1  0  0  0
 75 76  1  0  0  0
 75 82  1  0  0  0
 76 83  1  0  0  0
 77 78  1  0  0  0
 77 79  1  0  0  0
 77 81  2  0  0  0
 78145  1  0  0  0
 78146  1  0  0  0
 79147  1  0  0  0
 80148  1  0  0  0
M  ISO  4   1 100  68 101  78 101  80 100
M  END
> <chiral flag>
0

> <version>
0

> <s_m_source_file>
/data/baiqing/PycharmProjects/Reinvent-master-3.2/result/LINK_invent/BTK/process_docking_weight1_custom_product_contain_oxygen_bond_distance_aromatic_linkinvent_7_9_3/rearranged_h_0069.sdf

> <i_m_source_file_index>
85

> <r_mmod_Potential_Energy-OPLS-2005>
676.05859375

> <r_mmod_Stretch_Energy-OPLS-2005>
349.65576171875

> <r_mmod_Bend_Energy-OPLS-2005>
273.646026611328

> <r_mmod_Torsional_Energy-OPLS-2005>
226.446411132812

> <r_mmod_Improper_Torsional_Energy-OPLS-2005>
6.17113399505615

> <r_mmod_Van_der_Waal_Energy-OPLS-2005>
137.826187133789

> <r_mmod_Electrostatic_Energy-OPLS-2005>
-329.193725585938

> <r_mmod_Solvation_Energy-OPLS-2005>
-255.283706665039

> <b_mmod_Minimization_Converged-OPLS-2005>
0

> <r_mmod_RMS_Derivative-OPLS-2005>
0.683034062385559

$$$$
87
                    3D
 Structure written by MMmdl.
159168  0  0  1  0            999 V2000
  -30.6429  -14.7382   20.4652 C   0  0  0  0  0  0
  -30.4210  -12.4516   19.4738 C   0  0  0  0  0  0
  -29.5033  -12.5067   18.2342 C   0  0  0  0  0  0
  -28.0294  -12.3378   18.6481 C   0  0  0  0  0  0
  -27.6386  -13.2386   19.8504 C   0  0  2  0  0  0
  -28.6855  -13.1865   20.9853 C   0  0  0  0  0  0
  -25.2489  -13.8220   20.5710 C   0  0  0  0  0  0
  -24.1789  -13.0450   20.9218 C   0  0  0  0  0  0
  -24.6393  -11.6931   20.8759 C   0  0  0  0  0  0
  -23.9077  -10.4297   21.0409 C   0  0  0  0  0  0
  -24.3622   -9.4210   21.9188 C   0  0  0  0  0  0
  -23.6295   -8.2246   22.0755 C   0  0  0  0  0  0
  -22.4280   -8.0283   21.3544 C   0  0  0  0  0  0
  -21.9919   -9.0256   20.4645 C   0  0  0  0  0  0
  -22.7249  -10.2136   20.3057 C   0  0  0  0  0  0
  -21.6855   -6.0734   22.5279 C   0  0  0  0  0  0
  -21.4016   -6.5637   23.8211 C   0  0  0  0  0  0
  -21.3660   -5.6790   24.9171 C   0  0  0  0  0  0
  -21.6045   -4.3054   24.7222 C   0  0  0  0  0  0
  -21.8819   -3.8145   23.4344 C   0  0  0  0  0  0
  -21.9192   -4.6961   22.3400 C   0  0  0  0  0  0
  -22.7809  -13.5220   21.1877 C   0  0  0  0  0  0
  -22.1661   -4.2147   21.0981 F   0  0  0  0  0  0
  -21.5627   -3.4539   25.7735 F   0  0  0  0  0  0
  -29.9845  -13.5290   20.3953 N   0  0  0  0  0  0
  -26.2924  -12.9442   20.3301 N   0  0  0  0  0  0
  -25.9328  -11.6575   20.5773 N   0  0  0  0  0  0
  -22.0456  -12.8198   22.0426 N   0  0  0  0  0  0
  -25.4163  -15.1943   20.4103 N   0  0  0  0  0  0
  -31.8309  -14.7777   20.1377 O   0  0  0  0  0  0
  -21.6644   -6.8879   21.4243 O   0  0  0  0  0  0
  -22.3488  -14.5521   20.6720 O   0  0  0  0  0  0
  -24.6309  -31.8555   23.2000 C   0  0  0  0  0  0
  -25.9133  -32.4755   23.8345 C   0  0  1  0  0  0
  -27.2095  -27.2492   20.1217 C   0  0  0  0  0  0
  -25.5939  -33.8561   24.2261 N   0  0  0  0  0  0
  -23.4272  -30.4811   21.5435 C   0  0  2  0  0  0
  -24.8721  -28.9332   20.1054 C   0  0  0  0  0  0
  -22.7502  -29.4606   22.4908 C   0  0  0  0  0  0
  -18.0303  -28.1388   22.8482 C   0  0  0  0  0  0
  -24.1498  -36.7272   23.2641 C   0  0  0  0  0  0
  -25.9758  -30.7613   21.3868 C   0  0  0  0  0  0
  -26.0426  -29.3857   20.7248 C   0  0  0  0  0  0
  -27.2090  -28.5531   20.7296 C   0  0  0  0  0  0
  -26.0207  -26.8858   19.4468 C   0  0  0  0  0  0
  -24.8678  -27.6923   19.4557 C   0  0  0  0  0  0
  -23.6435  -29.8202   20.1575 C   0  0  0  0  0  0
  -25.4127  -36.3070   24.0328 C   0  0  1  0  0  0
  -20.5903  -28.3702   23.1272 C   0  0  2  0  0  0
  -20.6791  -26.9422   22.5412 C   0  0  0  0  0  0
  -19.5763  -26.6384   21.5222 C   0  0  0  0  0  0
  -18.1942  -26.7931   22.1623 C   0  0  0  0  0  0
  -19.1554  -28.8859   23.2873 C   0  0  0  0  0  0
  -18.9475  -30.1458   23.8891 C   0  0  0  0  0  0
  -17.6473  -30.6586   24.0563 C   0  0  0  0  0  0
  -25.9070  -34.9439   23.5097 C   0  0  0  0  0  0
  -16.5364  -29.9080   23.6337 C   0  0  0  0  0  0
  -16.7288  -28.6499   23.0352 C   0  0  0  0  0  0
  -26.4500  -31.6584   25.0741 C   0  0  0  0  0  0
  -25.3715  -31.3741   26.1455 C   0  0  0  0  0  0
  -27.0346  -30.2992   24.6253 C   0  0  0  0  0  0
  -27.6049  -32.4336   25.7506 C   0  0  0  0  0  0
  -27.5587  -37.1795   24.8469 C   0  0  0  0  0  0
  -21.4212  -29.3042   22.3648 N   0  0  0  0  0  0
  -26.4302  -37.3768   23.9409 N   0  0  0  0  0  0
  -24.6968  -31.0514   22.0984 N   0  0  0  0  0  0
  -23.4206  -28.8153   23.3012 O   0  0  0  0  0  0
  -28.3030  -26.3478   20.2191 O   0  0  0  0  0  0
  -26.5638  -34.8905   22.4667 O   0  0  0  0  0  0
  -23.5459  -32.1391   23.7285 O   0  0  0  0  0  0
  -29.5126  -18.5245   20.6196 C   0  0  0  0  0  0
  -31.7219  -17.6144   21.0266 C   0  0  0  0  0  0
  -31.3762  -20.0528   21.0533 C   0  0  0  0  0  0
  -29.9919  -19.9046   20.7469 C   0  0  0  0  0  0
  -30.3637  -17.3405   20.7514 C   0  0  0  0  0  0
  -32.2139  -18.9222   21.1661 C   0  0  0  0  0  0
  -27.9628  -22.9202   21.5468 C   0  0  0  0  0  0
  -28.2440  -21.4781   21.6233 C   0  0  0  0  0  0
  -26.9525  -23.4704   22.2451 C   0  0  0  0  0  0
  -29.3989  -22.3679   19.8230 C   0  0  0  0  0  0
  -28.8719  -23.6594   20.5833 C   0  0  1  0  0  0
  -32.0119  -21.4067   21.3525 C   0  0  0  0  0  0
  -28.2136  -24.9063   19.7726 C   0  0  0  0  0  0
  -29.1504  -21.1409   20.6742 N   0  0  0  0  0  0
  -29.9153  -15.9130   20.6697 N   0  0  0  0  0  0
  -27.7456  -20.6800   22.4250 O   0  0  0  0  0  0
  -33.5293  -19.0865   21.4492 F   0  0  0  0  0  0
  -31.4642  -12.5533   19.1703 H   0  0  0  0  0  0
  -30.3485  -11.4786   19.9631 H   0  0  0  0  0  0
  -29.7814  -11.7304   17.5202 H   0  0  0  0  0  0
  -29.6356  -13.4592   17.7181 H   0  0  0  0  0  0
  -27.8795  -11.2892   18.9075 H   0  0  0  0  0  0
  -27.3728  -12.5367   17.8002 H   0  0  0  0  0  0
  -27.6291  -14.2586   19.4662 H   0  0  0  0  0  0
  -28.7197  -12.1956   21.4402 H   0  0  0  0  0  0
  -28.4248  -13.8827   21.7841 H   0  0  0  0  0  0
  -25.2763   -9.5686   22.4766 H   0  0  0  0  0  0
  -23.9999   -7.4639   22.7475 H   0  0  0  0  0  0
  -21.0851   -8.8774   19.8948 H   0  0  0  0  0  0
  -22.3707  -10.9672   19.6164 H   0  0  0  0  0  0
  -21.2012   -7.6145   23.9714 H   0  0  0  0  0  0
  -21.1482   -6.0520   25.9073 H   0  0  0  0  0  0
  -22.0598   -2.7607   23.2845 H   0  0  0  0  0  0
  -22.4071  -11.9849   22.4796 H   0  0  0  0  0  0
  -21.1076  -13.1218   22.2646 H   0  0  0  0  0  0
  -24.6460  -15.8457   20.5148 H   0  0  0  0  0  0
  -26.2558  -15.6321   20.0540 H   0  0  0  0  0  0
  -26.7184  -32.5389   23.1065 H   0  0  0  0  0  0
  -25.0112  -33.9707   25.0425 H   0  0  0  0  0  0
  -22.7242  -31.3048   21.3998 H   0  0  0  0  0  0
  -23.3777  -35.9590   23.3308 H   0  0  0  0  0  0
  -24.3592  -36.8902   22.2059 H   0  0  0  0  0  0
  -23.7234  -37.6467   23.6660 H   0  0  0  0  0  0
  -26.1257  -31.5245   20.6222 H   0  0  0  0  0  0
  -26.8492  -30.8014   22.0256 H   0  0  0  0  0  0
  -28.0983  -28.8902   21.2429 H   0  0  0  0  0  0
  -25.9283  -25.9639   18.8982 H   0  0  0  0  0  0
  -23.9766  -27.3500   18.9480 H   0  0  0  0  0  0
  -23.7636  -30.5993   19.4044 H   0  0  0  0  0  0
  -22.7606  -29.2555   19.8525 H   0  0  0  0  0  0
  -25.1310  -36.1921   25.0822 H   0  0  0  0  0  0
  -20.9995  -28.3277   24.1393 H   0  0  0  0  0  0
  -20.5721  -26.2311   23.3617 H   0  0  0  0  0  0
  -21.6658  -26.7461   22.1188 H   0  0  0  0  0  0
  -19.6942  -25.6297   21.1251 H   0  0  0  0  0  0
  -19.6701  -27.3193   20.6754 H   0  0  0  0  0  0
  -17.4224  -26.6700   21.4012 H   0  0  0  0  0  0
  -18.0319  -26.0074   22.9012 H   0  0  0  0  0  0
  -19.7952  -30.7278   24.2251 H   0  0  0  0  0  0
  -17.5027  -31.6265   24.5163 H   0  0  0  0  0  0
  -15.5360  -30.2976   23.7665 H   0  0  0  0  0  0
  -15.8693  -28.0810   22.7069 H   0  0  0  0  0  0
  -24.5915  -30.7049   25.7802 H   0  0  0  0  0  0
  -24.8864  -32.2905   26.4825 H   0  0  0  0  0  0
  -25.8034  -30.8976   27.0264 H   0  0  0  0  0  0
  -26.2929  -29.6743   24.1258 H   0  0  0  0  0  0
  -27.3997  -29.7255   25.4784 H   0  0  0  0  0  0
  -27.8829  -30.4271   23.9524 H   0  0  0  0  0  0
  -27.2659  -33.3669   26.2009 H   0  0  0  0  0  0
  -28.3880  -32.6845   25.0340 H   0  0  0  0  0  0
  -28.0674  -31.8505   26.5479 H   0  0  0  0  0  0
  -28.2600  -38.0096   24.7518 H   0  0  0  0  0  0
  -28.1085  -36.2625   24.6292 H   0  0  0  0  0  0
  -27.2299  -37.1445   25.8871 H   0  0  0  0  0  0
  -20.9394  -29.8744   21.6837 H   0  0  0  0  0  0
  -26.0187  -38.2849   24.1398 H   0  0  0  0  0  0
  -28.4605  -18.3761   20.4201 H   0  0  0  0  0  0
  -32.4363  -16.8214   21.1746 H   0  0  0  0  0  0
  -26.3237  -22.8771   22.8950 H   0  0  0  0  0  0
  -26.7332  -24.5261   22.1725 H   0  0  0  0  0  0
  -30.4365  -22.4750   19.5151 H   0  0  0  0  0  0
  -28.8280  -22.2377   18.9022 H   0  0  0  0  0  0
  -29.7049  -24.0477   21.1700 H   0  0  0  0  0  0
  -32.4184  -21.8532   20.4449 H   0  0  0  0  0  0
  -32.8357  -21.3014   22.0590 H   0  0  0  0  0  0
  -31.3147  -22.1039   21.8137 H   0  0  0  0  0  0
  -27.1857  -24.5932   19.6204 H   0  0  0  0  0  0
  -28.6497  -24.9036   18.7733 H   0  0  0  0  0  0
  -28.9215  -15.7657   20.7625 H   0  0  0  0  0  0
  1 25  1  0  0  0
  1 30  2  0  0  0
  1 85  1  0  0  0
  2  3  1  0  0  0
  2 25  1  0  0  0
  2 88  1  0  0  0
  2 89  1  0  0  0
  3  4  1  0  0  0
  3 90  1  0  0  0
  3 91  1  0  0  0
  4  5  1  0  0  0
  4 92  1  0  0  0
  4 93  1  0  0  0
  5  6  1  0  0  0
  5 26  1  0  0  0
  5 94  1  0  0  0
  6 25  1  0  0  0
  6 95  1  0  0  0
  6 96  1  0  0  0
  7  8  2  0  0  0
  7 26  1  0  0  0
  7 29  1  0  0  0
  8  9  1  0  0  0
  8 22  1  0  0  0
  9 10  1  0  0  0
  9 27  2  0  0  0
 10 11  2  0  0  0
 10 15  1  0  0  0
 11 12  1  0  0  0
 11 97  1  0  0  0
 12 13  2  0  0  0
 12 98  1  0  0  0
 13 14  1  0  0  0
 13 31  1  0  0  0
 14 15  2  0  0  0
 14 99  1  0  0  0
 15100  1  0  0  0
 16 17  2  0  0  0
 16 21  1  0  0  0
 16 31  1  0  0  0
 17 18  1  0  0  0
 17101  1  0  0  0
 18 19  2  0  0  0
 18102  1  0  0  0
 19 20  1  0  0  0
 19 24  1  0  0  0
 20 21  2  0  0  0
 20103  1  0  0  0
 21 23  1  0  0  0
 22 28  1  0  0  0
 22 32  2  0  0  0
 26 27  1  0  0  0
 28104  1  0  0  0
 28105  1  0  0  0
 29106  1  0  0  0
 29107  1  0  0  0
 33 34  1  0  0  0
 33 66  1  0  0  0
 33 70  2  0  0  0
 34 36  1  0  0  0
 34 59  1  0  0  0
 34108  1  0  0  0
 35 44  2  0  0  0
 35 45  1  0  0  0
 35 68  1  0  0  0
 36 56  1  0  0  0
 36109  1  0  0  0
 37 39  1  0  0  0
 37 47  1  0  0  0
 37 66  1  0  0  0
 37110  1  0  0  0
 38 43  2  0  0  0
 38 46  1  0  0  0
 38 47  1  0  0  0
 39 64  1  0  0  0
 39 67  2  0  0  0
 40 52  1  0  0  0
 40 53  2  0  0  0
 40 58  1  0  0  0
 41111  1  0  0  0
 41112  1  0  0  0
 41113  1  0  0  0
 41 48  1  0  0  0
 42 43  1  0  0  0
 42 66  1  0  0  0
 42114  1  0  0  0
 42115  1  0  0  0
 43 44  1  0  0  0
 44116  1  0  0  0
 45 46  2  0  0  0
 45117  1  0  0  0
 46118  1  0  0  0
 47119  1  0  0  0
 47120  1  0  0  0
 48 56  1  0  0  0
 48 65  1  0  0  0
 48121  1  0  0  0
 49 50  1  0  0  0
 49 53  1  0  0  0
 49 64  1  0  0  0
 49122  1  0  0  0
 50 51  1  0  0  0
 50123  1  0  0  0
 50124  1  0  0  0
 51 52  1  0  0  0
 51125  1  0  0  0
 51126  1  0  0  0
 52127  1  0  0  0
 52128  1  0  0  0
 53 54  1  0  0  0
 54 55  2  0  0  0
 54129  1  0  0  0
 55 57  1  0  0  0
 55130  1  0  0  0
 56 69  2  0  0  0
 57 58  2  0  0  0
 57131  1  0  0  0
 58132  1  0  0  0
 59 60  1  0  0  0
 59 61  1  0  0  0
 59 62  1  0  0  0
 60133  1  0  0  0
 60134  1  0  0  0
 60135  1  0  0  0
 61136  1  0  0  0
 61137  1  0  0  0
 61138  1  0  0  0
 62139  1  0  0  0
 62140  1  0  0  0
 62141  1  0  0  0
 63 65  1  0  0  0
 63142  1  0  0  0
 63143  1  0  0  0
 63144  1  0  0  0
 64145  1  0  0  0
 65146  1  0  0  0
 68 83  1  0  0  0
 71 74  2  0  0  0
 71 75  1  0  0  0
 71147  1  0  0  0
 72 75  2  0  0  0
 72 76  1  0  0  0
 72148  1  0  0  0
 73 74  1  0  0  0
 73 76  2  0  0  0
 73 82  1  0  0  0
 74 84  1  0  0  0
 75 85  1  0  0  0
 76 87  1  0  0  0
 77 78  1  0  0  0
 77 79  2  0  0  0
 77 81  1  0  0  0
 78 84  1  0  0  0
 78 86  2  0  0  0
 79149  1  0  0  0
 79150  1  0  0  0
 80 81  1  0  0  0
 80 84  1  0  0  0
 80151  1  0  0  0
 80152  1  0  0  0
 81 83  1  0  0  0
 81153  1  0  0  0
 82154  1  0  0  0
 82155  1  0  0  0
 82156  1  0  0  0
 83157  1  0  0  0
 83158  1  0  0  0
 85159  1  0  0  0
M  ISO  4   1 100  68 101  83 101  85 100
M  END
> <chiral flag>
0

> <version>
0

> <s_m_source_file>
/data/baiqing/PycharmProjects/Reinvent-master-3.2/result/LINK_invent/BTK/process_docking_weight1_custom_product_contain_oxygen_bond_distance_aromatic_linkinvent_7_9_3/rearranged_h_0069.sdf

> <i_m_source_file_index>
86

> <r_mmod_Potential_Energy-OPLS-2005>
326.470581054688

> <r_mmod_Stretch_Energy-OPLS-2005>
134.609024047852

> <r_mmod_Bend_Energy-OPLS-2005>
204.710998535156

> <r_mmod_Torsional_Energy-OPLS-2005>
286.905609130859

> <r_mmod_Improper_Torsional_Energy-OPLS-2005>
6.1839075088501

> <r_mmod_Van_der_Waal_Energy-OPLS-2005>
150.702133178711

> <r_mmod_Electrostatic_Energy-OPLS-2005>
-330.592681884766

> <r_mmod_Solvation_Energy-OPLS-2005>
-214.646484375

> <b_mmod_Minimization_Converged-OPLS-2005>
0

> <r_mmod_RMS_Derivative-OPLS-2005>
1.1612788438797

$$$$
88
                    3D
 Structure written by MMmdl.
156165  0  0  1  0            999 V2000
  -30.6322  -14.7236   20.4739 C   0  0  0  0  0  0
  -30.4125  -12.4449   19.4829 C   0  0  0  0  0  0
  -29.4983  -12.5661   18.2442 C   0  0  0  0  0  0
  -28.0284  -12.3586   18.6557 C   0  0  0  0  0  0
  -27.6451  -13.2346   19.8784 C   0  0  2  0  0  0
  -28.6922  -13.1530   21.0170 C   0  0  0  0  0  0
  -25.2461  -13.8209   20.5742 C   0  0  0  0  0  0
  -24.1766  -13.0457   20.9197 C   0  0  0  0  0  0
  -24.6361  -11.6938   20.8713 C   0  0  0  0  0  0
  -23.9063  -10.4294   21.0328 C   0  0  0  0  0  0
  -24.3627   -9.4217   21.9119 C   0  0  0  0  0  0
  -23.6295   -8.2266   22.0712 C   0  0  0  0  0  0
  -22.4264   -8.0291   21.3499 C   0  0  0  0  0  0
  -21.9893   -9.0249   20.4578 C   0  0  0  0  0  0
  -22.7223  -10.2124   20.2981 C   0  0  0  0  0  0
  -21.6881   -6.0741   22.5256 C   0  0  0  0  0  0
  -21.4060   -6.5660   23.8176 C   0  0  0  0  0  0
  -21.3665   -5.6806   24.9143 C   0  0  0  0  0  0
  -21.6043   -4.3076   24.7198 C   0  0  0  0  0  0
  -21.8819   -3.8165   23.4331 C   0  0  0  0  0  0
  -21.9178   -4.6981   22.3368 C   0  0  0  0  0  0
  -22.7759  -13.5193   21.1905 C   0  0  0  0  0  0
  -22.1621   -4.2158   21.0944 F   0  0  0  0  0  0
  -21.5605   -3.4569   25.7719 F   0  0  0  0  0  0
  -30.0033  -13.4968   20.4463 N   0  0  0  0  0  0
  -26.2937  -12.9431   20.3428 N   0  0  0  0  0  0
  -25.9310  -11.6577   20.5807 N   0  0  0  0  0  0
  -22.0466  -12.8111   22.0456 N   0  0  0  0  0  0
  -25.4177  -15.1929   20.4157 N   0  0  0  0  0  0
  -31.7814  -14.8334   20.0351 O   0  0  0  0  0  0
  -21.6646   -6.8896   21.4206 O   0  0  0  0  0  0
  -22.3420  -14.5526   20.6820 O   0  0  0  0  0  0
  -24.6332  -31.8568   23.1973 C   0  0  0  0  0  0
  -25.9131  -32.4783   23.8320 C   0  0  1  0  0  0
  -27.2178  -27.2343   20.1089 C   0  0  0  0  0  0
  -25.5898  -33.8592   24.2225 N   0  0  0  0  0  0
  -23.4297  -30.4822   21.5475 C   0  0  2  0  0  0
  -24.8746  -28.9276   20.1138 C   0  0  0  0  0  0
  -22.7474  -29.4634   22.4908 C   0  0  0  0  0  0
  -18.0295  -28.1412   22.8521 C   0  0  0  0  0  0
  -24.1502  -36.7329   23.2648 C   0  0  0  0  0  0
  -25.9783  -30.7575   21.3823 C   0  0  0  0  0  0
  -26.0484  -29.3764   20.7235 C   0  0  0  0  0  0
  -27.2162  -28.5402   20.7200 C   0  0  0  0  0  0
  -26.0133  -26.8652   19.4621 C   0  0  0  0  0  0
  -24.8624  -27.6778   19.4791 C   0  0  0  0  0  0
  -23.6461  -29.8204   20.1636 C   0  0  0  0  0  0
  -25.4141  -36.3107   24.0303 C   0  0  1  0  0  0
  -20.5886  -28.3733   23.1289 C   0  0  2  0  0  0
  -20.6804  -26.9446   22.5435 C   0  0  0  0  0  0
  -19.5754  -26.6390   21.5276 C   0  0  0  0  0  0
  -18.1917  -26.7948   22.1673 C   0  0  0  0  0  0
  -19.1547  -28.8891   23.2891 C   0  0  0  0  0  0
  -18.9467  -30.1487   23.8904 C   0  0  0  0  0  0
  -17.6469  -30.6610   24.0586 C   0  0  0  0  0  0
  -25.9063  -34.9465   23.5079 C   0  0  0  0  0  0
  -16.5356  -29.9117   23.6321 C   0  0  0  0  0  0
  -16.7288  -28.6534   23.0353 C   0  0  0  0  0  0
  -26.4459  -31.6632   25.0727 C   0  0  0  0  0  0
  -25.3637  -31.3789   26.1426 C   0  0  0  0  0  0
  -27.0340  -30.3060   24.6200 C   0  0  0  0  0  0
  -27.5992  -32.4401   25.7521 C   0  0  0  0  0  0
  -27.5612  -37.1816   24.8443 C   0  0  0  0  0  0
  -21.4182  -29.3092   22.3658 N   0  0  0  0  0  0
  -26.4329  -37.3795   23.9375 N   0  0  0  0  0  0
  -24.7011  -31.0471   22.0993 N   0  0  0  0  0  0
  -23.4155  -28.8151   23.3011 O   0  0  0  0  0  0
  -28.3311  -26.3487   20.1875 O   0  0  0  0  0  0
  -26.5627  -34.8939   22.4641 O   0  0  0  0  0  0
  -23.5475  -32.1443   23.7207 O   0  0  0  0  0  0
  -28.9723  -19.4087   18.5726 C   0  0  0  0  0  0
  -29.7287  -18.4781   20.6927 C   0  0  0  0  0  0
  -29.3621  -16.9983   18.7837 C   0  0  0  0  0  0
  -29.3648  -19.6582   19.9085 C   0  0  0  0  0  0
  -28.9861  -18.1165   18.0154 C   0  0  0  0  0  0
  -29.7296  -17.1214   20.1432 C   0  0  0  0  0  0
  -30.1024  -23.2740   20.9548 C   0  0  0  0  0  0
  -30.3642  -21.7248   20.9834 C   0  0  0  0  0  0
  -28.4682  -22.1646   19.7351 C   0  0  0  0  0  0
  -28.6803  -23.5716   20.4576 C   0  0  2  0  0  0
  -28.3838  -24.9440   19.6086 C   0  0  0  0  0  0
  -29.3607  -21.0950   20.3270 N   0  0  0  0  0  0
  -28.6088  -17.9538   16.6827 N   0  0  0  0  0  0
  -29.9355  -15.8516   20.8839 N   0  0  0  0  0  0
  -30.9252  -24.1389   21.2903 O   0  0  0  0  0  0
  -31.3453  -21.1935   21.5225 O   0  0  0  0  0  0
  -31.4617  -12.5261   19.1956 H   0  0  0  0  0  0
  -30.3007  -11.4608   19.9412 H   0  0  0  0  0  0
  -29.7867  -11.8457   17.4767 H   0  0  0  0  0  0
  -29.6198  -13.5544   17.7923 H   0  0  0  0  0  0
  -27.8901  -11.3051   18.9003 H   0  0  0  0  0  0
  -27.3605  -12.5606   17.8159 H   0  0  0  0  0  0
  -27.6463  -14.2651   19.5242 H   0  0  0  0  0  0
  -28.7247  -12.1547   21.4575 H   0  0  0  0  0  0
  -28.4349  -13.8336   21.8312 H   0  0  0  0  0  0
  -25.2752   -9.5786   22.4696 H   0  0  0  0  0  0
  -23.9970   -7.4680   22.7475 H   0  0  0  0  0  0
  -21.0802   -8.8814   19.8879 H   0  0  0  0  0  0
  -22.3631  -10.9683   19.6136 H   0  0  0  0  0  0
  -21.2115   -7.6165   23.9746 H   0  0  0  0  0  0
  -21.1465   -6.0506   25.9045 H   0  0  0  0  0  0
  -22.0591   -2.7629   23.2834 H   0  0  0  0  0  0
  -22.4149  -11.9698   22.4658 H   0  0  0  0  0  0
  -21.1109  -13.1074   22.2857 H   0  0  0  0  0  0
  -24.6603  -15.8547   20.5453 H   0  0  0  0  0  0
  -26.2767  -15.6347   20.1159 H   0  0  0  0  0  0
  -26.7177  -32.5403   23.1053 H   0  0  0  0  0  0
  -25.0012  -33.9758   25.0345 H   0  0  0  0  0  0
  -22.7325  -31.3099   21.4023 H   0  0  0  0  0  0
  -23.3791  -35.9638   23.3283 H   0  0  0  0  0  0
  -24.3559  -36.9005   22.2060 H   0  0  0  0  0  0
  -23.7267  -37.6518   23.6709 H   0  0  0  0  0  0
  -26.1111  -31.5091   20.6025 H   0  0  0  0  0  0
  -26.8581  -30.8160   22.0105 H   0  0  0  0  0  0
  -28.1109  -28.8768   21.2202 H   0  0  0  0  0  0
  -25.8903  -25.9291   18.9404 H   0  0  0  0  0  0
  -23.9580  -27.3266   19.0011 H   0  0  0  0  0  0
  -23.7702  -30.6029   19.4108 H   0  0  0  0  0  0
  -22.7553  -29.2669   19.8589 H   0  0  0  0  0  0
  -25.1331  -36.1984   25.0785 H   0  0  0  0  0  0
  -21.0006  -28.3371   24.1399 H   0  0  0  0  0  0
  -20.5813  -26.2335   23.3657 H   0  0  0  0  0  0
  -21.6659  -26.7499   22.1190 H   0  0  0  0  0  0
  -19.6912  -25.6315   21.1281 H   0  0  0  0  0  0
  -19.6665  -27.3220   20.6821 H   0  0  0  0  0  0
  -17.4192  -26.6767   21.4041 H   0  0  0  0  0  0
  -18.0215  -26.0081   22.9039 H   0  0  0  0  0  0
  -19.7936  -30.7314   24.2271 H   0  0  0  0  0  0
  -17.5019  -31.6287   24.5214 H   0  0  0  0  0  0
  -15.5363  -30.3041   23.7642 H   0  0  0  0  0  0
  -15.8686  -28.0876   22.7053 H   0  0  0  0  0  0
  -24.5807  -30.7139   25.7748 H   0  0  0  0  0  0
  -24.8811  -32.2966   26.4794 H   0  0  0  0  0  0
  -25.7907  -30.9005   27.0254 H   0  0  0  0  0  0
  -26.2953  -29.6785   24.1199 H   0  0  0  0  0  0
  -27.4049  -29.7316   25.4707 H   0  0  0  0  0  0
  -27.8787  -30.4365   23.9430 H   0  0  0  0  0  0
  -27.2578  -33.3737   26.2000 H   0  0  0  0  0  0
  -28.3852  -32.6923   25.0393 H   0  0  0  0  0  0
  -28.0585  -31.8588   26.5521 H   0  0  0  0  0  0
  -28.2587  -38.0158   24.7549 H   0  0  0  0  0  0
  -28.1153  -36.2681   24.6240 H   0  0  0  0  0  0
  -27.2255  -37.1422   25.8820 H   0  0  0  0  0  0
  -20.9337  -29.8861   21.6911 H   0  0  0  0  0  0
  -26.0215  -38.2860   24.1441 H   0  0  0  0  0  0
  -28.6799  -20.2264   17.9330 H   0  0  0  0  0  0
  -30.0131  -18.6075   21.7286 H   0  0  0  0  0  0
  -29.3340  -16.0176   18.3287 H   0  0  0  0  0  0
  -28.7199  -22.2826   18.6779 H   0  0  0  0  0  0
  -27.4231  -21.8492   19.7696 H   0  0  0  0  0  0
  -28.0498  -23.5789   21.3502 H   0  0  0  0  0  0
  -27.4958  -24.7157   19.0230 H   0  0  0  0  0  0
  -29.1606  -24.9948   18.8440 H   0  0  0  0  0  0
  -28.0322  -18.6724   16.2514 H   0  0  0  0  0  0
  -28.3919  -17.0201   16.3476 H   0  0  0  0  0  0
  -29.2050  -15.6564   21.5533 H   0  0  0  0  0  0
  1 25  1  0  0  0
  1 30  2  0  0  0
  1 84  1  0  0  0
  2  3  1  0  0  0
  2 25  1  0  0  0
  2 87  1  0  0  0
  2 88  1  0  0  0
  3  4  1  0  0  0
  3 89  1  0  0  0
  3 90  1  0  0  0
  4  5  1  0  0  0
  4 91  1  0  0  0
  4 92  1  0  0  0
  5  6  1  0  0  0
  5 26  1  0  0  0
  5 93  1  0  0  0
  6 25  1  0  0  0
  6 94  1  0  0  0
  6 95  1  0  0  0
  7  8  2  0  0  0
  7 26  1  0  0  0
  7 29  1  0  0  0
  8  9  1  0  0  0
  8 22  1  0  0  0
  9 10  1  0  0  0
  9 27  2  0  0  0
 10 11  2  0  0  0
 10 15  1  0  0  0
 11 12  1  0  0  0
 11 96  1  0  0  0
 12 13  2  0  0  0
 12 97  1  0  0  0
 13 14  1  0  0  0
 13 31  1  0  0  0
 14 15  2  0  0  0
 14 98  1  0  0  0
 15 99  1  0  0  0
 16 17  2  0  0  0
 16 21  1  0  0  0
 16 31  1  0  0  0
 17 18  1  0  0  0
 17100  1  0  0  0
 18 19  2  0  0  0
 18101  1  0  0  0
 19 20  1  0  0  0
 19 24  1  0  0  0
 20 21  2  0  0  0
 20102  1  0  0  0
 21 23  1  0  0  0
 22 28  1  0  0  0
 22 32  2  0  0  0
 26 27  1  0  0  0
 28103  1  0  0  0
 28104  1  0  0  0
 29105  1  0  0  0
 29106  1  0  0  0
 33 34  1  0  0  0
 33 66  1  0  0  0
 33 70  2  0  0  0
 34 36  1  0  0  0
 34 59  1  0  0  0
 34107  1  0  0  0
 35 44  2  0  0  0
 35 45  1  0  0  0
 35 68  1  0  0  0
 36 56  1  0  0  0
 36108  1  0  0  0
 37 39  1  0  0  0
 37 47  1  0  0  0
 37 66  1  0  0  0
 37109  1  0  0  0
 38 43  2  0  0  0
 38 46  1  0  0  0
 38 47  1  0  0  0
 39 64  1  0  0  0
 39 67  2  0  0  0
 40 52  1  0  0  0
 40 53  2  0  0  0
 40 58  1  0  0  0
 41110  1  0  0  0
 41111  1  0  0  0
 41112  1  0  0  0
 41 48  1  0  0  0
 42 43  1  0  0  0
 42 66  1  0  0  0
 42113  1  0  0  0
 42114  1  0  0  0
 43 44  1  0  0  0
 44115  1  0  0  0
 45 46  2  0  0  0
 45116  1  0  0  0
 46117  1  0  0  0
 47118  1  0  0  0
 47119  1  0  0  0
 48 56  1  0  0  0
 48 65  1  0  0  0
 48120  1  0  0  0
 49 50  1  0  0  0
 49 53  1  0  0  0
 49 64  1  0  0  0
 49121  1  0  0  0
 50 51  1  0  0  0
 50122  1  0  0  0
 50123  1  0  0  0
 51 52  1  0  0  0
 51124  1  0  0  0
 51125  1  0  0  0
 52126  1  0  0  0
 52127  1  0  0  0
 53 54  1  0  0  0
 54 55  2  0  0  0
 54128  1  0  0  0
 55 57  1  0  0  0
 55129  1  0  0  0
 56 69  2  0  0  0
 57 58  2  0  0  0
 57130  1  0  0  0
 58131  1  0  0  0
 59 60  1  0  0  0
 59 61  1  0  0  0
 59 62  1  0  0  0
 60132  1  0  0  0
 60133  1  0  0  0
 60134  1  0  0  0
 61135  1  0  0  0
 61136  1  0  0  0
 61137  1  0  0  0
 62138  1  0  0  0
 62139  1  0  0  0
 62140  1  0  0  0
 63 65  1  0  0  0
 63141  1  0  0  0
 63142  1  0  0  0
 63143  1  0  0  0
 64144  1  0  0  0
 65145  1  0  0  0
 68 81  1  0  0  0
 71 74  2  0  0  0
 71 75  1  0  0  0
 71146  1  0  0  0
 72 74  1  0  0  0
 72 76  2  0  0  0
 72147  1  0  0  0
 73 75  2  0  0  0
 73 76  1  0  0  0
 73148  1  0  0  0
 74 82  1  0  0  0
 75 83  1  0  0  0
 76 84  1  0  0  0
 77 78  1  0  0  0
 77 80  1  0  0  0
 77 85  2  0  0  0
 78 82  1  0  0  0
 78 86  2  0  0  0
 79 80  1  0  0  0
 79 82  1  0  0  0
 79149  1  0  0  0
 79150  1  0  0  0
 80 81  1  0  0  0
 80151  1  0  0  0
 81152  1  0  0  0
 81153  1  0  0  0
 83154  1  0  0  0
 83155  1  0  0  0
 84156  1  0  0  0
M  ISO  4   1 100  68 101  81 101  84 100
M  END
> <chiral flag>
0

> <version>
0

> <s_m_source_file>
/data/baiqing/PycharmProjects/Reinvent-master-3.2/result/LINK_invent/BTK/process_docking_weight1_custom_product_contain_oxygen_bond_distance_aromatic_linkinvent_7_9_3/rearranged_h_0069.sdf

> <i_m_source_file_index>
87

> <r_mmod_Potential_Energy-OPLS-2005>
320.146484375

> <r_mmod_Stretch_Energy-OPLS-2005>
137.377426147461

> <r_mmod_Bend_Energy-OPLS-2005>
218.759918212891

> <r_mmod_Torsional_Energy-OPLS-2005>
275.62158203125

> <r_mmod_Improper_Torsional_Energy-OPLS-2005>
8.75628280639648

> <r_mmod_Van_der_Waal_Energy-OPLS-2005>
132.106048583984

> <r_mmod_Electrostatic_Energy-OPLS-2005>
-261.28369140625

> <r_mmod_Solvation_Energy-OPLS-2005>
-275.523284912109

> <b_mmod_Minimization_Converged-OPLS-2005>
0

> <r_mmod_RMS_Derivative-OPLS-2005>
5.92659664154053

$$$$
89
                    3D
 Structure written by MMmdl.
158166  0  0  1  0            999 V2000
  -30.5861  -14.7999   20.4641 C   0  0  0  0  0  0
  -30.4345  -12.4882   19.4954 C   0  0  0  0  0  0
  -29.5147  -12.5271   18.2534 C   0  0  0  0  0  0
  -28.0434  -12.3316   18.6633 C   0  0  0  0  0  0
  -27.6431  -13.2235   19.8664 C   0  0  2  0  0  0
  -28.6868  -13.1773   21.0055 C   0  0  0  0  0  0
  -25.2539  -13.8223   20.5647 C   0  0  0  0  0  0
  -24.1790  -13.0474   20.9090 C   0  0  0  0  0  0
  -24.6362  -11.6936   20.8698 C   0  0  0  0  0  0
  -23.9043  -10.4311   21.0380 C   0  0  0  0  0  0
  -24.3605   -9.4234   21.9164 C   0  0  0  0  0  0
  -23.6289   -8.2262   22.0742 C   0  0  0  0  0  0
  -22.4271   -8.0288   21.3537 C   0  0  0  0  0  0
  -21.9899   -9.0252   20.4635 C   0  0  0  0  0  0
  -22.7214  -10.2140   20.3037 C   0  0  0  0  0  0
  -21.6859   -6.0738   22.5274 C   0  0  0  0  0  0
  -21.4015   -6.5638   23.8211 C   0  0  0  0  0  0
  -21.3666   -5.6791   24.9171 C   0  0  0  0  0  0
  -21.6050   -4.3053   24.7224 C   0  0  0  0  0  0
  -21.8820   -3.8147   23.4344 C   0  0  0  0  0  0
  -21.9195   -4.6963   22.3400 C   0  0  0  0  0  0
  -22.7826  -13.5258   21.1808 C   0  0  0  0  0  0
  -22.1662   -4.2148   21.0978 F   0  0  0  0  0  0
  -21.5633   -3.4543   25.7740 F   0  0  0  0  0  0
  -29.9889  -13.5510   20.4353 N   0  0  0  0  0  0
  -26.2950  -12.9369   20.3384 N   0  0  0  0  0  0
  -25.9304  -11.6529   20.5805 N   0  0  0  0  0  0
  -22.0496  -12.8230   22.0377 N   0  0  0  0  0  0
  -25.4405  -15.1978   20.4131 N   0  0  0  0  0  0
  -31.7313  -14.9260   20.0195 O   0  0  0  0  0  0
  -21.6646   -6.8879   21.4236 O   0  0  0  0  0  0
  -22.3511  -14.5587   20.6710 O   0  0  0  0  0  0
  -24.6359  -31.8520   23.1973 C   0  0  0  0  0  0
  -25.9172  -32.4737   23.8327 C   0  0  1  0  0  0
  -27.2156  -27.2155   20.1439 C   0  0  0  0  0  0
  -25.5957  -33.8544   24.2247 N   0  0  0  0  0  0
  -23.4353  -30.4748   21.5400 C   0  0  2  0  0  0
  -24.8848  -28.9183   20.1096 C   0  0  0  0  0  0
  -22.7522  -29.4594   22.4892 C   0  0  0  0  0  0
  -18.0296  -28.1397   22.8487 C   0  0  0  0  0  0
  -24.1490  -36.7264   23.2642 C   0  0  0  0  0  0
  -25.9860  -30.7476   21.3902 C   0  0  0  0  0  0
  -26.0565  -29.3666   20.7330 C   0  0  0  0  0  0
  -27.2223  -28.5264   20.7451 C   0  0  0  0  0  0
  -26.0298  -26.8643   19.4590 C   0  0  0  0  0  0
  -24.8788  -27.6755   19.4607 C   0  0  0  0  0  0
  -23.6574  -29.8101   20.1562 C   0  0  0  0  0  0
  -25.4122  -36.3057   24.0322 C   0  0  1  0  0  0
  -20.5904  -28.3719   23.1249 C   0  0  2  0  0  0
  -20.6786  -26.9432   22.5406 C   0  0  0  0  0  0
  -19.5757  -26.6384   21.5218 C   0  0  0  0  0  0
  -18.1934  -26.7940   22.1625 C   0  0  0  0  0  0
  -19.1553  -28.8877   23.2859 C   0  0  0  0  0  0
  -18.9474  -30.1476   23.8883 C   0  0  0  0  0  0
  -17.6472  -30.6597   24.0566 C   0  0  0  0  0  0
  -25.9067  -34.9429   23.5083 C   0  0  0  0  0  0
  -16.5362  -29.9093   23.6344 C   0  0  0  0  0  0
  -16.7281  -28.6509   23.0365 C   0  0  0  0  0  0
  -26.4526  -31.6585   25.0742 C   0  0  0  0  0  0
  -25.3728  -31.3749   26.1443 C   0  0  0  0  0  0
  -27.0406  -30.2997   24.6289 C   0  0  0  0  0  0
  -27.6061  -32.4355   25.7515 C   0  0  0  0  0  0
  -27.5576  -37.1788   24.8469 C   0  0  0  0  0  0
  -21.4225  -29.3051   22.3623 N   0  0  0  0  0  0
  -26.4292  -37.3758   23.9408 N   0  0  0  0  0  0
  -24.7043  -31.0445   22.0974 N   0  0  0  0  0  0
  -23.4195  -28.8131   23.3011 O   0  0  0  0  0  0
  -28.2773  -26.2646   20.2063 O   0  0  0  0  0  0
  -26.5628  -34.8904   22.4649 O   0  0  0  0  0  0
  -23.5497  -32.1372   23.7234 O   0  0  0  0  0  0
  -28.1171  -19.4414   19.0583 C   0  0  0  0  0  0
  -28.5739  -17.0288   19.1939 C   0  0  0  0  0  0
  -29.6798  -18.5765   20.7116 C   0  0  0  0  0  0
  -27.8809  -18.1168   18.6279 C   0  0  0  0  0  0
  -29.0194  -19.7479   20.1057 C   0  0  0  0  0  0
  -29.4669  -17.1861   20.2718 C   0  0  0  0  0  0
  -28.8421  -23.7326   20.3007 C   0  0  0  0  0  0
  -27.9954  -24.8483   20.2929 C   0  0  0  0  0  0
  -26.8731  -17.8522   17.6034 C   0  0  0  0  0  0
  -28.3453  -22.2916   20.3061 C   0  0  0  0  0  0
  -25.8868  -18.4789   15.3679 C   0  0  0  0  0  0
  -25.9845  -16.8713   17.7691 N   0  0  0  0  0  0
  -29.2312  -21.2097   20.4262 N   0  0  0  0  0  0
  -29.8779  -15.9062   20.9389 N   0  0  0  0  0  0
  -26.8335  -18.5952   16.4901 N   0  3  0  0  0  0
  -27.1378  -22.0559   20.2163 O   0  0  0  0  0  0
  -31.4755  -12.6145   19.1932 H   0  0  0  0  0  0
  -30.3850  -11.5106   19.9773 H   0  0  0  0  0  0
  -29.8090  -11.7575   17.5392 H   0  0  0  0  0  0
  -29.6307  -13.4820   17.7385 H   0  0  0  0  0  0
  -27.9097  -11.2817   18.9256 H   0  0  0  0  0  0
  -27.3837  -12.5208   17.8153 H   0  0  0  0  0  0
  -27.6215  -14.2366   19.4818 H   0  0  0  0  0  0
  -28.7351  -12.1801   21.4455 H   0  0  0  0  0  0
  -28.4025  -13.8507   21.8146 H   0  0  0  0  0  0
  -25.2748   -9.5728   22.4742 H   0  0  0  0  0  0
  -24.0009   -7.4661   22.7459 H   0  0  0  0  0  0
  -21.0829   -8.8758   19.8941 H   0  0  0  0  0  0
  -22.3653  -10.9670   19.6147 H   0  0  0  0  0  0
  -21.2001   -7.6147   23.9718 H   0  0  0  0  0  0
  -21.1488   -6.0517   25.9076 H   0  0  0  0  0  0
  -22.0588   -2.7607   23.2844 H   0  0  0  0  0  0
  -22.4108  -11.9863   22.4717 H   0  0  0  0  0  0
  -21.1126  -13.1262   22.2625 H   0  0  0  0  0  0
  -24.6760  -15.7650   20.7647 H   0  0  0  0  0  0
  -26.3310  -15.5421   20.7485 H   0  0  0  0  0  0
  -26.7237  -32.5366   23.1058 H   0  0  0  0  0  0
  -25.0143  -33.9684   25.0421 H   0  0  0  0  0  0
  -22.7346  -31.2993   21.3919 H   0  0  0  0  0  0
  -23.3765  -35.9584   23.3304 H   0  0  0  0  0  0
  -24.3578  -36.8893   22.2057 H   0  0  0  0  0  0
  -23.7232  -37.6455   23.6678 H   0  0  0  0  0  0
  -26.1392  -31.5059   20.6213 H   0  0  0  0  0  0
  -26.8570  -30.7908   22.0316 H   0  0  0  0  0  0
  -28.1135  -28.8591   21.2586 H   0  0  0  0  0  0
  -25.9655  -25.9243   18.9315 H   0  0  0  0  0  0
  -23.9873  -27.3315   18.9544 H   0  0  0  0  0  0
  -23.7861  -30.5876   19.4026 H   0  0  0  0  0  0
  -22.7745  -29.2472   19.8483 H   0  0  0  0  0  0
  -25.1311  -36.1895   25.0815 H   0  0  0  0  0  0
  -21.0002  -28.3308   24.1366 H   0  0  0  0  0  0
  -20.5705  -26.2331   23.3617 H   0  0  0  0  0  0
  -21.6649  -26.7453   22.1187 H   0  0  0  0  0  0
  -19.6920  -25.6289   21.1261 H   0  0  0  0  0  0
  -19.6697  -27.3181   20.6737 H   0  0  0  0  0  0
  -17.4209  -26.6704   21.4018 H   0  0  0  0  0  0
  -18.0324  -26.0077   22.9016 H   0  0  0  0  0  0
  -19.7949  -30.7301   24.2238 H   0  0  0  0  0  0
  -17.5025  -31.6278   24.5168 H   0  0  0  0  0  0
  -15.5364  -30.2992   23.7679 H   0  0  0  0  0  0
  -15.8679  -28.0822   22.7097 H   0  0  0  0  0  0
  -24.5911  -30.7094   25.7760 H   0  0  0  0  0  0
  -24.8912  -32.2923   26.4836 H   0  0  0  0  0  0
  -25.8021  -30.8942   27.0243 H   0  0  0  0  0  0
  -26.3026  -29.6711   24.1293 H   0  0  0  0  0  0
  -27.4046  -29.7299   25.4851 H   0  0  0  0  0  0
  -27.8917  -30.4268   23.9595 H   0  0  0  0  0  0
  -27.2659  -33.3676   26.2040 H   0  0  0  0  0  0
  -28.3889  -32.6886   25.0354 H   0  0  0  0  0  0
  -28.0712  -31.8522   26.5471 H   0  0  0  0  0  0
  -28.2590  -38.0089   24.7523 H   0  0  0  0  0  0
  -28.1077  -36.2618   24.6299 H   0  0  0  0  0  0
  -27.2289  -37.1436   25.8869 H   0  0  0  0  0  0
  -20.9424  -29.8763   21.6810 H   0  0  0  0  0  0
  -26.0166  -38.2828   24.1416 H   0  0  0  0  0  0
  -27.5755  -20.2354   18.5644 H   0  0  0  0  0  0
  -28.3691  -16.0458   18.8038 H   0  0  0  0  0  0
  -30.3440  -18.7458   21.5459 H   0  0  0  0  0  0
  -29.9081  -23.9004   20.2695 H   0  0  0  0  0  0
  -26.9327  -24.6663   20.3594 H   0  0  0  0  0  0
  -26.1021  -19.2289   14.6059 H   0  0  0  0  0  0
  -24.8598  -18.6298   15.7044 H   0  0  0  0  0  0
  -25.9549  -17.4960   14.8990 H   0  0  0  0  0  0
  -25.9223  -16.3679   18.6496 H   0  0  0  0  0  0
  -25.2908  -16.6657   17.0716 H   0  0  0  0  0  0
  -30.1708  -21.4586   20.7045 H   0  0  0  0  0  0
  -29.1716  -15.5934   21.5881 H   0  0  0  0  0  0
  -27.5597  -19.2953   16.3913 H   0  0  0  0  0  0
  1 25  1  0  0  0
  1 30  2  0  0  0
  1 84  1  0  0  0
  2  3  1  0  0  0
  2 25  1  0  0  0
  2 87  1  0  0  0
  2 88  1  0  0  0
  3  4  1  0  0  0
  3 89  1  0  0  0
  3 90  1  0  0  0
  4  5  1  0  0  0
  4 91  1  0  0  0
  4 92  1  0  0  0
  5  6  1  0  0  0
  5 26  1  0  0  0
  5 93  1  0  0  0
  6 25  1  0  0  0
  6 94  1  0  0  0
  6 95  1  0  0  0
  7  8  2  0  0  0
  7 26  1  0  0  0
  7 29  1  0  0  0
  8  9  1  0  0  0
  8 22  1  0  0  0
  9 10  1  0  0  0
  9 27  2  0  0  0
 10 11  2  0  0  0
 10 15  1  0  0  0
 11 12  1  0  0  0
 11 96  1  0  0  0
 12 13  2  0  0  0
 12 97  1  0  0  0
 13 14  1  0  0  0
 13 31  1  0  0  0
 14 15  2  0  0  0
 14 98  1  0  0  0
 15 99  1  0  0  0
 16 17  2  0  0  0
 16 21  1  0  0  0
 16 31  1  0  0  0
 17 18  1  0  0  0
 17100  1  0  0  0
 18 19  2  0  0  0
 18101  1  0  0  0
 19 20  1  0  0  0
 19 24  1  0  0  0
 20 21  2  0  0  0
 20102  1  0  0  0
 21 23  1  0  0  0
 22 28  1  0  0  0
 22 32  2  0  0  0
 26 27  1  0  0  0
 28103  1  0  0  0
 28104  1  0  0  0
 29105  1  0  0  0
 29106  1  0  0  0
 33 34  1  0  0  0
 33 66  1  0  0  0
 33 70  2  0  0  0
 34 36  1  0  0  0
 34 59  1  0  0  0
 34107  1  0  0  0
 35 44  2  0  0  0
 35 45  1  0  0  0
 35 68  1  0  0  0
 36 56  1  0  0  0
 36108  1  0  0  0
 37 39  1  0  0  0
 37 47  1  0  0  0
 37 66  1  0  0  0
 37109  1  0  0  0
 38 43  2  0  0  0
 38 46  1  0  0  0
 38 47  1  0  0  0
 39 64  1  0  0  0
 39 67  2  0  0  0
 40 52  1  0  0  0
 40 53  2  0  0  0
 40 58  1  0  0  0
 41110  1  0  0  0
 41111  1  0  0  0
 41112  1  0  0  0
 41 48  1  0  0  0
 42 43  1  0  0  0
 42 66  1  0  0  0
 42113  1  0  0  0
 42114  1  0  0  0
 43 44  1  0  0  0
 44115  1  0  0  0
 45 46  2  0  0  0
 45116  1  0  0  0
 46117  1  0  0  0
 47118  1  0  0  0
 47119  1  0  0  0
 48 56  1  0  0  0
 48 65  1  0  0  0
 48120  1  0  0  0
 49 50  1  0  0  0
 49 53  1  0  0  0
 49 64  1  0  0  0
 49121  1  0  0  0
 50 51  1  0  0  0
 50122  1  0  0  0
 50123  1  0  0  0
 51 52  1  0  0  0
 51124  1  0  0  0
 51125  1  0  0  0
 52126  1  0  0  0
 52127  1  0  0  0
 53 54  1  0  0  0
 54 55  2  0  0  0
 54128  1  0  0  0
 55 57  1  0  0  0
 55129  1  0  0  0
 56 69  2  0  0  0
 57 58  2  0  0  0
 57130  1  0  0  0
 58131  1  0  0  0
 59 60  1  0  0  0
 59 61  1  0  0  0
 59 62  1  0  0  0
 60132  1  0  0  0
 60133  1  0  0  0
 60134  1  0  0  0
 61135  1  0  0  0
 61136  1  0  0  0
 61137  1  0  0  0
 62138  1  0  0  0
 62139  1  0  0  0
 62140  1  0  0  0
 63 65  1  0  0  0
 63141  1  0  0  0
 63142  1  0  0  0
 63143  1  0  0  0
 64144  1  0  0  0
 65145  1  0  0  0
 68 78  1  0  0  0
 71 74  2  0  0  0
 71 75  1  0  0  0
 71146  1  0  0  0
 72 74  1  0  0  0
 72 76  2  0  0  0
 72147  1  0  0  0
 73 75  2  0  0  0
 73 76  1  0  0  0
 73148  1  0  0  0
 74 79  1  0  0  0
 75 83  1  0  0  0
 76 84  1  0  0  0
 77 78  2  0  0  0
 77 80  1  0  0  0
 77149  1  0  0  0
 78150  1  0  0  0
 79 82  1  0  0  0
 79 85  2  0  0  0
 80 83  1  0  0  0
 80 86  2  0  0  0
 81 85  1  0  0  0
 81151  1  0  0  0
 81152  1  0  0  0
 81153  1  0  0  0
 82154  1  0  0  0
 82155  1  0  0  0
 83156  1  0  0  0
 84157  1  0  0  0
 85158  1  0  0  0
M  CHG  1  85   1
M  ISO  4   1 100  68 101  78 101  84 100
M  END
> <chiral flag>
0

> <version>
0

> <s_m_source_file>
/data/baiqing/PycharmProjects/Reinvent-master-3.2/result/LINK_invent/BTK/process_docking_weight1_custom_product_contain_oxygen_bond_distance_aromatic_linkinvent_7_9_3/rearranged_h_0069.sdf

> <i_m_source_file_index>
88

> <r_mmod_Potential_Energy-OPLS-2005>
-41.2478942871094

> <r_mmod_Stretch_Energy-OPLS-2005>
154.926559448242

> <r_mmod_Bend_Energy-OPLS-2005>
176.220062255859

> <r_mmod_Torsional_Energy-OPLS-2005>
287.087493896484

> <r_mmod_Improper_Torsional_Energy-OPLS-2005>
11.412073135376

> <r_mmod_Van_der_Waal_Energy-OPLS-2005>
143.278610229492

> <r_mmod_Electrostatic_Energy-OPLS-2005>
-494.387115478516

> <r_mmod_Solvation_Energy-OPLS-2005>
-435.437896728516

> <b_mmod_Minimization_Converged-OPLS-2005>
0

> <r_mmod_RMS_Derivative-OPLS-2005>
0.937239468097687

$$$$
90
                    3D
 Structure written by MMmdl.
155163  0  0  1  0            999 V2000
  -30.6624  -14.5757   20.5205 C   0  0  0  0  0  0
  -30.4323  -12.3592   19.4420 C   0  0  0  0  0  0
  -29.5024  -12.4921   18.2174 C   0  0  0  0  0  0
  -28.0245  -12.3428   18.6321 C   0  0  0  0  0  0
  -27.6533  -13.2122   19.8632 C   0  0  2  0  0  0
  -28.6989  -13.0590   20.9903 C   0  0  0  0  0  0
  -25.2559  -13.8167   20.5691 C   0  0  0  0  0  0
  -24.1826  -13.0443   20.9211 C   0  0  0  0  0  0
  -24.6387  -11.6913   20.8758 C   0  0  0  0  0  0
  -23.9059  -10.4297   21.0424 C   0  0  0  0  0  0
  -24.3610   -9.4207   21.9199 C   0  0  0  0  0  0
  -23.6288   -8.2242   22.0758 C   0  0  0  0  0  0
  -22.4271   -8.0283   21.3543 C   0  0  0  0  0  0
  -21.9901   -9.0263   20.4652 C   0  0  0  0  0  0
  -22.7232  -10.2141   20.3074 C   0  0  0  0  0  0
  -21.6845   -6.0740   22.5282 C   0  0  0  0  0  0
  -21.4011   -6.5643   23.8215 C   0  0  0  0  0  0
  -21.3660   -5.6796   24.9175 C   0  0  0  0  0  0
  -21.6041   -4.3059   24.7223 C   0  0  0  0  0  0
  -21.8819   -3.8150   23.4345 C   0  0  0  0  0  0
  -21.9188   -4.6968   22.3401 C   0  0  0  0  0  0
  -22.7846  -13.5238   21.1864 C   0  0  0  0  0  0
  -22.1661   -4.2157   21.0978 F   0  0  0  0  0  0
  -21.5625   -3.4539   25.7732 F   0  0  0  0  0  0
  -30.0161  -13.3777   20.4201 N   0  0  0  0  0  0
  -26.2985  -12.9343   20.3331 N   0  0  0  0  0  0
  -25.9313  -11.6502   20.5772 N   0  0  0  0  0  0
  -22.0476  -12.8248   22.0419 N   0  0  0  0  0  0
  -25.4259  -15.1890   20.4081 N   0  0  0  0  0  0
  -31.8387  -14.7145   20.1754 O   0  0  0  0  0  0
  -21.6633   -6.8885   21.4245 O   0  0  0  0  0  0
  -22.3553  -14.5554   20.6715 O   0  0  0  0  0  0
  -24.6226  -31.8644   23.2069 C   0  0  0  0  0  0
  -25.9096  -32.4806   23.8381 C   0  0  1  0  0  0
  -27.2255  -27.3627   20.1051 C   0  0  0  0  0  0
  -25.5923  -33.8602   24.2308 N   0  0  0  0  0  0
  -23.4132  -30.4898   21.5493 C   0  0  2  0  0  0
  -24.8573  -28.9513   20.1143 C   0  0  0  0  0  0
  -22.7456  -29.4646   22.4960 C   0  0  0  0  0  0
  -18.0281  -28.1386   22.8493 C   0  0  0  0  0  0
  -24.1486  -36.7303   23.2639 C   0  0  0  0  0  0
  -25.9511  -30.8093   21.3698 C   0  0  0  0  0  0
  -26.0258  -29.4409   20.7111 C   0  0  0  0  0  0
  -27.2141  -28.6597   20.6935 C   0  0  0  0  0  0
  -26.0289  -26.9108   19.4995 C   0  0  0  0  0  0
  -24.8587  -27.6898   19.5021 C   0  0  0  0  0  0
  -23.6249  -29.8278   20.1632 C   0  0  0  0  0  0
  -25.4110  -36.3099   24.0335 C   0  0  1  0  0  0
  -20.5881  -28.3682   23.1298 C   0  0  2  0  0  0
  -20.6768  -26.9411   22.5411 C   0  0  0  0  0  0
  -19.5741  -26.6389   21.5214 C   0  0  0  0  0  0
  -18.1924  -26.7933   22.1630 C   0  0  0  0  0  0
  -19.1532  -28.8849   23.2893 C   0  0  0  0  0  0
  -18.9455  -30.1455   23.8904 C   0  0  0  0  0  0
  -17.6455  -30.6589   24.0565 C   0  0  0  0  0  0
  -25.9043  -34.9468   23.5118 C   0  0  0  0  0  0
  -16.5348  -29.9086   23.6331 C   0  0  0  0  0  0
  -16.7268  -28.6506   23.0350 C   0  0  0  0  0  0
  -26.4487  -31.6606   25.0739 C   0  0  0  0  0  0
  -25.3732  -31.3725   26.1474 C   0  0  0  0  0  0
  -27.0325  -30.3040   24.6166 C   0  0  0  0  0  0
  -27.6061  -32.4329   25.7501 C   0  0  0  0  0  0
  -27.5578  -37.1809   24.8468 C   0  0  0  0  0  0
  -21.4174  -29.3045   22.3700 N   0  0  0  0  0  0
  -26.4291  -37.3789   23.9409 N   0  0  0  0  0  0
  -24.6814  -31.0691   22.0999 N   0  0  0  0  0  0
  -23.4204  -28.8175   23.3011 O   0  0  0  0  0  0
  -28.3678  -26.5596   20.1316 O   0  0  0  0  0  0
  -26.5606  -34.8930   22.4682 O   0  0  0  0  0  0
  -23.5403  -32.1420   23.7428 O   0  0  0  0  0  0
  -29.5929  -18.0781   20.1547 C   0  0  0  0  0  0
  -31.0700  -19.7815   21.0871 C   0  0  0  0  0  0
  -31.3180  -17.4299   21.7443 C   0  0  0  0  0  0
  -30.0083  -19.4522   20.2176 C   0  0  0  0  0  0
  -30.2674  -17.0467   20.8806 C   0  0  0  0  0  0
  -31.7062  -18.7827   21.8517 C   0  0  0  0  0  0
  -29.4914  -20.4719   19.2483 C   0  0  0  0  0  0
  -29.2926  -22.6997   20.5357 C   0  0  0  0  0  0
  -29.4723  -24.2351   20.2640 C   0  0  0  0  0  0
  -28.1764  -25.1046   20.1217 C   0  0  0  0  0  0
  -29.8748  -15.6557   20.7825 N   0  0  0  0  0  0
  -29.3314  -21.8273   19.3796 N   0  0  0  0  0  0
  -29.2268  -19.9918   18.0271 N   0  3  0  0  0  0
  -29.1755  -22.2483   21.6781 O   0  0  0  0  0  0
  -32.7254  -19.1230   22.6772 F   0  0  0  0  0  0
  -31.4748  -12.4739   19.1404 H   0  0  0  0  0  0
  -30.3547  -11.3641   19.8818 H   0  0  0  0  0  0
  -29.7581  -11.7406   17.4695 H   0  0  0  0  0  0
  -29.6538  -13.4622   17.7421 H   0  0  0  0  0  0
  -27.8530  -11.2905   18.8600 H   0  0  0  0  0  0
  -27.3703  -12.5814   17.7935 H   0  0  0  0  0  0
  -27.6747  -14.2484   19.5251 H   0  0  0  0  0  0
  -28.6976  -12.0398   21.3801 H   0  0  0  0  0  0
  -28.4572  -13.7027   21.8382 H   0  0  0  0  0  0
  -25.2757   -9.5677   22.4774 H   0  0  0  0  0  0
  -23.9995   -7.4629   22.7475 H   0  0  0  0  0  0
  -21.0830   -8.8795   19.8956 H   0  0  0  0  0  0
  -22.3703  -10.9689   19.6185 H   0  0  0  0  0  0
  -21.2008   -7.6152   23.9720 H   0  0  0  0  0  0
  -21.1482   -6.0525   25.9079 H   0  0  0  0  0  0
  -22.0593   -2.7613   23.2840 H   0  0  0  0  0  0
  -22.4063  -11.9901   22.4808 H   0  0  0  0  0  0
  -21.1104  -13.1297   22.2628 H   0  0  0  0  0  0
  -24.6518  -15.8364   20.5098 H   0  0  0  0  0  0
  -26.2590  -15.6261   20.0371 H   0  0  0  0  0  0
  -26.7166  -32.5486   23.1136 H   0  0  0  0  0  0
  -25.0080  -33.9749   25.0458 H   0  0  0  0  0  0
  -22.7048  -31.3095   21.4105 H   0  0  0  0  0  0
  -23.3745  -35.9637   23.3314 H   0  0  0  0  0  0
  -24.3575  -36.8907   22.2049 H   0  0  0  0  0  0
  -23.7238  -37.6513   23.6644 H   0  0  0  0  0  0
  -26.0779  -31.5761   20.6043 H   0  0  0  0  0  0
  -26.8335  -30.8557   21.9966 H   0  0  0  0  0  0
  -28.1138  -29.0362   21.1600 H   0  0  0  0  0  0
  -25.9634  -25.9487   19.0167 H   0  0  0  0  0  0
  -23.9608  -27.3090   19.0351 H   0  0  0  0  0  0
  -23.7437  -30.6064   19.4091 H   0  0  0  0  0  0
  -22.7442  -29.2583   19.8600 H   0  0  0  0  0  0
  -25.1285  -36.1965   25.0825 H   0  0  0  0  0  0
  -20.9970  -28.3247   24.1421 H   0  0  0  0  0  0
  -20.5677  -26.2285   23.3601 H   0  0  0  0  0  0
  -21.6634  -26.7449   22.1196 H   0  0  0  0  0  0
  -19.6900  -25.6299   21.1239 H   0  0  0  0  0  0
  -19.6680  -27.3201   20.6746 H   0  0  0  0  0  0
  -17.4192  -26.6682   21.4037 H   0  0  0  0  0  0
  -18.0329  -26.0072   22.9024 H   0  0  0  0  0  0
  -19.7926  -30.7274   24.2279 H   0  0  0  0  0  0
  -17.5005  -31.6272   24.5162 H   0  0  0  0  0  0
  -15.5346  -30.2988   23.7651 H   0  0  0  0  0  0
  -15.8669  -28.0828   22.7059 H   0  0  0  0  0  0
  -24.5906  -30.7076   25.7800 H   0  0  0  0  0  0
  -24.8918  -32.2881   26.4923 H   0  0  0  0  0  0
  -25.8068  -30.8889   27.0237 H   0  0  0  0  0  0
  -26.2890  -29.6795   24.1198 H   0  0  0  0  0  0
  -27.4042  -29.7294   25.4661 H   0  0  0  0  0  0
  -27.8750  -30.4338   23.9370 H   0  0  0  0  0  0
  -27.2690  -33.3629   26.2091 H   0  0  0  0  0  0
  -28.3861  -32.6893   25.0320 H   0  0  0  0  0  0
  -28.0740  -31.8447   26.5403 H   0  0  0  0  0  0
  -28.2611  -38.0095   24.7507 H   0  0  0  0  0  0
  -28.1063  -36.2627   24.6304 H   0  0  0  0  0  0
  -27.2298  -37.1475   25.8874 H   0  0  0  0  0  0
  -20.9345  -29.8773   21.6921 H   0  0  0  0  0  0
  -26.0183  -38.2870   24.1406 H   0  0  0  0  0  0
  -28.7862  -17.7992   19.4912 H   0  0  0  0  0  0
  -31.4382  -20.7952   21.1484 H   0  0  0  0  0  0
  -31.8365  -16.6878   22.3338 H   0  0  0  0  0  0
  -30.1011  -24.3732   19.3847 H   0  0  0  0  0  0
  -30.0531  -24.6284   21.0984 H   0  0  0  0  0  0
  -27.4805  -24.8399   20.9194 H   0  0  0  0  0  0
  -27.7154  -24.8009   19.1823 H   0  0  0  0  0  0
  -28.8887  -15.4604   20.8532 H   0  0  0  0  0  0
  -29.3366  -22.2643   18.4750 H   0  0  0  0  0  0
  -28.7422  -20.5125   17.3123 H   0  0  0  0  0  0
  -29.4546  -19.0293   17.8311 H   0  0  0  0  0  0
  1 25  1  0  0  0
  1 30  2  0  0  0
  1 81  1  0  0  0
  2  3  1  0  0  0
  2 25  1  0  0  0
  2 86  1  0  0  0
  2 87  1  0  0  0
  3  4  1  0  0  0
  3 88  1  0  0  0
  3 89  1  0  0  0
  4  5  1  0  0  0
  4 90  1  0  0  0
  4 91  1  0  0  0
  5  6  1  0  0  0
  5 26  1  0  0  0
  5 92  1  0  0  0
  6 25  1  0  0  0
  6 93  1  0  0  0
  6 94  1  0  0  0
  7  8  2  0  0  0
  7 26  1  0  0  0
  7 29  1  0  0  0
  8  9  1  0  0  0
  8 22  1  0  0  0
  9 10  1  0  0  0
  9 27  2  0  0  0
 10 11  2  0  0  0
 10 15  1  0  0  0
 11 12  1  0  0  0
 11 95  1  0  0  0
 12 13  2  0  0  0
 12 96  1  0  0  0
 13 14  1  0  0  0
 13 31  1  0  0  0
 14 15  2  0  0  0
 14 97  1  0  0  0
 15 98  1  0  0  0
 16 17  2  0  0  0
 16 21  1  0  0  0
 16 31  1  0  0  0
 17 18  1  0  0  0
 17 99  1  0  0  0
 18 19  2  0  0  0
 18100  1  0  0  0
 19 20  1  0  0  0
 19 24  1  0  0  0
 20 21  2  0  0  0
 20101  1  0  0  0
 21 23  1  0  0  0
 22 28  1  0  0  0
 22 32  2  0  0  0
 26 27  1  0  0  0
 28102  1  0  0  0
 28103  1  0  0  0
 29104  1  0  0  0
 29105  1  0  0  0
 33 34  1  0  0  0
 33 66  1  0  0  0
 33 70  2  0  0  0
 34 36  1  0  0  0
 34 59  1  0  0  0
 34106  1  0  0  0
 35 44  2  0  0  0
 35 45  1  0  0  0
 35 68  1  0  0  0
 36 56  1  0  0  0
 36107  1  0  0  0
 37 39  1  0  0  0
 37 47  1  0  0  0
 37 66  1  0  0  0
 37108  1  0  0  0
 38 43  2  0  0  0
 38 46  1  0  0  0
 38 47  1  0  0  0
 39 64  1  0  0  0
 39 67  2  0  0  0
 40 52  1  0  0  0
 40 53  2  0  0  0
 40 58  1  0  0  0
 41109  1  0  0  0
 41110  1  0  0  0
 41111  1  0  0  0
 41 48  1  0  0  0
 42 43  1  0  0  0
 42 66  1  0  0  0
 42112  1  0  0  0
 42113  1  0  0  0
 43 44  1  0  0  0
 44114  1  0  0  0
 45 46  2  0  0  0
 45115  1  0  0  0
 46116  1  0  0  0
 47117  1  0  0  0
 47118  1  0  0  0
 48 56  1  0  0  0
 48 65  1  0  0  0
 48119  1  0  0  0
 49 50  1  0  0  0
 49 53  1  0  0  0
 49 64  1  0  0  0
 49120  1  0  0  0
 50 51  1  0  0  0
 50121  1  0  0  0
 50122  1  0  0  0
 51 52  1  0  0  0
 51123  1  0  0  0
 51124  1  0  0  0
 52125  1  0  0  0
 52126  1  0  0  0
 53 54  1  0  0  0
 54 55  2  0  0  0
 54127  1  0  0  0
 55 57  1  0  0  0
 55128  1  0  0  0
 56 69  2  0  0  0
 57 58  2  0  0  0
 57129  1  0  0  0
 58130  1  0  0  0
 59 60  1  0  0  0
 59 61  1  0  0  0
 59 62  1  0  0  0
 60131  1  0  0  0
 60132  1  0  0  0
 60133  1  0  0  0
 61134  1  0  0  0
 61135  1  0  0  0
 61136  1  0  0  0
 62137  1  0  0  0
 62138  1  0  0  0
 62139  1  0  0  0
 63 65  1  0  0  0
 63140  1  0  0  0
 63141  1  0  0  0
 63142  1  0  0  0
 64143  1  0  0  0
 65144  1  0  0  0
 68 80  1  0  0  0
 71 74  2  0  0  0
 71 75  1  0  0  0
 71145  1  0  0  0
 72 74  1  0  0  0
 72 76  2  0  0  0
 72146  1  0  0  0
 73 75  2  0  0  0
 73 76  1  0  0  0
 73147  1  0  0  0
 74 77  1  0  0  0
 75 81  1  0  0  0
 76 85  1  0  0  0
 77 82  1  0  0  0
 77 83  2  0  0  0
 78 79  1  0  0  0
 78 82  1  0  0  0
 78 84  2  0  0  0
 79 80  1  0  0  0
 79148  1  0  0  0
 79149  1  0  0  0
 80150  1  0  0  0
 80151  1  0  0  0
 81152  1  0  0  0
 82153  1  0  0  0
 83154  1  0  0  0
 83155  1  0  0  0
M  CHG  1  83   1
M  ISO  4   1 100  68 101  80 101  81 100
M  END
> <chiral flag>
0

> <version>
0

> <s_m_source_file>
/data/baiqing/PycharmProjects/Reinvent-master-3.2/result/LINK_invent/BTK/process_docking_weight1_custom_product_contain_oxygen_bond_distance_aromatic_linkinvent_7_9_3/rearranged_h_0069.sdf

> <i_m_source_file_index>
89

> <r_mmod_Potential_Energy-OPLS-2005>
-298.739318847656

> <r_mmod_Stretch_Energy-OPLS-2005>
58.897274017334

> <r_mmod_Bend_Energy-OPLS-2005>
137.864959716797

> <r_mmod_Torsional_Energy-OPLS-2005>
244.873016357422

> <r_mmod_Improper_Torsional_Energy-OPLS-2005>
7.75287675857544

> <r_mmod_Van_der_Waal_Energy-OPLS-2005>
148.544967651367

> <r_mmod_Electrostatic_Energy-OPLS-2005>
-442.942138671875

> <r_mmod_Solvation_Energy-OPLS-2005>
-485.868316650391

> <b_mmod_Minimization_Converged-OPLS-2005>
0

> <r_mmod_RMS_Derivative-OPLS-2005>
1.34746766090393

$$$$
91
                    3D
 Structure written by MMmdl.
167176  0  0  1  0            999 V2000
  -30.5819  -14.7052   20.4912 C   0  0  0  0  0  0
  -30.4485  -12.4326   19.4605 C   0  0  0  0  0  0
  -29.5139  -12.5163   18.2311 C   0  0  0  0  0  0
  -28.0377  -12.3422   18.6426 C   0  0  0  0  0  0
  -27.6532  -13.2181   19.8640 C   0  0  2  0  0  0
  -28.6985  -13.0850   20.9946 C   0  0  0  0  0  0
  -25.2568  -13.8172   20.5693 C   0  0  0  0  0  0
  -24.1833  -13.0439   20.9193 C   0  0  0  0  0  0
  -24.6400  -11.6908   20.8739 C   0  0  0  0  0  0
  -23.9068  -10.4291   21.0404 C   0  0  0  0  0  0
  -24.3617   -9.4207   21.9183 C   0  0  0  0  0  0
  -23.6291   -8.2243   22.0753 C   0  0  0  0  0  0
  -22.4274   -8.0281   21.3543 C   0  0  0  0  0  0
  -21.9908   -9.0257   20.4647 C   0  0  0  0  0  0
  -22.7238  -10.2135   20.3056 C   0  0  0  0  0  0
  -21.6854   -6.0736   22.5279 C   0  0  0  0  0  0
  -21.4014   -6.5640   23.8212 C   0  0  0  0  0  0
  -21.3658   -5.6793   24.9174 C   0  0  0  0  0  0
  -21.6046   -4.3056   24.7225 C   0  0  0  0  0  0
  -21.8819   -3.8147   23.4346 C   0  0  0  0  0  0
  -21.9193   -4.6964   22.3402 C   0  0  0  0  0  0
  -22.7856  -13.5234   21.1856 C   0  0  0  0  0  0
  -22.1662   -4.2149   21.0980 F   0  0  0  0  0  0
  -21.5628   -3.4540   25.7738 F   0  0  0  0  0  0
  -30.0081  -13.4559   20.4331 N   0  0  0  0  0  0
  -26.2991  -12.9351   20.3321 N   0  0  0  0  0  0
  -25.9329  -11.6505   20.5755 N   0  0  0  0  0  0
  -22.0496  -12.8225   22.0408 N   0  0  0  0  0  0
  -25.4290  -15.1894   20.4115 N   0  0  0  0  0  0
  -31.7364  -14.8901   20.0919 O   0  0  0  0  0  0
  -21.6639   -6.8879   21.4240 O   0  0  0  0  0  0
  -22.3540  -14.5538   20.6701 O   0  0  0  0  0  0
  -24.6293  -31.8568   23.1997 C   0  0  0  0  0  0
  -25.9126  -32.4763   23.8338 C   0  0  1  0  0  0
  -27.2241  -27.2842   20.1303 C   0  0  0  0  0  0
  -25.5927  -33.8564   24.2264 N   0  0  0  0  0  0
  -23.4254  -30.4787   21.5428 C   0  0  2  0  0  0
  -24.8737  -28.9267   20.1129 C   0  0  0  0  0  0
  -22.7492  -29.4608   22.4925 C   0  0  0  0  0  0
  -18.0290  -28.1388   22.8485 C   0  0  0  0  0  0
  -24.1491  -36.7290   23.2639 C   0  0  0  0  0  0
  -25.9694  -30.7767   21.3763 C   0  0  0  0  0  0
  -26.0440  -29.4001   20.7206 C   0  0  0  0  0  0
  -27.2242  -28.5919   20.7163 C   0  0  0  0  0  0
  -26.0355  -26.8764   19.4866 C   0  0  0  0  0  0
  -24.8730  -27.6713   19.4852 C   0  0  0  0  0  0
  -23.6428  -29.8108   20.1596 C   0  0  0  0  0  0
  -25.4116  -36.3076   24.0327 C   0  0  1  0  0  0
  -20.5892  -28.3695   23.1277 C   0  0  2  0  0  0
  -20.6776  -26.9413   22.5411 C   0  0  0  0  0  0
  -19.5753  -26.6385   21.5213 C   0  0  0  0  0  0
  -18.1933  -26.7930   22.1624 C   0  0  0  0  0  0
  -19.1543  -28.8858   23.2877 C   0  0  0  0  0  0
  -18.9463  -30.1458   23.8897 C   0  0  0  0  0  0
  -17.6463  -30.6587   24.0562 C   0  0  0  0  0  0
  -25.9054  -34.9445   23.5100 C   0  0  0  0  0  0
  -16.5354  -29.9084   23.6331 C   0  0  0  0  0  0
  -16.7277  -28.6501   23.0353 C   0  0  0  0  0  0
  -26.4498  -31.6581   25.0720 C   0  0  0  0  0  0
  -25.3721  -31.3729   26.1442 C   0  0  0  0  0  0
  -27.0339  -30.2996   24.6198 C   0  0  0  0  0  0
  -27.6057  -32.4315   25.7491 C   0  0  0  0  0  0
  -27.5582  -37.1801   24.8463 C   0  0  0  0  0  0
  -21.4201  -29.3043   22.3666 N   0  0  0  0  0  0
  -26.4293  -37.3771   23.9408 N   0  0  0  0  0  0
  -24.6936  -31.0549   22.0963 N   0  0  0  0  0  0
  -23.4200  -28.8152   23.3020 O   0  0  0  0  0  0
  -28.3260  -26.4050   20.1541 O   0  0  0  0  0  0
  -26.5627  -34.8917   22.4670 O   0  0  0  0  0  0
  -23.5447  -32.1381   23.7304 O   0  0  0  0  0  0
  -30.3381  -19.4463   19.9165 C   0  0  0  0  0  0
  -30.5474  -18.0287   19.9853 C   0  0  0  0  0  0
  -28.7203  -17.9099   21.4894 C   0  0  0  0  0  0
  -28.5266  -19.3405   21.4814 C   0  0  0  0  0  0
  -29.3348  -20.1902   20.6231 C   0  0  0  0  0  0
  -29.7202  -17.2006   20.7793 C   0  0  0  0  0  0
  -29.7482  -22.8476   20.9749 C   0  0  0  0  0  0
  -28.2045  -22.3513   19.6655 C   0  0  0  0  0  0
  -28.9162  -23.7365   19.9447 C   0  0  2  0  0  0
  -29.8404  -24.2659   18.8445 C   0  0  0  0  0  0
  -27.1932  -18.9850   23.6772 C   0  0  0  0  0  0
  -26.0638  -19.8690   21.6410 C   0  0  0  0  0  0
  -27.6497  -21.2800   23.0027 C   0  0  0  0  0  0
  -28.0954  -24.9787   20.5665 C   0  0  0  0  0  0
  -27.3931  -19.8734   22.4176 C   0  0  0  0  0  0
  -29.2781  -21.6585   20.3896 N   0  0  0  0  0  0
  -29.7478  -15.7261   20.8954 N   0  0  0  0  0  0
  -30.4716  -23.0379   21.9299 O   0  0  0  0  0  0
  -31.4862  -12.5788   19.1553 H   0  0  0  0  0  0
  -30.4071  -11.4395   19.9108 H   0  0  0  0  0  0
  -29.7883  -11.7583   17.4962 H   0  0  0  0  0  0
  -29.6435  -13.4808   17.7374 H   0  0  0  0  0  0
  -27.8843  -11.2893   18.8821 H   0  0  0  0  0  0
  -27.3814  -12.5598   17.7991 H   0  0  0  0  0  0
  -27.6664  -14.2511   19.5160 H   0  0  0  0  0  0
  -28.7266  -12.0616   21.3721 H   0  0  0  0  0  0
  -28.4313  -13.7066   21.8504 H   0  0  0  0  0  0
  -25.2763   -9.5683   22.4756 H   0  0  0  0  0  0
  -24.0002   -7.4634   22.7472 H   0  0  0  0  0  0
  -21.0839   -8.8776   19.8953 H   0  0  0  0  0  0
  -22.3697  -10.9675   19.6166 H   0  0  0  0  0  0
  -21.2007   -7.6149   23.9715 H   0  0  0  0  0  0
  -21.1481   -6.0524   25.9077 H   0  0  0  0  0  0
  -22.0600   -2.7609   23.2847 H   0  0  0  0  0  0
  -22.4111  -11.9885   22.4796 H   0  0  0  0  0  0
  -21.1114  -13.1250   22.2614 H   0  0  0  0  0  0
  -24.6607  -15.8423   20.5180 H   0  0  0  0  0  0
  -26.2737  -15.6268   20.0662 H   0  0  0  0  0  0
  -26.7194  -32.5424   23.1084 H   0  0  0  0  0  0
  -25.0060  -33.9699   25.0400 H   0  0  0  0  0  0
  -22.7209  -31.3001   21.3965 H   0  0  0  0  0  0
  -23.3751  -35.9624   23.3300 H   0  0  0  0  0  0
  -24.3581  -36.8912   22.2053 H   0  0  0  0  0  0
  -23.7246  -37.6491   23.6663 H   0  0  0  0  0  0
  -26.1042  -31.5376   20.6064 H   0  0  0  0  0  0
  -26.8482  -30.8273   22.0074 H   0  0  0  0  0  0
  -28.1223  -28.9508   21.1995 H   0  0  0  0  0  0
  -25.9933  -25.9214   18.9827 H   0  0  0  0  0  0
  -23.9794  -27.3061   18.9980 H   0  0  0  0  0  0
  -23.7651  -30.5860   19.4023 H   0  0  0  0  0  0
  -22.7621  -29.2418   19.8561 H   0  0  0  0  0  0
  -25.1297  -36.1926   25.0819 H   0  0  0  0  0  0
  -20.9985  -28.3274   24.1398 H   0  0  0  0  0  0
  -20.5673  -26.2305   23.3614 H   0  0  0  0  0  0
  -21.6646  -26.7436   22.1210 H   0  0  0  0  0  0
  -19.6914  -25.6295   21.1243 H   0  0  0  0  0  0
  -19.6692  -27.3194   20.6743 H   0  0  0  0  0  0
  -17.4202  -26.6679   21.4027 H   0  0  0  0  0  0
  -18.0333  -26.0072   22.9021 H   0  0  0  0  0  0
  -19.7938  -30.7275   24.2266 H   0  0  0  0  0  0
  -17.5015  -31.6267   24.5166 H   0  0  0  0  0  0
  -15.5354  -30.2984   23.7655 H   0  0  0  0  0  0
  -15.8678  -28.0819   22.7069 H   0  0  0  0  0  0
  -24.5910  -30.7058   25.7775 H   0  0  0  0  0  0
  -24.8894  -32.2895   26.4841 H   0  0  0  0  0  0
  -25.8040  -30.8931   27.0233 H   0  0  0  0  0  0
  -26.2920  -29.6746   24.1215 H   0  0  0  0  0  0
  -27.4011  -29.7255   25.4716 H   0  0  0  0  0  0
  -27.8802  -30.4266   23.9443 H   0  0  0  0  0  0
  -27.2672  -33.3620   26.2059 H   0  0  0  0  0  0
  -28.3874  -32.6863   25.0323 H   0  0  0  0  0  0
  -28.0717  -31.8443   26.5414 H   0  0  0  0  0  0
  -28.2599  -38.0097   24.7507 H   0  0  0  0  0  0
  -28.1077  -36.2628   24.6292 H   0  0  0  0  0  0
  -27.2300  -37.1453   25.8866 H   0  0  0  0  0  0
  -20.9387  -29.8760   21.6866 H   0  0  0  0  0  0
  -26.0174  -38.2846   24.1402 H   0  0  0  0  0  0
  -30.9989  -19.9989   19.2636 H   0  0  0  0  0  0
  -31.3363  -17.5865   19.3933 H   0  0  0  0  0  0
  -28.0670  -17.2856   22.0729 H   0  0  0  0  0  0
  -28.1546  -22.0797   18.6099 H   0  0  0  0  0  0
  -27.2221  -22.2756   20.1287 H   0  0  0  0  0  0
  -30.4446  -23.4730   18.4016 H   0  0  0  0  0  0
  -30.5267  -25.0209   19.2292 H   0  0  0  0  0  0
  -29.2685  -24.7236   18.0374 H   0  0  0  0  0  0
  -26.7547  -18.0122   23.4587 H   0  0  0  0  0  0
  -26.4994  -19.4382   24.3863 H   0  0  0  0  0  0
  -28.1330  -18.8274   24.2083 H   0  0  0  0  0  0
  -25.7933  -18.8598   21.3279 H   0  0  0  0  0  0
  -26.1127  -20.4754   20.7393 H   0  0  0  0  0  0
  -25.2433  -20.2514   22.2495 H   0  0  0  0  0  0
  -28.6519  -21.3610   23.4252 H   0  0  0  0  0  0
  -26.9479  -21.5215   23.8017 H   0  0  0  0  0  0
  -27.5046  -22.0757   22.2832 H   0  0  0  0  0  0
  -27.0372  -24.7345   20.4927 H   0  0  0  0  0  0
  -28.2610  -24.9859   21.6444 H   0  0  0  0  0  0
  -28.9046  -15.3470   21.2979 H   0  0  0  0  0  0
  1 25  1  0  0  0
  1 30  2  0  0  0
  1 87  1  0  0  0
  2  3  1  0  0  0
  2 25  1  0  0  0
  2 89  1  0  0  0
  2 90  1  0  0  0
  3  4  1  0  0  0
  3 91  1  0  0  0
  3 92  1  0  0  0
  4  5  1  0  0  0
  4 93  1  0  0  0
  4 94  1  0  0  0
  5  6  1  0  0  0
  5 26  1  0  0  0
  5 95  1  0  0  0
  6 25  1  0  0  0
  6 96  1  0  0  0
  6 97  1  0  0  0
  7  8  2  0  0  0
  7 26  1  0  0  0
  7 29  1  0  0  0
  8  9  1  0  0  0
  8 22  1  0  0  0
  9 10  1  0  0  0
  9 27  2  0  0  0
 10 11  2  0  0  0
 10 15  1  0  0  0
 11 12  1  0  0  0
 11 98  1  0  0  0
 12 13  2  0  0  0
 12 99  1  0  0  0
 13 14  1  0  0  0
 13 31  1  0  0  0
 14 15  2  0  0  0
 14100  1  0  0  0
 15101  1  0  0  0
 16 17  2  0  0  0
 16 21  1  0  0  0
 16 31  1  0  0  0
 17 18  1  0  0  0
 17102  1  0  0  0
 18 19  2  0  0  0
 18103  1  0  0  0
 19 20  1  0  0  0
 19 24  1  0  0  0
 20 21  2  0  0  0
 20104  1  0  0  0
 21 23  1  0  0  0
 22 28  1  0  0  0
 22 32  2  0  0  0
 26 27  1  0  0  0
 28105  1  0  0  0
 28106  1  0  0  0
 29107  1  0  0  0
 29108  1  0  0  0
 33 34  1  0  0  0
 33 66  1  0  0  0
 33 70  2  0  0  0
 34 36  1  0  0  0
 34 59  1  0  0  0
 34109  1  0  0  0
 35 44  2  0  0  0
 35 45  1  0  0  0
 35 68  1  0  0  0
 36 56  1  0  0  0
 36110  1  0  0  0
 37 39  1  0  0  0
 37 47  1  0  0  0
 37 66  1  0  0  0
 37111  1  0  0  0
 38 43  2  0  0  0
 38 46  1  0  0  0
 38 47  1  0  0  0
 39 64  1  0  0  0
 39 67  2  0  0  0
 40 52  1  0  0  0
 40 53  2  0  0  0
 40 58  1  0  0  0
 41112  1  0  0  0
 41113  1  0  0  0
 41114  1  0  0  0
 41 48  1  0  0  0
 42 43  1  0  0  0
 42 66  1  0  0  0
 42115  1  0  0  0
 42116  1  0  0  0
 43 44  1  0  0  0
 44117  1  0  0  0
 45 46  2  0  0  0
 45118  1  0  0  0
 46119  1  0  0  0
 47120  1  0  0  0
 47121  1  0  0  0
 48 56  1  0  0  0
 48 65  1  0  0  0
 48122  1  0  0  0
 49 50  1  0  0  0
 49 53  1  0  0  0
 49 64  1  0  0  0
 49123  1  0  0  0
 50 51  1  0  0  0
 50124  1  0  0  0
 50125  1  0  0  0
 51 52  1  0  0  0
 51126  1  0  0  0
 51127  1  0  0  0
 52128  1  0  0  0
 52129  1  0  0  0
 53 54  1  0  0  0
 54 55  2  0  0  0
 54130  1  0  0  0
 55 57  1  0  0  0
 55131  1  0  0  0
 56 69  2  0  0  0
 57 58  2  0  0  0
 57132  1  0  0  0
 58133  1  0  0  0
 59 60  1  0  0  0
 59 61  1  0  0  0
 59 62  1  0  0  0
 60134  1  0  0  0
 60135  1  0  0  0
 60136  1  0  0  0
 61137  1  0  0  0
 61138  1  0  0  0
 61139  1  0  0  0
 62140  1  0  0  0
 62141  1  0  0  0
 62142  1  0  0  0
 63 65  1  0  0  0
 63143  1  0  0  0
 63144  1  0  0  0
 63145  1  0  0  0
 64146  1  0  0  0
 65147  1  0  0  0
 68 84  1  0  0  0
 71 72  2  0  0  0
 71 75  1  0  0  0
 71148  1  0  0  0
 72 76  1  0  0  0
 72149  1  0  0  0
 73 74  1  0  0  0
 73 76  2  0  0  0
 73150  1  0  0  0
 74 75  2  0  0  0
 74 85  1  0  0  0
 75 86  1  0  0  0
 76 87  1  0  0  0
 77 79  1  0  0  0
 77 86  1  0  0  0
 77 88  2  0  0  0
 78 79  1  0  0  0
 78 86  1  0  0  0
 78151  1  0  0  0
 78152  1  0  0  0
 79 80  1  0  0  0
 79 84  1  0  0  0
 80153  1  0  0  0
 80154  1  0  0  0
 80155  1  0  0  0
 81156  1  0  0  0
 81157  1  0  0  0
 81158  1  0  0  0
 81 85  1  0  0  0
 82 85  1  0  0  0
 82159  1  0  0  0
 82160  1  0  0  0
 82161  1  0  0  0
 83 85  1  0  0  0
 83162  1  0  0  0
 83163  1  0  0  0
 83164  1  0  0  0
 84165  1  0  0  0
 84166  1  0  0  0
 87167  1  0  0  0
M  ISO  4   1 100  68 101  84 101  87 100
M  END
> <chiral flag>
0

> <version>
0

> <s_m_source_file>
/data/baiqing/PycharmProjects/Reinvent-master-3.2/result/LINK_invent/BTK/process_docking_weight1_custom_product_contain_oxygen_bond_distance_aromatic_linkinvent_7_9_3/rearranged_h_0069.sdf

> <i_m_source_file_index>
90

> <r_mmod_Potential_Energy-OPLS-2005>
206.272872924805

> <r_mmod_Stretch_Energy-OPLS-2005>
112.67098236084

> <r_mmod_Bend_Energy-OPLS-2005>
215.643997192383

> <r_mmod_Torsional_Energy-OPLS-2005>
284.775421142578

> <r_mmod_Improper_Torsional_Energy-OPLS-2005>
4.57378625869751

> <r_mmod_Van_der_Waal_Energy-OPLS-2005>
146.808120727539

> <r_mmod_Electrostatic_Energy-OPLS-2005>
-411.974090576172

> <r_mmod_Solvation_Energy-OPLS-2005>
-215.105895996094

> <b_mmod_Minimization_Converged-OPLS-2005>
0

> <r_mmod_RMS_Derivative-OPLS-2005>
0.398473918437958

$$$$
92
                    3D
 Structure written by MMmdl.
166175  0  0  1  0            999 V2000
  -30.6697  -14.6188   20.5115 C   0  0  0  0  0  0
  -30.4267  -12.3915   19.4350 C   0  0  0  0  0  0
  -29.4978  -12.5029   18.2086 C   0  0  0  0  0  0
  -28.0218  -12.3457   18.6264 C   0  0  0  0  0  0
  -27.6470  -13.2228   19.8516 C   0  0  2  0  0  0
  -28.6959  -13.1064   20.9788 C   0  0  0  0  0  0
  -25.2538  -13.8185   20.5681 C   0  0  0  0  0  0
  -24.1822  -13.0432   20.9200 C   0  0  0  0  0  0
  -24.6405  -11.6907   20.8720 C   0  0  0  0  0  0
  -23.9078  -10.4283   21.0387 C   0  0  0  0  0  0
  -24.3630   -9.4198   21.9162 C   0  0  0  0  0  0
  -23.6303   -8.2240   22.0738 C   0  0  0  0  0  0
  -22.4285   -8.0277   21.3537 C   0  0  0  0  0  0
  -21.9922   -9.0241   20.4631 C   0  0  0  0  0  0
  -22.7252  -10.2120   20.3035 C   0  0  0  0  0  0
  -21.6859   -6.0732   22.5276 C   0  0  0  0  0  0
  -21.4012   -6.5628   23.8207 C   0  0  0  0  0  0
  -21.3668   -5.6779   24.9165 C   0  0  0  0  0  0
  -21.6049   -4.3041   24.7211 C   0  0  0  0  0  0
  -21.8825   -3.8139   23.4329 C   0  0  0  0  0  0
  -21.9192   -4.6962   22.3392 C   0  0  0  0  0  0
  -22.7842  -13.5211   21.1858 C   0  0  0  0  0  0
  -22.1663   -4.2155   21.0976 F   0  0  0  0  0  0
  -21.5632   -3.4527   25.7722 F   0  0  0  0  0  0
  -30.0048  -13.4281   20.3943 N   0  0  0  0  0  0
  -26.2967  -12.9377   20.3287 N   0  0  0  0  0  0
  -25.9336  -11.6528   20.5744 N   0  0  0  0  0  0
  -22.0505  -12.8181   22.0416 N   0  0  0  0  0  0
  -25.4198  -15.1918   20.4103 N   0  0  0  0  0  0
  -31.8556  -14.7249   20.1958 O   0  0  0  0  0  0
  -21.6643   -6.8878   21.4244 O   0  0  0  0  0  0
  -22.3508  -14.5513   20.6716 O   0  0  0  0  0  0
  -24.6218  -31.8631   23.2089 C   0  0  0  0  0  0
  -25.9087  -32.4801   23.8385 C   0  0  1  0  0  0
  -27.2076  -27.3368   20.0996 C   0  0  0  0  0  0
  -25.5935  -33.8610   24.2299 N   0  0  0  0  0  0
  -23.4134  -30.4920   21.5507 C   0  0  2  0  0  0
  -24.8570  -28.9659   20.1033 C   0  0  0  0  0  0
  -22.7461  -29.4631   22.4941 C   0  0  0  0  0  0
  -18.0286  -28.1388   22.8482 C   0  0  0  0  0  0
  -24.1499  -36.7293   23.2643 C   0  0  0  0  0  0
  -25.9562  -30.7977   21.3802 C   0  0  0  0  0  0
  -26.0274  -29.4294   20.7182 C   0  0  0  0  0  0
  -27.2048  -28.6229   20.7187 C   0  0  0  0  0  0
  -26.0218  -26.9539   19.4227 C   0  0  0  0  0  0
  -24.8569  -27.7324   19.4450 C   0  0  0  0  0  0
  -23.6229  -29.8389   20.1612 C   0  0  0  0  0  0
  -25.4124  -36.3104   24.0332 C   0  0  1  0  0  0
  -20.5886  -28.3671   23.1314 C   0  0  2  0  0  0
  -20.6776  -26.9400   22.5429 C   0  0  0  0  0  0
  -19.5760  -26.6389   21.5232 C   0  0  0  0  0  0
  -18.1929  -26.7935   22.1615 C   0  0  0  0  0  0
  -19.1541  -28.8847   23.2901 C   0  0  0  0  0  0
  -18.9462  -30.1451   23.8911 C   0  0  0  0  0  0
  -17.6464  -30.6587   24.0565 C   0  0  0  0  0  0
  -25.9053  -34.9470   23.5114 C   0  0  0  0  0  0
  -16.5356  -29.9080   23.6339 C   0  0  0  0  0  0
  -16.7282  -28.6509   23.0348 C   0  0  0  0  0  0
  -26.4499  -31.6601   25.0735 C   0  0  0  0  0  0
  -25.3751  -31.3728   26.1473 C   0  0  0  0  0  0
  -27.0334  -30.3041   24.6137 C   0  0  0  0  0  0
  -27.6061  -32.4328   25.7489 C   0  0  0  0  0  0
  -27.5587  -37.1796   24.8471 C   0  0  0  0  0  0
  -21.4177  -29.3035   22.3707 N   0  0  0  0  0  0
  -26.4307  -37.3793   23.9412 N   0  0  0  0  0  0
  -24.6827  -31.0671   22.1025 N   0  0  0  0  0  0
  -23.4222  -28.8163   23.2995 O   0  0  0  0  0  0
  -28.2936  -26.4434   20.1787 O   0  0  0  0  0  0
  -26.5637  -34.8918   22.4685 O   0  0  0  0  0  0
  -23.5388  -32.1441   23.7419 O   0  0  0  0  0  0
  -29.7751  -18.2949   20.6790 C   0  0  0  0  0  0
  -31.2373  -17.1424   22.2469 C   0  0  0  0  0  0
  -31.0580  -19.5925   22.3212 C   0  0  0  0  0  0
  -30.1591  -19.5798   21.2092 C   0  0  0  0  0  0
  -30.3224  -17.0585   21.1779 C   0  0  0  0  0  0
  -31.5823  -18.3778   22.8175 C   0  0  0  0  0  0
  -29.8533  -23.1789   19.6873 C   0  0  0  0  0  0
  -30.3994  -21.7047   19.9591 C   0  0  0  0  0  0
  -27.7003  -22.5761   20.6571 C   0  0  0  0  0  0
  -28.2398  -21.1786   21.0834 C   0  0  0  0  0  0
  -28.7224  -23.7527   20.5844 C   0  0  1  0  0  0
  -29.2640  -24.1093   21.9843 C   0  0  0  0  0  0
  -30.5653  -21.2610   24.2102 C   0  0  0  0  0  0
  -31.4854  -20.8757   23.0411 C   0  0  0  0  0  0
  -27.9425  -25.0153   19.9966 C   0  0  0  0  0  0
  -29.6218  -20.8424   20.6916 N   0  0  0  0  0  0
  -29.9058  -15.7389   20.7185 N   0  0  0  0  0  0
  -30.3454  -23.8776   18.7910 O   0  0  0  0  0  0
  -31.5074  -21.3783   19.5087 O   0  0  0  0  0  0
  -32.4234  -18.3884   23.8807 F   0  0  0  0  0  0
  -31.4690  -12.5043   19.1307 H   0  0  0  0  0  0
  -30.3508  -11.4011   19.8862 H   0  0  0  0  0  0
  -29.7590  -11.7484   17.4653 H   0  0  0  0  0  0
  -29.6408  -13.4708   17.7237 H   0  0  0  0  0  0
  -27.8553  -11.2921   18.8563 H   0  0  0  0  0  0
  -27.3662  -12.5766   17.7856 H   0  0  0  0  0  0
  -27.6541  -14.2547   19.4991 H   0  0  0  0  0  0
  -28.7066  -12.0994   21.3970 H   0  0  0  0  0  0
  -28.4523  -13.7769   21.8050 H   0  0  0  0  0  0
  -25.2787   -9.5672   22.4715 H   0  0  0  0  0  0
  -24.0021   -7.4625   22.7445 H   0  0  0  0  0  0
  -21.0859   -8.8747   19.8917 H   0  0  0  0  0  0
  -22.3718  -10.9645   19.6122 H   0  0  0  0  0  0
  -21.2004   -7.6131   23.9719 H   0  0  0  0  0  0
  -21.1489   -6.0498   25.9075 H   0  0  0  0  0  0
  -22.0602   -2.7605   23.2821 H   0  0  0  0  0  0
  -22.4143  -11.9841   22.4784 H   0  0  0  0  0  0
  -21.1108  -13.1152   22.2628 H   0  0  0  0  0  0
  -24.6434  -15.8370   20.5118 H   0  0  0  0  0  0
  -26.2625  -15.6398   20.0747 H   0  0  0  0  0  0
  -26.7122  -32.5468   23.1100 H   0  0  0  0  0  0
  -25.0084  -33.9772   25.0441 H   0  0  0  0  0  0
  -22.7059  -31.3126   21.4140 H   0  0  0  0  0  0
  -23.3783  -35.9602   23.3317 H   0  0  0  0  0  0
  -24.3598  -36.8926   22.2063 H   0  0  0  0  0  0
  -23.7228  -37.6485   23.6655 H   0  0  0  0  0  0
  -26.0887  -31.5628   20.6140 H   0  0  0  0  0  0
  -26.8379  -30.8430   22.0067 H   0  0  0  0  0  0
  -28.0940  -28.9630   21.2284 H   0  0  0  0  0  0
  -25.9479  -26.0267   18.8740 H   0  0  0  0  0  0
  -23.9686  -27.3815   18.9374 H   0  0  0  0  0  0
  -23.7290  -30.6207   19.4075 H   0  0  0  0  0  0
  -22.7426  -29.2670   19.8607 H   0  0  0  0  0  0
  -25.1302  -36.1966   25.0825 H   0  0  0  0  0  0
  -20.9968  -28.3228   24.1442 H   0  0  0  0  0  0
  -20.5699  -26.2272   23.3619 H   0  0  0  0  0  0
  -21.6631  -26.7447   22.1201 H   0  0  0  0  0  0
  -19.6925  -25.6310   21.1249 H   0  0  0  0  0  0
  -19.6707  -27.3196   20.6771 H   0  0  0  0  0  0
  -17.4207  -26.6723   21.3999 H   0  0  0  0  0  0
  -18.0288  -26.0071   22.9002 H   0  0  0  0  0  0
  -19.7941  -30.7272   24.2270 H   0  0  0  0  0  0
  -17.5018  -31.6260   24.5171 H   0  0  0  0  0  0
  -15.5348  -30.2986   23.7671 H   0  0  0  0  0  0
  -15.8679  -28.0836   22.7051 H   0  0  0  0  0  0
  -24.5928  -30.7057   25.7837 H   0  0  0  0  0  0
  -24.8920  -32.2885   26.4889 H   0  0  0  0  0  0
  -25.8101  -30.8942   27.0252 H   0  0  0  0  0  0
  -26.2880  -29.6799   24.1190 H   0  0  0  0  0  0
  -27.4132  -29.7289   25.4591 H   0  0  0  0  0  0
  -27.8710  -30.4402   23.9290 H   0  0  0  0  0  0
  -27.2696  -33.3659   26.2019 H   0  0  0  0  0  0
  -28.3891  -32.6842   25.0322 H   0  0  0  0  0  0
  -28.0681  -31.8472   26.5452 H   0  0  0  0  0  0
  -28.2615  -38.0084   24.7529 H   0  0  0  0  0  0
  -28.1085  -36.2627   24.6288 H   0  0  0  0  0  0
  -27.2315  -37.1441   25.8879 H   0  0  0  0  0  0
  -20.9332  -29.8786   21.6949 H   0  0  0  0  0  0
  -26.0212  -38.2875   24.1409 H   0  0  0  0  0  0
  -29.0590  -18.2619   19.8699 H   0  0  0  0  0  0
  -31.6572  -16.2469   22.6780 H   0  0  0  0  0  0
  -26.8746  -22.8342   21.3222 H   0  0  0  0  0  0
  -27.2355  -22.4658   19.6727 H   0  0  0  0  0  0
  -27.5773  -20.4122   20.6780 H   0  0  0  0  0  0
  -28.1633  -21.0922   22.1653 H   0  0  0  0  0  0
  -29.8437  -23.3014   22.4229 H   0  0  0  0  0  0
  -28.4524  -24.3341   22.6756 H   0  0  0  0  0  0
  -29.9140  -24.9837   21.9445 H   0  0  0  0  0  0
  -30.9010  -22.1874   24.6767 H   0  0  0  0  0  0
  -30.5577  -20.4936   24.9838 H   0  0  0  0  0  0
  -29.5379  -21.4164   23.8876 H   0  0  0  0  0  0
  -31.5798  -21.7109   22.3540 H   0  0  0  0  0  0
  -32.4970  -20.7403   23.4264 H   0  0  0  0  0  0
  -26.9648  -24.9093   20.4679 H   0  0  0  0  0  0
  -27.7828  -24.8480   18.9304 H   0  0  0  0  0  0
  -28.9103  -15.5977   20.6336 H   0  0  0  0  0  0
  1 25  1  0  0  0
  1 30  2  0  0  0
  1 87  1  0  0  0
  2  3  1  0  0  0
  2 25  1  0  0  0
  2 91  1  0  0  0
  2 92  1  0  0  0
  3  4  1  0  0  0
  3 93  1  0  0  0
  3 94  1  0  0  0
  4  5  1  0  0  0
  4 95  1  0  0  0
  4 96  1  0  0  0
  5  6  1  0  0  0
  5 26  1  0  0  0
  5 97  1  0  0  0
  6 25  1  0  0  0
  6 98  1  0  0  0
  6 99  1  0  0  0
  7  8  2  0  0  0
  7 26  1  0  0  0
  7 29  1  0  0  0
  8  9  1  0  0  0
  8 22  1  0  0  0
  9 10  1  0  0  0
  9 27  2  0  0  0
 10 11  2  0  0  0
 10 15  1  0  0  0
 11 12  1  0  0  0
 11100  1  0  0  0
 12 13  2  0  0  0
 12101  1  0  0  0
 13 14  1  0  0  0
 13 31  1  0  0  0
 14 15  2  0  0  0
 14102  1  0  0  0
 15103  1  0  0  0
 16 17  2  0  0  0
 16 21  1  0  0  0
 16 31  1  0  0  0
 17 18  1  0  0  0
 17104  1  0  0  0
 18 19  2  0  0  0
 18105  1  0  0  0
 19 20  1  0  0  0
 19 24  1  0  0  0
 20 21  2  0  0  0
 20106  1  0  0  0
 21 23  1  0  0  0
 22 28  1  0  0  0
 22 32  2  0  0  0
 26 27  1  0  0  0
 28107  1  0  0  0
 28108  1  0  0  0
 29109  1  0  0  0
 29110  1  0  0  0
 33 34  1  0  0  0
 33 66  1  0  0  0
 33 70  2  0  0  0
 34 36  1  0  0  0
 34 59  1  0  0  0
 34111  1  0  0  0
 35 44  2  0  0  0
 35 45  1  0  0  0
 35 68  1  0  0  0
 36 56  1  0  0  0
 36112  1  0  0  0
 37 39  1  0  0  0
 37 47  1  0  0  0
 37 66  1  0  0  0
 37113  1  0  0  0
 38 43  2  0  0  0
 38 46  1  0  0  0
 38 47  1  0  0  0
 39 64  1  0  0  0
 39 67  2  0  0  0
 40 52  1  0  0  0
 40 53  2  0  0  0
 40 58  1  0  0  0
 41114  1  0  0  0
 41115  1  0  0  0
 41116  1  0  0  0
 41 48  1  0  0  0
 42 43  1  0  0  0
 42 66  1  0  0  0
 42117  1  0  0  0
 42118  1  0  0  0
 43 44  1  0  0  0
 44119  1  0  0  0
 45 46  2  0  0  0
 45120  1  0  0  0
 46121  1  0  0  0
 47122  1  0  0  0
 47123  1  0  0  0
 48 56  1  0  0  0
 48 65  1  0  0  0
 48124  1  0  0  0
 49 50  1  0  0  0
 49 53  1  0  0  0
 49 64  1  0  0  0
 49125  1  0  0  0
 50 51  1  0  0  0
 50126  1  0  0  0
 50127  1  0  0  0
 51 52  1  0  0  0
 51128  1  0  0  0
 51129  1  0  0  0
 52130  1  0  0  0
 52131  1  0  0  0
 53 54  1  0  0  0
 54 55  2  0  0  0
 54132  1  0  0  0
 55 57  1  0  0  0
 55133  1  0  0  0
 56 69  2  0  0  0
 57 58  2  0  0  0
 57134  1  0  0  0
 58135  1  0  0  0
 59 60  1  0  0  0
 59 61  1  0  0  0
 59 62  1  0  0  0
 60136  1  0  0  0
 60137  1  0  0  0
 60138  1  0  0  0
 61139  1  0  0  0
 61140  1  0  0  0
 61141  1  0  0  0
 62142  1  0  0  0
 62143  1  0  0  0
 62144  1  0  0  0
 63 65  1  0  0  0
 63145  1  0  0  0
 63146  1  0  0  0
 63147  1  0  0  0
 64148  1  0  0  0
 65149  1  0  0  0
 68 85  1  0  0  0
 71 74  2  0  0  0
 71 75  1  0  0  0
 71150  1  0  0  0
 72 75  2  0  0  0
 72 76  1  0  0  0
 72151  1  0  0  0
 73 74  1  0  0  0
 73 76  2  0  0  0
 73 84  1  0  0  0
 74 86  1  0  0  0
 75 87  1  0  0  0
 76 90  1  0  0  0
 77 78  1  0  0  0
 77 81  1  0  0  0
 77 88  2  0  0  0
 78 86  1  0  0  0
 78 89  2  0  0  0
 79 80  1  0  0  0
 79 81  1  0  0  0
 79152  1  0  0  0
 79153  1  0  0  0
 80 86  1  0  0  0
 80154  1  0  0  0
 80155  1  0  0  0
 81 82  1  0  0  0
 81 85  1  0  0  0
 82156  1  0  0  0
 82157  1  0  0  0
 82158  1  0  0  0
 83 84  1  0  0  0
 83159  1  0  0  0
 83160  1  0  0  0
 83161  1  0  0  0
 84162  1  0  0  0
 84163  1  0  0  0
 85164  1  0  0  0
 85165  1  0  0  0
 87166  1  0  0  0
M  ISO  4   1 100  68 101  85 101  87 100
M  END
> <chiral flag>
0

> <version>
0

> <s_m_source_file>
/data/baiqing/PycharmProjects/Reinvent-master-3.2/result/LINK_invent/BTK/process_docking_weight1_custom_product_contain_oxygen_bond_distance_aromatic_linkinvent_7_9_3/rearranged_h_0069.sdf

> <i_m_source_file_index>
91

> <r_mmod_Potential_Energy-OPLS-2005>
315.689239501953

> <r_mmod_Stretch_Energy-OPLS-2005>
84.9941940307617

> <r_mmod_Bend_Energy-OPLS-2005>
152.27180480957

> <r_mmod_Torsional_Energy-OPLS-2005>
312.664520263672

> <r_mmod_Improper_Torsional_Energy-OPLS-2005>
7.04363346099854

> <r_mmod_Van_der_Waal_Energy-OPLS-2005>
165.569366455078

> <r_mmod_Electrostatic_Energy-OPLS-2005>
-209.726150512695

> <r_mmod_Solvation_Energy-OPLS-2005>
-247.841751098633

> <b_mmod_Minimization_Converged-OPLS-2005>
0

> <r_mmod_RMS_Derivative-OPLS-2005>
2.90218138694763

$$$$
93
                    3D
 Structure written by MMmdl.
152160  0  0  1  0            999 V2000
  -30.6086  -14.6552   20.4954 C   0  0  0  0  0  0
  -30.4411  -12.4009   19.4544 C   0  0  0  0  0  0
  -29.5100  -12.5067   18.2252 C   0  0  0  0  0  0
  -28.0327  -12.3410   18.6359 C   0  0  0  0  0  0
  -27.6524  -13.2141   19.8609 C   0  0  2  0  0  0
  -28.6965  -13.0727   20.9920 C   0  0  0  0  0  0
  -25.2557  -13.8161   20.5661 C   0  0  0  0  0  0
  -24.1831  -13.0435   20.9203 C   0  0  0  0  0  0
  -24.6393  -11.6904   20.8748 C   0  0  0  0  0  0
  -23.9061  -10.4289   21.0411 C   0  0  0  0  0  0
  -24.3615   -9.4204   21.9185 C   0  0  0  0  0  0
  -23.6290   -8.2242   22.0757 C   0  0  0  0  0  0
  -22.4272   -8.0281   21.3547 C   0  0  0  0  0  0
  -21.9905   -9.0257   20.4651 C   0  0  0  0  0  0
  -22.7234  -10.2135   20.3059 C   0  0  0  0  0  0
  -21.6853   -6.0733   22.5278 C   0  0  0  0  0  0
  -21.4015   -6.5636   23.8211 C   0  0  0  0  0  0
  -21.3659   -5.6790   24.9174 C   0  0  0  0  0  0
  -21.6044   -4.3054   24.7224 C   0  0  0  0  0  0
  -21.8820   -3.8145   23.4345 C   0  0  0  0  0  0
  -21.9193   -4.6961   22.3400 C   0  0  0  0  0  0
  -22.7854  -13.5234   21.1858 C   0  0  0  0  0  0
  -22.1663   -4.2148   21.0977 F   0  0  0  0  0  0
  -21.5627   -3.4537   25.7736 F   0  0  0  0  0  0
  -30.0110  -13.4222   20.4305 N   0  0  0  0  0  0
  -26.2979  -12.9335   20.3292 N   0  0  0  0  0  0
  -25.9317  -11.6496   20.5751 N   0  0  0  0  0  0
  -22.0488  -12.8235   22.0413 N   0  0  0  0  0  0
  -25.4253  -15.1877   20.4004 N   0  0  0  0  0  0
  -31.7739  -14.8183   20.1196 O   0  0  0  0  0  0
  -21.6638   -6.8877   21.4241 O   0  0  0  0  0  0
  -22.3547  -14.5540   20.6700 O   0  0  0  0  0  0
  -24.6256  -31.8597   23.2018 C   0  0  0  0  0  0
  -25.9104  -32.4779   23.8350 C   0  0  1  0  0  0
  -27.2262  -27.3188   20.1258 C   0  0  0  0  0  0
  -25.5919  -33.8580   24.2279 N   0  0  0  0  0  0
  -23.4198  -30.4821   21.5443 C   0  0  2  0  0  0
  -24.8675  -28.9332   20.1143 C   0  0  0  0  0  0
  -22.7472  -29.4622   22.4938 C   0  0  0  0  0  0
  -18.0287  -28.1385   22.8487 C   0  0  0  0  0  0
  -24.1490  -36.7296   23.2640 C   0  0  0  0  0  0
  -25.9599  -30.7904   21.3728 C   0  0  0  0  0  0
  -26.0355  -29.4162   20.7185 C   0  0  0  0  0  0
  -27.2195  -28.6212   20.7125 C   0  0  0  0  0  0
  -26.0399  -26.8891   19.4921 C   0  0  0  0  0  0
  -24.8712  -27.6747   19.4920 C   0  0  0  0  0  0
  -23.6353  -29.8138   20.1608 C   0  0  0  0  0  0
  -25.4115  -36.3085   24.0330 C   0  0  1  0  0  0
  -20.5886  -28.3690   23.1285 C   0  0  2  0  0  0
  -20.6776  -26.9413   22.5409 C   0  0  0  0  0  0
  -19.5750  -26.6386   21.5212 C   0  0  0  0  0  0
  -18.1932  -26.7929   22.1628 C   0  0  0  0  0  0
  -19.1538  -28.8856   23.2882 C   0  0  0  0  0  0
  -18.9461  -30.1459   23.8897 C   0  0  0  0  0  0
  -17.6461  -30.6588   24.0564 C   0  0  0  0  0  0
  -25.9049  -34.9452   23.5106 C   0  0  0  0  0  0
  -16.5353  -29.9086   23.6328 C   0  0  0  0  0  0
  -16.7274  -28.6504   23.0349 C   0  0  0  0  0  0
  -26.4491  -31.6589   25.0720 C   0  0  0  0  0  0
  -25.3727  -31.3729   26.1451 C   0  0  0  0  0  0
  -27.0332  -30.3014   24.6171 C   0  0  0  0  0  0
  -27.6056  -32.4320   25.7484 C   0  0  0  0  0  0
  -27.5577  -37.1809   24.8469 C   0  0  0  0  0  0
  -21.4186  -29.3043   22.3678 N   0  0  0  0  0  0
  -26.4298  -37.3774   23.9401 N   0  0  0  0  0  0
  -24.6871  -31.0608   22.0967 N   0  0  0  0  0  0
  -23.4196  -28.8164   23.3019 O   0  0  0  0  0  0
  -28.3470  -26.4779   20.1400 O   0  0  0  0  0  0
  -26.5619  -34.8918   22.4674 O   0  0  0  0  0  0
  -23.5420  -32.1395   23.7346 O   0  0  0  0  0  0
  -28.6324  -19.3423   20.4867 C   0  0  0  0  0  0
  -31.0039  -19.2932   20.1130 C   0  0  0  0  0  0
  -28.6626  -17.9300   20.7206 C   0  0  0  0  0  0
  -31.0316  -17.8812   20.3323 C   0  0  0  0  0  0
  -29.8048  -20.0689   20.1527 C   0  0  0  0  0  0
  -29.8518  -17.1482   20.6236 C   0  0  0  0  0  0
  -29.8183  -21.5337   19.7250 C   0  0  0  0  0  0
  -29.1110  -24.0207   19.8406 C   0  0  0  0  0  0
  -28.1585  -25.0592   20.5506 C   0  0  0  0  0  0
  -29.7816  -15.6974   20.8343 N   0  0  0  0  0  0
  -29.0930  -22.5871   20.2567 N   0  0  0  0  0  0
  -30.6359  -21.7852   18.6964 N   0  3  0  0  0  0
  -29.8615  -24.4039   18.9324 O   0  0  0  0  0  0
  -31.4816  -12.5327   19.1518 H   0  0  0  0  0  0
  -30.3830  -11.4058   19.8984 H   0  0  0  0  0  0
  -29.7776  -11.7521   17.4843 H   0  0  0  0  0  0
  -29.6494  -13.4737   17.7395 H   0  0  0  0  0  0
  -27.8727  -11.2882   18.8709 H   0  0  0  0  0  0
  -27.3787  -12.5662   17.7928 H   0  0  0  0  0  0
  -27.6687  -14.2477   19.5157 H   0  0  0  0  0  0
  -28.7114  -12.0505   21.3733 H   0  0  0  0  0  0
  -28.4382  -13.7027   21.8448 H   0  0  0  0  0  0
  -25.2762   -9.5679   22.4756 H   0  0  0  0  0  0
  -24.0000   -7.4631   22.7474 H   0  0  0  0  0  0
  -21.0836   -8.8778   19.8956 H   0  0  0  0  0  0
  -22.3695  -10.9676   19.6170 H   0  0  0  0  0  0
  -21.2009   -7.6145   23.9716 H   0  0  0  0  0  0
  -21.1477   -6.0519   25.9077 H   0  0  0  0  0  0
  -22.0600   -2.7607   23.2846 H   0  0  0  0  0  0
  -22.4095  -11.9898   22.4811 H   0  0  0  0  0  0
  -21.1108  -13.1275   22.2612 H   0  0  0  0  0  0
  -24.6411  -15.8271   20.4704 H   0  0  0  0  0  0
  -26.2378  -15.6073   19.9683 H   0  0  0  0  0  0
  -26.7173  -32.5451   23.1099 H   0  0  0  0  0  0
  -25.0065  -33.9726   25.0422 H   0  0  0  0  0  0
  -22.7135  -31.3021   21.3995 H   0  0  0  0  0  0
  -23.3742  -35.9641   23.3325 H   0  0  0  0  0  0
  -24.3577  -36.8892   22.2050 H   0  0  0  0  0  0
  -23.7259  -37.6512   23.6646 H   0  0  0  0  0  0
  -26.0900  -31.5520   20.6027 H   0  0  0  0  0  0
  -26.8408  -30.8416   22.0010 H   0  0  0  0  0  0
  -28.1173  -28.9886   21.1896 H   0  0  0  0  0  0
  -26.0049  -25.9333   18.9896 H   0  0  0  0  0  0
  -23.9782  -27.3014   19.0097 H   0  0  0  0  0  0
  -23.7544  -30.5886   19.4025 H   0  0  0  0  0  0
  -22.7553  -29.2426   19.8596 H   0  0  0  0  0  0
  -25.1297  -36.1942   25.0823 H   0  0  0  0  0  0
  -20.9980  -28.3265   24.1405 H   0  0  0  0  0  0
  -20.5677  -26.2299   23.3609 H   0  0  0  0  0  0
  -21.6645  -26.7446   22.1200 H   0  0  0  0  0  0
  -19.6911  -25.6297   21.1241 H   0  0  0  0  0  0
  -19.6683  -27.3196   20.6741 H   0  0  0  0  0  0
  -17.4198  -26.6672   21.4035 H   0  0  0  0  0  0
  -18.0336  -26.0074   22.9027 H   0  0  0  0  0  0
  -19.7938  -30.7277   24.2261 H   0  0  0  0  0  0
  -17.5014  -31.6268   24.5168 H   0  0  0  0  0  0
  -15.5353  -30.2986   23.7653 H   0  0  0  0  0  0
  -15.8675  -28.0823   22.7059 H   0  0  0  0  0  0
  -24.5894  -30.7086   25.7782 H   0  0  0  0  0  0
  -24.8927  -32.2897   26.4884 H   0  0  0  0  0  0
  -25.8053  -30.8901   27.0221 H   0  0  0  0  0  0
  -26.2904  -29.6761   24.1203 H   0  0  0  0  0  0
  -27.4042  -29.7274   25.4674 H   0  0  0  0  0  0
  -27.8767  -30.4303   23.9384 H   0  0  0  0  0  0
  -27.2677  -33.3627   26.2054 H   0  0  0  0  0  0
  -28.3866  -32.6868   25.0307 H   0  0  0  0  0  0
  -28.0720  -31.8446   26.5403 H   0  0  0  0  0  0
  -28.2617  -38.0084   24.7488 H   0  0  0  0  0  0
  -28.1051  -36.2615   24.6333 H   0  0  0  0  0  0
  -27.2291  -37.1506   25.8873 H   0  0  0  0  0  0
  -20.9361  -29.8765   21.6890 H   0  0  0  0  0  0
  -26.0182  -38.2857   24.1376 H   0  0  0  0  0  0
  -27.6811  -19.8549   20.5262 H   0  0  0  0  0  0
  -31.9402  -19.7799   19.8768 H   0  0  0  0  0  0
  -27.7286  -17.4390   20.9544 H   0  0  0  0  0  0
  -31.9804  -17.3684   20.2613 H   0  0  0  0  0  0
  -28.3455  -25.0015   21.6228 H   0  0  0  0  0  0
  -27.1366  -24.7114   20.4104 H   0  0  0  0  0  0
  -28.8787  -15.3717   21.1405 H   0  0  0  0  0  0
  -28.4998  -22.2853   21.0149 H   0  0  0  0  0  0
  -31.1241  -21.0354   18.2330 H   0  0  0  0  0  0
  -30.7101  -22.7354   18.3527 H   0  0  0  0  0  0
  1 25  1  0  0  0
  1 30  2  0  0  0
  1 80  1  0  0  0
  2  3  1  0  0  0
  2 25  1  0  0  0
  2 84  1  0  0  0
  2 85  1  0  0  0
  3  4  1  0  0  0
  3 86  1  0  0  0
  3 87  1  0  0  0
  4  5  1  0  0  0
  4 88  1  0  0  0
  4 89  1  0  0  0
  5  6  1  0  0  0
  5 26  1  0  0  0
  5 90  1  0  0  0
  6 25  1  0  0  0
  6 91  1  0  0  0
  6 92  1  0  0  0
  7  8  2  0  0  0
  7 26  1  0  0  0
  7 29  1  0  0  0
  8  9  1  0  0  0
  8 22  1  0  0  0
  9 10  1  0  0  0
  9 27  2  0  0  0
 10 11  2  0  0  0
 10 15  1  0  0  0
 11 12  1  0  0  0
 11 93  1  0  0  0
 12 13  2  0  0  0
 12 94  1  0  0  0
 13 14  1  0  0  0
 13 31  1  0  0  0
 14 15  2  0  0  0
 14 95  1  0  0  0
 15 96  1  0  0  0
 16 17  2  0  0  0
 16 21  1  0  0  0
 16 31  1  0  0  0
 17 18  1  0  0  0
 17 97  1  0  0  0
 18 19  2  0  0  0
 18 98  1  0  0  0
 19 20  1  0  0  0
 19 24  1  0  0  0
 20 21  2  0  0  0
 20 99  1  0  0  0
 21 23  1  0  0  0
 22 28  1  0  0  0
 22 32  2  0  0  0
 26 27  1  0  0  0
 28100  1  0  0  0
 28101  1  0  0  0
 29102  1  0  0  0
 29103  1  0  0  0
 33 34  1  0  0  0
 33 66  1  0  0  0
 33 70  2  0  0  0
 34 36  1  0  0  0
 34 59  1  0  0  0
 34104  1  0  0  0
 35 44  2  0  0  0
 35 45  1  0  0  0
 35 68  1  0  0  0
 36 56  1  0  0  0
 36105  1  0  0  0
 37 39  1  0  0  0
 37 47  1  0  0  0
 37 66  1  0  0  0
 37106  1  0  0  0
 38 43  2  0  0  0
 38 46  1  0  0  0
 38 47  1  0  0  0
 39 64  1  0  0  0
 39 67  2  0  0  0
 40 52  1  0  0  0
 40 53  2  0  0  0
 40 58  1  0  0  0
 41107  1  0  0  0
 41108  1  0  0  0
 41109  1  0  0  0
 41 48  1  0  0  0
 42 43  1  0  0  0
 42 66  1  0  0  0
 42110  1  0  0  0
 42111  1  0  0  0
 43 44  1  0  0  0
 44112  1  0  0  0
 45 46  2  0  0  0
 45113  1  0  0  0
 46114  1  0  0  0
 47115  1  0  0  0
 47116  1  0  0  0
 48 56  1  0  0  0
 48 65  1  0  0  0
 48117  1  0  0  0
 49 50  1  0  0  0
 49 53  1  0  0  0
 49 64  1  0  0  0
 49118  1  0  0  0
 50 51  1  0  0  0
 50119  1  0  0  0
 50120  1  0  0  0
 51 52  1  0  0  0
 51121  1  0  0  0
 51122  1  0  0  0
 52123  1  0  0  0
 52124  1  0  0  0
 53 54  1  0  0  0
 54 55  2  0  0  0
 54125  1  0  0  0
 55 57  1  0  0  0
 55126  1  0  0  0
 56 69  2  0  0  0
 57 58  2  0  0  0
 57127  1  0  0  0
 58128  1  0  0  0
 59 60  1  0  0  0
 59 61  1  0  0  0
 59 62  1  0  0  0
 60129  1  0  0  0
 60130  1  0  0  0
 60131  1  0  0  0
 61132  1  0  0  0
 61133  1  0  0  0
 61134  1  0  0  0
 62135  1  0  0  0
 62136  1  0  0  0
 62137  1  0  0  0
 63 65  1  0  0  0
 63138  1  0  0  0
 63139  1  0  0  0
 63140  1  0  0  0
 64141  1  0  0  0
 65142  1  0  0  0
 68 79  1  0  0  0
 71 73  2  0  0  0
 71 75  1  0  0  0
 71143  1  0  0  0
 72 74  1  0  0  0
 72 75  2  0  0  0
 72144  1  0  0  0
 73 76  1  0  0  0
 73145  1  0  0  0
 74 76  2  0  0  0
 74146  1  0  0  0
 75 77  1  0  0  0
 76 80  1  0  0  0
 77 81  1  0  0  0
 77 82  2  0  0  0
 78 79  1  0  0  0
 78 81  1  0  0  0
 78 83  2  0  0  0
 79147  1  0  0  0
 79148  1  0  0  0
 80149  1  0  0  0
 81150  1  0  0  0
 82151  1  0  0  0
 82152  1  0  0  0
M  CHG  1  82   1
M  ISO  4   1 100  68 101  79 101  80 100
M  END
> <chiral flag>
0

> <version>
0

> <s_m_source_file>
/data/baiqing/PycharmProjects/Reinvent-master-3.2/result/LINK_invent/BTK/process_docking_weight1_custom_product_contain_oxygen_bond_distance_aromatic_linkinvent_7_9_3/rearranged_h_0069.sdf

> <i_m_source_file_index>
92

> <r_mmod_Potential_Energy-OPLS-2005>
-213.933837890625

> <r_mmod_Stretch_Energy-OPLS-2005>
85.8899307250977

> <r_mmod_Bend_Energy-OPLS-2005>
144.363891601562

> <r_mmod_Torsional_Energy-OPLS-2005>
224.400650024414

> <r_mmod_Improper_Torsional_Energy-OPLS-2005>
5.34828853607178

> <r_mmod_Van_der_Waal_Energy-OPLS-2005>
156.283920288086

> <r_mmod_Electrostatic_Energy-OPLS-2005>
-419.147979736328

> <r_mmod_Solvation_Energy-OPLS-2005>
-461.139282226562

> <b_mmod_Minimization_Converged-OPLS-2005>
0

> <r_mmod_RMS_Derivative-OPLS-2005>
0.407842755317688

$$$$
94
                    3D
 Structure written by MMmdl.
158167  0  0  1  0            999 V2000
  -30.5953  -14.6177   20.5673 C   0  0  0  0  0  0
  -30.4436  -12.3949   19.4599 C   0  0  0  0  0  0
  -29.5206  -12.5539   18.2279 C   0  0  0  0  0  0
  -28.0450  -12.3469   18.6321 C   0  0  0  0  0  0
  -27.6546  -13.2083   19.8637 C   0  0  2  0  0  0
  -28.6880  -13.0215   20.9988 C   0  0  0  0  0  0
  -25.2575  -13.8151   20.5667 C   0  0  0  0  0  0
  -24.1833  -13.0438   20.9206 C   0  0  0  0  0  0
  -24.6372  -11.6896   20.8714 C   0  0  0  0  0  0
  -23.9032  -10.4280   21.0413 C   0  0  0  0  0  0
  -24.3585   -9.4202   21.9175 C   0  0  0  0  0  0
  -23.6275   -8.2224   22.0731 C   0  0  0  0  0  0
  -22.4248   -8.0266   21.3547 C   0  0  0  0  0  0
  -21.9887   -9.0232   20.4658 C   0  0  0  0  0  0
  -22.7211  -10.2125   20.3062 C   0  0  0  0  0  0
  -21.6848   -6.0727   22.5294 C   0  0  0  0  0  0
  -21.3994   -6.5627   23.8227 C   0  0  0  0  0  0
  -21.3640   -5.6776   24.9193 C   0  0  0  0  0  0
  -21.6053   -4.3051   24.7232 C   0  0  0  0  0  0
  -21.8814   -3.8138   23.4347 C   0  0  0  0  0  0
  -21.9173   -4.6955   22.3405 C   0  0  0  0  0  0
  -22.7857  -13.5247   21.1863 C   0  0  0  0  0  0
  -22.1666   -4.2139   21.0994 F   0  0  0  0  0  0
  -21.5620   -3.4524   25.7747 F   0  0  0  0  0  0
  -30.0097  -13.3831   20.4672 N   0  0  0  0  0  0
  -26.2963  -12.9297   20.3225 N   0  0  0  0  0  0
  -25.9274  -11.6455   20.5646 N   0  0  0  0  0  0
  -22.0446  -12.8299   22.0425 N   0  0  0  0  0  0
  -25.4298  -15.1851   20.3997 N   0  0  0  0  0  0
  -31.7351  -14.8242   20.1369 O   0  0  0  0  0  0
  -21.6634   -6.8854   21.4248 O   0  0  0  0  0  0
  -22.3563  -14.5540   20.6662 O   0  0  0  0  0  0
  -24.6213  -31.8577   23.2005 C   0  0  0  0  0  0
  -25.9033  -32.4795   23.8336 C   0  0  1  0  0  0
  -27.2168  -27.2912   20.1131 C   0  0  0  0  0  0
  -25.5746  -33.8575   24.2225 N   0  0  0  0  0  0
  -23.4189  -30.4791   21.5482 C   0  0  2  0  0  0
  -24.8658  -28.9296   20.1112 C   0  0  0  0  0  0
  -22.7498  -29.4594   22.5002 C   0  0  0  0  0  0
  -18.0284  -28.1374   22.8571 C   0  0  0  0  0  0
  -24.1425  -36.7290   23.2669 C   0  0  0  0  0  0
  -25.9632  -30.7745   21.3819 C   0  0  0  0  0  0
  -26.0349  -29.3999   20.7224 C   0  0  0  0  0  0
  -27.2166  -28.5931   20.7147 C   0  0  0  0  0  0
  -26.0319  -26.8988   19.4512 C   0  0  0  0  0  0
  -24.8691  -27.6875   19.4619 C   0  0  0  0  0  0
  -23.6319  -29.8069   20.1681 C   0  0  0  0  0  0
  -25.4064  -36.3094   24.0363 C   0  0  1  0  0  0
  -20.5897  -28.3630   23.1339 C   0  0  2  0  0  0
  -20.6720  -26.9352   22.5436 C   0  0  0  0  0  0
  -19.5675  -26.6380   21.5232 C   0  0  0  0  0  0
  -18.1892  -26.7918   22.1713 C   0  0  0  0  0  0
  -19.1556  -28.8824   23.2960 C   0  0  0  0  0  0
  -18.9479  -30.1424   23.8987 C   0  0  0  0  0  0
  -17.6485  -30.6606   24.0564 C   0  0  0  0  0  0
  -25.9010  -34.9475   23.5140 C   0  0  0  0  0  0
  -16.5369  -29.9133   23.6295 C   0  0  0  0  0  0
  -16.7278  -28.6513   23.0401 C   0  0  0  0  0  0
  -26.4358  -31.6649   25.0757 C   0  0  0  0  0  0
  -25.3529  -31.3822   26.1467 C   0  0  0  0  0  0
  -27.0205  -30.3084   24.6231 C   0  0  0  0  0  0
  -27.5944  -32.4392   25.7456 C   0  0  0  0  0  0
  -27.5575  -37.1756   24.8465 C   0  0  0  0  0  0
  -21.4220  -29.2974   22.3740 N   0  0  0  0  0  0
  -26.4233  -37.3810   23.9478 N   0  0  0  0  0  0
  -24.6863  -31.0567   22.0987 N   0  0  0  0  0  0
  -23.4227  -28.8164   23.3102 O   0  0  0  0  0  0
  -28.3128  -26.4088   20.1387 O   0  0  0  0  0  0
  -26.5717  -34.8951   22.4801 O   0  0  0  0  0  0
  -23.5368  -32.1381   23.7319 O   0  0  0  0  0  0
  -28.5629  -19.2290   21.0054 C   0  0  0  0  0  0
  -28.6177  -17.8084   21.1561 C   0  0  0  0  0  0
  -30.9565  -17.8213   20.5909 C   0  0  0  0  0  0
  -29.6951  -19.9739   20.5767 C   0  0  0  0  0  0
  -29.8062  -17.0629   20.9213 C   0  0  0  0  0  0
  -30.9033  -19.2314   20.4239 C   0  0  0  0  0  0
  -30.1083  -21.9532   19.1154 C   0  0  0  0  0  0
  -29.6779  -23.4137   18.9438 C   0  0  0  0  0  0
  -28.7754  -22.4410   20.9019 C   0  0  0  0  0  0
  -29.1918  -23.8656   20.3357 C   0  0  1  0  0  0
  -30.3782  -24.4483   21.1306 C   0  0  0  0  0  0
  -28.0251  -24.9560   20.3355 C   0  0  0  0  0  0
  -29.6212  -21.4064   20.2514 N   0  0  0  0  0  0
  -29.7779  -15.6056   21.0535 N   0  0  0  0  0  0
  -30.8041  -21.3918   18.2669 O   0  0  0  0  0  0
  -32.0591  -19.8722   20.1287 F   0  0  0  0  0  0
  -31.4909  -12.5233   19.1829 H   0  0  0  0  0  0
  -30.3660  -11.3841   19.8638 H   0  0  0  0  0  0
  -29.8119  -11.8512   17.4475 H   0  0  0  0  0  0
  -29.6439  -13.5506   17.7981 H   0  0  0  0  0  0
  -27.9213  -11.2907   18.8740 H   0  0  0  0  0  0
  -27.3799  -12.5431   17.7880 H   0  0  0  0  0  0
  -27.6847  -14.2490   19.5361 H   0  0  0  0  0  0
  -28.6961  -11.9845   21.3381 H   0  0  0  0  0  0
  -28.4201  -13.6095   21.8778 H   0  0  0  0  0  0
  -25.2709   -9.5693   22.4767 H   0  0  0  0  0  0
  -23.9990   -7.4613   22.7436 H   0  0  0  0  0  0
  -21.0802   -8.8751   19.8972 H   0  0  0  0  0  0
  -22.3654  -10.9642   19.6174 H   0  0  0  0  0  0
  -21.2013   -7.6137   23.9736 H   0  0  0  0  0  0
  -21.1461   -6.0514   25.9105 H   0  0  0  0  0  0
  -22.0609   -2.7589   23.2863 H   0  0  0  0  0  0
  -22.3995  -12.0004   22.4956 H   0  0  0  0  0  0
  -21.1047  -13.1368   22.2525 H   0  0  0  0  0  0
  -24.6555  -15.8323   20.4991 H   0  0  0  0  0  0
  -26.2297  -15.5873   19.9269 H   0  0  0  0  0  0
  -26.7102  -32.5438   23.1081 H   0  0  0  0  0  0
  -24.9508  -33.9637   25.0085 H   0  0  0  0  0  0
  -22.7085  -31.2964   21.4048 H   0  0  0  0  0  0
  -23.3724  -35.9579   23.3296 H   0  0  0  0  0  0
  -24.3520  -36.8967   22.2094 H   0  0  0  0  0  0
  -23.7091  -37.6444   23.6713 H   0  0  0  0  0  0
  -26.0987  -31.5346   20.6095 H   0  0  0  0  0  0
  -26.8425  -30.8198   22.0150 H   0  0  0  0  0  0
  -28.1135  -28.9513   21.2009 H   0  0  0  0  0  0
  -25.9825  -25.9758   18.8936 H   0  0  0  0  0  0
  -23.9831  -27.3317   18.9533 H   0  0  0  0  0  0
  -23.7329  -30.5715   19.3974 H   0  0  0  0  0  0
  -22.7549  -29.2221   19.8844 H   0  0  0  0  0  0
  -25.1214  -36.1950   25.0841 H   0  0  0  0  0  0
  -20.9993  -28.3134   24.1457 H   0  0  0  0  0  0
  -20.5543  -26.2230   23.3635 H   0  0  0  0  0  0
  -21.6581  -26.7312   22.1250 H   0  0  0  0  0  0
  -19.6775  -25.6298   21.1227 H   0  0  0  0  0  0
  -19.6571  -27.3227   20.6793 H   0  0  0  0  0  0
  -17.4111  -26.6695   21.4156 H   0  0  0  0  0  0
  -18.0309  -26.0063   22.9120 H   0  0  0  0  0  0
  -19.7951  -30.7191   24.2441 H   0  0  0  0  0  0
  -17.5048  -31.6304   24.5147 H   0  0  0  0  0  0
  -15.5382  -30.3072   23.7529 H   0  0  0  0  0  0
  -15.8688  -28.0813   22.7126 H   0  0  0  0  0  0
  -24.5586  -30.7348   25.7714 H   0  0  0  0  0  0
  -24.8823  -32.3015   26.4969 H   0  0  0  0  0  0
  -25.7716  -30.8834   27.0213 H   0  0  0  0  0  0
  -26.2789  -29.6888   24.1182 H   0  0  0  0  0  0
  -27.3832  -29.7292   25.4724 H   0  0  0  0  0  0
  -27.8669  -30.4436   23.9509 H   0  0  0  0  0  0
  -27.2566  -33.3645   26.2138 H   0  0  0  0  0  0
  -28.3606  -32.7085   25.0172 H   0  0  0  0  0  0
  -28.0786  -31.8498   26.5248 H   0  0  0  0  0  0
  -28.2551  -38.0099   24.7643 H   0  0  0  0  0  0
  -28.1102  -36.2657   24.6084 H   0  0  0  0  0  0
  -27.2354  -37.1183   25.8876 H   0  0  0  0  0  0
  -20.9403  -29.8681   21.6943 H   0  0  0  0  0  0
  -26.0138  -38.2869   24.1583 H   0  0  0  0  0  0
  -27.6255  -19.7386   21.1841 H   0  0  0  0  0  0
  -27.7084  -17.2899   21.4343 H   0  0  0  0  0  0
  -31.9128  -17.3406   20.4518 H   0  0  0  0  0  0
  -28.8671  -23.4213   18.2145 H   0  0  0  0  0  0
  -30.4957  -24.0212   18.5586 H   0  0  0  0  0  0
  -27.7362  -22.2302   20.6429 H   0  0  0  0  0  0
  -28.8655  -22.3870   21.9867 H   0  0  0  0  0  0
  -31.1696  -23.7239   21.3246 H   0  0  0  0  0  0
  -30.0541  -24.8478   22.0929 H   0  0  0  0  0  0
  -30.8292  -25.2710   20.5752 H   0  0  0  0  0  0
  -27.5354  -24.8817   21.3112 H   0  0  0  0  0  0
  -27.2929  -24.5790   19.6233 H   0  0  0  0  0  0
  -28.9073  -15.2410   21.4084 H   0  0  0  0  0  0
  1 25  1  0  0  0
  1 30  2  0  0  0
  1 84  1  0  0  0
  2  3  1  0  0  0
  2 25  1  0  0  0
  2 87  1  0  0  0
  2 88  1  0  0  0
  3  4  1  0  0  0
  3 89  1  0  0  0
  3 90  1  0  0  0
  4  5  1  0  0  0
  4 91  1  0  0  0
  4 92  1  0  0  0
  5  6  1  0  0  0
  5 26  1  0  0  0
  5 93  1  0  0  0
  6 25  1  0  0  0
  6 94  1  0  0  0
  6 95  1  0  0  0
  7  8  2  0  0  0
  7 26  1  0  0  0
  7 29  1  0  0  0
  8  9  1  0  0  0
  8 22  1  0  0  0
  9 10  1  0  0  0
  9 27  2  0  0  0
 10 11  2  0  0  0
 10 15  1  0  0  0
 11 12  1  0  0  0
 11 96  1  0  0  0
 12 13  2  0  0  0
 12 97  1  0  0  0
 13 14  1  0  0  0
 13 31  1  0  0  0
 14 15  2  0  0  0
 14 98  1  0  0  0
 15 99  1  0  0  0
 16 17  2  0  0  0
 16 21  1  0  0  0
 16 31  1  0  0  0
 17 18  1  0  0  0
 17100  1  0  0  0
 18 19  2  0  0  0
 18101  1  0  0  0
 19 20  1  0  0  0
 19 24  1  0  0  0
 20 21  2  0  0  0
 20102  1  0  0  0
 21 23  1  0  0  0
 22 28  1  0  0  0
 22 32  2  0  0  0
 26 27  1  0  0  0
 28103  1  0  0  0
 28104  1  0  0  0
 29105  1  0  0  0
 29106  1  0  0  0
 33 34  1  0  0  0
 33 66  1  0  0  0
 33 70  2  0  0  0
 34 36  1  0  0  0
 34 59  1  0  0  0
 34107  1  0  0  0
 35 44  2  0  0  0
 35 45  1  0  0  0
 35 68  1  0  0  0
 36 56  1  0  0  0
 36108  1  0  0  0
 37 39  1  0  0  0
 37 47  1  0  0  0
 37 66  1  0  0  0
 37109  1  0  0  0
 38 43  2  0  0  0
 38 46  1  0  0  0
 38 47  1  0  0  0
 39 64  1  0  0  0
 39 67  2  0  0  0
 40 52  1  0  0  0
 40 53  2  0  0  0
 40 58  1  0  0  0
 41110  1  0  0  0
 41111  1  0  0  0
 41112  1  0  0  0
 41 48  1  0  0  0
 42 43  1  0  0  0
 42 66  1  0  0  0
 42113  1  0  0  0
 42114  1  0  0  0
 43 44  1  0  0  0
 44115  1  0  0  0
 45 46  2  0  0  0
 45116  1  0  0  0
 46117  1  0  0  0
 47118  1  0  0  0
 47119  1  0  0  0
 48 56  1  0  0  0
 48 65  1  0  0  0
 48120  1  0  0  0
 49 50  1  0  0  0
 49 53  1  0  0  0
 49 64  1  0  0  0
 49121  1  0  0  0
 50 51  1  0  0  0
 50122  1  0  0  0
 50123  1  0  0  0
 51 52  1  0  0  0
 51124  1  0  0  0
 51125  1  0  0  0
 52126  1  0  0  0
 52127  1  0  0  0
 53 54  1  0  0  0
 54 55  2  0  0  0
 54128  1  0  0  0
 55 57  1  0  0  0
 55129  1  0  0  0
 56 69  2  0  0  0
 57 58  2  0  0  0
 57130  1  0  0  0
 58131  1  0  0  0
 59 60  1  0  0  0
 59 61  1  0  0  0
 59 62  1  0  0  0
 60132  1  0  0  0
 60133  1  0  0  0
 60134  1  0  0  0
 61135  1  0  0  0
 61136  1  0  0  0
 61137  1  0  0  0
 62138  1  0  0  0
 62139  1  0  0  0
 62140  1  0  0  0
 63 65  1  0  0  0
 63141  1  0  0  0
 63142  1  0  0  0
 63143  1  0  0  0
 64144  1  0  0  0
 65145  1  0  0  0
 68 82  1  0  0  0
 71 72  2  0  0  0
 71 74  1  0  0  0
 71146  1  0  0  0
 72 75  1  0  0  0
 72147  1  0  0  0
 73 75  2  0  0  0
 73 76  1  0  0  0
 73148  1  0  0  0
 74 76  2  0  0  0
 74 83  1  0  0  0
 75 84  1  0  0  0
 76 86  1  0  0  0
 77 78  1  0  0  0
 77 83  1  0  0  0
 77 85  2  0  0  0
 78 80  1  0  0  0
 78149  1  0  0  0
 78150  1  0  0  0
 79 80  1  0  0  0
 79 83  1  0  0  0
 79151  1  0  0  0
 79152  1  0  0  0
 80 81  1  0  0  0
 80 82  1  0  0  0
 81153  1  0  0  0
 81154  1  0  0  0
 81155  1  0  0  0
 82156  1  0  0  0
 82157  1  0  0  0
 84158  1  0  0  0
M  ISO  4   1 100  68 101  82 101  84 100
M  END
> <chiral flag>
0

> <version>
0

> <s_m_source_file>
/data/baiqing/PycharmProjects/Reinvent-master-3.2/result/LINK_invent/BTK/process_docking_weight1_custom_product_contain_oxygen_bond_distance_aromatic_linkinvent_7_9_3/rearranged_h_0069.sdf

> <i_m_source_file_index>
93

> <r_mmod_Potential_Energy-OPLS-2005>
153.346435546875

> <r_mmod_Stretch_Energy-OPLS-2005>
81.7085723876953

> <r_mmod_Bend_Energy-OPLS-2005>
165.388687133789

> <r_mmod_Torsional_Energy-OPLS-2005>
287.923553466797

> <r_mmod_Improper_Torsional_Energy-OPLS-2005>
4.98606491088867

> <r_mmod_Van_der_Waal_Energy-OPLS-2005>
147.999603271484

> <r_mmod_Electrostatic_Energy-OPLS-2005>
-362.541137695312

> <r_mmod_Solvation_Energy-OPLS-2005>
-225.132888793945

> <b_mmod_Minimization_Converged-OPLS-2005>
0

> <r_mmod_RMS_Derivative-OPLS-2005>
6.22891569137573

$$$$
95
                    3D
 Structure written by MMmdl.
155164  0  0  1  0            999 V2000
  -30.6857  -14.8300   20.4755 C   0  0  0  0  0  0
  -30.4045  -12.5345   19.4875 C   0  0  0  0  0  0
  -29.4927  -12.5200   18.2449 C   0  0  0  0  0  0
  -28.0332  -12.3254   18.6760 C   0  0  0  0  0  0
  -27.6292  -13.2557   19.8516 C   0  0  2  0  0  0
  -28.6757  -13.2786   20.9875 C   0  0  0  0  0  0
  -25.2420  -13.8224   20.5700 C   0  0  0  0  0  0
  -24.1754  -13.0460   20.9249 C   0  0  0  0  0  0
  -24.6386  -11.6941   20.8797 C   0  0  0  0  0  0
  -23.9085  -10.4302   21.0446 C   0  0  0  0  0  0
  -24.3630   -9.4206   21.9211 C   0  0  0  0  0  0
  -23.6307   -8.2238   22.0747 C   0  0  0  0  0  0
  -22.4287   -8.0284   21.3534 C   0  0  0  0  0  0
  -21.9938   -9.0279   20.4643 C   0  0  0  0  0  0
  -22.7278  -10.2151   20.3076 C   0  0  0  0  0  0
  -21.6866   -6.0741   22.5287 C   0  0  0  0  0  0
  -21.4032   -6.5646   23.8230 C   0  0  0  0  0  0
  -21.3647   -5.6792   24.9182 C   0  0  0  0  0  0
  -21.6042   -4.3060   24.7234 C   0  0  0  0  0  0
  -21.8822   -3.8152   23.4359 C   0  0  0  0  0  0
  -21.9211   -4.6968   22.3412 C   0  0  0  0  0  0
  -22.7774  -13.5234   21.1911 C   0  0  0  0  0  0
  -22.1671   -4.2142   21.0992 F   0  0  0  0  0  0
  -21.5616   -3.4549   25.7748 F   0  0  0  0  0  0
  -29.9585  -13.6486   20.3818 N   0  0  0  0  0  0
  -26.2894  -12.9500   20.3357 N   0  0  0  0  0  0
  -25.9344  -11.6616   20.5842 N   0  0  0  0  0  0
  -22.0436  -12.8209   22.0454 N   0  0  0  0  0  0
  -25.4052  -15.1937   20.4023 N   0  0  0  0  0  0
  -31.8413  -14.8051   20.0516 O   0  0  0  0  0  0
  -21.6641   -6.8884   21.4243 O   0  0  0  0  0  0
  -22.3465  -14.5552   20.6781 O   0  0  0  0  0  0
  -24.6361  -31.8483   23.1925 C   0  0  0  0  0  0
  -25.9162  -32.4710   23.8292 C   0  0  1  0  0  0
  -27.2152  -27.1996   20.1371 C   0  0  0  0  0  0
  -25.5938  -33.8521   24.2212 N   0  0  0  0  0  0
  -23.4370  -30.4694   21.5345 C   0  0  2  0  0  0
  -24.8871  -28.9089   20.0981 C   0  0  0  0  0  0
  -22.7539  -29.4563   22.4863 C   0  0  0  0  0  0
  -18.0305  -28.1383   22.8486 C   0  0  0  0  0  0
  -24.1495  -36.7267   23.2643 C   0  0  0  0  0  0
  -25.9865  -30.7422   21.3819 C   0  0  0  0  0  0
  -26.0584  -29.3616   20.7175 C   0  0  0  0  0  0
  -27.2220  -28.5162   20.7314 C   0  0  0  0  0  0
  -26.0239  -26.8325   19.4759 C   0  0  0  0  0  0
  -24.8794  -27.6581   19.4616 C   0  0  0  0  0  0
  -23.6591  -29.8022   20.1502 C   0  0  0  0  0  0
  -25.4123  -36.3044   24.0319 C   0  0  1  0  0  0
  -20.5915  -28.3702   23.1251 C   0  0  2  0  0  0
  -20.6783  -26.9408   22.5405 C   0  0  0  0  0  0
  -19.5759  -26.6375   21.5209 C   0  0  0  0  0  0
  -18.1942  -26.7926   22.1626 C   0  0  0  0  0  0
  -19.1560  -28.8862   23.2861 C   0  0  0  0  0  0
  -18.9475  -30.1461   23.8882 C   0  0  0  0  0  0
  -17.6470  -30.6580   24.0559 C   0  0  0  0  0  0
  -25.9065  -34.9416   23.5069 C   0  0  0  0  0  0
  -16.5363  -29.9070   23.6328 C   0  0  0  0  0  0
  -16.7290  -28.6488   23.0353 C   0  0  0  0  0  0
  -26.4516  -31.6566   25.0709 C   0  0  0  0  0  0
  -25.3733  -31.3726   26.1422 C   0  0  0  0  0  0
  -27.0389  -30.2977   24.6245 C   0  0  0  0  0  0
  -27.6055  -32.4339   25.7491 C   0  0  0  0  0  0
  -27.5575  -37.1790   24.8469 C   0  0  0  0  0  0
  -21.4233  -29.3035   22.3622 N   0  0  0  0  0  0
  -26.4291  -37.3745   23.9404 N   0  0  0  0  0  0
  -24.7054  -31.0405   22.0915 N   0  0  0  0  0  0
  -23.4209  -28.8106   23.2993 O   0  0  0  0  0  0
  -28.2354  -26.2185   20.3118 O   0  0  0  0  0  0
  -26.5645  -34.8902   22.4645 O   0  0  0  0  0  0
  -23.5502  -32.1334   23.7179 O   0  0  0  0  0  0
  -27.5317  -19.4730   21.1696 C   0  0  0  0  0  0
  -29.6534  -18.5779   20.3955 C   0  0  0  0  0  0
  -28.0497  -17.0600   21.4083 C   0  0  0  0  0  0
  -28.7654  -19.7516   20.5408 C   0  0  0  0  0  0
  -27.1827  -18.1661   21.5893 C   0  0  0  0  0  0
  -29.3225  -17.2023   20.8194 C   0  0  0  0  0  0
  -28.5990  -23.6890   19.5680 C   0  0  0  0  0  0
  -29.2255  -21.4244   18.7412 C   0  0  0  0  0  0
  -28.4168  -25.0864   19.4498 C   0  0  0  0  0  0
  -28.9994  -22.8908   18.3464 C   0  0  0  0  0  0
  -28.5555  -22.5305   20.6587 C   0  0  0  0  0  0
  -28.9801  -21.1721   20.0435 N   0  0  0  0  0  0
  -25.9587  -17.9702   22.2290 N   0  0  0  0  0  0
  -30.2974  -16.0721   21.0070 N   0  0  0  0  0  0
  -29.5975  -20.5918   17.9075 O   0  0  0  0  0  0
  -31.4422  -12.6234   19.1642 H   0  0  0  0  0  0
  -30.3547  -11.5794   20.0124 H   0  0  0  0  0  0
  -29.7868  -11.7238   17.5596 H   0  0  0  0  0  0
  -29.5966  -13.4555   17.6941 H   0  0  0  0  0  0
  -27.9262  -11.2851   18.9815 H   0  0  0  0  0  0
  -27.3577  -12.4643   17.8294 H   0  0  0  0  0  0
  -27.5980  -14.2623   19.4357 H   0  0  0  0  0  0
  -28.7433  -12.3082   21.4798 H   0  0  0  0  0  0
  -28.4009  -13.9932   21.7615 H   0  0  0  0  0  0
  -25.2774   -9.5678   22.4794 H   0  0  0  0  0  0
  -24.0035   -7.4616   22.7446 H   0  0  0  0  0  0
  -21.0885   -8.8834   19.8923 H   0  0  0  0  0  0
  -22.3778  -10.9714   19.6193 H   0  0  0  0  0  0
  -21.2014   -7.6153   23.9745 H   0  0  0  0  0  0
  -21.1463   -6.0497   25.9088 H   0  0  0  0  0  0
  -22.0605   -2.7613   23.2860 H   0  0  0  0  0  0
  -22.4102  -11.9871   22.4794 H   0  0  0  0  0  0
  -21.1056  -13.1190   22.2740 H   0  0  0  0  0  0
  -24.6371  -15.8483   20.4937 H   0  0  0  0  0  0
  -26.2663  -15.6374   20.1095 H   0  0  0  0  0  0
  -26.7223  -32.5338   23.1020 H   0  0  0  0  0  0
  -25.0074  -33.9646   25.0352 H   0  0  0  0  0  0
  -22.7353  -31.2925   21.3855 H   0  0  0  0  0  0
  -23.3756  -35.9600   23.3295 H   0  0  0  0  0  0
  -24.3584  -36.8906   22.2060 H   0  0  0  0  0  0
  -23.7254  -37.6461   23.6687 H   0  0  0  0  0  0
  -26.1370  -31.5041   20.6156 H   0  0  0  0  0  0
  -26.8593  -30.7879   22.0219 H   0  0  0  0  0  0
  -28.1076  -28.8428   21.2577 H   0  0  0  0  0  0
  -25.9426  -25.8580   19.0177 H   0  0  0  0  0  0
  -23.9803  -27.3061   18.9752 H   0  0  0  0  0  0
  -23.7838  -30.5791   19.3956 H   0  0  0  0  0  0
  -22.7769  -29.2375   19.8440 H   0  0  0  0  0  0
  -25.1312  -36.1872   25.0812 H   0  0  0  0  0  0
  -21.0013  -28.3280   24.1372 H   0  0  0  0  0  0
  -20.5673  -26.2305   23.3617 H   0  0  0  0  0  0
  -21.6647  -26.7413   22.1205 H   0  0  0  0  0  0
  -19.6911  -25.6280   21.1248 H   0  0  0  0  0  0
  -19.6694  -27.3178   20.6736 H   0  0  0  0  0  0
  -17.4208  -26.6680   21.4029 H   0  0  0  0  0  0
  -18.0339  -26.0065   22.9025 H   0  0  0  0  0  0
  -19.7948  -30.7286   24.2238 H   0  0  0  0  0  0
  -17.5018  -31.6262   24.5159 H   0  0  0  0  0  0
  -15.5358  -30.2962   23.7659 H   0  0  0  0  0  0
  -15.8697  -28.0797   22.7073 H   0  0  0  0  0  0
  -24.5904  -30.7078   25.7737 H   0  0  0  0  0  0
  -24.8931  -32.2901   26.4839 H   0  0  0  0  0  0
  -25.8042  -30.8899   27.0202 H   0  0  0  0  0  0
  -26.2986  -29.6687   24.1274 H   0  0  0  0  0  0
  -27.4055  -29.7277   25.4791 H   0  0  0  0  0  0
  -27.8871  -30.4235   23.9512 H   0  0  0  0  0  0
  -27.2635  -33.3644   26.2034 H   0  0  0  0  0  0
  -28.3875  -32.6890   25.0329 H   0  0  0  0  0  0
  -28.0708  -31.8493   26.5434 H   0  0  0  0  0  0
  -28.2592  -38.0081   24.7493 H   0  0  0  0  0  0
  -28.1069  -36.2612   24.6328 H   0  0  0  0  0  0
  -27.2291  -37.1470   25.8869 H   0  0  0  0  0  0
  -20.9419  -29.8758   21.6827 H   0  0  0  0  0  0
  -26.0161  -38.2816   24.1392 H   0  0  0  0  0  0
  -26.8215  -20.2752   21.3099 H   0  0  0  0  0  0
  -30.6353  -18.7501   19.9763 H   0  0  0  0  0  0
  -27.7601  -16.1028   21.8140 H   0  0  0  0  0  0
  -28.5437  -25.4813   18.4506 H   0  0  0  0  0  0
  -29.9171  -23.2965   17.9206 H   0  0  0  0  0  0
  -28.2174  -22.9490   17.5897 H   0  0  0  0  0  0
  -27.5457  -22.4670   21.0647 H   0  0  0  0  0  0
  -29.2236  -22.7814   21.4821 H   0  0  0  0  0  0
  -25.6141  -17.0275   22.3885 H   0  0  0  0  0  0
  -25.2253  -18.6700   22.1729 H   0  0  0  0  0  0
  -31.1992  -16.4954   21.1766 H   0  0  0  0  0  0
  1 25  1  0  0  0
  1 30  2  0  0  0
  1 84  1  0  0  0
  2  3  1  0  0  0
  2 25  1  0  0  0
  2 86  1  0  0  0
  2 87  1  0  0  0
  3  4  1  0  0  0
  3 88  1  0  0  0
  3 89  1  0  0  0
  4  5  1  0  0  0
  4 90  1  0  0  0
  4 91  1  0  0  0
  5  6  1  0  0  0
  5 26  1  0  0  0
  5 92  1  0  0  0
  6 25  1  0  0  0
  6 93  1  0  0  0
  6 94  1  0  0  0
  7  8  2  0  0  0
  7 26  1  0  0  0
  7 29  1  0  0  0
  8  9  1  0  0  0
  8 22  1  0  0  0
  9 10  1  0  0  0
  9 27  2  0  0  0
 10 11  2  0  0  0
 10 15  1  0  0  0
 11 12  1  0  0  0
 11 95  1  0  0  0
 12 13  2  0  0  0
 12 96  1  0  0  0
 13 14  1  0  0  0
 13 31  1  0  0  0
 14 15  2  0  0  0
 14 97  1  0  0  0
 15 98  1  0  0  0
 16 17  2  0  0  0
 16 21  1  0  0  0
 16 31  1  0  0  0
 17 18  1  0  0  0
 17 99  1  0  0  0
 18 19  2  0  0  0
 18100  1  0  0  0
 19 20  1  0  0  0
 19 24  1  0  0  0
 20 21  2  0  0  0
 20101  1  0  0  0
 21 23  1  0  0  0
 22 28  1  0  0  0
 22 32  2  0  0  0
 26 27  1  0  0  0
 28102  1  0  0  0
 28103  1  0  0  0
 29104  1  0  0  0
 29105  1  0  0  0
 33 34  1  0  0  0
 33 66  1  0  0  0
 33 70  2  0  0  0
 34 36  1  0  0  0
 34 59  1  0  0  0
 34106  1  0  0  0
 35 44  2  0  0  0
 35 45  1  0  0  0
 35 68  1  0  0  0
 36 56  1  0  0  0
 36107  1  0  0  0
 37 39  1  0  0  0
 37 47  1  0  0  0
 37 66  1  0  0  0
 37108  1  0  0  0
 38 43  2  0  0  0
 38 46  1  0  0  0
 38 47  1  0  0  0
 39 64  1  0  0  0
 39 67  2  0  0  0
 40 52  1  0  0  0
 40 53  2  0  0  0
 40 58  1  0  0  0
 41109  1  0  0  0
 41110  1  0  0  0
 41111  1  0  0  0
 41 48  1  0  0  0
 42 43  1  0  0  0
 42 66  1  0  0  0
 42112  1  0  0  0
 42113  1  0  0  0
 43 44  1  0  0  0
 44114  1  0  0  0
 45 46  2  0  0  0
 45115  1  0  0  0
 46116  1  0  0  0
 47117  1  0  0  0
 47118  1  0  0  0
 48 56  1  0  0  0
 48 65  1  0  0  0
 48119  1  0  0  0
 49 50  1  0  0  0
 49 53  1  0  0  0
 49 64  1  0  0  0
 49120  1  0  0  0
 50 51  1  0  0  0
 50121  1  0  0  0
 50122  1  0  0  0
 51 52  1  0  0  0
 51123  1  0  0  0
 51124  1  0  0  0
 52125  1  0  0  0
 52126  1  0  0  0
 53 54  1  0  0  0
 54 55  2  0  0  0
 54127  1  0  0  0
 55 57  1  0  0  0
 55128  1  0  0  0
 56 69  2  0  0  0
 57 58  2  0  0  0
 57129  1  0  0  0
 58130  1  0  0  0
 59 60  1  0  0  0
 59 61  1  0  0  0
 59 62  1  0  0  0
 60131  1  0  0  0
 60132  1  0  0  0
 60133  1  0  0  0
 61134  1  0  0  0
 61135  1  0  0  0
 61136  1  0  0  0
 62137  1  0  0  0
 62138  1  0  0  0
 62139  1  0  0  0
 63 65  1  0  0  0
 63140  1  0  0  0
 63141  1  0  0  0
 63142  1  0  0  0
 64143  1  0  0  0
 65144  1  0  0  0
 68 79  1  0  0  0
 71 74  2  0  0  0
 71 75  1  0  0  0
 71145  1  0  0  0
 72 74  1  0  0  0
 72 76  2  0  0  0
 72146  1  0  0  0
 73 75  2  0  0  0
 73 76  1  0  0  0
 73147  1  0  0  0
 74 82  1  0  0  0
 75 83  1  0  0  0
 76 84  1  0  0  0
 77 79  2  0  0  0
 77 80  1  0  0  0
 77 81  1  0  0  0
 78 80  1  0  0  0
 78 82  1  0  0  0
 78 85  2  0  0  0
 79148  1  0  0  0
 80149  1  0  0  0
 80150  1  0  0  0
 81 82  1  0  0  0
 81151  1  0  0  0
 81152  1  0  0  0
 83153  1  0  0  0
 83154  1  0  0  0
 84155  1  0  0  0
M  ISO  4   1 100  68 101  79 101  84 100
M  END
> <chiral flag>
0

> <version>
0

> <s_m_source_file>
/data/baiqing/PycharmProjects/Reinvent-master-3.2/result/LINK_invent/BTK/process_docking_weight1_custom_product_contain_oxygen_bond_distance_aromatic_linkinvent_7_9_3/rearranged_h_0069.sdf

> <i_m_source_file_index>
94

> <r_mmod_Potential_Energy-OPLS-2005>
546.675231933594

> <r_mmod_Stretch_Energy-OPLS-2005>
170.745132446289

> <r_mmod_Bend_Energy-OPLS-2005>
349.827667236328

> <r_mmod_Torsional_Energy-OPLS-2005>
314.14990234375

> <r_mmod_Improper_Torsional_Energy-OPLS-2005>
11.7530975341797

> <r_mmod_Van_der_Waal_Energy-OPLS-2005>
123.029426574707

> <r_mmod_Electrostatic_Energy-OPLS-2005>
-352.098114013672

> <r_mmod_Solvation_Energy-OPLS-2005>
-212.067687988281

> <b_mmod_Minimization_Converged-OPLS-2005>
0

> <r_mmod_RMS_Derivative-OPLS-2005>
2.73665761947632

$$$$
96
                    3D
 Structure written by MMmdl.
166175  0  0  1  0            999 V2000
  -30.6616  -14.7268   20.4565 C   0  0  0  0  0  0
  -30.4135  -12.4410   19.4828 C   0  0  0  0  0  0
  -29.5023  -12.5013   18.2391 C   0  0  0  0  0  0
  -28.0296  -12.3316   18.6532 C   0  0  0  0  0  0
  -27.6375  -13.2396   19.8499 C   0  0  2  0  0  0
  -28.6823  -13.1973   20.9878 C   0  0  0  0  0  0
  -25.2485  -13.8227   20.5710 C   0  0  0  0  0  0
  -24.1786  -13.0449   20.9224 C   0  0  0  0  0  0
  -24.6393  -11.6930   20.8763 C   0  0  0  0  0  0
  -23.9079  -10.4297   21.0412 C   0  0  0  0  0  0
  -24.3623   -9.4210   21.9188 C   0  0  0  0  0  0
  -23.6299   -8.2247   22.0757 C   0  0  0  0  0  0
  -22.4284   -8.0288   21.3542 C   0  0  0  0  0  0
  -21.9923   -9.0261   20.4638 C   0  0  0  0  0  0
  -22.7258  -10.2136   20.3054 C   0  0  0  0  0  0
  -21.6855   -6.0740   22.5282 C   0  0  0  0  0  0
  -21.4013   -6.5643   23.8218 C   0  0  0  0  0  0
  -21.3663   -5.6791   24.9185 C   0  0  0  0  0  0
  -21.6045   -4.3054   24.7229 C   0  0  0  0  0  0
  -21.8818   -3.8148   23.4346 C   0  0  0  0  0  0
  -21.9191   -4.6967   22.3401 C   0  0  0  0  0  0
  -22.7806  -13.5213   21.1881 C   0  0  0  0  0  0
  -22.1660   -4.2150   21.0979 F   0  0  0  0  0  0
  -21.5633   -3.4537   25.7742 F   0  0  0  0  0  0
  -29.9858  -13.5266   20.4003 N   0  0  0  0  0  0
  -26.2916  -12.9447   20.3310 N   0  0  0  0  0  0
  -25.9325  -11.6577   20.5771 N   0  0  0  0  0  0
  -22.0463  -12.8178   22.0427 N   0  0  0  0  0  0
  -25.4162  -15.1956   20.4152 N   0  0  0  0  0  0
  -31.8472  -14.7335   20.1276 O   0  0  0  0  0  0
  -21.6649   -6.8884   21.4240 O   0  0  0  0  0  0
  -22.3482  -14.5526   20.6748 O   0  0  0  0  0  0
  -24.6315  -31.8547   23.1985 C   0  0  0  0  0  0
  -25.9139  -32.4767   23.8332 C   0  0  1  0  0  0
  -27.2232  -27.2502   20.1264 C   0  0  0  0  0  0
  -25.5920  -33.8567   24.2249 N   0  0  0  0  0  0
  -23.4292  -30.4769   21.5431 C   0  0  2  0  0  0
  -24.8758  -28.9238   20.1092 C   0  0  0  0  0  0
  -22.7520  -29.4587   22.4930 C   0  0  0  0  0  0
  -18.0287  -28.1391   22.8469 C   0  0  0  0  0  0
  -24.1499  -36.7300   23.2637 C   0  0  0  0  0  0
  -25.9744  -30.7637   21.3795 C   0  0  0  0  0  0
  -26.0476  -29.3860   20.7193 C   0  0  0  0  0  0
  -27.2182  -28.5603   20.7203 C   0  0  0  0  0  0
  -26.0242  -26.8625   19.4814 C   0  0  0  0  0  0
  -24.8698  -27.6706   19.4807 C   0  0  0  0  0  0
  -23.6486  -29.8129   20.1590 C   0  0  0  0  0  0
  -25.4118  -36.3080   24.0319 C   0  0  1  0  0  0
  -20.5881  -28.3699   23.1271 C   0  0  2  0  0  0
  -20.6785  -26.9420   22.5404 C   0  0  0  0  0  0
  -19.5759  -26.6384   21.5212 C   0  0  0  0  0  0
  -18.1939  -26.7941   22.1614 C   0  0  0  0  0  0
  -19.1538  -28.8866   23.2860 C   0  0  0  0  0  0
  -18.9463  -30.1466   23.8880 C   0  0  0  0  0  0
  -17.6470  -30.6599   24.0552 C   0  0  0  0  0  0
  -25.9042  -34.9454   23.5094 C   0  0  0  0  0  0
  -16.5358  -29.9092   23.6328 C   0  0  0  0  0  0
  -16.7276  -28.6511   23.0340 C   0  0  0  0  0  0
  -26.4494  -31.6596   25.0726 C   0  0  0  0  0  0
  -25.3690  -31.3704   26.1426 C   0  0  0  0  0  0
  -27.0370  -30.3030   24.6198 C   0  0  0  0  0  0
  -27.6050  -32.4334   25.7500 C   0  0  0  0  0  0
  -27.5584  -37.1808   24.8456 C   0  0  0  0  0  0
  -21.4223  -29.3051   22.3690 N   0  0  0  0  0  0
  -26.4309  -37.3767   23.9383 N   0  0  0  0  0  0
  -24.6975  -31.0499   22.0969 N   0  0  0  0  0  0
  -23.4228  -28.8124   23.3024 O   0  0  0  0  0  0
  -28.3375  -26.3780   20.2257 O   0  0  0  0  0  0
  -26.5637  -34.8934   22.4670 O   0  0  0  0  0  0
  -23.5466  -32.1385   23.7263 O   0  0  0  0  0  0
  -31.3475  -20.0696   20.2691 C   0  0  0  0  0  0
  -31.7828  -17.6625   20.4020 C   0  0  0  0  0  0
  -29.9631  -19.8838   20.4657 C   0  0  0  0  0  0
  -32.2411  -18.9853   20.2499 C   0  0  0  0  0  0
  -30.4079  -17.3457   20.5603 C   0  0  0  0  0  0
  -29.5081  -18.4973   20.6054 C   0  0  0  0  0  0
  -28.3425  -21.4730   21.5686 C   0  0  0  0  0  0
  -29.3303  -22.3807   19.7224 C   0  0  0  0  0  0
  -27.8758  -22.9639   21.5107 C   0  0  0  0  0  0
  -28.9055  -23.6776   20.5540 C   0  0  1  0  0  0
  -27.8340  -23.5682   22.9363 C   0  0  0  0  0  0
  -26.4389  -22.9764   20.9410 C   0  0  0  0  0  0
  -30.1860  -24.1469   21.2898 C   0  0  0  0  0  0
  -28.3767  -24.9666   19.6940 C   0  0  0  0  0  0
  -29.1535  -21.1322   20.5482 N   0  0  0  0  0  0
  -33.6050  -19.2242   20.0815 N   0  0  0  0  0  0
  -29.9665  -15.9161   20.6762 N   0  0  0  0  0  0
  -27.9857  -20.7126   22.4744 O   0  0  0  0  0  0
  -28.1847  -18.2538   20.7586 F   0  0  0  0  0  0
  -31.4593  -12.5235   19.1822 H   0  0  0  0  0  0
  -30.3261  -11.4724   19.9772 H   0  0  0  0  0  0
  -29.7815  -11.7240   17.5267 H   0  0  0  0  0  0
  -29.6343  -13.4552   17.7256 H   0  0  0  0  0  0
  -27.8849  -11.2839   18.9212 H   0  0  0  0  0  0
  -27.3715  -12.5192   17.8045 H   0  0  0  0  0  0
  -27.6268  -14.2578   19.4597 H   0  0  0  0  0  0
  -28.7116  -12.2122   21.4545 H   0  0  0  0  0  0
  -28.4204  -13.9033   21.7779 H   0  0  0  0  0  0
  -25.2764   -9.5692   22.4767 H   0  0  0  0  0  0
  -24.0011   -7.4639   22.7474 H   0  0  0  0  0  0
  -21.0862   -8.8779   19.8933 H   0  0  0  0  0  0
  -22.3724  -10.9674   19.6163 H   0  0  0  0  0  0
  -21.2005   -7.6153   23.9720 H   0  0  0  0  0  0
  -21.1489   -6.0526   25.9085 H   0  0  0  0  0  0
  -22.0591   -2.7609   23.2850 H   0  0  0  0  0  0
  -22.4096  -11.9832   22.4774 H   0  0  0  0  0  0
  -21.1082  -13.1178   22.2661 H   0  0  0  0  0  0
  -24.6491  -15.8472   20.5419 H   0  0  0  0  0  0
  -26.2670  -15.6432   20.0983 H   0  0  0  0  0  0
  -26.7200  -32.5432   23.1067 H   0  0  0  0  0  0
  -25.0042  -33.9677   25.0383 H   0  0  0  0  0  0
  -22.7244  -31.2994   21.3995 H   0  0  0  0  0  0
  -23.3772  -35.9632   23.3299 H   0  0  0  0  0  0
  -24.3583  -36.8928   22.2053 H   0  0  0  0  0  0
  -23.7265  -37.6494   23.6679 H   0  0  0  0  0  0
  -26.1117  -31.5256   20.6113 H   0  0  0  0  0  0
  -26.8514  -30.8175   22.0118 H   0  0  0  0  0  0
  -28.1118  -28.9094   21.2189 H   0  0  0  0  0  0
  -25.9156  -25.9153   18.9827 H   0  0  0  0  0  0
  -23.9709  -27.3086   18.9976 H   0  0  0  0  0  0
  -23.7761  -30.5901   19.4053 H   0  0  0  0  0  0
  -22.7679  -29.2457   19.8556 H   0  0  0  0  0  0
  -25.1318  -36.1930   25.0816 H   0  0  0  0  0  0
  -20.9940  -28.3300   24.1394 H   0  0  0  0  0  0
  -20.5714  -26.2305   23.3608 H   0  0  0  0  0  0
  -21.6651  -26.7466   22.1178 H   0  0  0  0  0  0
  -19.6907  -25.6295   21.1265 H   0  0  0  0  0  0
  -19.6707  -27.3176   20.6728 H   0  0  0  0  0  0
  -17.4206  -26.6672   21.4024 H   0  0  0  0  0  0
  -18.0307  -26.0108   22.9018 H   0  0  0  0  0  0
  -19.7952  -30.7265   24.2255 H   0  0  0  0  0  0
  -17.5036  -31.6279   24.5162 H   0  0  0  0  0  0
  -15.5359  -30.2988   23.7680 H   0  0  0  0  0  0
  -15.8666  -28.0841   22.7039 H   0  0  0  0  0  0
  -24.5899  -30.7035   25.7712 H   0  0  0  0  0  0
  -24.8840  -32.2856   26.4846 H   0  0  0  0  0  0
  -25.7995  -30.8877   27.0212 H   0  0  0  0  0  0
  -26.2973  -29.6741   24.1233 H   0  0  0  0  0  0
  -27.4088  -29.7313   25.4707 H   0  0  0  0  0  0
  -27.8830  -30.4326   23.9442 H   0  0  0  0  0  0
  -27.2676  -33.3663   26.2028 H   0  0  0  0  0  0
  -28.3885  -32.6825   25.0332 H   0  0  0  0  0  0
  -28.0686  -31.8473   26.5441 H   0  0  0  0  0  0
  -28.2584  -38.0124   24.7528 H   0  0  0  0  0  0
  -28.1114  -36.2656   24.6288 H   0  0  0  0  0  0
  -27.2297  -37.1446   25.8859 H   0  0  0  0  0  0
  -20.9422  -29.8834   21.6927 H   0  0  0  0  0  0
  -26.0206  -38.2849   24.1383 H   0  0  0  0  0  0
  -31.7449  -21.0696   20.1762 H   0  0  0  0  0  0
  -32.5396  -16.8967   20.3936 H   0  0  0  0  0  0
  -30.3387  -22.4741   19.3237 H   0  0  0  0  0  0
  -28.6777  -22.2740   18.8545 H   0  0  0  0  0  0
  -28.7655  -23.4065   23.4805 H   0  0  0  0  0  0
  -27.0454  -23.1094   23.5345 H   0  0  0  0  0  0
  -27.6402  -24.6400   22.9106 H   0  0  0  0  0  0
  -26.4003  -22.5514   19.9369 H   0  0  0  0  0  0
  -26.0303  -23.9861   20.8938 H   0  0  0  0  0  0
  -25.7613  -22.3896   21.5618 H   0  0  0  0  0  0
  -30.6380  -23.3582   21.8930 H   0  0  0  0  0  0
  -29.9809  -24.9928   21.9486 H   0  0  0  0  0  0
  -30.9411  -24.4796   20.5754 H   0  0  0  0  0  0
  -27.4604  -24.6733   19.1985 H   0  0  0  0  0  0
  -29.0648  -25.0514   18.8525 H   0  0  0  0  0  0
  -33.9777  -20.1585   20.2238 H   0  0  0  0  0  0
  -34.2752  -18.4893   20.2896 H   0  0  0  0  0  0
  -28.9861  -15.7967   20.8792 H   0  0  0  0  0  0
  1 25  1  0  0  0
  1 30  2  0  0  0
  1 87  1  0  0  0
  2  3  1  0  0  0
  2 25  1  0  0  0
  2 90  1  0  0  0
  2 91  1  0  0  0
  3  4  1  0  0  0
  3 92  1  0  0  0
  3 93  1  0  0  0
  4  5  1  0  0  0
  4 94  1  0  0  0
  4 95  1  0  0  0
  5  6  1  0  0  0
  5 26  1  0  0  0
  5 96  1  0  0  0
  6 25  1  0  0  0
  6 97  1  0  0  0
  6 98  1  0  0  0
  7  8  2  0  0  0
  7 26  1  0  0  0
  7 29  1  0  0  0
  8  9  1  0  0  0
  8 22  1  0  0  0
  9 10  1  0  0  0
  9 27  2  0  0  0
 10 11  2  0  0  0
 10 15  1  0  0  0
 11 12  1  0  0  0
 11 99  1  0  0  0
 12 13  2  0  0  0
 12100  1  0  0  0
 13 14  1  0  0  0
 13 31  1  0  0  0
 14 15  2  0  0  0
 14101  1  0  0  0
 15102  1  0  0  0
 16 17  2  0  0  0
 16 21  1  0  0  0
 16 31  1  0  0  0
 17 18  1  0  0  0
 17103  1  0  0  0
 18 19  2  0  0  0
 18104  1  0  0  0
 19 20  1  0  0  0
 19 24  1  0  0  0
 20 21  2  0  0  0
 20105  1  0  0  0
 21 23  1  0  0  0
 22 28  1  0  0  0
 22 32  2  0  0  0
 26 27  1  0  0  0
 28106  1  0  0  0
 28107  1  0  0  0
 29108  1  0  0  0
 29109  1  0  0  0
 33 34  1  0  0  0
 33 66  1  0  0  0
 33 70  2  0  0  0
 34 36  1  0  0  0
 34 59  1  0  0  0
 34110  1  0  0  0
 35 44  2  0  0  0
 35 45  1  0  0  0
 35 68  1  0  0  0
 36 56  1  0  0  0
 36111  1  0  0  0
 37 39  1  0  0  0
 37 47  1  0  0  0
 37 66  1  0  0  0
 37112  1  0  0  0
 38 43  2  0  0  0
 38 46  1  0  0  0
 38 47  1  0  0  0
 39 64  1  0  0  0
 39 67  2  0  0  0
 40 52  1  0  0  0
 40 53  2  0  0  0
 40 58  1  0  0  0
 41113  1  0  0  0
 41114  1  0  0  0
 41115  1  0  0  0
 41 48  1  0  0  0
 42 43  1  0  0  0
 42 66  1  0  0  0
 42116  1  0  0  0
 42117  1  0  0  0
 43 44  1  0  0  0
 44118  1  0  0  0
 45 46  2  0  0  0
 45119  1  0  0  0
 46120  1  0  0  0
 47121  1  0  0  0
 47122  1  0  0  0
 48 56  1  0  0  0
 48 65  1  0  0  0
 48123  1  0  0  0
 49 50  1  0  0  0
 49 53  1  0  0  0
 49 64  1  0  0  0
 49124  1  0  0  0
 50 51  1  0  0  0
 50125  1  0  0  0
 50126  1  0  0  0
 51 52  1  0  0  0
 51127  1  0  0  0
 51128  1  0  0  0
 52129  1  0  0  0
 52130  1  0  0  0
 53 54  1  0  0  0
 54 55  2  0  0  0
 54131  1  0  0  0
 55 57  1  0  0  0
 55132  1  0  0  0
 56 69  2  0  0  0
 57 58  2  0  0  0
 57133  1  0  0  0
 58134  1  0  0  0
 59 60  1  0  0  0
 59 61  1  0  0  0
 59 62  1  0  0  0
 60135  1  0  0  0
 60136  1  0  0  0
 60137  1  0  0  0
 61138  1  0  0  0
 61139  1  0  0  0
 61140  1  0  0  0
 62141  1  0  0  0
 62142  1  0  0  0
 62143  1  0  0  0
 63 65  1  0  0  0
 63144  1  0  0  0
 63145  1  0  0  0
 63146  1  0  0  0
 64147  1  0  0  0
 65148  1  0  0  0
 68 84  1  0  0  0
 71 73  2  0  0  0
 71 74  1  0  0  0
 71149  1  0  0  0
 72 74  2  0  0  0
 72 75  1  0  0  0
 72150  1  0  0  0
 73 76  1  0  0  0
 73 85  1  0  0  0
 74 86  1  0  0  0
 75 76  2  0  0  0
 75 87  1  0  0  0
 76 89  1  0  0  0
 77 79  1  0  0  0
 77 85  1  0  0  0
 77 88  2  0  0  0
 78 80  1  0  0  0
 78 85  1  0  0  0
 78151  1  0  0  0
 78152  1  0  0  0
 79 80  1  0  0  0
 79 81  1  0  0  0
 79 82  1  0  0  0
 80 83  1  0  0  0
 80 84  1  0  0  0
 81153  1  0  0  0
 81154  1  0  0  0
 81155  1  0  0  0
 82156  1  0  0  0
 82157  1  0  0  0
 82158  1  0  0  0
 83159  1  0  0  0
 83160  1  0  0  0
 83161  1  0  0  0
 84162  1  0  0  0
 84163  1  0  0  0
 86164  1  0  0  0
 86165  1  0  0  0
 87166  1  0  0  0
M  ISO  4   1 100  68 101  84 101  87 100
M  END
> <chiral flag>
0

> <version>
0

> <s_m_source_file>
/data/baiqing/PycharmProjects/Reinvent-master-3.2/result/LINK_invent/BTK/process_docking_weight1_custom_product_contain_oxygen_bond_distance_aromatic_linkinvent_7_9_3/rearranged_h_0069.sdf

> <i_m_source_file_index>
95

> <r_mmod_Potential_Energy-OPLS-2005>
290.975799560547

> <r_mmod_Stretch_Energy-OPLS-2005>
137.285720825195

> <r_mmod_Bend_Energy-OPLS-2005>
220.107147216797

> <r_mmod_Torsional_Energy-OPLS-2005>
298.433074951172

> <r_mmod_Improper_Torsional_Energy-OPLS-2005>
7.21469974517822

> <r_mmod_Van_der_Waal_Energy-OPLS-2005>
149.374984741211

> <r_mmod_Electrostatic_Energy-OPLS-2005>
-388.367431640625

> <r_mmod_Solvation_Energy-OPLS-2005>
-217.176300048828

> <b_mmod_Minimization_Converged-OPLS-2005>
0

> <r_mmod_RMS_Derivative-OPLS-2005>
2.29331183433533

$$$$
97
                    3D
 Structure written by MMmdl.
162170  0  0  1  0            999 V2000
  -30.5259  -14.6611   20.5927 C   0  0  0  0  0  0
  -30.4480  -12.4350   19.4556 C   0  0  0  0  0  0
  -29.5074  -12.5412   18.2261 C   0  0  0  0  0  0
  -28.0341  -12.3559   18.6361 C   0  0  0  0  0  0
  -27.6540  -13.2024   19.8750 C   0  0  2  0  0  0
  -28.6831  -12.9986   21.0117 C   0  0  0  0  0  0
  -25.2578  -13.8148   20.5634 C   0  0  0  0  0  0
  -24.1830  -13.0388   20.9183 C   0  0  0  0  0  0
  -24.6438  -11.6894   20.8815 C   0  0  0  0  0  0
  -23.9113  -10.4274   21.0527 C   0  0  0  0  0  0
  -24.3682   -9.4156   21.9287 C   0  0  0  0  0  0
  -23.6306   -8.2206   22.0835 C   0  0  0  0  0  0
  -22.4290   -8.0297   21.3575 C   0  0  0  0  0  0
  -21.9966   -9.0297   20.4661 C   0  0  0  0  0  0
  -22.7336  -10.2151   20.3102 C   0  0  0  0  0  0
  -21.6869   -6.0774   22.5303 C   0  0  0  0  0  0
  -21.3996   -6.5671   23.8232 C   0  0  0  0  0  0
  -21.3627   -5.6836   24.9219 C   0  0  0  0  0  0
  -21.6047   -4.3098   24.7240 C   0  0  0  0  0  0
  -21.8811   -3.8173   23.4367 C   0  0  0  0  0  0
  -21.9179   -4.7001   22.3445 C   0  0  0  0  0  0
  -22.7885  -13.5213   21.1882 C   0  0  0  0  0  0
  -22.1659   -4.2195   21.1024 F   0  0  0  0  0  0
  -21.5639   -3.4546   25.7742 F   0  0  0  0  0  0
  -29.9946  -13.4005   20.4839 N   0  0  0  0  0  0
  -26.2962  -12.9276   20.3272 N   0  0  0  0  0  0
  -25.9331  -11.6448   20.5780 N   0  0  0  0  0  0
  -22.0494  -12.8143   22.0377 N   0  0  0  0  0  0
  -25.4257  -15.1820   20.4042 N   0  0  0  0  0  0
  -31.6349  -14.9247   20.1059 O   0  0  0  0  0  0
  -21.6597   -6.8935   21.4268 O   0  0  0  0  0  0
  -22.3569  -14.5537   20.6738 O   0  0  0  0  0  0
  -24.6238  -31.8605   23.2061 C   0  0  0  0  0  0
  -25.9099  -32.4742   23.8399 C   0  0  1  0  0  0
  -27.1817  -27.2723   20.1548 C   0  0  0  0  0  0
  -25.5945  -33.8553   24.2323 N   0  0  0  0  0  0
  -23.4190  -30.4825   21.5456 C   0  0  2  0  0  0
  -24.8642  -28.9364   20.1081 C   0  0  0  0  0  0
  -22.7448  -29.4630   22.4906 C   0  0  0  0  0  0
  -18.0292  -28.1382   22.8521 C   0  0  0  0  0  0
  -24.1498  -36.7259   23.2650 C   0  0  0  0  0  0
  -25.9644  -30.7742   21.3895 C   0  0  0  0  0  0
  -26.0290  -29.3967   20.7394 C   0  0  0  0  0  0
  -27.1930  -28.5698   20.7618 C   0  0  0  0  0  0
  -26.0436  -26.9190   19.4145 C   0  0  0  0  0  0
  -24.8743  -27.6995   19.4418 C   0  0  0  0  0  0
  -23.6315  -29.8183   20.1600 C   0  0  0  0  0  0
  -25.4119  -36.3054   24.0334 C   0  0  1  0  0  0
  -20.5869  -28.3695   23.1279 C   0  0  2  0  0  0
  -20.6804  -26.9409   22.5409 C   0  0  0  0  0  0
  -19.5766  -26.6364   21.5223 C   0  0  0  0  0  0
  -18.1933  -26.7953   22.1620 C   0  0  0  0  0  0
  -19.1553  -28.8852   23.2888 C   0  0  0  0  0  0
  -18.9470  -30.1484   23.8852 C   0  0  0  0  0  0
  -17.6484  -30.6621   24.0529 C   0  0  0  0  0  0
  -25.9052  -34.9428   23.5127 C   0  0  0  0  0  0
  -16.5356  -29.9117   23.6350 C   0  0  0  0  0  0
  -16.7283  -28.6515   23.0387 C   0  0  0  0  0  0
  -26.4458  -31.6560   25.0765 C   0  0  0  0  0  0
  -25.3666  -31.3651   26.1446 C   0  0  0  0  0  0
  -27.0376  -30.3016   24.6243 C   0  0  0  0  0  0
  -27.6027  -32.4277   25.7542 C   0  0  0  0  0  0
  -27.5574  -37.1784   24.8462 C   0  0  0  0  0  0
  -21.4160  -29.3038   22.3631 N   0  0  0  0  0  0
  -26.4296  -37.3738   23.9397 N   0  0  0  0  0  0
  -24.6869  -31.0598   22.1012 N   0  0  0  0  0  0
  -23.4172  -28.8209   23.3008 O   0  0  0  0  0  0
  -28.2636  -26.3853   20.1685 O   0  0  0  0  0  0
  -26.5627  -34.8896   22.4689 O   0  0  0  0  0  0
  -23.5418  -32.1450   23.7400 O   0  0  0  0  0  0
  -29.1111  -19.4032   21.5634 C   0  0  0  0  0  0
  -29.6281  -18.0806   21.8008 C   0  0  0  0  0  0
  -28.5512  -17.2928   19.8161 C   0  0  0  0  0  0
  -28.2995  -19.7188   20.4295 C   0  0  0  0  0  0
  -29.3919  -16.9875   20.9143 C   0  0  0  0  0  0
  -28.0195  -18.5925   19.5811 C   0  0  0  0  0  0
  -27.7301  -21.1131   20.0984 C   0  0  0  0  0  0
  -25.9104  -23.7782   20.5688 C   0  0  0  0  0  0
  -29.7464  -24.6997   20.6440 C   0  0  0  0  0  0
  -27.9097  -25.1633   22.3088 C   0  0  0  0  0  0
  -27.4326  -23.7244   20.2426 C   0  0  1  0  0  0
  -28.2440  -25.0174   20.8105 C   0  0  0  0  0  0
  -26.8944  -21.2070   19.0652 N   0  0  0  0  0  0
  -29.7434  -15.5934   21.2363 N   0  0  0  0  0  0
  -27.9266  -22.3342   20.7116 N   0  3  0  0  0  0
  -27.1911  -18.7121   18.5103 F   0  0  0  0  0  0
  -31.4816  -12.6168   19.1598 H   0  0  0  0  0  0
  -30.4327  -11.4234   19.8644 H   0  0  0  0  0  0
  -29.7843  -11.8032   17.4660 H   0  0  0  0  0  0
  -29.6250  -13.5182   17.7602 H   0  0  0  0  0  0
  -27.8738  -11.3020   18.8490 H   0  0  0  0  0  0
  -27.3784  -12.5996   17.7992 H   0  0  0  0  0  0
  -27.6831  -14.2434   19.5596 H   0  0  0  0  0  0
  -28.7087  -11.9492   21.3066 H   0  0  0  0  0  0
  -28.3968  -13.5306   21.9165 H   0  0  0  0  0  0
  -25.2884   -9.5550   22.4789 H   0  0  0  0  0  0
  -24.0032   -7.4560   22.7515 H   0  0  0  0  0  0
  -21.0930   -8.8828   19.8881 H   0  0  0  0  0  0
  -22.3923  -10.9702   19.6142 H   0  0  0  0  0  0
  -21.1957   -7.6169   23.9764 H   0  0  0  0  0  0
  -21.1486   -6.0572   25.9164 H   0  0  0  0  0  0
  -22.0609   -2.7611   23.2858 H   0  0  0  0  0  0
  -22.4217  -11.9818   22.4690 H   0  0  0  0  0  0
  -21.1106  -13.1143   22.2585 H   0  0  0  0  0  0
  -24.6475  -15.8197   20.5251 H   0  0  0  0  0  0
  -26.2567  -15.6221   20.0353 H   0  0  0  0  0  0
  -26.7145  -32.5424   23.1124 H   0  0  0  0  0  0
  -25.0101  -33.9701   25.0470 H   0  0  0  0  0  0
  -22.7129  -31.3025   21.4030 H   0  0  0  0  0  0
  -23.3781  -35.9562   23.3277 H   0  0  0  0  0  0
  -24.3612  -36.8913   22.2075 H   0  0  0  0  0  0
  -23.7226  -37.6436   23.6699 H   0  0  0  0  0  0
  -26.1088  -31.5381   20.6225 H   0  0  0  0  0  0
  -26.8415  -30.8180   22.0258 H   0  0  0  0  0  0
  -28.0863  -28.9143   21.2697 H   0  0  0  0  0  0
  -26.0551  -26.0282   18.8051 H   0  0  0  0  0  0
  -23.9874  -27.3607   18.9233 H   0  0  0  0  0  0
  -23.7478  -30.5980   19.4046 H   0  0  0  0  0  0
  -22.7512  -29.2381   19.8704 H   0  0  0  0  0  0
  -25.1302  -36.1907   25.0827 H   0  0  0  0  0  0
  -20.9951  -28.3290   24.1397 H   0  0  0  0  0  0
  -20.5748  -26.2291   23.3596 H   0  0  0  0  0  0
  -21.6672  -26.7473   22.1174 H   0  0  0  0  0  0
  -19.6927  -25.6263   21.1317 H   0  0  0  0  0  0
  -19.6738  -27.3126   20.6718 H   0  0  0  0  0  0
  -17.4211  -26.6719   21.3995 H   0  0  0  0  0  0
  -18.0295  -26.0064   22.8987 H   0  0  0  0  0  0
  -19.7922  -30.7348   24.2157 H   0  0  0  0  0  0
  -17.5018  -31.6301   24.5156 H   0  0  0  0  0  0
  -15.5345  -30.3021   23.7698 H   0  0  0  0  0  0
  -15.8663  -28.0837   22.7137 H   0  0  0  0  0  0
  -24.5822  -30.7030   25.7691 H   0  0  0  0  0  0
  -24.8863  -32.2827   26.4924 H   0  0  0  0  0  0
  -25.7978  -30.8741   27.0198 H   0  0  0  0  0  0
  -26.3015  -29.6690   24.1246 H   0  0  0  0  0  0
  -27.4084  -29.7305   25.4781 H   0  0  0  0  0  0
  -27.8862  -30.4358   23.9506 H   0  0  0  0  0  0
  -27.2639  -33.3566   26.2174 H   0  0  0  0  0  0
  -28.3826  -32.6847   25.0333 H   0  0  0  0  0  0
  -28.0699  -31.8339   26.5428 H   0  0  0  0  0  0
  -28.2551  -38.0120   24.7584 H   0  0  0  0  0  0
  -28.1145  -36.2674   24.6252 H   0  0  0  0  0  0
  -27.2321  -37.1339   25.8868 H   0  0  0  0  0  0
  -20.9347  -29.8735   21.6829 H   0  0  0  0  0  0
  -26.0192  -38.2805   24.1422 H   0  0  0  0  0  0
  -29.3421  -20.1682   22.2874 H   0  0  0  0  0  0
  -30.1906  -17.8944   22.7094 H   0  0  0  0  0  0
  -28.2357  -16.5093   19.1468 H   0  0  0  0  0  0
  -25.4701  -24.7639   20.4793 H   0  0  0  0  0  0
  -25.7085  -23.4403   21.5896 H   0  0  0  0  0  0
  -25.3291  -23.1316   19.9187 H   0  0  0  0  0  0
  -30.0684  -23.8567   21.2563 H   0  0  0  0  0  0
  -30.3797  -25.5474   20.9069 H   0  0  0  0  0  0
  -29.9906  -24.4625   19.6061 H   0  0  0  0  0  0
  -27.8204  -24.1843   22.7798 H   0  0  0  0  0  0
  -26.9542  -25.6715   22.4444 H   0  0  0  0  0  0
  -28.6649  -25.7140   22.8682 H   0  0  0  0  0  0
  -27.5575  -23.7583   19.1573 H   0  0  0  0  0  0
  -26.7558  -20.3639   18.5151 H   0  0  0  0  0  0
  -26.1819  -21.9156   19.0694 H   0  0  0  0  0  0
  -29.0175  -15.1349   21.7649 H   0  0  0  0  0  0
  -28.1105  -22.2644   21.7035 H   0  0  0  0  0  0
  1 25  1  0  0  0
  1 30  2  0  0  0
  1 84  1  0  0  0
  2  3  1  0  0  0
  2 25  1  0  0  0
  2 87  1  0  0  0
  2 88  1  0  0  0
  3  4  1  0  0  0
  3 89  1  0  0  0
  3 90  1  0  0  0
  4  5  1  0  0  0
  4 91  1  0  0  0
  4 92  1  0  0  0
  5  6  1  0  0  0
  5 26  1  0  0  0
  5 93  1  0  0  0
  6 25  1  0  0  0
  6 94  1  0  0  0
  6 95  1  0  0  0
  7  8  2  0  0  0
  7 26  1  0  0  0
  7 29  1  0  0  0
  8  9  1  0  0  0
  8 22  1  0  0  0
  9 10  1  0  0  0
  9 27  2  0  0  0
 10 11  2  0  0  0
 10 15  1  0  0  0
 11 12  1  0  0  0
 11 96  1  0  0  0
 12 13  2  0  0  0
 12 97  1  0  0  0
 13 14  1  0  0  0
 13 31  1  0  0  0
 14 15  2  0  0  0
 14 98  1  0  0  0
 15 99  1  0  0  0
 16 17  2  0  0  0
 16 21  1  0  0  0
 16 31  1  0  0  0
 17 18  1  0  0  0
 17100  1  0  0  0
 18 19  2  0  0  0
 18101  1  0  0  0
 19 20  1  0  0  0
 19 24  1  0  0  0
 20 21  2  0  0  0
 20102  1  0  0  0
 21 23  1  0  0  0
 22 28  1  0  0  0
 22 32  2  0  0  0
 26 27  1  0  0  0
 28103  1  0  0  0
 28104  1  0  0  0
 29105  1  0  0  0
 29106  1  0  0  0
 33 34  1  0  0  0
 33 66  1  0  0  0
 33 70  2  0  0  0
 34 36  1  0  0  0
 34 59  1  0  0  0
 34107  1  0  0  0
 35 44  2  0  0  0
 35 45  1  0  0  0
 35 68  1  0  0  0
 36 56  1  0  0  0
 36108  1  0  0  0
 37 39  1  0  0  0
 37 47  1  0  0  0
 37 66  1  0  0  0
 37109  1  0  0  0
 38 43  2  0  0  0
 38 46  1  0  0  0
 38 47  1  0  0  0
 39 64  1  0  0  0
 39 67  2  0  0  0
 40 52  1  0  0  0
 40 53  2  0  0  0
 40 58  1  0  0  0
 41110  1  0  0  0
 41111  1  0  0  0
 41112  1  0  0  0
 41 48  1  0  0  0
 42 43  1  0  0  0
 42 66  1  0  0  0
 42113  1  0  0  0
 42114  1  0  0  0
 43 44  1  0  0  0
 44115  1  0  0  0
 45 46  2  0  0  0
 45116  1  0  0  0
 46117  1  0  0  0
 47118  1  0  0  0
 47119  1  0  0  0
 48 56  1  0  0  0
 48 65  1  0  0  0
 48120  1  0  0  0
 49 50  1  0  0  0
 49 53  1  0  0  0
 49 64  1  0  0  0
 49121  1  0  0  0
 50 51  1  0  0  0
 50122  1  0  0  0
 50123  1  0  0  0
 51 52  1  0  0  0
 51124  1  0  0  0
 51125  1  0  0  0
 52126  1  0  0  0
 52127  1  0  0  0
 53 54  1  0  0  0
 54 55  2  0  0  0
 54128  1  0  0  0
 55 57  1  0  0  0
 55129  1  0  0  0
 56 69  2  0  0  0
 57 58  2  0  0  0
 57130  1  0  0  0
 58131  1  0  0  0
 59 60  1  0  0  0
 59 61  1  0  0  0
 59 62  1  0  0  0
 60132  1  0  0  0
 60133  1  0  0  0
 60134  1  0  0  0
 61135  1  0  0  0
 61136  1  0  0  0
 61137  1  0  0  0
 62138  1  0  0  0
 62139  1  0  0  0
 62140  1  0  0  0
 63 65  1  0  0  0
 63141  1  0  0  0
 63142  1  0  0  0
 63143  1  0  0  0
 64144  1  0  0  0
 65145  1  0  0  0
 68 82  1  0  0  0
 71 72  2  0  0  0
 71 74  1  0  0  0
 71146  1  0  0  0
 72 75  1  0  0  0
 72147  1  0  0  0
 73 75  2  0  0  0
 73 76  1  0  0  0
 73148  1  0  0  0
 74 76  2  0  0  0
 74 77  1  0  0  0
 75 84  1  0  0  0
 76 86  1  0  0  0
 77 83  1  0  0  0
 77 85  2  0  0  0
 78149  1  0  0  0
 78150  1  0  0  0
 78151  1  0  0  0
 78 81  1  0  0  0
 79152  1  0  0  0
 79153  1  0  0  0
 79154  1  0  0  0
 79 82  1  0  0  0
 80 82  1  0  0  0
 80155  1  0  0  0
 80156  1  0  0  0
 80157  1  0  0  0
 81 82  1  0  0  0
 81 85  1  0  0  0
 81158  1  0  0  0
 83159  1  0  0  0
 83160  1  0  0  0
 84161  1  0  0  0
 85162  1  0  0  0
M  CHG  1  85   1
M  ISO  4   1 100  68 101  82 101  84 100
M  END
> <chiral flag>
0

> <version>
0

> <s_m_source_file>
/data/baiqing/PycharmProjects/Reinvent-master-3.2/result/LINK_invent/BTK/process_docking_weight1_custom_product_contain_oxygen_bond_distance_aromatic_linkinvent_7_9_3/rearranged_h_0069.sdf

> <i_m_source_file_index>
96

> <r_mmod_Potential_Energy-OPLS-2005>
9.43287563323975

> <r_mmod_Stretch_Energy-OPLS-2005>
110.821403503418

> <r_mmod_Bend_Energy-OPLS-2005>
188.388641357422

> <r_mmod_Torsional_Energy-OPLS-2005>
294.098175048828

> <r_mmod_Improper_Torsional_Energy-OPLS-2005>
8.81328964233398

> <r_mmod_Van_der_Waal_Energy-OPLS-2005>
153.771102905273

> <r_mmod_Electrostatic_Energy-OPLS-2005>
-402.575439453125

> <r_mmod_Solvation_Energy-OPLS-2005>
-414.393005371094

> <b_mmod_Minimization_Converged-OPLS-2005>
0

> <r_mmod_RMS_Derivative-OPLS-2005>
9.25892639160156

$$$$
