0
                    3D
 Structure written by MMmdl.
151159  0  0  1  0            999 V2000
  -30.5836  -14.7951   20.4299 C   0  0  0  0  0  0
  -30.4372  -12.4801   19.4872 C   0  0  0  0  0  0
  -29.5128  -12.4945   18.2480 C   0  0  0  0  0  0
  -28.0420  -12.3129   18.6661 C   0  0  0  0  0  0
  -27.6414  -13.2315   19.8502 C   0  0  2  0  0  0
  -28.6832  -13.1881   20.9888 C   0  0  0  0  0  0
  -25.2524  -13.8202   20.5713 C   0  0  0  0  0  0
  -24.1807  -13.0455   20.9213 C   0  0  0  0  0  0
  -24.6389  -11.6928   20.8752 C   0  0  0  0  0  0
  -23.9075  -10.4302   21.0418 C   0  0  0  0  0  0
  -24.3625   -9.4212   21.9187 C   0  0  0  0  0  0
  -23.6294   -8.2247   22.0756 C   0  0  0  0  0  0
  -22.4273   -8.0284   21.3549 C   0  0  0  0  0  0
  -21.9915   -9.0264   20.4648 C   0  0  0  0  0  0
  -22.7254  -10.2143   20.3058 C   0  0  0  0  0  0
  -21.6853   -6.0736   22.5279 C   0  0  0  0  0  0
  -21.4015   -6.5643   23.8212 C   0  0  0  0  0  0
  -21.3651   -5.6795   24.9173 C   0  0  0  0  0  0
  -21.6038   -4.3058   24.7226 C   0  0  0  0  0  0
  -21.8821   -3.8148   23.4351 C   0  0  0  0  0  0
  -21.9199   -4.6963   22.3407 C   0  0  0  0  0  0
  -22.7826  -13.5232   21.1868 C   0  0  0  0  0  0
  -22.1665   -4.2155   21.0982 F   0  0  0  0  0  0
  -21.5627   -3.4537   25.7739 F   0  0  0  0  0  0
  -29.9811  -13.5521   20.4089 N   0  0  0  0  0  0
  -26.2933  -12.9397   20.3283 N   0  0  0  0  0  0
  -25.9317  -11.6545   20.5767 N   0  0  0  0  0  0
  -22.0478  -12.8211   22.0423 N   0  0  0  0  0  0
  -25.4228  -15.1925   20.4137 N   0  0  0  0  0  0
  -31.7706  -14.8816   20.0990 O   0  0  0  0  0  0
  -21.6640   -6.8882   21.4240 O   0  0  0  0  0  0
  -22.3517  -14.5542   20.6725 O   0  0  0  0  0  0
  -24.6322  -31.8511   23.1939 C   0  0  0  0  0  0
  -25.9128  -32.4736   23.8302 C   0  0  1  0  0  0
  -27.2221  -27.2330   20.1368 C   0  0  0  0  0  0
  -25.5906  -33.8546   24.2217 N   0  0  0  0  0  0
  -23.4311  -30.4711   21.5369 C   0  0  2  0  0  0
  -24.8774  -28.9089   20.1100 C   0  0  0  0  0  0
  -22.7516  -29.4581   22.4898 C   0  0  0  0  0  0
  -18.0292  -28.1401   22.8489 C   0  0  0  0  0  0
  -24.1478  -36.7265   23.2644 C   0  0  0  0  0  0
  -25.9768  -30.7562   21.3766 C   0  0  0  0  0  0
  -26.0465  -29.3741   20.7216 C   0  0  0  0  0  0
  -27.2146  -28.5458   20.7277 C   0  0  0  0  0  0
  -26.0283  -26.8372   19.4931 C   0  0  0  0  0  0
  -24.8731  -27.6493   19.4871 C   0  0  0  0  0  0
  -23.6487  -29.7994   20.1546 C   0  0  0  0  0  0
  -25.4109  -36.3065   24.0323 C   0  0  1  0  0  0
  -20.5906  -28.3705   23.1279 C   0  0  2  0  0  0
  -20.6783  -26.9418   22.5432 C   0  0  0  0  0  0
  -19.5747  -26.6385   21.5245 C   0  0  0  0  0  0
  -18.1922  -26.7946   22.1637 C   0  0  0  0  0  0
  -19.1553  -28.8862   23.2878 C   0  0  0  0  0  0
  -18.9480  -30.1468   23.8890 C   0  0  0  0  0  0
  -17.6480  -30.6604   24.0569 C   0  0  0  0  0  0
  -25.9055  -34.9441   23.5077 C   0  0  0  0  0  0
  -16.5363  -29.9111   23.6346 C   0  0  0  0  0  0
  -16.7278  -28.6532   23.0355 C   0  0  0  0  0  0
  -26.4498  -31.6589   25.0713 C   0  0  0  0  0  0
  -25.3696  -31.3781   26.1416 C   0  0  0  0  0  0
  -27.0349  -30.3002   24.6229 C   0  0  0  0  0  0
  -27.6034  -32.4358   25.7481 C   0  0  0  0  0  0
  -27.5565  -37.1782   24.8470 C   0  0  0  0  0  0
  -21.4219  -29.3048   22.3662 N   0  0  0  0  0  0
  -26.4280  -37.3765   23.9412 N   0  0  0  0  0  0
  -24.6994  -31.0461   22.0916 N   0  0  0  0  0  0
  -23.4212  -28.8135   23.3012 O   0  0  0  0  0  0
  -28.3421  -26.3649   20.2264 O   0  0  0  0  0  0
  -26.5658  -34.8921   22.4673 O   0  0  0  0  0  0
  -23.5471  -32.1338   23.7225 O   0  0  0  0  0  0
  -30.7136  -18.8212   18.3280 C   0  0  0  0  0  0
  -30.1729  -19.9755   18.9314 C   0  0  0  0  0  0
  -30.6043  -17.5439   18.9190 C   0  0  0  0  0  0
  -29.3630  -18.5595   20.7394 C   0  0  0  0  0  0
  -29.4744  -19.9052   20.1543 C   0  0  0  0  0  0
  -29.9343  -17.3428   20.1478 C   0  0  0  0  0  0
  -29.0164  -21.2492   20.8335 C   0  0  0  0  0  0
  -28.5651  -23.8566   20.5623 C   0  0  0  0  0  0
  -28.7289  -24.1451   21.8623 N   0  0  0  0  0  0
  -29.8112  -15.9391   20.6734 N   0  0  0  0  0  0
  -28.7444  -22.5386   20.0852 N   0  0  0  0  0  0
  -28.2366  -24.9753   19.7801 N   0  3  0  0  0  0
  -28.8930  -21.2585   22.0645 O   0  0  0  0  0  0
  -31.4758  -12.6115   19.1782 H   0  0  0  0  0  0
  -30.3996  -11.5111   19.9876 H   0  0  0  0  0  0
  -29.8019  -11.7018   17.5564 H   0  0  0  0  0  0
  -29.6291  -13.4333   17.7055 H   0  0  0  0  0  0
  -27.9123  -11.2688   18.9535 H   0  0  0  0  0  0
  -27.3795  -12.4765   17.8152 H   0  0  0  0  0  0
  -27.6316  -14.2464   19.4515 H   0  0  0  0  0  0
  -28.7282  -12.1950   21.4374 H   0  0  0  0  0  0
  -28.4087  -13.8754   21.7904 H   0  0  0  0  0  0
  -25.2770   -9.5684   22.4767 H   0  0  0  0  0  0
  -24.0001   -7.4637   22.7474 H   0  0  0  0  0  0
  -21.0848   -8.8788   19.8952 H   0  0  0  0  0  0
  -22.3716  -10.9680   19.6167 H   0  0  0  0  0  0
  -21.2000   -7.6149   23.9719 H   0  0  0  0  0  0
  -21.1464   -6.0521   25.9078 H   0  0  0  0  0  0
  -22.0607   -2.7607   23.2849 H   0  0  0  0  0  0
  -22.4093  -11.9861   22.4791 H   0  0  0  0  0  0
  -21.1094  -13.1225   22.2640 H   0  0  0  0  0  0
  -24.6586  -15.8478   20.5333 H   0  0  0  0  0  0
  -26.2672  -15.6290   20.0651 H   0  0  0  0  0  0
  -26.7178  -32.5367   23.1025 H   0  0  0  0  0  0
  -25.0026  -33.9680   25.0344 H   0  0  0  0  0  0
  -22.7297  -31.2947   21.3873 H   0  0  0  0  0  0
  -23.3751  -35.9588   23.3339 H   0  0  0  0  0  0
  -24.3552  -36.8873   22.2052 H   0  0  0  0  0  0
  -23.7228  -37.6472   23.6658 H   0  0  0  0  0  0
  -26.1208  -31.5139   20.6060 H   0  0  0  0  0  0
  -26.8540  -30.8046   22.0107 H   0  0  0  0  0  0
  -28.1092  -28.8937   21.2249 H   0  0  0  0  0  0
  -25.9582  -25.8702   19.0172 H   0  0  0  0  0  0
  -23.9731  -27.2892   19.0090 H   0  0  0  0  0  0
  -23.7748  -30.5741   19.3968 H   0  0  0  0  0  0
  -22.7649  -29.2352   19.8515 H   0  0  0  0  0  0
  -25.1303  -36.1905   25.0814 H   0  0  0  0  0  0
  -20.9983  -28.3277   24.1407 H   0  0  0  0  0  0
  -20.5716  -26.2303   23.3639 H   0  0  0  0  0  0
  -21.6640  -26.7449   22.1192 H   0  0  0  0  0  0
  -19.6918  -25.6310   21.1254 H   0  0  0  0  0  0
  -19.6690  -27.3215   20.6796 H   0  0  0  0  0  0
  -17.4207  -26.6722   21.4028 H   0  0  0  0  0  0
  -18.0281  -26.0104   22.9034 H   0  0  0  0  0  0
  -19.7954  -30.7292   24.2243 H   0  0  0  0  0  0
  -17.5035  -31.6277   24.5179 H   0  0  0  0  0  0
  -15.5366  -30.3005   23.7674 H   0  0  0  0  0  0
  -15.8679  -28.0845   22.7061 H   0  0  0  0  0  0
  -24.5864  -30.7131   25.7758 H   0  0  0  0  0  0
  -24.8885  -32.2969   26.4781 H   0  0  0  0  0  0
  -25.7970  -30.8999   27.0233 H   0  0  0  0  0  0
  -26.2942  -29.6739   24.1230 H   0  0  0  0  0  0
  -27.4018  -29.7286   25.4768 H   0  0  0  0  0  0
  -27.8831  -30.4307   23.9498 H   0  0  0  0  0  0
  -27.2625  -33.3680   26.2008 H   0  0  0  0  0  0
  -28.3851  -32.6890   25.0302 H   0  0  0  0  0  0
  -28.0687  -31.8520   26.5437 H   0  0  0  0  0  0
  -28.2598  -38.0060   24.7498 H   0  0  0  0  0  0
  -28.1045  -36.2593   24.6324 H   0  0  0  0  0  0
  -27.2281  -37.1472   25.8874 H   0  0  0  0  0  0
  -20.9408  -29.8754   21.6852 H   0  0  0  0  0  0
  -26.0164  -38.2840   24.1428 H   0  0  0  0  0  0
  -31.2430  -18.9189   17.3915 H   0  0  0  0  0  0
  -30.3319  -20.9313   18.4511 H   0  0  0  0  0  0
  -31.0445  -16.7090   18.3921 H   0  0  0  0  0  0
  -28.8419  -18.4699   21.6829 H   0  0  0  0  0  0
  -28.9432  -23.4248   22.5380 H   0  0  0  0  0  0
  -28.6061  -25.0985   22.1720 H   0  0  0  0  0  0
  -28.9430  -15.7417   21.1489 H   0  0  0  0  0  0
  -28.7309  -22.5090   19.0799 H   0  0  0  0  0  0
  -28.1200  -24.8860   18.7803 H   0  0  0  0  0  0
  1 25  1  0  0  0
  1 30  2  0  0  0
  1 80  1  0  0  0
  2  3  1  0  0  0
  2 25  1  0  0  0
  2 84  1  0  0  0
  2 85  1  0  0  0
  3  4  1  0  0  0
  3 86  1  0  0  0
  3 87  1  0  0  0
  4  5  1  0  0  0
  4 88  1  0  0  0
  4 89  1  0  0  0
  5  6  1  0  0  0
  5 26  1  0  0  0
  5 90  1  0  0  0
  6 25  1  0  0  0
  6 91  1  0  0  0
  6 92  1  0  0  0
  7  8  2  0  0  0
  7 26  1  0  0  0
  7 29  1  0  0  0
  8  9  1  0  0  0
  8 22  1  0  0  0
  9 10  1  0  0  0
  9 27  2  0  0  0
 10 11  2  0  0  0
 10 15  1  0  0  0
 11 12  1  0  0  0
 11 93  1  0  0  0
 12 13  2  0  0  0
 12 94  1  0  0  0
 13 14  1  0  0  0
 13 31  1  0  0  0
 14 15  2  0  0  0
 14 95  1  0  0  0
 15 96  1  0  0  0
 16 17  2  0  0  0
 16 21  1  0  0  0
 16 31  1  0  0  0
 17 18  1  0  0  0
 17 97  1  0  0  0
 18 19  2  0  0  0
 18 98  1  0  0  0
 19 20  1  0  0  0
 19 24  1  0  0  0
 20 21  2  0  0  0
 20 99  1  0  0  0
 21 23  1  0  0  0
 22 28  1  0  0  0
 22 32  2  0  0  0
 26 27  1  0  0  0
 28100  1  0  0  0
 28101  1  0  0  0
 29102  1  0  0  0
 29103  1  0  0  0
 33 34  1  0  0  0
 33 66  1  0  0  0
 33 70  2  0  0  0
 34 36  1  0  0  0
 34 59  1  0  0  0
 34104  1  0  0  0
 35 44  2  0  0  0
 35 45  1  0  0  0
 35 68  1  0  0  0
 36 56  1  0  0  0
 36105  1  0  0  0
 37 39  1  0  0  0
 37 47  1  0  0  0
 37 66  1  0  0  0
 37106  1  0  0  0
 38 43  2  0  0  0
 38 46  1  0  0  0
 38 47  1  0  0  0
 39 64  1  0  0  0
 39 67  2  0  0  0
 40 52  1  0  0  0
 40 53  2  0  0  0
 40 58  1  0  0  0
 41107  1  0  0  0
 41108  1  0  0  0
 41109  1  0  0  0
 41 48  1  0  0  0
 42 43  1  0  0  0
 42 66  1  0  0  0
 42110  1  0  0  0
 42111  1  0  0  0
 43 44  1  0  0  0
 44112  1  0  0  0
 45 46  2  0  0  0
 45113  1  0  0  0
 46114  1  0  0  0
 47115  1  0  0  0
 47116  1  0  0  0
 48 56  1  0  0  0
 48 65  1  0  0  0
 48117  1  0  0  0
 49 50  1  0  0  0
 49 53  1  0  0  0
 49 64  1  0  0  0
 49118  1  0  0  0
 50 51  1  0  0  0
 50119  1  0  0  0
 50120  1  0  0  0
 51 52  1  0  0  0
 51121  1  0  0  0
 51122  1  0  0  0
 52123  1  0  0  0
 52124  1  0  0  0
 53 54  1  0  0  0
 54 55  2  0  0  0
 54125  1  0  0  0
 55 57  1  0  0  0
 55126  1  0  0  0
 56 69  2  0  0  0
 57 58  2  0  0  0
 57127  1  0  0  0
 58128  1  0  0  0
 59 60  1  0  0  0
 59 61  1  0  0  0
 59 62  1  0  0  0
 60129  1  0  0  0
 60130  1  0  0  0
 60131  1  0  0  0
 61132  1  0  0  0
 61133  1  0  0  0
 61134  1  0  0  0
 62135  1  0  0  0
 62136  1  0  0  0
 62137  1  0  0  0
 63 65  1  0  0  0
 63138  1  0  0  0
 63139  1  0  0  0
 63140  1  0  0  0
 64141  1  0  0  0
 65142  1  0  0  0
 68 82  1  0  0  0
 71 72  2  0  0  0
 71 73  1  0  0  0
 71143  1  0  0  0
 72 75  1  0  0  0
 72144  1  0  0  0
 73 76  2  0  0  0
 73145  1  0  0  0
 74 75  2  0  0  0
 74 76  1  0  0  0
 74146  1  0  0  0
 75 77  1  0  0  0
 76 80  1  0  0  0
 77 81  1  0  0  0
 77 83  2  0  0  0
 78 79  1  0  0  0
 78 81  1  0  0  0
 78 82  2  0  0  0
 79147  1  0  0  0
 79148  1  0  0  0
 80149  1  0  0  0
 81150  1  0  0  0
 82151  1  0  0  0
M  CHG  1  82   1
M  ISO  4   1 100  68 101  80 100  82 101
M  END
> <chiral flag>
0

> <version>
0

> <s_m_source_file>
/data/baiqing/PycharmProjects/Reinvent-master-3.2/result/LINK_invent/BTK/process_docking_weight1_custom_product_contain_oxygen_bond_distance_aromatic_linkinvent_7_9_3/rearranged_h_0085.sdf

> <i_m_source_file_index>
1

> <r_mmod_Potential_Energy-OPLS-2005>
-39.5408401489258

> <r_mmod_Stretch_Energy-OPLS-2005>
147.69953918457

> <r_mmod_Bend_Energy-OPLS-2005>
174.030563354492

> <r_mmod_Torsional_Energy-OPLS-2005>
235.085372924805

> <r_mmod_Improper_Torsional_Energy-OPLS-2005>
4.92985725402832

> <r_mmod_Van_der_Waal_Energy-OPLS-2005>
141.339416503906

> <r_mmod_Electrostatic_Energy-OPLS-2005>
-349.906860351562

> <r_mmod_Solvation_Energy-OPLS-2005>
-496.608673095703

> <b_mmod_Minimization_Converged-OPLS-2005>
0

> <r_mmod_RMS_Derivative-OPLS-2005>
2.49449419975281

$$$$
1
                    3D
 Structure written by MMmdl.
155164  0  0  1  0            999 V2000
  -30.5806  -14.6815   20.4953 C   0  0  0  0  0  0
  -30.4456  -12.4165   19.4550 C   0  0  0  0  0  0
  -29.5136  -12.5229   18.2248 C   0  0  0  0  0  0
  -28.0339  -12.3534   18.6299 C   0  0  0  0  0  0
  -27.6520  -13.2156   19.8633 C   0  0  2  0  0  0
  -28.6978  -13.0647   20.9910 C   0  0  0  0  0  0
  -25.2544  -13.8162   20.5683 C   0  0  0  0  0  0
  -24.1807  -13.0431   20.9192 C   0  0  0  0  0  0
  -24.6376  -11.6908   20.8711 C   0  0  0  0  0  0
  -23.9049  -10.4292   21.0384 C   0  0  0  0  0  0
  -24.3603   -9.4215   21.9169 C   0  0  0  0  0  0
  -23.6284   -8.2245   22.0742 C   0  0  0  0  0  0
  -22.4265   -8.0273   21.3540 C   0  0  0  0  0  0
  -21.9898   -9.0247   20.4643 C   0  0  0  0  0  0
  -22.7217  -10.2132   20.3044 C   0  0  0  0  0  0
  -21.6859   -6.0724   22.5278 C   0  0  0  0  0  0
  -21.4028   -6.5630   23.8217 C   0  0  0  0  0  0
  -21.3658   -5.6780   24.9174 C   0  0  0  0  0  0
  -21.6040   -4.3044   24.7222 C   0  0  0  0  0  0
  -21.8817   -3.8135   23.4346 C   0  0  0  0  0  0
  -21.9196   -4.6950   22.3402 C   0  0  0  0  0  0
  -22.7828  -13.5227   21.1859 C   0  0  0  0  0  0
  -22.1656   -4.2138   21.0981 F   0  0  0  0  0  0
  -21.5624   -3.4533   25.7739 F   0  0  0  0  0  0
  -30.0097  -13.4332   20.4334 N   0  0  0  0  0  0
  -26.2971  -12.9343   20.3298 N   0  0  0  0  0  0
  -25.9304  -11.6507   20.5725 N   0  0  0  0  0  0
  -22.0462  -12.8225   22.0418 N   0  0  0  0  0  0
  -25.4233  -15.1895   20.4133 N   0  0  0  0  0  0
  -31.7364  -14.8781   20.1050 O   0  0  0  0  0  0
  -21.6636   -6.8863   21.4242 O   0  0  0  0  0  0
  -22.3513  -14.5529   20.6697 O   0  0  0  0  0  0
  -24.6300  -31.8556   23.1955 C   0  0  0  0  0  0
  -25.9123  -32.4768   23.8307 C   0  0  1  0  0  0
  -27.2328  -27.2813   20.1267 C   0  0  0  0  0  0
  -25.5919  -33.8566   24.2264 N   0  0  0  0  0  0
  -23.4266  -30.4741   21.5406 C   0  0  2  0  0  0
  -24.8740  -28.9158   20.1194 C   0  0  0  0  0  0
  -22.7493  -29.4587   22.4924 C   0  0  0  0  0  0
  -18.0287  -28.1385   22.8493 C   0  0  0  0  0  0
  -24.1487  -36.7281   23.2643 C   0  0  0  0  0  0
  -25.9693  -30.7741   21.3692 C   0  0  0  0  0  0
  -26.0435  -29.3941   20.7224 C   0  0  0  0  0  0
  -27.2226  -28.5882   20.7147 C   0  0  0  0  0  0
  -26.0322  -26.8516   19.5208 C   0  0  0  0  0  0
  -24.8712  -27.6511   19.5101 C   0  0  0  0  0  0
  -23.6448  -29.8025   20.1595 C   0  0  0  0  0  0
  -25.4113  -36.3080   24.0340 C   0  0  1  0  0  0
  -20.5893  -28.3683   23.1288 C   0  0  2  0  0  0
  -20.6779  -26.9407   22.5416 C   0  0  0  0  0  0
  -19.5751  -26.6386   21.5222 C   0  0  0  0  0  0
  -18.1928  -26.7934   22.1633 C   0  0  0  0  0  0
  -19.1540  -28.8852   23.2889 C   0  0  0  0  0  0
  -18.9464  -30.1454   23.8908 C   0  0  0  0  0  0
  -17.6462  -30.6591   24.0562 C   0  0  0  0  0  0
  -25.9047  -34.9447   23.5106 C   0  0  0  0  0  0
  -16.5351  -29.9085   23.6331 C   0  0  0  0  0  0
  -16.7273  -28.6499   23.0355 C   0  0  0  0  0  0
  -26.4500  -31.6572   25.0679 C   0  0  0  0  0  0
  -25.3727  -31.3712   26.1399 C   0  0  0  0  0  0
  -27.0345  -30.3006   24.6114 C   0  0  0  0  0  0
  -27.6067  -32.4286   25.7459 C   0  0  0  0  0  0
  -27.5584  -37.1796   24.8478 C   0  0  0  0  0  0
  -21.4200  -29.3029   22.3681 N   0  0  0  0  0  0
  -26.4295  -37.3773   23.9420 N   0  0  0  0  0  0
  -24.6950  -31.0511   22.0931 N   0  0  0  0  0  0
  -23.4196  -28.8131   23.3023 O   0  0  0  0  0  0
  -28.3877  -26.4730   20.1132 O   0  0  0  0  0  0
  -26.5612  -34.8925   22.4670 O   0  0  0  0  0  0
  -23.5450  -32.1367   23.7253 O   0  0  0  0  0  0
  -28.5092  -19.2473   21.5148 C   0  0  0  0  0  0
  -28.6303  -17.8269   21.4624 C   0  0  0  0  0  0
  -30.6358  -18.0285   20.1671 C   0  0  0  0  0  0
  -28.3891  -22.8548   19.3633 C   0  0  0  0  0  0
  -29.4530  -20.1213   20.9125 C   0  0  0  0  0  0
  -29.7076  -17.1632   20.8175 C   0  0  0  0  0  0
  -28.1007  -24.1574   19.0121 C   0  0  0  0  0  0
  -28.4242  -25.0460   20.0960 C   0  0  0  0  0  0
  -30.5182  -19.4640   20.2221 C   0  0  0  0  0  0
  -28.9744  -24.2062   21.0609 C   0  0  0  0  0  0
  -29.4991  -21.6149   21.3305 C   0  0  0  0  0  0
  -29.5404  -24.6443   22.3795 C   0  0  0  0  0  0
  -28.9694  -22.8410   20.6183 N   0  0  0  0  0  0
  -29.7246  -15.6893   20.8754 N   0  0  0  0  0  0
  -30.0138  -21.8307   22.4323 O   0  0  0  0  0  0
  -27.6203  -24.5357   17.7939 O   0  0  0  0  0  0
  -31.4942  -20.2116   19.6502 F   0  0  0  0  0  0
  -31.4866  -12.5550   19.1587 H   0  0  0  0  0  0
  -30.3888  -11.4189   19.8929 H   0  0  0  0  0  0
  -29.7848  -11.7736   17.4804 H   0  0  0  0  0  0
  -29.6517  -13.4938   17.7450 H   0  0  0  0  0  0
  -27.8682  -11.2978   18.8482 H   0  0  0  0  0  0
  -27.3823  -12.5929   17.7886 H   0  0  0  0  0  0
  -27.6679  -14.2520   19.5280 H   0  0  0  0  0  0
  -28.7176  -12.0369   21.3529 H   0  0  0  0  0  0
  -28.4331  -13.6766   21.8552 H   0  0  0  0  0  0
  -25.2754   -9.5692   22.4740 H   0  0  0  0  0  0
  -23.9998   -7.4635   22.7461 H   0  0  0  0  0  0
  -21.0825   -8.8759   19.8956 H   0  0  0  0  0  0
  -22.3667  -10.9660   19.6145 H   0  0  0  0  0  0
  -21.2032   -7.6145   23.9719 H   0  0  0  0  0  0
  -21.1478   -6.0513   25.9080 H   0  0  0  0  0  0
  -22.0599   -2.7599   23.2855 H   0  0  0  0  0  0
  -22.4080  -11.9912   22.4850 H   0  0  0  0  0  0
  -21.1072  -13.1245   22.2592 H   0  0  0  0  0  0
  -24.6510  -15.8380   20.5221 H   0  0  0  0  0  0
  -26.2683  -15.6371   20.0815 H   0  0  0  0  0  0
  -26.7185  -32.5444   23.1051 H   0  0  0  0  0  0
  -25.0114  -33.9694   25.0441 H   0  0  0  0  0  0
  -22.7235  -31.2957   21.3913 H   0  0  0  0  0  0
  -23.3759  -35.9604   23.3309 H   0  0  0  0  0  0
  -24.3590  -36.8881   22.2059 H   0  0  0  0  0  0
  -23.7222  -37.6482   23.6648 H   0  0  0  0  0  0
  -26.0919  -31.5239   20.5863 H   0  0  0  0  0  0
  -26.8539  -30.8373   21.9916 H   0  0  0  0  0  0
  -28.1259  -28.9587   21.1792 H   0  0  0  0  0  0
  -25.9627  -25.8767   19.0663 H   0  0  0  0  0  0
  -23.9710  -27.2748   19.0430 H   0  0  0  0  0  0
  -23.7744  -30.5748   19.4001 H   0  0  0  0  0  0
  -22.7649  -29.2317   19.8572 H   0  0  0  0  0  0
  -25.1288  -36.1946   25.0832 H   0  0  0  0  0  0
  -20.9981  -28.3261   24.1410 H   0  0  0  0  0  0
  -20.5700  -26.2284   23.3607 H   0  0  0  0  0  0
  -21.6643  -26.7443   22.1198 H   0  0  0  0  0  0
  -19.6913  -25.6299   21.1240 H   0  0  0  0  0  0
  -19.6704  -27.3208   20.6763 H   0  0  0  0  0  0
  -17.4204  -26.6688   21.4027 H   0  0  0  0  0  0
  -18.0325  -26.0072   22.9027 H   0  0  0  0  0  0
  -19.7933  -30.7265   24.2293 H   0  0  0  0  0  0
  -17.5009  -31.6278   24.5154 H   0  0  0  0  0  0
  -15.5347  -30.2992   23.7643 H   0  0  0  0  0  0
  -15.8673  -28.0816   22.7072 H   0  0  0  0  0  0
  -24.5911  -30.7054   25.7721 H   0  0  0  0  0  0
  -24.8908  -32.2878   26.4805 H   0  0  0  0  0  0
  -25.8036  -30.8902   27.0185 H   0  0  0  0  0  0
  -26.2917  -29.6750   24.1155 H   0  0  0  0  0  0
  -27.4096  -29.7254   25.4586 H   0  0  0  0  0  0
  -27.8751  -30.4320   23.9301 H   0  0  0  0  0  0
  -27.2703  -33.3593   26.2034 H   0  0  0  0  0  0
  -28.3889  -32.6821   25.0292 H   0  0  0  0  0  0
  -28.0722  -31.8401   26.5373 H   0  0  0  0  0  0
  -28.2609  -38.0085   24.7507 H   0  0  0  0  0  0
  -28.1064  -36.2611   24.6320 H   0  0  0  0  0  0
  -27.2297  -37.1463   25.8878 H   0  0  0  0  0  0
  -20.9377  -29.8757   21.6904 H   0  0  0  0  0  0
  -26.0184  -38.2856   24.1395 H   0  0  0  0  0  0
  -27.7062  -19.6709   22.1011 H   0  0  0  0  0  0
  -27.8850  -17.2386   21.9793 H   0  0  0  0  0  0
  -31.4739  -17.5970   19.6392 H   0  0  0  0  0  0
  -28.2799  -21.9311   18.8098 H   0  0  0  0  0  0
  -29.4649  -25.7246   22.4981 H   0  0  0  0  0  0
  -30.5961  -24.3874   22.4691 H   0  0  0  0  0  0
  -28.9996  -24.1914   23.2098 H   0  0  0  0  0  0
  -28.8673  -15.2957   21.2287 H   0  0  0  0  0  0
  -27.6135  -25.4826   17.6909 H   0  0  0  0  0  0
  1 25  1  0  0  0
  1 30  2  0  0  0
  1 84  1  0  0  0
  2  3  1  0  0  0
  2 25  1  0  0  0
  2 88  1  0  0  0
  2 89  1  0  0  0
  3  4  1  0  0  0
  3 90  1  0  0  0
  3 91  1  0  0  0
  4  5  1  0  0  0
  4 92  1  0  0  0
  4 93  1  0  0  0
  5  6  1  0  0  0
  5 26  1  0  0  0
  5 94  1  0  0  0
  6 25  1  0  0  0
  6 95  1  0  0  0
  6 96  1  0  0  0
  7  8  2  0  0  0
  7 26  1  0  0  0
  7 29  1  0  0  0
  8  9  1  0  0  0
  8 22  1  0  0  0
  9 10  1  0  0  0
  9 27  2  0  0  0
 10 11  2  0  0  0
 10 15  1  0  0  0
 11 12  1  0  0  0
 11 97  1  0  0  0
 12 13  2  0  0  0
 12 98  1  0  0  0
 13 14  1  0  0  0
 13 31  1  0  0  0
 14 15  2  0  0  0
 14 99  1  0  0  0
 15100  1  0  0  0
 16 17  2  0  0  0
 16 21  1  0  0  0
 16 31  1  0  0  0
 17 18  1  0  0  0
 17101  1  0  0  0
 18 19  2  0  0  0
 18102  1  0  0  0
 19 20  1  0  0  0
 19 24  1  0  0  0
 20 21  2  0  0  0
 20103  1  0  0  0
 21 23  1  0  0  0
 22 28  1  0  0  0
 22 32  2  0  0  0
 26 27  1  0  0  0
 28104  1  0  0  0
 28105  1  0  0  0
 29106  1  0  0  0
 29107  1  0  0  0
 33 34  1  0  0  0
 33 66  1  0  0  0
 33 70  2  0  0  0
 34 36  1  0  0  0
 34 59  1  0  0  0
 34108  1  0  0  0
 35 44  2  0  0  0
 35 45  1  0  0  0
 35 68  1  0  0  0
 36 56  1  0  0  0
 36109  1  0  0  0
 37 39  1  0  0  0
 37 47  1  0  0  0
 37 66  1  0  0  0
 37110  1  0  0  0
 38 43  2  0  0  0
 38 46  1  0  0  0
 38 47  1  0  0  0
 39 64  1  0  0  0
 39 67  2  0  0  0
 40 52  1  0  0  0
 40 53  2  0  0  0
 40 58  1  0  0  0
 41111  1  0  0  0
 41112  1  0  0  0
 41113  1  0  0  0
 41 48  1  0  0  0
 42 43  1  0  0  0
 42 66  1  0  0  0
 42114  1  0  0  0
 42115  1  0  0  0
 43 44  1  0  0  0
 44116  1  0  0  0
 45 46  2  0  0  0
 45117  1  0  0  0
 46118  1  0  0  0
 47119  1  0  0  0
 47120  1  0  0  0
 48 56  1  0  0  0
 48 65  1  0  0  0
 48121  1  0  0  0
 49 50  1  0  0  0
 49 53  1  0  0  0
 49 64  1  0  0  0
 49122  1  0  0  0
 50 51  1  0  0  0
 50123  1  0  0  0
 50124  1  0  0  0
 51 52  1  0  0  0
 51125  1  0  0  0
 51126  1  0  0  0
 52127  1  0  0  0
 52128  1  0  0  0
 53 54  1  0  0  0
 54 55  2  0  0  0
 54129  1  0  0  0
 55 57  1  0  0  0
 55130  1  0  0  0
 56 69  2  0  0  0
 57 58  2  0  0  0
 57131  1  0  0  0
 58132  1  0  0  0
 59 60  1  0  0  0
 59 61  1  0  0  0
 59 62  1  0  0  0
 60133  1  0  0  0
 60134  1  0  0  0
 60135  1  0  0  0
 61136  1  0  0  0
 61137  1  0  0  0
 61138  1  0  0  0
 62139  1  0  0  0
 62140  1  0  0  0
 62141  1  0  0  0
 63 65  1  0  0  0
 63142  1  0  0  0
 63143  1  0  0  0
 63144  1  0  0  0
 64145  1  0  0  0
 65146  1  0  0  0
 68 78  1  0  0  0
 71 72  2  0  0  0
 71 75  1  0  0  0
 71147  1  0  0  0
 72 76  1  0  0  0
 72148  1  0  0  0
 73 76  2  0  0  0
 73 79  1  0  0  0
 73149  1  0  0  0
 74 77  2  0  0  0
 74 83  1  0  0  0
 74150  1  0  0  0
 75 79  2  0  0  0
 75 81  1  0  0  0
 76 84  1  0  0  0
 77 78  1  0  0  0
 77 86  1  0  0  0
 78 80  2  0  0  0
 79 87  1  0  0  0
 80 82  1  0  0  0
 80 83  1  0  0  0
 81 83  1  0  0  0
 81 85  2  0  0  0
 82151  1  0  0  0
 82152  1  0  0  0
 82153  1  0  0  0
 84154  1  0  0  0
 86155  1  0  0  0
M  ISO  4   1 100  68 101  78 101  84 100
M  END
> <chiral flag>
0

> <version>
0

> <s_m_source_file>
/data/baiqing/PycharmProjects/Reinvent-master-3.2/result/LINK_invent/BTK/process_docking_weight1_custom_product_contain_oxygen_bond_distance_aromatic_linkinvent_7_9_3/rearranged_h_0085.sdf

> <i_m_source_file_index>
2

> <r_mmod_Potential_Energy-OPLS-2005>
129.483413696289

> <r_mmod_Stretch_Energy-OPLS-2005>
94.4191589355469

> <r_mmod_Bend_Energy-OPLS-2005>
172.116470336914

> <r_mmod_Torsional_Energy-OPLS-2005>
251.802749633789

> <r_mmod_Improper_Torsional_Energy-OPLS-2005>
7.73783540725708

> <r_mmod_Van_der_Waal_Energy-OPLS-2005>
132.68994140625

> <r_mmod_Electrostatic_Energy-OPLS-2005>
-358.595367431641

> <r_mmod_Solvation_Energy-OPLS-2005>
-230.544219970703

> <b_mmod_Minimization_Converged-OPLS-2005>
0

> <r_mmod_RMS_Derivative-OPLS-2005>
2.21469831466675

$$$$
2
                    3D
 Structure written by MMmdl.
157166  0  0  1  0            999 V2000
  -30.6146  -14.6528   20.5031 C   0  0  0  0  0  0
  -30.4415  -12.4009   19.4569 C   0  0  0  0  0  0
  -29.5112  -12.5106   18.2274 C   0  0  0  0  0  0
  -28.0334  -12.3478   18.6366 C   0  0  0  0  0  0
  -27.6548  -13.2168   19.8651 C   0  0  2  0  0  0
  -28.6987  -13.0700   20.9957 C   0  0  0  0  0  0
  -25.2568  -13.8165   20.5667 C   0  0  0  0  0  0
  -24.1839  -13.0439   20.9208 C   0  0  0  0  0  0
  -24.6401  -11.6908   20.8755 C   0  0  0  0  0  0
  -23.9065  -10.4293   21.0418 C   0  0  0  0  0  0
  -24.3615   -9.4203   21.9190 C   0  0  0  0  0  0
  -23.6290   -8.2239   22.0756 C   0  0  0  0  0  0
  -22.4272   -8.0281   21.3546 C   0  0  0  0  0  0
  -21.9910   -9.0257   20.4650 C   0  0  0  0  0  0
  -22.7240  -10.2136   20.3063 C   0  0  0  0  0  0
  -21.6849   -6.0735   22.5278 C   0  0  0  0  0  0
  -21.4010   -6.5637   23.8213 C   0  0  0  0  0  0
  -21.3661   -5.6790   24.9176 C   0  0  0  0  0  0
  -21.6046   -4.3053   24.7226 C   0  0  0  0  0  0
  -21.8818   -3.8145   23.4347 C   0  0  0  0  0  0
  -21.9191   -4.6962   22.3402 C   0  0  0  0  0  0
  -22.7860  -13.5237   21.1859 C   0  0  0  0  0  0
  -22.1660   -4.2148   21.0980 F   0  0  0  0  0  0
  -21.5634   -3.4536   25.7739 F   0  0  0  0  0  0
  -30.0143  -13.4207   20.4367 N   0  0  0  0  0  0
  -26.2995  -12.9347   20.3312 N   0  0  0  0  0  0
  -25.9330  -11.6504   20.5765 N   0  0  0  0  0  0
  -22.0490  -12.8237   22.0410 N   0  0  0  0  0  0
  -25.4273  -15.1878   20.3996 N   0  0  0  0  0  0
  -31.7689  -14.8210   20.0979 O   0  0  0  0  0  0
  -21.6636   -6.8878   21.4241 O   0  0  0  0  0  0
  -22.3549  -14.5540   20.6697 O   0  0  0  0  0  0
  -24.6272  -31.8599   23.2032 C   0  0  0  0  0  0
  -25.9118  -32.4779   23.8359 C   0  0  1  0  0  0
  -27.2222  -27.3115   20.1136 C   0  0  0  0  0  0
  -25.5931  -33.8580   24.2283 N   0  0  0  0  0  0
  -23.4208  -30.4852   21.5462 C   0  0  2  0  0  0
  -24.8667  -28.9426   20.1106 C   0  0  0  0  0  0
  -22.7480  -29.4628   22.4932 C   0  0  0  0  0  0
  -18.0289  -28.1386   22.8486 C   0  0  0  0  0  0
  -24.1489  -36.7292   23.2638 C   0  0  0  0  0  0
  -25.9642  -30.7879   21.3768 C   0  0  0  0  0  0
  -26.0377  -29.4160   20.7161 C   0  0  0  0  0  0
  -27.2182  -28.6125   20.7084 C   0  0  0  0  0  0
  -26.0254  -26.8984   19.4799 C   0  0  0  0  0  0
  -24.8631  -27.6891   19.4842 C   0  0  0  0  0  0
  -23.6358  -29.8236   20.1606 C   0  0  0  0  0  0
  -25.4114  -36.3083   24.0328 C   0  0  1  0  0  0
  -20.5890  -28.3692   23.1278 C   0  0  2  0  0  0
  -20.6778  -26.9414   22.5407 C   0  0  0  0  0  0
  -19.5752  -26.6386   21.5210 C   0  0  0  0  0  0
  -18.1934  -26.7929   22.1625 C   0  0  0  0  0  0
  -19.1542  -28.8856   23.2879 C   0  0  0  0  0  0
  -18.9464  -30.1458   23.8896 C   0  0  0  0  0  0
  -17.6464  -30.6587   24.0564 C   0  0  0  0  0  0
  -25.9053  -34.9452   23.5106 C   0  0  0  0  0  0
  -16.5355  -29.9086   23.6331 C   0  0  0  0  0  0
  -16.7277  -28.6504   23.0351 C   0  0  0  0  0  0
  -26.4499  -31.6590   25.0732 C   0  0  0  0  0  0
  -25.3731  -31.3728   26.1457 C   0  0  0  0  0  0
  -27.0346  -30.3011   24.6196 C   0  0  0  0  0  0
  -27.6056  -32.4327   25.7502 C   0  0  0  0  0  0
  -27.5579  -37.1803   24.8466 C   0  0  0  0  0  0
  -21.4193  -29.3046   22.3672 N   0  0  0  0  0  0
  -26.4291  -37.3777   23.9409 N   0  0  0  0  0  0
  -24.6896  -31.0608   22.0987 N   0  0  0  0  0  0
  -23.4202  -28.8163   23.3009 O   0  0  0  0  0  0
  -28.3310  -26.4454   20.1711 O   0  0  0  0  0  0
  -26.5620  -34.8918   22.4671 O   0  0  0  0  0  0
  -23.5434  -32.1400   23.7356 O   0  0  0  0  0  0
  -28.8496  -19.3696   21.2694 C   0  0  0  0  0  0
  -30.8713  -17.8708   20.0381 C   0  0  0  0  0  0
  -29.8571  -20.0987   20.5823 C   0  0  0  0  0  0
  -28.8573  -17.9427   21.3497 C   0  0  0  0  0  0
  -29.8801  -17.1490   20.7549 C   0  0  0  0  0  0
  -30.8585  -19.2982   19.9520 C   0  0  0  0  0  0
  -30.3979  -24.3562   20.7791 C   0  0  0  0  0  0
  -31.1774  -22.0983   21.0305 C   0  0  0  0  0  0
  -29.1791  -23.9478   20.3717 C   0  0  0  0  0  0
  -31.4371  -23.4130   21.1246 C   0  0  0  0  0  0
  -28.9073  -22.4609   20.2782 C   0  0  0  0  0  0
  -28.0724  -24.9908   19.9910 C   0  0  0  0  0  0
  -29.9336  -21.5780   20.6131 N   0  0  0  0  0  0
  -27.8284  -17.3155   22.0534 N   0  0  0  0  0  0
  -29.8145  -15.6894   20.9069 N   0  0  0  0  0  0
  -27.8100  -22.0312   19.9058 O   0  0  0  0  0  0
  -32.6371  -23.8349   21.5377 O   0  0  0  0  0  0
  -31.8462  -19.9002   19.2463 F   0  0  0  0  0  0
  -31.4825  -12.5306   19.1552 H   0  0  0  0  0  0
  -30.3816  -11.4053   19.8989 H   0  0  0  0  0  0
  -29.7777  -11.7577   17.4844 H   0  0  0  0  0  0
  -29.6529  -13.4791   17.7448 H   0  0  0  0  0  0
  -27.8685  -11.2941   18.8656 H   0  0  0  0  0  0
  -27.3808  -12.5805   17.7943 H   0  0  0  0  0  0
  -27.6741  -14.2526   19.5259 H   0  0  0  0  0  0
  -28.7129  -12.0459   21.3717 H   0  0  0  0  0  0
  -28.4401  -13.6951   21.8515 H   0  0  0  0  0  0
  -25.2761   -9.5673   22.4763 H   0  0  0  0  0  0
  -23.9998   -7.4625   22.7468 H   0  0  0  0  0  0
  -21.0844   -8.8776   19.8952 H   0  0  0  0  0  0
  -22.3701  -10.9676   19.6171 H   0  0  0  0  0  0
  -21.1996   -7.6142   23.9716 H   0  0  0  0  0  0
  -21.1489   -6.0521   25.9080 H   0  0  0  0  0  0
  -22.0595   -2.7605   23.2849 H   0  0  0  0  0  0
  -22.4096  -11.9900   22.4809 H   0  0  0  0  0  0
  -21.1109  -13.1274   22.2607 H   0  0  0  0  0  0
  -24.6400  -15.8240   20.4623 H   0  0  0  0  0  0
  -26.2301  -15.6026   19.9448 H   0  0  0  0  0  0
  -26.7186  -32.5447   23.1107 H   0  0  0  0  0  0
  -25.0077  -33.9726   25.0428 H   0  0  0  0  0  0
  -22.7149  -31.3063   21.4047 H   0  0  0  0  0  0
  -23.3750  -35.9625   23.3304 H   0  0  0  0  0  0
  -24.3579  -36.8909   22.2052 H   0  0  0  0  0  0
  -23.7243  -37.6495   23.6659 H   0  0  0  0  0  0
  -26.0998  -31.5527   20.6107 H   0  0  0  0  0  0
  -26.8432  -30.8337   22.0082 H   0  0  0  0  0  0
  -28.1146  -28.9701   21.1956 H   0  0  0  0  0  0
  -25.9500  -25.9444   18.9809 H   0  0  0  0  0  0
  -23.9664  -27.3213   19.0045 H   0  0  0  0  0  0
  -23.7568  -30.6020   19.4064 H   0  0  0  0  0  0
  -22.7549  -29.2554   19.8560 H   0  0  0  0  0  0
  -25.1294  -36.1935   25.0821 H   0  0  0  0  0  0
  -20.9985  -28.3269   24.1398 H   0  0  0  0  0  0
  -20.5681  -26.2303   23.3607 H   0  0  0  0  0  0
  -21.6647  -26.7445   22.1199 H   0  0  0  0  0  0
  -19.6914  -25.6297   21.1239 H   0  0  0  0  0  0
  -19.6686  -27.3196   20.6740 H   0  0  0  0  0  0
  -17.4201  -26.6673   21.4031 H   0  0  0  0  0  0
  -18.0338  -26.0073   22.9024 H   0  0  0  0  0  0
  -19.7940  -30.7276   24.2262 H   0  0  0  0  0  0
  -17.5018  -31.6267   24.5167 H   0  0  0  0  0  0
  -15.5356  -30.2986   23.7657 H   0  0  0  0  0  0
  -15.8677  -28.0823   22.7065 H   0  0  0  0  0  0
  -24.5902  -30.7083   25.7785 H   0  0  0  0  0  0
  -24.8930  -32.2897   26.4888 H   0  0  0  0  0  0
  -25.8055  -30.8899   27.0229 H   0  0  0  0  0  0
  -26.2926  -29.6759   24.1215 H   0  0  0  0  0  0
  -27.4034  -29.7270   25.4707 H   0  0  0  0  0  0
  -27.8800  -30.4295   23.9432 H   0  0  0  0  0  0
  -27.2664  -33.3625   26.2080 H   0  0  0  0  0  0
  -28.3865  -32.6891   25.0331 H   0  0  0  0  0  0
  -28.0726  -31.8454   26.5420 H   0  0  0  0  0  0
  -28.2598  -38.0099   24.7510 H   0  0  0  0  0  0
  -28.1073  -36.2630   24.6294 H   0  0  0  0  0  0
  -27.2298  -37.1453   25.8869 H   0  0  0  0  0  0
  -20.9370  -29.8774   21.6887 H   0  0  0  0  0  0
  -26.0172  -38.2852   24.1407 H   0  0  0  0  0  0
  -28.0689  -19.9229   21.7714 H   0  0  0  0  0  0
  -31.6681  -17.3395   19.5409 H   0  0  0  0  0  0
  -30.5973  -25.4171   20.8429 H   0  0  0  0  0  0
  -31.9135  -21.3510   21.2907 H   0  0  0  0  0  0
  -27.1891  -24.7188   20.5719 H   0  0  0  0  0  0
  -27.8349  -24.8113   18.9416 H   0  0  0  0  0  0
  -27.0415  -17.8952   22.3253 H   0  0  0  0  0  0
  -27.5122  -16.4053   21.7452 H   0  0  0  0  0  0
  -28.9565  -15.3786   21.3318 H   0  0  0  0  0  0
  -32.6294  -24.7849   21.5396 H   0  0  0  0  0  0
  1 25  1  0  0  0
  1 30  2  0  0  0
  1 85  1  0  0  0
  2  3  1  0  0  0
  2 25  1  0  0  0
  2 89  1  0  0  0
  2 90  1  0  0  0
  3  4  1  0  0  0
  3 91  1  0  0  0
  3 92  1  0  0  0
  4  5  1  0  0  0
  4 93  1  0  0  0
  4 94  1  0  0  0
  5  6  1  0  0  0
  5 26  1  0  0  0
  5 95  1  0  0  0
  6 25  1  0  0  0
  6 96  1  0  0  0
  6 97  1  0  0  0
  7  8  2  0  0  0
  7 26  1  0  0  0
  7 29  1  0  0  0
  8  9  1  0  0  0
  8 22  1  0  0  0
  9 10  1  0  0  0
  9 27  2  0  0  0
 10 11  2  0  0  0
 10 15  1  0  0  0
 11 12  1  0  0  0
 11 98  1  0  0  0
 12 13  2  0  0  0
 12 99  1  0  0  0
 13 14  1  0  0  0
 13 31  1  0  0  0
 14 15  2  0  0  0
 14100  1  0  0  0
 15101  1  0  0  0
 16 17  2  0  0  0
 16 21  1  0  0  0
 16 31  1  0  0  0
 17 18  1  0  0  0
 17102  1  0  0  0
 18 19  2  0  0  0
 18103  1  0  0  0
 19 20  1  0  0  0
 19 24  1  0  0  0
 20 21  2  0  0  0
 20104  1  0  0  0
 21 23  1  0  0  0
 22 28  1  0  0  0
 22 32  2  0  0  0
 26 27  1  0  0  0
 28105  1  0  0  0
 28106  1  0  0  0
 29107  1  0  0  0
 29108  1  0  0  0
 33 34  1  0  0  0
 33 66  1  0  0  0
 33 70  2  0  0  0
 34 36  1  0  0  0
 34 59  1  0  0  0
 34109  1  0  0  0
 35 44  2  0  0  0
 35 45  1  0  0  0
 35 68  1  0  0  0
 36 56  1  0  0  0
 36110  1  0  0  0
 37 39  1  0  0  0
 37 47  1  0  0  0
 37 66  1  0  0  0
 37111  1  0  0  0
 38 43  2  0  0  0
 38 46  1  0  0  0
 38 47  1  0  0  0
 39 64  1  0  0  0
 39 67  2  0  0  0
 40 52  1  0  0  0
 40 53  2  0  0  0
 40 58  1  0  0  0
 41112  1  0  0  0
 41113  1  0  0  0
 41114  1  0  0  0
 41 48  1  0  0  0
 42 43  1  0  0  0
 42 66  1  0  0  0
 42115  1  0  0  0
 42116  1  0  0  0
 43 44  1  0  0  0
 44117  1  0  0  0
 45 46  2  0  0  0
 45118  1  0  0  0
 46119  1  0  0  0
 47120  1  0  0  0
 47121  1  0  0  0
 48 56  1  0  0  0
 48 65  1  0  0  0
 48122  1  0  0  0
 49 50  1  0  0  0
 49 53  1  0  0  0
 49 64  1  0  0  0
 49123  1  0  0  0
 50 51  1  0  0  0
 50124  1  0  0  0
 50125  1  0  0  0
 51 52  1  0  0  0
 51126  1  0  0  0
 51127  1  0  0  0
 52128  1  0  0  0
 52129  1  0  0  0
 53 54  1  0  0  0
 54 55  2  0  0  0
 54130  1  0  0  0
 55 57  1  0  0  0
 55131  1  0  0  0
 56 69  2  0  0  0
 57 58  2  0  0  0
 57132  1  0  0  0
 58133  1  0  0  0
 59 60  1  0  0  0
 59 61  1  0  0  0
 59 62  1  0  0  0
 60134  1  0  0  0
 60135  1  0  0  0
 60136  1  0  0  0
 61137  1  0  0  0
 61138  1  0  0  0
 61139  1  0  0  0
 62140  1  0  0  0
 62141  1  0  0  0
 62142  1  0  0  0
 63 65  1  0  0  0
 63143  1  0  0  0
 63144  1  0  0  0
 63145  1  0  0  0
 64146  1  0  0  0
 65147  1  0  0  0
 68 82  1  0  0  0
 71 73  2  0  0  0
 71 74  1  0  0  0
 71148  1  0  0  0
 72 75  1  0  0  0
 72 76  2  0  0  0
 72149  1  0  0  0
 73 76  1  0  0  0
 73 83  1  0  0  0
 74 75  2  0  0  0
 74 84  1  0  0  0
 75 85  1  0  0  0
 76 88  1  0  0  0
 77 79  2  0  0  0
 77 80  1  0  0  0
 77150  1  0  0  0
 78 80  2  0  0  0
 78 83  1  0  0  0
 78151  1  0  0  0
 79 81  1  0  0  0
 79 82  1  0  0  0
 80 87  1  0  0  0
 81 83  1  0  0  0
 81 86  2  0  0  0
 82152  1  0  0  0
 82153  1  0  0  0
 84154  1  0  0  0
 84155  1  0  0  0
 85156  1  0  0  0
 87157  1  0  0  0
M  ISO  4   1 100  68 101  82 101  85 100
M  END
> <chiral flag>
0

> <version>
0

> <s_m_source_file>
/data/baiqing/PycharmProjects/Reinvent-master-3.2/result/LINK_invent/BTK/process_docking_weight1_custom_product_contain_oxygen_bond_distance_aromatic_linkinvent_7_9_3/rearranged_h_0085.sdf

> <i_m_source_file_index>
3

> <r_mmod_Potential_Energy-OPLS-2005>
-12.9481420516968

> <r_mmod_Stretch_Energy-OPLS-2005>
94.7503128051758

> <r_mmod_Bend_Energy-OPLS-2005>
139.160049438477

> <r_mmod_Torsional_Energy-OPLS-2005>
248.852645874023

> <r_mmod_Improper_Torsional_Energy-OPLS-2005>
8.4749002456665

> <r_mmod_Van_der_Waal_Energy-OPLS-2005>
173.94172668457

> <r_mmod_Electrostatic_Energy-OPLS-2005>
-500.044586181641

> <r_mmod_Solvation_Energy-OPLS-2005>
-231.022048950195

> <b_mmod_Minimization_Converged-OPLS-2005>
0

> <r_mmod_RMS_Derivative-OPLS-2005>
0.444728076457977

$$$$
3
                    3D
 Structure written by MMmdl.
150159  0  0  1  0            999 V2000
  -30.5681  -14.8785   20.3985 C   0  0  0  0  0  0
  -30.4287  -12.5361   19.4919 C   0  0  0  0  0  0
  -29.5139  -12.5226   18.2462 C   0  0  0  0  0  0
  -28.0436  -12.3271   18.6574 C   0  0  0  0  0  0
  -27.6300  -13.2459   19.8376 C   0  0  2  0  0  0
  -28.6708  -13.2520   20.9771 C   0  0  0  0  0  0
  -25.2489  -13.8231   20.5725 C   0  0  0  0  0  0
  -24.1791  -13.0459   20.9224 C   0  0  0  0  0  0
  -24.6401  -11.6938   20.8770 C   0  0  0  0  0  0
  -23.9086  -10.4313   21.0428 C   0  0  0  0  0  0
  -24.3649   -9.4216   21.9188 C   0  0  0  0  0  0
  -23.6316   -8.2250   22.0743 C   0  0  0  0  0  0
  -22.4291   -8.0300   21.3540 C   0  0  0  0  0  0
  -21.9943   -9.0275   20.4638 C   0  0  0  0  0  0
  -22.7274  -10.2149   20.3063 C   0  0  0  0  0  0
  -21.6859   -6.0753   22.5284 C   0  0  0  0  0  0
  -21.4017   -6.5651   23.8219 C   0  0  0  0  0  0
  -21.3654   -5.6798   24.9176 C   0  0  0  0  0  0
  -21.6045   -4.3061   24.7219 C   0  0  0  0  0  0
  -21.8820   -3.8155   23.4339 C   0  0  0  0  0  0
  -21.9197   -4.6980   22.3402 C   0  0  0  0  0  0
  -22.7818  -13.5228   21.1889 C   0  0  0  0  0  0
  -22.1665   -4.2171   21.0973 F   0  0  0  0  0  0
  -21.5618   -3.4537   25.7723 F   0  0  0  0  0  0
  -29.9574  -13.6315   20.3833 N   0  0  0  0  0  0
  -26.2890  -12.9448   20.3238 N   0  0  0  0  0  0
  -25.9327  -11.6577   20.5741 N   0  0  0  0  0  0
  -22.0463  -12.8204   22.0432 N   0  0  0  0  0  0
  -25.4202  -15.1957   20.4199 N   0  0  0  0  0  0
  -31.7745  -14.9153   20.1365 O   0  0  0  0  0  0
  -21.6643   -6.8904   21.4242 O   0  0  0  0  0  0
  -22.3496  -14.5534   20.6735 O   0  0  0  0  0  0
  -24.6385  -31.8492   23.1906 C   0  0  0  0  0  0
  -25.9174  -32.4714   23.8295 C   0  0  1  0  0  0
  -27.2111  -27.1860   20.1493 C   0  0  0  0  0  0
  -25.5943  -33.8521   24.2224 N   0  0  0  0  0  0
  -23.4395  -30.4726   21.5338 C   0  0  2  0  0  0
  -24.8923  -28.9099   20.1062 C   0  0  0  0  0  0
  -22.7546  -29.4582   22.4839 C   0  0  0  0  0  0
  -18.0304  -28.1392   22.8483 C   0  0  0  0  0  0
  -24.1496  -36.7283   23.2637 C   0  0  0  0  0  0
  -25.9935  -30.7393   21.3854 C   0  0  0  0  0  0
  -26.0665  -29.3539   20.7300 C   0  0  0  0  0  0
  -27.2318  -28.5060   20.7397 C   0  0  0  0  0  0
  -26.0197  -26.8340   19.4816 C   0  0  0  0  0  0
  -24.8796  -27.6620   19.4641 C   0  0  0  0  0  0
  -23.6653  -29.8050   20.1511 C   0  0  0  0  0  0
  -25.4116  -36.3054   24.0329 C   0  0  1  0  0  0
  -20.5913  -28.3719   23.1234 C   0  0  2  0  0  0
  -20.6794  -26.9423   22.5400 C   0  0  0  0  0  0
  -19.5762  -26.6375   21.5209 C   0  0  0  0  0  0
  -18.1943  -26.7928   22.1631 C   0  0  0  0  0  0
  -19.1563  -28.8865   23.2855 C   0  0  0  0  0  0
  -18.9476  -30.1457   23.8891 C   0  0  0  0  0  0
  -17.6472  -30.6583   24.0566 C   0  0  0  0  0  0
  -25.9055  -34.9423   23.5080 C   0  0  0  0  0  0
  -16.5365  -29.9092   23.6328 C   0  0  0  0  0  0
  -16.7287  -28.6512   23.0351 C   0  0  0  0  0  0
  -26.4518  -31.6544   25.0702 C   0  0  0  0  0  0
  -25.3714  -31.3735   26.1401 C   0  0  0  0  0  0
  -27.0361  -30.2935   24.6243 C   0  0  0  0  0  0
  -27.6069  -32.4283   25.7487 C   0  0  0  0  0  0
  -27.5585  -37.1795   24.8460 C   0  0  0  0  0  0
  -21.4238  -29.3064   22.3602 N   0  0  0  0  0  0
  -26.4288  -37.3759   23.9397 N   0  0  0  0  0  0
  -24.7102  -31.0396   22.0926 N   0  0  0  0  0  0
  -23.4214  -28.8118   23.2961 O   0  0  0  0  0  0
  -28.2435  -26.1967   20.1771 O   0  0  0  0  0  0
  -26.5644  -34.8916   22.4656 O   0  0  0  0  0  0
  -23.5513  -32.1356   23.7135 O   0  0  0  0  0  0
  -31.3814  -18.9816   18.6294 C   0  0  0  0  0  0
  -30.6771  -20.1288   19.0307 C   0  0  0  0  0  0
  -31.0793  -17.7074   19.1299 C   0  0  0  0  0  0
  -29.3345  -18.7531   20.4579 C   0  0  0  0  0  0
  -29.6074  -20.1341   19.9618 C   0  0  0  0  0  0
  -30.0594  -17.5054   20.0838 C   0  0  0  0  0  0
  -28.4307  -23.5553   20.3951 C   0  0  0  0  0  0
  -28.0335  -22.2399   20.9595 C   0  0  0  0  0  0
  -27.9214  -24.8539   20.6280 C   0  0  0  0  0  0
  -29.5073  -22.7999   19.5743 C   0  0  0  0  0  0
  -29.0171  -21.5247   20.2108 N   0  0  0  0  0  0
  -29.8036  -16.0682   20.5323 N   0  0  0  0  0  0
  -27.1784  -21.9578   21.7724 O   0  0  0  0  0  0
  -31.4654  -12.6732   19.1795 H   0  0  0  0  0  0
  -30.3973  -11.5783   20.0144 H   0  0  0  0  0  0
  -29.8190  -11.7321   17.5591 H   0  0  0  0  0  0
  -29.6206  -13.4635   17.7027 H   0  0  0  0  0  0
  -27.9186  -11.2814   18.9401 H   0  0  0  0  0  0
  -27.3869  -12.4886   17.8022 H   0  0  0  0  0  0
  -27.6003  -14.2553   19.4258 H   0  0  0  0  0  0
  -28.7329  -12.2750   21.4580 H   0  0  0  0  0  0
  -28.3820  -13.9621   21.7538 H   0  0  0  0  0  0
  -25.2800   -9.5676   22.4760 H   0  0  0  0  0  0
  -24.0017   -7.4635   22.7465 H   0  0  0  0  0  0
  -21.0875   -8.8818   19.8952 H   0  0  0  0  0  0
  -22.3754  -10.9696   19.6177 H   0  0  0  0  0  0
  -21.2012   -7.6162   23.9739 H   0  0  0  0  0  0
  -21.1470   -6.0518   25.9081 H   0  0  0  0  0  0
  -22.0606   -2.7618   23.2835 H   0  0  0  0  0  0
  -22.4083  -11.9849   22.4806 H   0  0  0  0  0  0
  -21.1086  -13.1230   22.2667 H   0  0  0  0  0  0
  -24.6637  -15.8587   20.5497 H   0  0  0  0  0  0
  -26.2722  -15.6312   20.0923 H   0  0  0  0  0  0
  -26.7241  -32.5362   23.1030 H   0  0  0  0  0  0
  -25.0081  -33.9635   25.0362 H   0  0  0  0  0  0
  -22.7404  -31.2979   21.3810 H   0  0  0  0  0  0
  -23.3763  -35.9612   23.3285 H   0  0  0  0  0  0
  -24.3593  -36.8912   22.2055 H   0  0  0  0  0  0
  -23.7241  -37.6477   23.6676 H   0  0  0  0  0  0
  -26.1410  -31.4964   20.6135 H   0  0  0  0  0  0
  -26.8676  -30.7932   22.0239 H   0  0  0  0  0  0
  -28.1267  -28.8388   21.2466 H   0  0  0  0  0  0
  -25.9586  -25.8748   18.9870 H   0  0  0  0  0  0
  -23.9877  -27.3251   18.9542 H   0  0  0  0  0  0
  -23.7964  -30.5826   19.3978 H   0  0  0  0  0  0
  -22.7837  -29.2420   19.8392 H   0  0  0  0  0  0
  -25.1287  -36.1912   25.0827 H   0  0  0  0  0  0
  -21.0020  -28.3329   24.1349 H   0  0  0  0  0  0
  -20.5675  -26.2345   23.3626 H   0  0  0  0  0  0
  -21.6661  -26.7426   22.1199 H   0  0  0  0  0  0
  -19.6937  -25.6278   21.1251 H   0  0  0  0  0  0
  -19.6694  -27.3184   20.6734 H   0  0  0  0  0  0
  -17.4206  -26.6661   21.4044 H   0  0  0  0  0  0
  -18.0363  -26.0060   22.9025 H   0  0  0  0  0  0
  -19.7942  -30.7268   24.2281 H   0  0  0  0  0  0
  -17.5022  -31.6260   24.5165 H   0  0  0  0  0  0
  -15.5362  -30.3000   23.7619 H   0  0  0  0  0  0
  -15.8695  -28.0813   22.7079 H   0  0  0  0  0  0
  -24.5894  -30.7082   25.7721 H   0  0  0  0  0  0
  -24.8919  -32.2934   26.4774 H   0  0  0  0  0  0
  -25.8006  -30.8938   27.0206 H   0  0  0  0  0  0
  -26.2966  -29.6670   24.1253 H   0  0  0  0  0  0
  -27.3986  -29.7207   25.4787 H   0  0  0  0  0  0
  -27.8874  -30.4152   23.9537 H   0  0  0  0  0  0
  -27.2672  -33.3586   26.2049 H   0  0  0  0  0  0
  -28.3908  -32.6818   25.0337 H   0  0  0  0  0  0
  -28.0718  -31.8412   26.5415 H   0  0  0  0  0  0
  -28.2579  -38.0111   24.7499 H   0  0  0  0  0  0
  -28.1096  -36.2638   24.6284 H   0  0  0  0  0  0
  -27.2301  -37.1426   25.8860 H   0  0  0  0  0  0
  -20.9432  -29.8812   21.6821 H   0  0  0  0  0  0
  -26.0176  -38.2837   24.1382 H   0  0  0  0  0  0
  -32.1729  -19.0848   17.9006 H   0  0  0  0  0  0
  -31.0014  -21.0461   18.5646 H   0  0  0  0  0  0
  -31.6543  -16.8849   18.7370 H   0  0  0  0  0  0
  -28.5254  -18.6497   21.1657 H   0  0  0  0  0  0
  -27.1059  -24.9220   21.3349 H   0  0  0  0  0  0
  -30.5481  -23.0094   19.8262 H   0  0  0  0  0  0
  -29.3760  -22.7846   18.4907 H   0  0  0  0  0  0
  -28.8732  -15.9045   20.8888 H   0  0  0  0  0  0
  1 25  1  0  0  0
  1 30  2  0  0  0
  1 82  1  0  0  0
  2  3  1  0  0  0
  2 25  1  0  0  0
  2 84  1  0  0  0
  2 85  1  0  0  0
  3  4  1  0  0  0
  3 86  1  0  0  0
  3 87  1  0  0  0
  4  5  1  0  0  0
  4 88  1  0  0  0
  4 89  1  0  0  0
  5  6  1  0  0  0
  5 26  1  0  0  0
  5 90  1  0  0  0
  6 25  1  0  0  0
  6 91  1  0  0  0
  6 92  1  0  0  0
  7  8  2  0  0  0
  7 26  1  0  0  0
  7 29  1  0  0  0
  8  9  1  0  0  0
  8 22  1  0  0  0
  9 10  1  0  0  0
  9 27  2  0  0  0
 10 11  2  0  0  0
 10 15  1  0  0  0
 11 12  1  0  0  0
 11 93  1  0  0  0
 12 13  2  0  0  0
 12 94  1  0  0  0
 13 14  1  0  0  0
 13 31  1  0  0  0
 14 15  2  0  0  0
 14 95  1  0  0  0
 15 96  1  0  0  0
 16 17  2  0  0  0
 16 21  1  0  0  0
 16 31  1  0  0  0
 17 18  1  0  0  0
 17 97  1  0  0  0
 18 19  2  0  0  0
 18 98  1  0  0  0
 19 20  1  0  0  0
 19 24  1  0  0  0
 20 21  2  0  0  0
 20 99  1  0  0  0
 21 23  1  0  0  0
 22 28  1  0  0  0
 22 32  2  0  0  0
 26 27  1  0  0  0
 28100  1  0  0  0
 28101  1  0  0  0
 29102  1  0  0  0
 29103  1  0  0  0
 33 34  1  0  0  0
 33 66  1  0  0  0
 33 70  2  0  0  0
 34 36  1  0  0  0
 34 59  1  0  0  0
 34104  1  0  0  0
 35 44  2  0  0  0
 35 45  1  0  0  0
 35 68  1  0  0  0
 36 56  1  0  0  0
 36105  1  0  0  0
 37 39  1  0  0  0
 37 47  1  0  0  0
 37 66  1  0  0  0
 37106  1  0  0  0
 38 43  2  0  0  0
 38 46  1  0  0  0
 38 47  1  0  0  0
 39 64  1  0  0  0
 39 67  2  0  0  0
 40 52  1  0  0  0
 40 53  2  0  0  0
 40 58  1  0  0  0
 41107  1  0  0  0
 41108  1  0  0  0
 41109  1  0  0  0
 41 48  1  0  0  0
 42 43  1  0  0  0
 42 66  1  0  0  0
 42110  1  0  0  0
 42111  1  0  0  0
 43 44  1  0  0  0
 44112  1  0  0  0
 45 46  2  0  0  0
 45113  1  0  0  0
 46114  1  0  0  0
 47115  1  0  0  0
 47116  1  0  0  0
 48 56  1  0  0  0
 48 65  1  0  0  0
 48117  1  0  0  0
 49 50  1  0  0  0
 49 53  1  0  0  0
 49 64  1  0  0  0
 49118  1  0  0  0
 50 51  1  0  0  0
 50119  1  0  0  0
 50120  1  0  0  0
 51 52  1  0  0  0
 51121  1  0  0  0
 51122  1  0  0  0
 52123  1  0  0  0
 52124  1  0  0  0
 53 54  1  0  0  0
 54 55  2  0  0  0
 54125  1  0  0  0
 55 57  1  0  0  0
 55126  1  0  0  0
 56 69  2  0  0  0
 57 58  2  0  0  0
 57127  1  0  0  0
 58128  1  0  0  0
 59 60  1  0  0  0
 59 61  1  0  0  0
 59 62  1  0  0  0
 60129  1  0  0  0
 60130  1  0  0  0
 60131  1  0  0  0
 61132  1  0  0  0
 61133  1  0  0  0
 61134  1  0  0  0
 62135  1  0  0  0
 62136  1  0  0  0
 62137  1  0  0  0
 63 65  1  0  0  0
 63138  1  0  0  0
 63139  1  0  0  0
 63140  1  0  0  0
 64141  1  0  0  0
 65142  1  0  0  0
 68 79  1  0  0  0
 71 72  2  0  0  0
 71 73  1  0  0  0
 71143  1  0  0  0
 72 75  1  0  0  0
 72144  1  0  0  0
 73 76  2  0  0  0
 73145  1  0  0  0
 74 75  2  0  0  0
 74 76  1  0  0  0
 74146  1  0  0  0
 75 81  1  0  0  0
 76 82  1  0  0  0
 77 78  1  0  0  0
 77 79  2  0  0  0
 77 80  1  0  0  0
 78 81  1  0  0  0
 78 83  2  0  0  0
 79147  1  0  0  0
 80 81  1  0  0  0
 80148  1  0  0  0
 80149  1  0  0  0
 82150  1  0  0  0
M  ISO  4   1 100  68 101  79 101  82 100
M  END
> <chiral flag>
0

> <version>
0

> <s_m_source_file>
/data/baiqing/PycharmProjects/Reinvent-master-3.2/result/LINK_invent/BTK/process_docking_weight1_custom_product_contain_oxygen_bond_distance_aromatic_linkinvent_7_9_3/rearranged_h_0085.sdf

> <i_m_source_file_index>
4

> <r_mmod_Potential_Energy-OPLS-2005>
425.725402832031

> <r_mmod_Stretch_Energy-OPLS-2005>
189.669448852539

> <r_mmod_Bend_Energy-OPLS-2005>
286.754455566406

> <r_mmod_Torsional_Energy-OPLS-2005>
228.405700683594

> <r_mmod_Improper_Torsional_Energy-OPLS-2005>
3.88542342185974

> <r_mmod_Van_der_Waal_Energy-OPLS-2005>
138.61311340332

> <r_mmod_Electrostatic_Energy-OPLS-2005>
-353.397705078125

> <r_mmod_Solvation_Energy-OPLS-2005>
-220.498596191406

> <b_mmod_Minimization_Converged-OPLS-2005>
0

> <r_mmod_RMS_Derivative-OPLS-2005>
2.75652432441711

$$$$
4
                    3D
 Structure written by MMmdl.
148156  0  0  1  0            999 V2000
  -30.4088  -15.2657   20.3747 C   0  0  0  0  0  0
  -30.4477  -12.8053   19.5266 C   0  0  0  0  0  0
  -29.5403  -12.5806   18.2889 C   0  0  0  0  0  0
  -28.0872  -12.3026   18.7138 C   0  0  0  0  0  0
  -27.6159  -13.2707   19.8267 C   0  0  2  0  0  0
  -28.6503  -13.4251   20.9627 C   0  0  0  0  0  0
  -25.2406  -13.8237   20.5732 C   0  0  0  0  0  0
  -24.1757  -13.0435   20.9265 C   0  0  0  0  0  0
  -24.6404  -11.6929   20.8766 C   0  0  0  0  0  0
  -23.9094  -10.4292   21.0409 C   0  0  0  0  0  0
  -24.3637   -9.4204   21.9187 C   0  0  0  0  0  0
  -23.6304   -8.2243   22.0755 C   0  0  0  0  0  0
  -22.4286   -8.0284   21.3544 C   0  0  0  0  0  0
  -21.9928   -9.0260   20.4646 C   0  0  0  0  0  0
  -22.7264  -10.2135   20.3057 C   0  0  0  0  0  0
  -21.6855   -6.0739   22.5279 C   0  0  0  0  0  0
  -21.4016   -6.5641   23.8213 C   0  0  0  0  0  0
  -21.3660   -5.6793   24.9175 C   0  0  0  0  0  0
  -21.6044   -4.3056   24.7225 C   0  0  0  0  0  0
  -21.8819   -3.8148   23.4346 C   0  0  0  0  0  0
  -21.9194   -4.6966   22.3402 C   0  0  0  0  0  0
  -22.7773  -13.5191   21.1908 C   0  0  0  0  0  0
  -22.1662   -4.2151   21.0980 F   0  0  0  0  0  0
  -21.5628   -3.4539   25.7737 F   0  0  0  0  0  0
  -29.8847  -13.9401   20.3458 N   0  0  0  0  0  0
  -26.2832  -12.9502   20.3211 N   0  0  0  0  0  0
  -25.9339  -11.6613   20.5717 N   0  0  0  0  0  0
  -22.0426  -12.8174   22.0457 N   0  0  0  0  0  0
  -25.4027  -15.1971   20.4125 N   0  0  0  0  0  0
  -31.6277  -15.3023   20.1393 O   0  0  0  0  0  0
  -21.6644   -6.8884   21.4242 O   0  0  0  0  0  0
  -22.3457  -14.5494   20.6745 O   0  0  0  0  0  0
  -24.6626  -31.8239   23.1716 C   0  0  0  0  0  0
  -25.9310  -32.4589   23.8177 C   0  0  1  0  0  0
  -27.2191  -26.9257   20.1885 C   0  0  0  0  0  0
  -25.5978  -33.8405   24.2079 N   0  0  0  0  0  0
  -23.4778  -30.4354   21.5205 C   0  0  2  0  0  0
  -24.9327  -28.8221   20.1148 C   0  0  0  0  0  0
  -22.7666  -29.4442   22.4785 C   0  0  0  0  0  0
  -18.0322  -28.1409   22.8467 C   0  0  0  0  0  0
  -24.1493  -36.7207   23.2647 C   0  0  0  0  0  0
  -26.0472  -30.6279   21.4055 C   0  0  0  0  0  0
  -26.1150  -29.2162   20.7543 C   0  0  0  0  0  0
  -27.2517  -28.2875   20.7712 C   0  0  0  0  0  0
  -26.0129  -26.6927   19.4888 C   0  0  0  0  0  0
  -24.9064  -27.5797   19.4627 C   0  0  0  0  0  0
  -23.7191  -29.7506   20.1472 C   0  0  0  0  0  0
  -25.4135  -36.2969   24.0299 C   0  0  1  0  0  0
  -20.5947  -28.3755   23.1186 C   0  0  2  0  0  0
  -20.6798  -26.9436   22.5402 C   0  0  0  0  0  0
  -19.5771  -26.6378   21.5214 C   0  0  0  0  0  0
  -18.1954  -26.7942   22.1622 C   0  0  0  0  0  0
  -19.1584  -28.8903   23.2814 C   0  0  0  0  0  0
  -18.9494  -30.1492   23.8850 C   0  0  0  0  0  0
  -17.6487  -30.6599   24.0556 C   0  0  0  0  0  0
  -25.9100  -34.9351   23.5011 C   0  0  0  0  0  0
  -16.5377  -29.9086   23.6343 C   0  0  0  0  0  0
  -16.7304  -28.6506   23.0363 C   0  0  0  0  0  0
  -26.4561  -31.6536   25.0707 C   0  0  0  0  0  0
  -25.3686  -31.3789   26.1362 C   0  0  0  0  0  0
  -27.0461  -30.2901   24.6450 C   0  0  0  0  0  0
  -27.6049  -32.4350   25.7510 C   0  0  0  0  0  0
  -27.5570  -37.1761   24.8466 C   0  0  0  0  0  0
  -21.4336  -29.3044   22.3534 N   0  0  0  0  0  0
  -26.4280  -37.3704   23.9407 N   0  0  0  0  0  0
  -24.7504  -30.9897   22.0858 N   0  0  0  0  0  0
  -23.4212  -28.8011   23.3029 O   0  0  0  0  0  0
  -28.2180  -25.8131   20.2291 O   0  0  0  0  0  0
  -26.5710  -34.8886   22.4607 O   0  0  0  0  0  0
  -23.5695  -32.1215   23.6803 O   0  0  0  0  0  0
  -27.9512  -20.2460   20.5611 C   0  0  0  0  0  0
  -28.2028  -18.7863   20.6020 C   0  0  0  0  0  0
  -28.9175  -21.3133   20.3308 C   0  0  0  0  0  0
  -29.4679  -18.0945   20.4206 C   0  0  0  0  0  0
  -30.1643  -20.5459   20.1605 C   0  0  0  0  0  0
  -28.6690  -23.0193   20.2793 C   0  0  0  0  0  0
  -27.9203  -24.3092   20.3149 C   0  0  0  0  0  0
  -32.5374  -20.7027   19.7460 C   0  0  0  0  0  0
  -30.4021  -19.1191   20.1996 N   0  0  0  0  0  0
  -29.5523  -16.4719   20.4932 N   0  0  0  0  0  0
  -31.2730  -21.3331   19.9256 O   0  0  0  0  0  0
  -31.4641  -13.0211   19.1946 H   0  0  0  0  0  0
  -30.5227  -11.8947   20.1233 H   0  0  0  0  0  0
  -29.9193  -11.7566   17.6828 H   0  0  0  0  0  0
  -29.5699  -13.4673   17.6536 H   0  0  0  0  0  0
  -28.0415  -11.2762   19.0799 H   0  0  0  0  0  0
  -27.4196  -12.3508   17.8527 H   0  0  0  0  0  0
  -27.5365  -14.2418   19.3370 H   0  0  0  0  0  0
  -28.8166  -12.4799   21.4818 H   0  0  0  0  0  0
  -28.2891  -14.1296   21.7135 H   0  0  0  0  0  0
  -25.2778   -9.5679   22.4768 H   0  0  0  0  0  0
  -24.0009   -7.4633   22.7474 H   0  0  0  0  0  0
  -21.0859   -8.8784   19.8950 H   0  0  0  0  0  0
  -22.3723  -10.9677   19.6169 H   0  0  0  0  0  0
  -21.2009   -7.6149   23.9717 H   0  0  0  0  0  0
  -21.1482   -6.0523   25.9078 H   0  0  0  0  0  0
  -22.0597   -2.7610   23.2845 H   0  0  0  0  0  0
  -22.4055  -11.9844   22.4852 H   0  0  0  0  0  0
  -21.1036  -13.1182   22.2655 H   0  0  0  0  0  0
  -24.6191  -15.8347   20.5036 H   0  0  0  0  0  0
  -26.2126  -15.6282   19.9885 H   0  0  0  0  0  0
  -26.7379  -32.5130   23.0892 H   0  0  0  0  0  0
  -25.0071  -33.9484   25.0192 H   0  0  0  0  0  0
  -22.7911  -31.2671   21.3491 H   0  0  0  0  0  0
  -23.3767  -35.9525   23.3280 H   0  0  0  0  0  0
  -24.3568  -36.8883   22.2066 H   0  0  0  0  0  0
  -23.7240  -37.6384   23.6722 H   0  0  0  0  0  0
  -26.2278  -31.3665   20.6234 H   0  0  0  0  0  0
  -26.9072  -30.6867   22.0605 H   0  0  0  0  0  0
  -28.1469  -28.5869   21.2977 H   0  0  0  0  0  0
  -25.8947  -25.7494   18.9756 H   0  0  0  0  0  0
  -24.0117  -27.2742   18.9378 H   0  0  0  0  0  0
  -23.8760  -30.5188   19.3891 H   0  0  0  0  0  0
  -22.8290  -29.2053   19.8285 H   0  0  0  0  0  0
  -25.1333  -36.1765   25.0790 H   0  0  0  0  0  0
  -21.0034  -28.3364   24.1310 H   0  0  0  0  0  0
  -20.5677  -26.2374   23.3643 H   0  0  0  0  0  0
  -21.6661  -26.7411   22.1209 H   0  0  0  0  0  0
  -19.6929  -25.6276   21.1275 H   0  0  0  0  0  0
  -19.6709  -27.3161   20.6722 H   0  0  0  0  0  0
  -17.4221  -26.6684   21.4028 H   0  0  0  0  0  0
  -18.0351  -26.0095   22.9030 H   0  0  0  0  0  0
  -19.7969  -30.7322   24.2199 H   0  0  0  0  0  0
  -17.5038  -31.6274   24.5167 H   0  0  0  0  0  0
  -15.5375  -30.2973   23.7695 H   0  0  0  0  0  0
  -15.8704  -28.0808   22.7107 H   0  0  0  0  0  0
  -24.5885  -30.7120   25.7673 H   0  0  0  0  0  0
  -24.8857  -32.2990   26.4661 H   0  0  0  0  0  0
  -25.7916  -30.9042   27.0224 H   0  0  0  0  0  0
  -26.3134  -29.6572   24.1434 H   0  0  0  0  0  0
  -27.3963  -29.7272   25.5113 H   0  0  0  0  0  0
  -27.9087  -30.4078   23.9889 H   0  0  0  0  0  0
  -27.2614  -33.3694   26.1961 H   0  0  0  0  0  0
  -28.3927  -32.6841   25.0388 H   0  0  0  0  0  0
  -28.0645  -31.8563   26.5533 H   0  0  0  0  0  0
  -28.2570  -38.0073   24.7511 H   0  0  0  0  0  0
  -28.1083  -36.2599   24.6298 H   0  0  0  0  0  0
  -27.2284  -37.1407   25.8868 H   0  0  0  0  0  0
  -20.9592  -29.8731   21.6657 H   0  0  0  0  0  0
  -26.0128  -38.2762   24.1414 H   0  0  0  0  0  0
  -26.9265  -20.5475   20.7233 H   0  0  0  0  0  0
  -27.3356  -18.1685   20.7896 H   0  0  0  0  0  0
  -27.6664  -22.6442   20.3925 H   0  0  0  0  0  0
  -26.8419  -24.2666   20.4506 H   0  0  0  0  0  0
  -33.2983  -21.4636   19.5741 H   0  0  0  0  0  0
  -32.5351  -20.0393   18.8800 H   0  0  0  0  0  0
  -32.8329  -20.1373   20.6310 H   0  0  0  0  0  0
  -28.6276  -16.1166   20.6720 H   0  0  0  0  0  0
  1 25  1  0  0  0
  1 30  2  0  0  0
  1 80  1  0  0  0
  2  3  1  0  0  0
  2 25  1  0  0  0
  2 82  1  0  0  0
  2 83  1  0  0  0
  3  4  1  0  0  0
  3 84  1  0  0  0
  3 85  1  0  0  0
  4  5  1  0  0  0
  4 86  1  0  0  0
  4 87  1  0  0  0
  5  6  1  0  0  0
  5 26  1  0  0  0
  5 88  1  0  0  0
  6 25  1  0  0  0
  6 89  1  0  0  0
  6 90  1  0  0  0
  7  8  2  0  0  0
  7 26  1  0  0  0
  7 29  1  0  0  0
  8  9  1  0  0  0
  8 22  1  0  0  0
  9 10  1  0  0  0
  9 27  2  0  0  0
 10 11  2  0  0  0
 10 15  1  0  0  0
 11 12  1  0  0  0
 11 91  1  0  0  0
 12 13  2  0  0  0
 12 92  1  0  0  0
 13 14  1  0  0  0
 13 31  1  0  0  0
 14 15  2  0  0  0
 14 93  1  0  0  0
 15 94  1  0  0  0
 16 17  2  0  0  0
 16 21  1  0  0  0
 16 31  1  0  0  0
 17 18  1  0  0  0
 17 95  1  0  0  0
 18 19  2  0  0  0
 18 96  1  0  0  0
 19 20  1  0  0  0
 19 24  1  0  0  0
 20 21  2  0  0  0
 20 97  1  0  0  0
 21 23  1  0  0  0
 22 28  1  0  0  0
 22 32  2  0  0  0
 26 27  1  0  0  0
 28 98  1  0  0  0
 28 99  1  0  0  0
 29100  1  0  0  0
 29101  1  0  0  0
 33 34  1  0  0  0
 33 66  1  0  0  0
 33 70  2  0  0  0
 34 36  1  0  0  0
 34 59  1  0  0  0
 34102  1  0  0  0
 35 44  2  0  0  0
 35 45  1  0  0  0
 35 68  1  0  0  0
 36 56  1  0  0  0
 36103  1  0  0  0
 37 39  1  0  0  0
 37 47  1  0  0  0
 37 66  1  0  0  0
 37104  1  0  0  0
 38 43  2  0  0  0
 38 46  1  0  0  0
 38 47  1  0  0  0
 39 64  1  0  0  0
 39 67  2  0  0  0
 40 52  1  0  0  0
 40 53  2  0  0  0
 40 58  1  0  0  0
 41105  1  0  0  0
 41106  1  0  0  0
 41107  1  0  0  0
 41 48  1  0  0  0
 42 43  1  0  0  0
 42 66  1  0  0  0
 42108  1  0  0  0
 42109  1  0  0  0
 43 44  1  0  0  0
 44110  1  0  0  0
 45 46  2  0  0  0
 45111  1  0  0  0
 46112  1  0  0  0
 47113  1  0  0  0
 47114  1  0  0  0
 48 56  1  0  0  0
 48 65  1  0  0  0
 48115  1  0  0  0
 49 50  1  0  0  0
 49 53  1  0  0  0
 49 64  1  0  0  0
 49116  1  0  0  0
 50 51  1  0  0  0
 50117  1  0  0  0
 50118  1  0  0  0
 51 52  1  0  0  0
 51119  1  0  0  0
 51120  1  0  0  0
 52121  1  0  0  0
 52122  1  0  0  0
 53 54  1  0  0  0
 54 55  2  0  0  0
 54123  1  0  0  0
 55 57  1  0  0  0
 55124  1  0  0  0
 56 69  2  0  0  0
 57 58  2  0  0  0
 57125  1  0  0  0
 58126  1  0  0  0
 59 60  1  0  0  0
 59 61  1  0  0  0
 59 62  1  0  0  0
 60127  1  0  0  0
 60128  1  0  0  0
 60129  1  0  0  0
 61130  1  0  0  0
 61131  1  0  0  0
 61132  1  0  0  0
 62133  1  0  0  0
 62134  1  0  0  0
 62135  1  0  0  0
 63 65  1  0  0  0
 63136  1  0  0  0
 63137  1  0  0  0
 63138  1  0  0  0
 64139  1  0  0  0
 65140  1  0  0  0
 68 77  1  0  0  0
 71 72  2  0  0  0
 71 73  1  0  0  0
 71141  1  0  0  0
 72 74  1  0  0  0
 72142  1  0  0  0
 73 75  2  0  0  0
 73 76  1  0  0  0
 74 79  2  0  0  0
 74 80  1  0  0  0
 75 79  1  0  0  0
 75 81  1  0  0  0
 76 77  2  0  0  0
 76143  1  0  0  0
 77144  1  0  0  0
 78 81  1  0  0  0
 78145  1  0  0  0
 78146  1  0  0  0
 78147  1  0  0  0
 80148  1  0  0  0
M  ISO  4   1 100  68 101  77 101  80 100
M  END
> <chiral flag>
0

> <version>
0

> <s_m_source_file>
/data/baiqing/PycharmProjects/Reinvent-master-3.2/result/LINK_invent/BTK/process_docking_weight1_custom_product_contain_oxygen_bond_distance_aromatic_linkinvent_7_9_3/rearranged_h_0085.sdf

> <i_m_source_file_index>
5

> <r_mmod_Potential_Energy-OPLS-2005>
1207.22180175781

> <r_mmod_Stretch_Energy-OPLS-2005>
505.708923339844

> <r_mmod_Bend_Energy-OPLS-2005>
624.305725097656

> <r_mmod_Torsional_Energy-OPLS-2005>
189.85188293457

> <r_mmod_Improper_Torsional_Energy-OPLS-2005>
3.88362717628479

> <r_mmod_Van_der_Waal_Energy-OPLS-2005>
150.406692504883

> <r_mmod_Electrostatic_Energy-OPLS-2005>
-494.139038085938

> <r_mmod_Solvation_Energy-OPLS-2005>
-232.756912231445

> <b_mmod_Minimization_Converged-OPLS-2005>
0

> <r_mmod_RMS_Derivative-OPLS-2005>
0.158969104290009

$$$$
5
                    3D
 Structure written by MMmdl.
154163  0  0  1  0            999 V2000
  -30.5622  -14.8367   20.4378 C   0  0  0  0  0  0
  -30.4365  -12.5190   19.4943 C   0  0  0  0  0  0
  -29.5144  -12.5209   18.2527 C   0  0  0  0  0  0
  -28.0417  -12.3378   18.6617 C   0  0  0  0  0  0
  -27.6355  -13.2442   19.8540 C   0  0  2  0  0  0
  -28.6749  -13.2048   20.9949 C   0  0  0  0  0  0
  -25.2436  -13.8203   20.5655 C   0  0  0  0  0  0
  -24.1768  -13.0424   20.9222 C   0  0  0  0  0  0
  -24.6391  -11.6916   20.8780 C   0  0  0  0  0  0
  -23.9083  -10.4282   21.0428 C   0  0  0  0  0  0
  -24.3622   -9.4190   21.9200 C   0  0  0  0  0  0
  -23.6289   -8.2231   22.0757 C   0  0  0  0  0  0
  -22.4266   -8.0282   21.3550 C   0  0  0  0  0  0
  -21.9918   -9.0257   20.4647 C   0  0  0  0  0  0
  -22.7259  -10.2130   20.3069 C   0  0  0  0  0  0
  -21.6854   -6.0743   22.5280 C   0  0  0  0  0  0
  -21.4021   -6.5642   23.8214 C   0  0  0  0  0  0
  -21.3654   -5.6792   24.9180 C   0  0  0  0  0  0
  -21.6035   -4.3047   24.7223 C   0  0  0  0  0  0
  -21.8818   -3.8144   23.4337 C   0  0  0  0  0  0
  -21.9184   -4.6972   22.3399 C   0  0  0  0  0  0
  -22.7782  -13.5190   21.1858 C   0  0  0  0  0  0
  -22.1656   -4.2161   21.0976 F   0  0  0  0  0  0
  -21.5621   -3.4523   25.7727 F   0  0  0  0  0  0
  -29.9676  -13.5868   20.4157 N   0  0  0  0  0  0
  -26.2892  -12.9452   20.3287 N   0  0  0  0  0  0
  -25.9325  -11.6575   20.5782 N   0  0  0  0  0  0
  -22.0429  -12.8216   22.0439 N   0  0  0  0  0  0
  -25.4041  -15.1916   20.3961 N   0  0  0  0  0  0
  -31.7469  -14.9275   20.1016 O   0  0  0  0  0  0
  -21.6622   -6.8884   21.4245 O   0  0  0  0  0  0
  -22.3476  -14.5490   20.6691 O   0  0  0  0  0  0
  -24.6313  -31.8522   23.1958 C   0  0  0  0  0  0
  -25.9117  -32.4752   23.8338 C   0  0  1  0  0  0
  -27.2159  -27.2360   20.1515 C   0  0  0  0  0  0
  -25.5904  -33.8563   24.2260 N   0  0  0  0  0  0
  -23.4326  -30.4733   21.5362 C   0  0  2  0  0  0
  -24.8861  -28.9205   20.1088 C   0  0  0  0  0  0
  -22.7523  -29.4585   22.4881 C   0  0  0  0  0  0
  -18.0327  -28.1375   22.8406 C   0  0  0  0  0  0
  -24.1489  -36.7286   23.2642 C   0  0  0  0  0  0
  -25.9805  -30.7603   21.3795 C   0  0  0  0  0  0
  -26.0582  -29.3797   20.7273 C   0  0  0  0  0  0
  -27.2307  -28.5491   20.7405 C   0  0  0  0  0  0
  -26.0268  -26.8522   19.5013 C   0  0  0  0  0  0
  -24.8782  -27.6642   19.4807 C   0  0  0  0  0  0
  -23.6548  -29.8053   20.1550 C   0  0  0  0  0  0
  -25.4124  -36.3088   24.0330 C   0  0  1  0  0  0
  -20.5906  -28.3724   23.1227 C   0  0  2  0  0  0
  -20.6871  -26.9453   22.5326 C   0  0  0  0  0  0
  -19.5832  -26.6409   21.5114 C   0  0  0  0  0  0
  -18.2042  -26.7916   22.1584 C   0  0  0  0  0  0
  -19.1545  -28.8886   23.2794 C   0  0  0  0  0  0
  -18.9405  -30.1479   23.8815 C   0  0  0  0  0  0
  -17.6402  -30.6559   24.0510 C   0  0  0  0  0  0
  -25.9055  -34.9445   23.5105 C   0  0  0  0  0  0
  -16.5324  -29.9006   23.6283 C   0  0  0  0  0  0
  -16.7290  -28.6426   23.0296 C   0  0  0  0  0  0
  -26.4483  -31.6587   25.0732 C   0  0  0  0  0  0
  -25.3704  -31.3722   26.1449 C   0  0  0  0  0  0
  -27.0336  -30.2999   24.6237 C   0  0  0  0  0  0
  -27.6028  -32.4344   25.7497 C   0  0  0  0  0  0
  -27.5585  -37.1801   24.8474 C   0  0  0  0  0  0
  -21.4217  -29.3057   22.3625 N   0  0  0  0  0  0
  -26.4307  -37.3782   23.9404 N   0  0  0  0  0  0
  -24.7005  -31.0479   22.0929 N   0  0  0  0  0  0
  -23.4199  -28.8117   23.2990 O   0  0  0  0  0  0
  -28.2296  -26.2490   20.2109 O   0  0  0  0  0  0
  -26.5636  -34.8915   22.4685 O   0  0  0  0  0  0
  -23.5442  -32.1340   23.7217 O   0  0  0  0  0  0
  -30.7332  -18.9946   18.5222 C   0  0  0  0  0  0
  -30.1490  -20.1101   19.1623 C   0  0  0  0  0  0
  -30.6372  -17.6872   19.0457 C   0  0  0  0  0  0
  -29.4535  -19.9822   20.3809 C   0  0  0  0  0  0
  -29.9314  -17.4125   20.2377 C   0  0  0  0  0  0
  -29.3317  -18.5897   20.8794 C   0  0  0  0  0  0
  -28.4578  -22.1493   23.2367 C   0  0  0  0  0  0
  -28.9719  -21.1976   22.4472 C   0  0  0  0  0  0
  -27.8484  -23.3668   22.7007 C   0  0  0  0  0  0
  -28.2480  -23.8344   21.3320 C   0  0  0  0  0  0
  -28.0406  -25.2253   21.1827 C   0  0  0  0  0  0
  -28.8061  -22.6122   20.4286 C   0  0  0  0  0  0
  -29.0049  -21.2107   21.0653 N   0  0  0  0  0  0
  -29.7880  -15.9788   20.6940 N   0  0  0  0  0  0
  -27.0137  -23.9579   23.4000 O   0  0  0  0  0  0
  -28.6193  -18.3604   22.0088 F   0  0  0  0  0  0
  -31.4717  -12.6697   19.1860 H   0  0  0  0  0  0
  -30.4173  -11.5513   19.9957 H   0  0  0  0  0  0
  -29.8114  -11.7272   17.5674 H   0  0  0  0  0  0
  -29.6299  -13.4584   17.7070 H   0  0  0  0  0  0
  -27.9063  -11.2911   18.9339 H   0  0  0  0  0  0
  -27.3854  -12.5190   17.8090 H   0  0  0  0  0  0
  -27.6165  -14.2614   19.4629 H   0  0  0  0  0  0
  -28.7298  -12.2107   21.4399 H   0  0  0  0  0  0
  -28.3912  -13.8840   21.7994 H   0  0  0  0  0  0
  -25.2768   -9.5658   22.4777 H   0  0  0  0  0  0
  -23.9984   -7.4625   22.7480 H   0  0  0  0  0  0
  -21.0850   -8.8795   19.8948 H   0  0  0  0  0  0
  -22.3734  -10.9682   19.6168 H   0  0  0  0  0  0
  -21.2039   -7.6149   23.9733 H   0  0  0  0  0  0
  -21.1471   -6.0512   25.9083 H   0  0  0  0  0  0
  -22.0602   -2.7608   23.2831 H   0  0  0  0  0  0
  -22.4037  -11.9894   22.4878 H   0  0  0  0  0  0
  -21.1042  -13.1260   22.2594 H   0  0  0  0  0  0
  -24.6149  -15.8259   20.4596 H   0  0  0  0  0  0
  -26.2221  -15.6246   19.9853 H   0  0  0  0  0  0
  -26.7175  -32.5390   23.1073 H   0  0  0  0  0  0
  -25.0053  -33.9738   25.0402 H   0  0  0  0  0  0
  -22.7310  -31.2959   21.3895 H   0  0  0  0  0  0
  -23.3768  -35.9601   23.3303 H   0  0  0  0  0  0
  -24.3572  -36.8904   22.2052 H   0  0  0  0  0  0
  -23.7208  -37.6474   23.6671 H   0  0  0  0  0  0
  -26.1283  -31.5181   20.6085 H   0  0  0  0  0  0
  -26.8530  -30.8094   22.0178 H   0  0  0  0  0  0
  -28.1198  -28.8875   21.2524 H   0  0  0  0  0  0
  -25.9728  -25.8751   19.0443 H   0  0  0  0  0  0
  -23.9814  -27.3088   18.9919 H   0  0  0  0  0  0
  -23.7730  -30.5810   19.3968 H   0  0  0  0  0  0
  -22.7750  -29.2310   19.8563 H   0  0  0  0  0  0
  -25.1304  -36.1964   25.0824 H   0  0  0  0  0  0
  -20.9960  -28.3352   24.1363 H   0  0  0  0  0  0
  -20.5883  -26.2333   23.3527 H   0  0  0  0  0  0
  -21.6728  -26.7590   22.1064 H   0  0  0  0  0  0
  -19.6930  -25.6303   21.1173 H   0  0  0  0  0  0
  -19.6792  -27.3186   20.6604 H   0  0  0  0  0  0
  -17.4280  -26.6476   21.4037 H   0  0  0  0  0  0
  -18.0589  -26.0115   22.9056 H   0  0  0  0  0  0
  -19.7862  -30.7348   24.2107 H   0  0  0  0  0  0
  -17.4917  -31.6224   24.5155 H   0  0  0  0  0  0
  -15.5310  -30.2887   23.7595 H   0  0  0  0  0  0
  -15.8728  -28.0712   22.6965 H   0  0  0  0  0  0
  -24.5900  -30.7054   25.7770 H   0  0  0  0  0  0
  -24.8875  -32.2876   26.4879 H   0  0  0  0  0  0
  -25.8016  -30.8897   27.0230 H   0  0  0  0  0  0
  -26.2929  -29.6728   24.1253 H   0  0  0  0  0  0
  -27.3996  -29.7282   25.4773 H   0  0  0  0  0  0
  -27.8822  -30.4272   23.9510 H   0  0  0  0  0  0
  -27.2655  -33.3667   26.2056 H   0  0  0  0  0  0
  -28.3847  -32.6869   25.0323 H   0  0  0  0  0  0
  -28.0704  -31.8483   26.5424 H   0  0  0  0  0  0
  -28.2611  -38.0090   24.7522 H   0  0  0  0  0  0
  -28.1066  -36.2614   24.6311 H   0  0  0  0  0  0
  -27.2304  -37.1473   25.8879 H   0  0  0  0  0  0
  -20.9416  -29.8733   21.6769 H   0  0  0  0  0  0
  -26.0184  -38.2862   24.1394 H   0  0  0  0  0  0
  -31.2897  -19.1507   17.6080 H   0  0  0  0  0  0
  -30.2946  -21.0838   18.7202 H   0  0  0  0  0  0
  -31.1063  -16.8902   18.4881 H   0  0  0  0  0  0
  -28.5112  -22.0496   24.3116 H   0  0  0  0  0  0
  -29.4675  -20.3520   22.9019 H   0  0  0  0  0  0
  -27.6372  -25.7489   22.0417 H   0  0  0  0  0  0
  -28.1094  -22.5100   19.5956 H   0  0  0  0  0  0
  -29.7474  -22.9455   19.9921 H   0  0  0  0  0  0
  -28.9140  -15.7862   21.1592 H   0  0  0  0  0  0
  1 25  1  0  0  0
  1 30  2  0  0  0
  1 84  1  0  0  0
  2  3  1  0  0  0
  2 25  1  0  0  0
  2 87  1  0  0  0
  2 88  1  0  0  0
  3  4  1  0  0  0
  3 89  1  0  0  0
  3 90  1  0  0  0
  4  5  1  0  0  0
  4 91  1  0  0  0
  4 92  1  0  0  0
  5  6  1  0  0  0
  5 26  1  0  0  0
  5 93  1  0  0  0
  6 25  1  0  0  0
  6 94  1  0  0  0
  6 95  1  0  0  0
  7  8  2  0  0  0
  7 26  1  0  0  0
  7 29  1  0  0  0
  8  9  1  0  0  0
  8 22  1  0  0  0
  9 10  1  0  0  0
  9 27  2  0  0  0
 10 11  2  0  0  0
 10 15  1  0  0  0
 11 12  1  0  0  0
 11 96  1  0  0  0
 12 13  2  0  0  0
 12 97  1  0  0  0
 13 14  1  0  0  0
 13 31  1  0  0  0
 14 15  2  0  0  0
 14 98  1  0  0  0
 15 99  1  0  0  0
 16 17  2  0  0  0
 16 21  1  0  0  0
 16 31  1  0  0  0
 17 18  1  0  0  0
 17100  1  0  0  0
 18 19  2  0  0  0
 18101  1  0  0  0
 19 20  1  0  0  0
 19 24  1  0  0  0
 20 21  2  0  0  0
 20102  1  0  0  0
 21 23  1  0  0  0
 22 28  1  0  0  0
 22 32  2  0  0  0
 26 27  1  0  0  0
 28103  1  0  0  0
 28104  1  0  0  0
 29105  1  0  0  0
 29106  1  0  0  0
 33 34  1  0  0  0
 33 66  1  0  0  0
 33 70  2  0  0  0
 34 36  1  0  0  0
 34 59  1  0  0  0
 34107  1  0  0  0
 35 44  2  0  0  0
 35 45  1  0  0  0
 35 68  1  0  0  0
 36 56  1  0  0  0
 36108  1  0  0  0
 37 39  1  0  0  0
 37 47  1  0  0  0
 37 66  1  0  0  0
 37109  1  0  0  0
 38 43  2  0  0  0
 38 46  1  0  0  0
 38 47  1  0  0  0
 39 64  1  0  0  0
 39 67  2  0  0  0
 40 52  1  0  0  0
 40 53  2  0  0  0
 40 58  1  0  0  0
 41110  1  0  0  0
 41111  1  0  0  0
 41112  1  0  0  0
 41 48  1  0  0  0
 42 43  1  0  0  0
 42 66  1  0  0  0
 42113  1  0  0  0
 42114  1  0  0  0
 43 44  1  0  0  0
 44115  1  0  0  0
 45 46  2  0  0  0
 45116  1  0  0  0
 46117  1  0  0  0
 47118  1  0  0  0
 47119  1  0  0  0
 48 56  1  0  0  0
 48 65  1  0  0  0
 48120  1  0  0  0
 49 50  1  0  0  0
 49 53  1  0  0  0
 49 64  1  0  0  0
 49121  1  0  0  0
 50 51  1  0  0  0
 50122  1  0  0  0
 50123  1  0  0  0
 51 52  1  0  0  0
 51124  1  0  0  0
 51125  1  0  0  0
 52126  1  0  0  0
 52127  1  0  0  0
 53 54  1  0  0  0
 54 55  2  0  0  0
 54128  1  0  0  0
 55 57  1  0  0  0
 55129  1  0  0  0
 56 69  2  0  0  0
 57 58  2  0  0  0
 57130  1  0  0  0
 58131  1  0  0  0
 59 60  1  0  0  0
 59 61  1  0  0  0
 59 62  1  0  0  0
 60132  1  0  0  0
 60133  1  0  0  0
 60134  1  0  0  0
 61135  1  0  0  0
 61136  1  0  0  0
 61137  1  0  0  0
 62138  1  0  0  0
 62139  1  0  0  0
 62140  1  0  0  0
 63 65  1  0  0  0
 63141  1  0  0  0
 63142  1  0  0  0
 63143  1  0  0  0
 64144  1  0  0  0
 65145  1  0  0  0
 68 81  1  0  0  0
 71 72  2  0  0  0
 71 73  1  0  0  0
 71146  1  0  0  0
 72 74  1  0  0  0
 72147  1  0  0  0
 73 75  2  0  0  0
 73148  1  0  0  0
 74 76  2  0  0  0
 74 83  1  0  0  0
 75 76  1  0  0  0
 75 84  1  0  0  0
 76 86  1  0  0  0
 77 78  2  0  0  0
 77 79  1  0  0  0
 77149  1  0  0  0
 78 83  1  0  0  0
 78150  1  0  0  0
 79 80  1  0  0  0
 79 85  2  0  0  0
 80 81  2  0  0  0
 80 82  1  0  0  0
 81151  1  0  0  0
 82 83  1  0  0  0
 82152  1  0  0  0
 82153  1  0  0  0
 84154  1  0  0  0
M  ISO  4   1 100  68 101  81 101  84 100
M  END
> <chiral flag>
0

> <version>
0

> <s_m_source_file>
/data/baiqing/PycharmProjects/Reinvent-master-3.2/result/LINK_invent/BTK/process_docking_weight1_custom_product_contain_oxygen_bond_distance_aromatic_linkinvent_7_9_3/rearranged_h_0085.sdf

> <i_m_source_file_index>
6

> <r_mmod_Potential_Energy-OPLS-2005>
377.391296386719

> <r_mmod_Stretch_Energy-OPLS-2005>
166.693634033203

> <r_mmod_Bend_Energy-OPLS-2005>
222.060699462891

> <r_mmod_Torsional_Energy-OPLS-2005>
240.553741455078

> <r_mmod_Improper_Torsional_Energy-OPLS-2005>
4.90967798233032

> <r_mmod_Van_der_Waal_Energy-OPLS-2005>
158.767669677734

> <r_mmod_Electrostatic_Energy-OPLS-2005>
-328.4150390625

> <r_mmod_Solvation_Energy-OPLS-2005>
-214.029769897461

> <b_mmod_Minimization_Converged-OPLS-2005>
0

> <r_mmod_RMS_Derivative-OPLS-2005>
4.3029146194458

$$$$
6
                    3D
 Structure written by MMmdl.
161170  0  0  1  0            999 V2000
  -30.7629  -14.3224   20.6971 C   0  0  0  0  0  0
  -30.4224  -12.2646   19.3911 C   0  0  0  0  0  0
  -29.4859  -12.5266   18.1957 C   0  0  0  0  0  0
  -28.0100  -12.3787   18.6111 C   0  0  0  0  0  0
  -27.6715  -13.1889   19.8877 C   0  0  2  0  0  0
  -28.7066  -12.9050   20.9996 C   0  0  0  0  0  0
  -25.2637  -13.8122   20.5694 C   0  0  0  0  0  0
  -24.1860  -13.0427   20.9159 C   0  0  0  0  0  0
  -24.6382  -11.6885   20.8718 C   0  0  0  0  0  0
  -23.9041  -10.4286   21.0399 C   0  0  0  0  0  0
  -24.3599   -9.4203   21.9177 C   0  0  0  0  0  0
  -23.6277   -8.2239   22.0747 C   0  0  0  0  0  0
  -22.4262   -8.0276   21.3536 C   0  0  0  0  0  0
  -21.9893   -9.0250   20.4641 C   0  0  0  0  0  0
  -22.7218  -10.2128   20.3045 C   0  0  0  0  0  0
  -21.6851   -6.0734   22.5277 C   0  0  0  0  0  0
  -21.4016   -6.5639   23.8212 C   0  0  0  0  0  0
  -21.3661   -5.6791   24.9174 C   0  0  0  0  0  0
  -21.6042   -4.3054   24.7225 C   0  0  0  0  0  0
  -21.8818   -3.8147   23.4346 C   0  0  0  0  0  0
  -21.9191   -4.6964   22.3402 C   0  0  0  0  0  0
  -22.7888  -13.5247   21.1839 C   0  0  0  0  0  0
  -22.1658   -4.2149   21.0980 F   0  0  0  0  0  0
  -21.5628   -3.4536   25.7736 F   0  0  0  0  0  0
  -30.0616  -13.1834   20.4775 N   0  0  0  0  0  0
  -26.3067  -12.9260   20.3403 N   0  0  0  0  0  0
  -25.9301  -11.6435   20.5749 N   0  0  0  0  0  0
  -22.0518  -12.8248   22.0393 N   0  0  0  0  0  0
  -25.4396  -15.1843   20.4161 N   0  0  0  0  0  0
  -31.7521  -14.6662   20.0403 O   0  0  0  0  0  0
  -21.6633   -6.8870   21.4233 O   0  0  0  0  0  0
  -22.3584  -14.5570   20.6704 O   0  0  0  0  0  0
  -24.6088  -31.8724   23.2128 C   0  0  0  0  0  0
  -25.9010  -32.4840   23.8400 C   0  0  1  0  0  0
  -27.2428  -27.4954   20.0737 C   0  0  0  0  0  0
  -25.5889  -33.8632   24.2351 N   0  0  0  0  0  0
  -23.3922  -30.4964   21.5541 C   0  0  2  0  0  0
  -24.8368  -28.9674   20.1179 C   0  0  0  0  0  0
  -22.7376  -29.4673   22.5018 C   0  0  0  0  0  0
  -18.0276  -28.1347   22.8500 C   0  0  0  0  0  0
  -24.1490  -36.7326   23.2640 C   0  0  0  0  0  0
  -25.9141  -30.8568   21.3550 C   0  0  0  0  0  0
  -25.9923  -29.4937   20.7062 C   0  0  0  0  0  0
  -27.1947  -28.7634   20.6832 C   0  0  0  0  0  0
  -26.0649  -26.9640   19.4935 C   0  0  0  0  0  0
  -24.8648  -27.6984   19.5136 C   0  0  0  0  0  0
  -23.5960  -29.8273   20.1683 C   0  0  0  0  0  0
  -25.4107  -36.3124   24.0350 C   0  0  1  0  0  0
  -20.5860  -28.3630   23.1314 C   0  0  2  0  0  0
  -20.6781  -26.9385   22.5380 C   0  0  0  0  0  0
  -19.5739  -26.6353   21.5212 C   0  0  0  0  0  0
  -18.1935  -26.7881   22.1662 C   0  0  0  0  0  0
  -19.1526  -28.8811   23.2901 C   0  0  0  0  0  0
  -18.9467  -30.1418   23.8905 C   0  0  0  0  0  0
  -17.6474  -30.6561   24.0568 C   0  0  0  0  0  0
  -25.9033  -34.9485   23.5148 C   0  0  0  0  0  0
  -16.5367  -29.9071   23.6322 C   0  0  0  0  0  0
  -16.7271  -28.6485   23.0346 C   0  0  0  0  0  0
  -26.4457  -31.6590   25.0696 C   0  0  0  0  0  0
  -25.3744  -31.3677   26.1456 C   0  0  0  0  0  0
  -27.0279  -30.3048   24.6008 C   0  0  0  0  0  0
  -27.6049  -32.4284   25.7451 C   0  0  0  0  0  0
  -27.5583  -37.1818   24.8468 C   0  0  0  0  0  0
  -21.4116  -29.3026   22.3756 N   0  0  0  0  0  0
  -26.4301  -37.3800   23.9412 N   0  0  0  0  0  0
  -24.6568  -31.0872   22.1007 N   0  0  0  0  0  0
  -23.4179  -28.8204   23.3025 O   0  0  0  0  0  0
  -28.4622  -26.8620   20.0550 O   0  0  0  0  0  0
  -26.5581  -34.8930   22.4700 O   0  0  0  0  0  0
  -23.5301  -32.1439   23.7570 O   0  0  0  0  0  0
  -28.7483  -18.1752   20.5200 C   0  0  0  0  0  0
  -29.9870  -18.6496   22.5646 C   0  0  0  0  0  0
  -29.1627  -16.8383   20.5811 C   0  0  0  0  0  0
  -30.3846  -17.3011   22.6403 C   0  0  0  0  0  0
  -29.1627  -19.0997   21.5054 C   0  0  0  0  0  0
  -29.9851  -16.3960   21.6392 C   0  0  0  0  0  0
  -28.3108  -21.0588   20.2721 C   0  0  0  0  0  0
  -28.7715  -20.5247   21.4247 C   0  0  0  0  0  0
  -27.9024  -22.5046   20.0932 C   0  0  0  0  0  0
  -28.8640  -21.4073   22.6665 C   0  0  0  0  0  0
  -28.1019  -22.7329   22.5249 C   0  0  0  0  0  0
  -27.9523  -24.7551   21.1196 C   0  0  0  0  0  0
  -28.5131  -25.4589   19.8710 C   0  0  0  0  0  0
  -30.3360  -15.0359   21.7424 N   0  0  0  0  0  0
  -28.3961  -23.3473   21.2110 N   0  3  2  0  0  0
  -31.4664  -12.3701   19.0888 H   0  0  0  0  0  0
  -30.3200  -11.2347   19.7367 H   0  0  0  0  0  0
  -29.7126  -11.8366   17.3818 H   0  0  0  0  0  0
  -29.6602  -13.5305   17.8047 H   0  0  0  0  0  0
  -27.8159  -11.3189   18.7832 H   0  0  0  0  0  0
  -27.3561  -12.6786   17.7913 H   0  0  0  0  0  0
  -27.7345  -14.2429   19.6246 H   0  0  0  0  0  0
  -28.6544  -11.8573   21.3017 H   0  0  0  0  0  0
  -28.4480  -13.4685   21.8962 H   0  0  0  0  0  0
  -25.2741   -9.5688   22.4752 H   0  0  0  0  0  0
  -23.9989   -7.4631   22.7466 H   0  0  0  0  0  0
  -21.0826   -8.8770   19.8947 H   0  0  0  0  0  0
  -22.3677  -10.9668   19.6157 H   0  0  0  0  0  0
  -21.2006   -7.6145   23.9723 H   0  0  0  0  0  0
  -21.1486   -6.0513   25.9080 H   0  0  0  0  0  0
  -22.0597   -2.7609   23.2843 H   0  0  0  0  0  0
  -22.4112  -11.9882   22.4753 H   0  0  0  0  0  0
  -21.1144  -13.1299   22.2611 H   0  0  0  0  0  0
  -24.6837  -15.8452   20.5550 H   0  0  0  0  0  0
  -26.3109  -15.6278   20.1550 H   0  0  0  0  0  0
  -26.7086  -32.5576   23.1178 H   0  0  0  0  0  0
  -25.0042  -33.9802   25.0494 H   0  0  0  0  0  0
  -22.6789  -31.3116   21.4190 H   0  0  0  0  0  0
  -23.3741  -35.9669   23.3312 H   0  0  0  0  0  0
  -24.3593  -36.8920   22.2053 H   0  0  0  0  0  0
  -23.7251  -37.6546   23.6633 H   0  0  0  0  0  0
  -26.0113  -31.6225   20.5840 H   0  0  0  0  0  0
  -26.8091  -30.9163   21.9626 H   0  0  0  0  0  0
  -28.0921  -29.1748   21.1255 H   0  0  0  0  0  0
  -26.0502  -26.0028   19.0040 H   0  0  0  0  0  0
  -23.9755  -27.2888   19.0551 H   0  0  0  0  0  0
  -23.6969  -30.6005   19.4066 H   0  0  0  0  0  0
  -22.7225  -29.2410   19.8770 H   0  0  0  0  0  0
  -25.1280  -36.2007   25.0845 H   0  0  0  0  0  0
  -20.9952  -28.3170   24.1428 H   0  0  0  0  0  0
  -20.5733  -26.2238   23.3556 H   0  0  0  0  0  0
  -21.6644  -26.7463   22.1137 H   0  0  0  0  0  0
  -19.6895  -25.6253   21.1265 H   0  0  0  0  0  0
  -19.6642  -27.3148   20.6725 H   0  0  0  0  0  0
  -17.4184  -26.6579   21.4095 H   0  0  0  0  0  0
  -18.0383  -26.0041   22.9087 H   0  0  0  0  0  0
  -19.7955  -30.7223   24.2277 H   0  0  0  0  0  0
  -17.5032  -31.6242   24.5172 H   0  0  0  0  0  0
  -15.5370  -30.2982   23.7633 H   0  0  0  0  0  0
  -15.8662  -28.0823   22.7046 H   0  0  0  0  0  0
  -24.5915  -30.7030   25.7789 H   0  0  0  0  0  0
  -24.8934  -32.2828   26.4919 H   0  0  0  0  0  0
  -25.8106  -30.8832   27.0200 H   0  0  0  0  0  0
  -26.2797  -29.6810   24.1103 H   0  0  0  0  0  0
  -27.4133  -29.7272   25.4420 H   0  0  0  0  0  0
  -27.8587  -30.4392   23.9076 H   0  0  0  0  0  0
  -27.2683  -33.3564   26.2082 H   0  0  0  0  0  0
  -28.3825  -32.6872   25.0253 H   0  0  0  0  0  0
  -28.0752  -31.8369   26.5319 H   0  0  0  0  0  0
  -28.2614  -38.0101   24.7501 H   0  0  0  0  0  0
  -28.1065  -36.2634   24.6307 H   0  0  0  0  0  0
  -27.2301  -37.1493   25.8871 H   0  0  0  0  0  0
  -20.9261  -29.8810   21.7051 H   0  0  0  0  0  0
  -26.0195  -38.2886   24.1395 H   0  0  0  0  0  0
  -28.1007  -18.4542   19.7039 H   0  0  0  0  0  0
  -30.3272  -19.3264   23.3348 H   0  0  0  0  0  0
  -28.8297  -16.1629   19.8076 H   0  0  0  0  0  0
  -31.0037  -16.9718   23.4632 H   0  0  0  0  0  0
  -28.2134  -20.4759   19.3703 H   0  0  0  0  0  0
  -26.8163  -22.5640   20.0065 H   0  0  0  0  0  0
  -28.3231  -22.8458   19.1480 H   0  0  0  0  0  0
  -29.9159  -21.5968   22.8845 H   0  0  0  0  0  0
  -28.4539  -20.8706   23.5231 H   0  0  0  0  0  0
  -28.3847  -23.4002   23.3402 H   0  0  0  0  0  0
  -27.0274  -22.5653   22.6143 H   0  0  0  0  0  0
  -26.8638  -24.8131   21.1502 H   0  0  0  0  0  0
  -28.3175  -25.2861   21.9991 H   0  0  0  0  0  0
  -28.0250  -25.1487   18.9470 H   0  0  0  0  0  0
  -29.5667  -25.2059   19.7503 H   0  0  0  0  0  0
  -29.7632  -14.5063   22.3836 H   0  0  0  0  0  0
  -29.4041  -23.3605   21.1416 H   0  0  0  0  0  0
  1 25  1  0  0  0
  1 30  2  0  0  0
  1 84  1  0  0  0
  2  3  1  0  0  0
  2 25  1  0  0  0
  2 86  1  0  0  0
  2 87  1  0  0  0
  3  4  1  0  0  0
  3 88  1  0  0  0
  3 89  1  0  0  0
  4  5  1  0  0  0
  4 90  1  0  0  0
  4 91  1  0  0  0
  5  6  1  0  0  0
  5 26  1  0  0  0
  5 92  1  0  0  0
  6 25  1  0  0  0
  6 93  1  0  0  0
  6 94  1  0  0  0
  7  8  2  0  0  0
  7 26  1  0  0  0
  7 29  1  0  0  0
  8  9  1  0  0  0
  8 22  1  0  0  0
  9 10  1  0  0  0
  9 27  2  0  0  0
 10 11  2  0  0  0
 10 15  1  0  0  0
 11 12  1  0  0  0
 11 95  1  0  0  0
 12 13  2  0  0  0
 12 96  1  0  0  0
 13 14  1  0  0  0
 13 31  1  0  0  0
 14 15  2  0  0  0
 14 97  1  0  0  0
 15 98  1  0  0  0
 16 17  2  0  0  0
 16 21  1  0  0  0
 16 31  1  0  0  0
 17 18  1  0  0  0
 17 99  1  0  0  0
 18 19  2  0  0  0
 18100  1  0  0  0
 19 20  1  0  0  0
 19 24  1  0  0  0
 20 21  2  0  0  0
 20101  1  0  0  0
 21 23  1  0  0  0
 22 28  1  0  0  0
 22 32  2  0  0  0
 26 27  1  0  0  0
 28102  1  0  0  0
 28103  1  0  0  0
 29104  1  0  0  0
 29105  1  0  0  0
 33 34  1  0  0  0
 33 66  1  0  0  0
 33 70  2  0  0  0
 34 36  1  0  0  0
 34 59  1  0  0  0
 34106  1  0  0  0
 35 44  2  0  0  0
 35 45  1  0  0  0
 35 68  1  0  0  0
 36 56  1  0  0  0
 36107  1  0  0  0
 37 39  1  0  0  0
 37 47  1  0  0  0
 37 66  1  0  0  0
 37108  1  0  0  0
 38 43  2  0  0  0
 38 46  1  0  0  0
 38 47  1  0  0  0
 39 64  1  0  0  0
 39 67  2  0  0  0
 40 52  1  0  0  0
 40 53  2  0  0  0
 40 58  1  0  0  0
 41109  1  0  0  0
 41110  1  0  0  0
 41111  1  0  0  0
 41 48  1  0  0  0
 42 43  1  0  0  0
 42 66  1  0  0  0
 42112  1  0  0  0
 42113  1  0  0  0
 43 44  1  0  0  0
 44114  1  0  0  0
 45 46  2  0  0  0
 45115  1  0  0  0
 46116  1  0  0  0
 47117  1  0  0  0
 47118  1  0  0  0
 48 56  1  0  0  0
 48 65  1  0  0  0
 48119  1  0  0  0
 49 50  1  0  0  0
 49 53  1  0  0  0
 49 64  1  0  0  0
 49120  1  0  0  0
 50 51  1  0  0  0
 50121  1  0  0  0
 50122  1  0  0  0
 51 52  1  0  0  0
 51123  1  0  0  0
 51124  1  0  0  0
 52125  1  0  0  0
 52126  1  0  0  0
 53 54  1  0  0  0
 54 55  2  0  0  0
 54127  1  0  0  0
 55 57  1  0  0  0
 55128  1  0  0  0
 56 69  2  0  0  0
 57 58  2  0  0  0
 57129  1  0  0  0
 58130  1  0  0  0
 59 60  1  0  0  0
 59 61  1  0  0  0
 59 62  1  0  0  0
 60131  1  0  0  0
 60132  1  0  0  0
 60133  1  0  0  0
 61134  1  0  0  0
 61135  1  0  0  0
 61136  1  0  0  0
 62137  1  0  0  0
 62138  1  0  0  0
 62139  1  0  0  0
 63 65  1  0  0  0
 63140  1  0  0  0
 63141  1  0  0  0
 63142  1  0  0  0
 64143  1  0  0  0
 65144  1  0  0  0
 68 83  1  0  0  0
 71 73  2  0  0  0
 71 75  1  0  0  0
 71145  1  0  0  0
 72 74  1  0  0  0
 72 75  2  0  0  0
 72146  1  0  0  0
 73 76  1  0  0  0
 73147  1  0  0  0
 74 76  2  0  0  0
 74148  1  0  0  0
 75 78  1  0  0  0
 76 84  1  0  0  0
 77 78  2  0  0  0
 77 79  1  0  0  0
 77149  1  0  0  0
 78 80  1  0  0  0
 79 85  1  0  0  0
 79150  1  0  0  0
 79151  1  0  0  0
 80 81  1  0  0  0
 80152  1  0  0  0
 80153  1  0  0  0
 81 85  1  0  0  0
 81154  1  0  0  0
 81155  1  0  0  0
 82 83  1  0  0  0
 82156  1  0  0  0
 82157  1  0  0  0
 82 85  1  0  0  0
 83158  1  0  0  0
 83159  1  0  0  0
 84160  1  0  0  0
 85161  1  0  0  0
M  CHG  1  85   1
M  ISO  4   1 100  68 101  83 101  84 100
M  END
> <chiral flag>
0

> <version>
0

> <s_m_source_file>
/data/baiqing/PycharmProjects/Reinvent-master-3.2/result/LINK_invent/BTK/process_docking_weight1_custom_product_contain_oxygen_bond_distance_aromatic_linkinvent_7_9_3/rearranged_h_0085.sdf

> <i_m_source_file_index>
7

> <r_mmod_Potential_Energy-OPLS-2005>
-120.317932128906

> <r_mmod_Stretch_Energy-OPLS-2005>
31.0263538360596

> <r_mmod_Bend_Energy-OPLS-2005>
98.4584732055664

> <r_mmod_Torsional_Energy-OPLS-2005>
239.282424926758

> <r_mmod_Improper_Torsional_Energy-OPLS-2005>
5.15710258483887

> <r_mmod_Van_der_Waal_Energy-OPLS-2005>
177.610122680664

> <r_mmod_Electrostatic_Energy-OPLS-2005>
-254.584045410156

> <r_mmod_Solvation_Energy-OPLS-2005>
-426.046783447266

> <b_mmod_Minimization_Converged-OPLS-2005>
0

> <r_mmod_RMS_Derivative-OPLS-2005>
1.31973564624786

$$$$
7
                    3D
 Structure written by MMmdl.
154163  0  0  1  0            999 V2000
  -30.5707  -14.7426   20.4751 C   0  0  0  0  0  0
  -30.4482  -12.4525   19.4666 C   0  0  0  0  0  0
  -29.5168  -12.5234   18.2331 C   0  0  0  0  0  0
  -28.0407  -12.3394   18.6412 C   0  0  0  0  0  0
  -27.6511  -13.2190   19.8585 C   0  0  2  0  0  0
  -28.6973  -13.1098   20.9926 C   0  0  0  0  0  0
  -25.2578  -13.8176   20.5646 C   0  0  0  0  0  0
  -24.1848  -13.0455   20.9193 C   0  0  0  0  0  0
  -24.6413  -11.6920   20.8741 C   0  0  0  0  0  0
  -23.9074  -10.4307   21.0409 C   0  0  0  0  0  0
  -24.3630   -9.4218   21.9180 C   0  0  0  0  0  0
  -23.6301   -8.2260   22.0761 C   0  0  0  0  0  0
  -22.4287   -8.0291   21.3545 C   0  0  0  0  0  0
  -21.9910   -9.0272   20.4653 C   0  0  0  0  0  0
  -22.7241  -10.2154   20.3062 C   0  0  0  0  0  0
  -21.6866   -6.0731   22.5264 C   0  0  0  0  0  0
  -21.4017   -6.5635   23.8198 C   0  0  0  0  0  0
  -21.3657   -5.6789   24.9160 C   0  0  0  0  0  0
  -21.6050   -4.3053   24.7216 C   0  0  0  0  0  0
  -21.8826   -3.8137   23.4339 C   0  0  0  0  0  0
  -21.9210   -4.6953   22.3394 C   0  0  0  0  0  0
  -22.7870  -13.5260   21.1852 C   0  0  0  0  0  0
  -22.1678   -4.2133   21.0976 F   0  0  0  0  0  0
  -21.5624   -3.4545   25.7731 F   0  0  0  0  0  0
  -30.0030  -13.4864   20.4262 N   0  0  0  0  0  0
  -26.2992  -12.9344   20.3281 N   0  0  0  0  0  0
  -25.9341  -11.6507   20.5758 N   0  0  0  0  0  0
  -22.0506  -12.8248   22.0403 N   0  0  0  0  0  0
  -25.4308  -15.1891   20.3985 N   0  0  0  0  0  0
  -31.7324  -14.9208   20.0984 O   0  0  0  0  0  0
  -21.6660   -6.8877   21.4229 O   0  0  0  0  0  0
  -22.3548  -14.5558   20.6682 O   0  0  0  0  0  0
  -24.6302  -31.8542   23.1987 C   0  0  0  0  0  0
  -25.9133  -32.4745   23.8319 C   0  0  1  0  0  0
  -27.2243  -27.2681   20.1235 C   0  0  0  0  0  0
  -25.5934  -33.8549   24.2247 N   0  0  0  0  0  0
  -23.4285  -30.4772   21.5409 C   0  0  2  0  0  0
  -24.8790  -28.9279   20.1059 C   0  0  0  0  0  0
  -22.7501  -29.4591   22.4883 C   0  0  0  0  0  0
  -18.0297  -28.1381   22.8478 C   0  0  0  0  0  0
  -24.1492  -36.7292   23.2628 C   0  0  0  0  0  0
  -25.9757  -30.7656   21.3824 C   0  0  0  0  0  0
  -26.0511  -29.3905   20.7218 C   0  0  0  0  0  0
  -27.2276  -28.5721   20.7255 C   0  0  0  0  0  0
  -26.0366  -26.8797   19.4667 C   0  0  0  0  0  0
  -24.8772  -27.6788   19.4668 C   0  0  0  0  0  0
  -23.6491  -29.8148   20.1560 C   0  0  0  0  0  0
  -25.4113  -36.3068   24.0324 C   0  0  1  0  0  0
  -20.5904  -28.3689   23.1252 C   0  0  2  0  0  0
  -20.6773  -26.9396   22.5407 C   0  0  0  0  0  0
  -19.5764  -26.6368   21.5198 C   0  0  0  0  0  0
  -18.1948  -26.7918   22.1611 C   0  0  0  0  0  0
  -19.1552  -28.8846   23.2867 C   0  0  0  0  0  0
  -18.9473  -30.1450   23.8889 C   0  0  0  0  0  0
  -17.6473  -30.6576   24.0565 C   0  0  0  0  0  0
  -25.9052  -34.9433   23.5089 C   0  0  0  0  0  0
  -16.5367  -29.9083   23.6323 C   0  0  0  0  0  0
  -16.7290  -28.6502   23.0340 C   0  0  0  0  0  0
  -26.4495  -31.6560   25.0710 C   0  0  0  0  0  0
  -25.3722  -31.3770   26.1449 C   0  0  0  0  0  0
  -27.0289  -30.2938   24.6224 C   0  0  0  0  0  0
  -27.6071  -32.4273   25.7468 C   0  0  0  0  0  0
  -27.5597  -37.1787   24.8453 C   0  0  0  0  0  0
  -21.4205  -29.3038   22.3629 N   0  0  0  0  0  0
  -26.4299  -37.3757   23.9409 N   0  0  0  0  0  0
  -24.6967  -31.0502   22.0968 N   0  0  0  0  0  0
  -23.4187  -28.8118   23.2981 O   0  0  0  0  0  0
  -28.2744  -26.3210   20.1743 O   0  0  0  0  0  0
  -26.5639  -34.8908   22.4664 O   0  0  0  0  0  0
  -23.5455  -32.1360   23.7289 O   0  0  0  0  0  0
  -28.2862  -19.3146   21.0869 C   0  0  0  0  0  0
  -28.4830  -17.9036   21.1563 C   0  0  0  0  0  0
  -30.6275  -18.1617   20.1716 C   0  0  0  0  0  0
  -29.2246  -20.2570   20.5728 C   0  0  0  0  0  0
  -29.6584  -17.2556   20.7021 C   0  0  0  0  0  0
  -30.4267  -19.6041   20.1192 C   0  0  0  0  0  0
  -28.4328  -23.7391   20.5642 C   0  0  0  0  0  0
  -27.9025  -22.5295   21.1858 C   0  0  0  0  0  0
  -27.9315  -25.0351   20.6897 C   0  0  0  0  0  0
  -29.5350  -22.8641   19.8913 C   0  0  0  0  0  0
  -32.7512  -20.0078   19.6769 C   0  0  0  0  0  0
  -28.8920  -21.7147   20.6013 N   0  0  0  0  0  0
  -29.7128  -15.7728   20.8225 N   0  0  0  0  0  0
  -26.9490  -22.3672   21.9191 O   0  0  0  0  0  0
  -31.3994  -20.4526   19.6335 O   0  0  0  0  0  0
  -31.4854  -12.6003   19.1649 H   0  0  0  0  0  0
  -30.4063  -11.4636   19.9275 H   0  0  0  0  0  0
  -29.8012  -11.7704   17.4961 H   0  0  0  0  0  0
  -29.6363  -13.4915   17.7421 H   0  0  0  0  0  0
  -27.8931  -11.2857   18.8808 H   0  0  0  0  0  0
  -27.3846  -12.5516   17.7966 H   0  0  0  0  0  0
  -27.6582  -14.2479   19.4997 H   0  0  0  0  0  0
  -28.7347  -12.0936   21.3900 H   0  0  0  0  0  0
  -28.4263  -13.7484   21.8359 H   0  0  0  0  0  0
  -25.2794   -9.5689   22.4724 H   0  0  0  0  0  0
  -24.0010   -7.4665   22.7491 H   0  0  0  0  0  0
  -21.0832   -8.8792   19.8973 H   0  0  0  0  0  0
  -22.3701  -10.9694   19.6158 H   0  0  0  0  0  0
  -21.2008   -7.6147   23.9685 H   0  0  0  0  0  0
  -21.1460   -6.0529   25.9059 H   0  0  0  0  0  0
  -22.0608   -2.7600   23.2853 H   0  0  0  0  0  0
  -22.4146  -11.9935   22.4829 H   0  0  0  0  0  0
  -21.1111  -13.1251   22.2570 H   0  0  0  0  0  0
  -24.6587  -15.8412   20.4873 H   0  0  0  0  0  0
  -26.2585  -15.6128   19.9984 H   0  0  0  0  0  0
  -26.7191  -32.5391   23.1054 H   0  0  0  0  0  0
  -25.0036  -33.9658   25.0365 H   0  0  0  0  0  0
  -22.7267  -31.3009   21.3967 H   0  0  0  0  0  0
  -23.3747  -35.9633   23.3281 H   0  0  0  0  0  0
  -24.3575  -36.8926   22.2047 H   0  0  0  0  0  0
  -23.7253  -37.6491   23.6657 H   0  0  0  0  0  0
  -26.1184  -31.5268   20.6148 H   0  0  0  0  0  0
  -26.8492  -30.8089   22.0209 H   0  0  0  0  0  0
  -28.1187  -28.9133   21.2327 H   0  0  0  0  0  0
  -25.9926  -25.9174   18.9752 H   0  0  0  0  0  0
  -23.9850  -27.3205   18.9715 H   0  0  0  0  0  0
  -23.7736  -30.5946   19.4044 H   0  0  0  0  0  0
  -22.7660  -29.2522   19.8466 H   0  0  0  0  0  0
  -25.1291  -36.1912   25.0814 H   0  0  0  0  0  0
  -21.0017  -28.3277   24.1371 H   0  0  0  0  0  0
  -20.5623  -26.2313   23.3618 H   0  0  0  0  0  0
  -21.6646  -26.7378   22.1245 H   0  0  0  0  0  0
  -19.6931  -25.6269   21.1233 H   0  0  0  0  0  0
  -19.6721  -27.3166   20.6720 H   0  0  0  0  0  0
  -17.4213  -26.6658   21.4023 H   0  0  0  0  0  0
  -18.0378  -26.0052   22.9007 H   0  0  0  0  0  0
  -19.7942  -30.7267   24.2258 H   0  0  0  0  0  0
  -17.5020  -31.6248   24.5177 H   0  0  0  0  0  0
  -15.5364  -30.2993   23.7616 H   0  0  0  0  0  0
  -15.8689  -28.0809   22.7055 H   0  0  0  0  0  0
  -24.5924  -30.7065   25.7819 H   0  0  0  0  0  0
  -24.8895  -32.2964   26.4764 H   0  0  0  0  0  0
  -25.8045  -30.9050   27.0282 H   0  0  0  0  0  0
  -26.2853  -29.6726   24.1221 H   0  0  0  0  0  0
  -27.3871  -29.7172   25.4761 H   0  0  0  0  0  0
  -27.8792  -30.4129   23.9513 H   0  0  0  0  0  0
  -27.2689  -33.3564   26.2055 H   0  0  0  0  0  0
  -28.3877  -32.6828   25.0297 H   0  0  0  0  0  0
  -28.0743  -31.8392   26.5375 H   0  0  0  0  0  0
  -28.2602  -38.0096   24.7498 H   0  0  0  0  0  0
  -28.1112  -36.2630   24.6267 H   0  0  0  0  0  0
  -27.2331  -37.1423   25.8859 H   0  0  0  0  0  0
  -20.9378  -29.8778   21.6851 H   0  0  0  0  0  0
  -26.0190  -38.2839   24.1395 H   0  0  0  0  0  0
  -27.3434  -19.6863   21.4633 H   0  0  0  0  0  0
  -27.6842  -17.3100   21.5804 H   0  0  0  0  0  0
  -31.5434  -17.7309   19.7940 H   0  0  0  0  0  0
  -27.0666  -25.1394   21.3321 H   0  0  0  0  0  0
  -30.5647  -23.0113   20.2168 H   0  0  0  0  0  0
  -29.4900  -22.7419   18.8086 H   0  0  0  0  0  0
  -33.4098  -20.8501   19.4670 H   0  0  0  0  0  0
  -32.9536  -19.2421   18.9285 H   0  0  0  0  0  0
  -33.0176  -19.6257   20.6637 H   0  0  0  0  0  0
  -28.8480  -15.3842   21.1645 H   0  0  0  0  0  0
  1 25  1  0  0  0
  1 30  2  0  0  0
  1 83  1  0  0  0
  2  3  1  0  0  0
  2 25  1  0  0  0
  2 86  1  0  0  0
  2 87  1  0  0  0
  3  4  1  0  0  0
  3 88  1  0  0  0
  3 89  1  0  0  0
  4  5  1  0  0  0
  4 90  1  0  0  0
  4 91  1  0  0  0
  5  6  1  0  0  0
  5 26  1  0  0  0
  5 92  1  0  0  0
  6 25  1  0  0  0
  6 93  1  0  0  0
  6 94  1  0  0  0
  7  8  2  0  0  0
  7 26  1  0  0  0
  7 29  1  0  0  0
  8  9  1  0  0  0
  8 22  1  0  0  0
  9 10  1  0  0  0
  9 27  2  0  0  0
 10 11  2  0  0  0
 10 15  1  0  0  0
 11 12  1  0  0  0
 11 95  1  0  0  0
 12 13  2  0  0  0
 12 96  1  0  0  0
 13 14  1  0  0  0
 13 31  1  0  0  0
 14 15  2  0  0  0
 14 97  1  0  0  0
 15 98  1  0  0  0
 16 17  2  0  0  0
 16 21  1  0  0  0
 16 31  1  0  0  0
 17 18  1  0  0  0
 17 99  1  0  0  0
 18 19  2  0  0  0
 18100  1  0  0  0
 19 20  1  0  0  0
 19 24  1  0  0  0
 20 21  2  0  0  0
 20101  1  0  0  0
 21 23  1  0  0  0
 22 28  1  0  0  0
 22 32  2  0  0  0
 26 27  1  0  0  0
 28102  1  0  0  0
 28103  1  0  0  0
 29104  1  0  0  0
 29105  1  0  0  0
 33 34  1  0  0  0
 33 66  1  0  0  0
 33 70  2  0  0  0
 34 36  1  0  0  0
 34 59  1  0  0  0
 34106  1  0  0  0
 35 44  2  0  0  0
 35 45  1  0  0  0
 35 68  1  0  0  0
 36 56  1  0  0  0
 36107  1  0  0  0
 37 39  1  0  0  0
 37 47  1  0  0  0
 37 66  1  0  0  0
 37108  1  0  0  0
 38 43  2  0  0  0
 38 46  1  0  0  0
 38 47  1  0  0  0
 39 64  1  0  0  0
 39 67  2  0  0  0
 40 52  1  0  0  0
 40 53  2  0  0  0
 40 58  1  0  0  0
 41109  1  0  0  0
 41110  1  0  0  0
 41111  1  0  0  0
 41 48  1  0  0  0
 42 43  1  0  0  0
 42 66  1  0  0  0
 42112  1  0  0  0
 42113  1  0  0  0
 43 44  1  0  0  0
 44114  1  0  0  0
 45 46  2  0  0  0
 45115  1  0  0  0
 46116  1  0  0  0
 47117  1  0  0  0
 47118  1  0  0  0
 48 56  1  0  0  0
 48 65  1  0  0  0
 48119  1  0  0  0
 49 50  1  0  0  0
 49 53  1  0  0  0
 49 64  1  0  0  0
 49120  1  0  0  0
 50 51  1  0  0  0
 50121  1  0  0  0
 50122  1  0  0  0
 51 52  1  0  0  0
 51123  1  0  0  0
 51124  1  0  0  0
 52125  1  0  0  0
 52126  1  0  0  0
 53 54  1  0  0  0
 54 55  2  0  0  0
 54127  1  0  0  0
 55 57  1  0  0  0
 55128  1  0  0  0
 56 69  2  0  0  0
 57 58  2  0  0  0
 57129  1  0  0  0
 58130  1  0  0  0
 59 60  1  0  0  0
 59 61  1  0  0  0
 59 62  1  0  0  0
 60131  1  0  0  0
 60132  1  0  0  0
 60133  1  0  0  0
 61134  1  0  0  0
 61135  1  0  0  0
 61136  1  0  0  0
 62137  1  0  0  0
 62138  1  0  0  0
 62139  1  0  0  0
 63 65  1  0  0  0
 63140  1  0  0  0
 63141  1  0  0  0
 63142  1  0  0  0
 64143  1  0  0  0
 65144  1  0  0  0
 68 79  1  0  0  0
 71 72  2  0  0  0
 71 74  1  0  0  0
 71145  1  0  0  0
 72 75  1  0  0  0
 72146  1  0  0  0
 73 75  2  0  0  0
 73 76  1  0  0  0
 73147  1  0  0  0
 74 76  2  0  0  0
 74 82  1  0  0  0
 75 83  1  0  0  0
 76 85  1  0  0  0
 77 78  1  0  0  0
 77 79  2  0  0  0
 77 80  1  0  0  0
 78 82  1  0  0  0
 78 84  2  0  0  0
 79148  1  0  0  0
 80 82  1  0  0  0
 80149  1  0  0  0
 80150  1  0  0  0
 81 85  1  0  0  0
 81151  1  0  0  0
 81152  1  0  0  0
 81153  1  0  0  0
 83154  1  0  0  0
M  ISO  4   1 100  68 101  79 101  83 100
M  END
> <chiral flag>
0

> <version>
0

> <s_m_source_file>
/data/baiqing/PycharmProjects/Reinvent-master-3.2/result/LINK_invent/BTK/process_docking_weight1_custom_product_contain_oxygen_bond_distance_aromatic_linkinvent_7_9_3/rearranged_h_0085.sdf

> <i_m_source_file_index>
8

> <r_mmod_Potential_Energy-OPLS-2005>
226.929550170898

> <r_mmod_Stretch_Energy-OPLS-2005>
109.396774291992

> <r_mmod_Bend_Energy-OPLS-2005>
277.213714599609

> <r_mmod_Torsional_Energy-OPLS-2005>
226.373931884766

> <r_mmod_Improper_Torsional_Energy-OPLS-2005>
4.06753873825073

> <r_mmod_Van_der_Waal_Energy-OPLS-2005>
139.372985839844

> <r_mmod_Electrostatic_Energy-OPLS-2005>
-397.472015380859

> <r_mmod_Solvation_Energy-OPLS-2005>
-220.188217163086

> <b_mmod_Minimization_Converged-OPLS-2005>
0

> <r_mmod_RMS_Derivative-OPLS-2005>
2.16541409492493

$$$$
8
                    3D
 Structure written by MMmdl.
154163  0  0  1  0            999 V2000
  -30.5906  -14.8078   20.4419 C   0  0  0  0  0  0
  -30.4321  -12.4925   19.4952 C   0  0  0  0  0  0
  -29.5171  -12.5341   18.2495 C   0  0  0  0  0  0
  -28.0431  -12.3491   18.6529 C   0  0  0  0  0  0
  -27.6425  -13.2423   19.8560 C   0  0  2  0  0  0
  -28.6834  -13.1946   20.9963 C   0  0  0  0  0  0
  -25.2485  -13.8212   20.5678 C   0  0  0  0  0  0
  -24.1777  -13.0444   20.9181 C   0  0  0  0  0  0
  -24.6385  -11.6923   20.8720 C   0  0  0  0  0  0
  -23.9060  -10.4295   21.0383 C   0  0  0  0  0  0
  -24.3612   -9.4214   21.9157 C   0  0  0  0  0  0
  -23.6288   -8.2251   22.0745 C   0  0  0  0  0  0
  -22.4271   -8.0277   21.3537 C   0  0  0  0  0  0
  -21.9894   -9.0252   20.4649 C   0  0  0  0  0  0
  -22.7226  -10.2125   20.3045 C   0  0  0  0  0  0
  -21.6857   -6.0723   22.5265 C   0  0  0  0  0  0
  -21.4027   -6.5625   23.8195 C   0  0  0  0  0  0
  -21.3664   -5.6777   24.9155 C   0  0  0  0  0  0
  -21.6049   -4.3045   24.7211 C   0  0  0  0  0  0
  -21.8816   -3.8137   23.4330 C   0  0  0  0  0  0
  -21.9206   -4.6951   22.3391 C   0  0  0  0  0  0
  -22.7797  -13.5228   21.1862 C   0  0  0  0  0  0
  -22.1661   -4.2132   21.0968 F   0  0  0  0  0  0
  -21.5639   -3.4533   25.7730 F   0  0  0  0  0  0
  -29.9858  -13.5624   20.4266 N   0  0  0  0  0  0
  -26.2928  -12.9443   20.3275 N   0  0  0  0  0  0
  -25.9319  -11.6576   20.5700 N   0  0  0  0  0  0
  -22.0456  -12.8222   22.0429 N   0  0  0  0  0  0
  -25.4200  -15.1936   20.4115 N   0  0  0  0  0  0
  -31.7575  -14.9046   20.0454 O   0  0  0  0  0  0
  -21.6644   -6.8870   21.4231 O   0  0  0  0  0  0
  -22.3472  -14.5538   20.6722 O   0  0  0  0  0  0
  -24.6375  -31.8530   23.1972 C   0  0  0  0  0  0
  -25.9195  -32.4737   23.8322 C   0  0  1  0  0  0
  -27.2053  -27.1957   20.1313 C   0  0  0  0  0  0
  -25.5990  -33.8533   24.2243 N   0  0  0  0  0  0
  -23.4345  -30.4767   21.5421 C   0  0  2  0  0  0
  -24.8826  -28.9220   20.1070 C   0  0  0  0  0  0
  -22.7531  -29.4589   22.4890 C   0  0  0  0  0  0
  -18.0295  -28.1399   22.8466 C   0  0  0  0  0  0
  -24.1495  -36.7257   23.2636 C   0  0  0  0  0  0
  -25.9874  -30.7391   21.3939 C   0  0  0  0  0  0
  -26.0556  -29.3562   20.7357 C   0  0  0  0  0  0
  -27.2149  -28.5037   20.7471 C   0  0  0  0  0  0
  -26.0216  -26.8772   19.4239 C   0  0  0  0  0  0
  -24.8751  -27.6930   19.4382 C   0  0  0  0  0  0
  -23.6573  -29.8170   20.1567 C   0  0  0  0  0  0
  -25.4121  -36.3043   24.0322 C   0  0  1  0  0  0
  -20.5898  -28.3718   23.1249 C   0  0  2  0  0  0
  -20.6776  -26.9440   22.5393 C   0  0  0  0  0  0
  -19.5759  -26.6391   21.5192 C   0  0  0  0  0  0
  -18.1937  -26.7940   22.1609 C   0  0  0  0  0  0
  -19.1545  -28.8874   23.2849 C   0  0  0  0  0  0
  -18.9473  -30.1462   23.8882 C   0  0  0  0  0  0
  -17.6472  -30.6599   24.0543 C   0  0  0  0  0  0
  -25.9078  -34.9427   23.5081 C   0  0  0  0  0  0
  -16.5362  -29.9091   23.6328 C   0  0  0  0  0  0
  -16.7279  -28.6508   23.0352 C   0  0  0  0  0  0
  -26.4540  -31.6567   25.0727 C   0  0  0  0  0  0
  -25.3737  -31.3765   26.1436 C   0  0  0  0  0  0
  -27.0356  -30.2947   24.6277 C   0  0  0  0  0  0
  -27.6118  -32.4291   25.7486 C   0  0  0  0  0  0
  -27.5592  -37.1779   24.8459 C   0  0  0  0  0  0
  -21.4231  -29.3051   22.3634 N   0  0  0  0  0  0
  -26.4281  -37.3765   23.9429 N   0  0  0  0  0  0
  -24.7052  -31.0432   22.0989 N   0  0  0  0  0  0
  -23.4210  -28.8120   23.3003 O   0  0  0  0  0  0
  -28.2584  -26.2270   20.2053 O   0  0  0  0  0  0
  -26.5636  -34.8927   22.4640 O   0  0  0  0  0  0
  -23.5515  -32.1398   23.7232 O   0  0  0  0  0  0
  -29.3001  -19.6630   18.5039 C   0  0  0  0  0  0
  -29.6125  -18.6241   20.6822 C   0  0  0  0  0  0
  -29.6604  -17.2367   18.6774 C   0  0  0  0  0  0
  -29.3905  -19.8572   19.9021 C   0  0  0  0  0  0
  -29.4321  -18.3935   17.9031 C   0  0  0  0  0  0
  -29.7572  -17.2833   20.0863 C   0  0  0  0  0  0
  -28.7679  -23.6528   20.3276 C   0  0  0  0  0  0
  -28.3171  -22.2323   20.0997 C   0  0  0  0  0  0
  -30.4274  -21.9912   20.7463 C   0  0  0  0  0  0
  -27.9870  -24.8013   20.1261 C   0  0  0  0  0  0
  -30.1962  -23.5160   20.7677 C   0  0  0  0  0  0
  -29.3276  -21.3050   20.3520 N   0  0  0  0  0  0
  -29.3399  -18.2828   16.5159 N   0  0  0  0  0  0
  -29.8605  -15.9537   20.7826 N   0  0  0  0  0  0
  -27.1783  -21.8998   19.7454 O   0  0  0  0  0  0
  -31.5121  -21.4891   21.0675 O   0  0  0  0  0  0
  -31.4746  -12.6137   19.1967 H   0  0  0  0  0  0
  -30.3772  -11.5166   19.9797 H   0  0  0  0  0  0
  -29.8113  -11.7644   17.5345 H   0  0  0  0  0  0
  -29.6369  -13.4901   17.7356 H   0  0  0  0  0  0
  -27.8963  -11.2982   18.9026 H   0  0  0  0  0  0
  -27.3934  -12.5570   17.8027 H   0  0  0  0  0  0
  -27.6333  -14.2633   19.4723 H   0  0  0  0  0  0
  -28.7267  -12.1986   21.4405 H   0  0  0  0  0  0
  -28.3990  -13.8751   21.7999 H   0  0  0  0  0  0
  -25.2748   -9.5705   22.4717 H   0  0  0  0  0  0
  -24.0010   -7.4645   22.7454 H   0  0  0  0  0  0
  -21.0826   -8.8774   19.8958 H   0  0  0  0  0  0
  -22.3673  -10.9664   19.6150 H   0  0  0  0  0  0
  -21.2021   -7.6131   23.9691 H   0  0  0  0  0  0
  -21.1489   -6.0506   25.9053 H   0  0  0  0  0  0
  -22.0605   -2.7601   23.2827 H   0  0  0  0  0  0
  -22.4095  -11.9892   22.4829 H   0  0  0  0  0  0
  -21.1075  -13.1244   22.2653 H   0  0  0  0  0  0
  -24.6580  -15.8523   20.5262 H   0  0  0  0  0  0
  -26.2751  -15.6304   20.0910 H   0  0  0  0  0  0
  -26.7245  -32.5362   23.1038 H   0  0  0  0  0  0
  -25.0151  -33.9659   25.0398 H   0  0  0  0  0  0
  -22.7309  -31.2987   21.3979 H   0  0  0  0  0  0
  -23.3769  -35.9571   23.3241 H   0  0  0  0  0  0
  -24.3610  -36.8935   22.2063 H   0  0  0  0  0  0
  -23.7227  -37.6435   23.6687 H   0  0  0  0  0  0
  -26.1414  -31.4944   20.6216 H   0  0  0  0  0  0
  -26.8604  -30.7860   22.0323 H   0  0  0  0  0  0
  -28.1049  -28.8249   21.2709 H   0  0  0  0  0  0
  -25.9358  -25.9708   18.8466 H   0  0  0  0  0  0
  -23.9907  -27.3675   18.9094 H   0  0  0  0  0  0
  -23.7924  -30.5961   19.4059 H   0  0  0  0  0  0
  -22.7729  -29.2597   19.8434 H   0  0  0  0  0  0
  -25.1292  -36.1862   25.0804 H   0  0  0  0  0  0
  -20.9983  -28.3314   24.1375 H   0  0  0  0  0  0
  -20.5648  -26.2352   23.3606 H   0  0  0  0  0  0
  -21.6656  -26.7456   22.1227 H   0  0  0  0  0  0
  -19.6931  -25.6283   21.1260 H   0  0  0  0  0  0
  -19.6696  -27.3153   20.6679 H   0  0  0  0  0  0
  -17.4208  -26.6652   21.4007 H   0  0  0  0  0  0
  -18.0370  -26.0088   22.9021 H   0  0  0  0  0  0
  -19.7947  -30.7264   24.2281 H   0  0  0  0  0  0
  -17.5032  -31.6286   24.5138 H   0  0  0  0  0  0
  -15.5360  -30.2985   23.7672 H   0  0  0  0  0  0
  -15.8674  -28.0807   22.7096 H   0  0  0  0  0  0
  -24.5901  -30.7130   25.7763 H   0  0  0  0  0  0
  -24.8938  -32.2949   26.4827 H   0  0  0  0  0  0
  -25.8028  -30.8957   27.0236 H   0  0  0  0  0  0
  -26.2939  -29.6697   24.1289 H   0  0  0  0  0  0
  -27.3957  -29.7233   25.4843 H   0  0  0  0  0  0
  -27.8877  -30.4146   23.9581 H   0  0  0  0  0  0
  -27.2771  -33.3621   26.2034 H   0  0  0  0  0  0
  -28.3952  -32.6803   25.0314 H   0  0  0  0  0  0
  -28.0763  -31.8420   26.5421 H   0  0  0  0  0  0
  -28.2570  -38.0119   24.7568 H   0  0  0  0  0  0
  -28.1130  -36.2656   24.6178 H   0  0  0  0  0  0
  -27.2340  -37.1312   25.8872 H   0  0  0  0  0  0
  -20.9443  -29.8777   21.6822 H   0  0  0  0  0  0
  -26.0138  -38.2828   24.1444 H   0  0  0  0  0  0
  -29.1522  -20.5240   17.8660 H   0  0  0  0  0  0
  -29.6779  -18.7129   21.7575 H   0  0  0  0  0  0
  -29.7318  -16.2825   18.1755 H   0  0  0  0  0  0
  -26.9685  -24.6021   19.8441 H   0  0  0  0  0  0
  -30.3406  -23.9203   21.7691 H   0  0  0  0  0  0
  -30.8695  -24.0149   20.0702 H   0  0  0  0  0  0
  -28.9369  -19.0438   15.9755 H   0  0  0  0  0  0
  -29.1896  -17.3734   16.0912 H   0  0  0  0  0  0
  -29.0824  -15.7592   21.3966 H   0  0  0  0  0  0
  1 25  1  0  0  0
  1 30  2  0  0  0
  1 84  1  0  0  0
  2  3  1  0  0  0
  2 25  1  0  0  0
  2 87  1  0  0  0
  2 88  1  0  0  0
  3  4  1  0  0  0
  3 89  1  0  0  0
  3 90  1  0  0  0
  4  5  1  0  0  0
  4 91  1  0  0  0
  4 92  1  0  0  0
  5  6  1  0  0  0
  5 26  1  0  0  0
  5 93  1  0  0  0
  6 25  1  0  0  0
  6 94  1  0  0  0
  6 95  1  0  0  0
  7  8  2  0  0  0
  7 26  1  0  0  0
  7 29  1  0  0  0
  8  9  1  0  0  0
  8 22  1  0  0  0
  9 10  1  0  0  0
  9 27  2  0  0  0
 10 11  2  0  0  0
 10 15  1  0  0  0
 11 12  1  0  0  0
 11 96  1  0  0  0
 12 13  2  0  0  0
 12 97  1  0  0  0
 13 14  1  0  0  0
 13 31  1  0  0  0
 14 15  2  0  0  0
 14 98  1  0  0  0
 15 99  1  0  0  0
 16 17  2  0  0  0
 16 21  1  0  0  0
 16 31  1  0  0  0
 17 18  1  0  0  0
 17100  1  0  0  0
 18 19  2  0  0  0
 18101  1  0  0  0
 19 20  1  0  0  0
 19 24  1  0  0  0
 20 21  2  0  0  0
 20102  1  0  0  0
 21 23  1  0  0  0
 22 28  1  0  0  0
 22 32  2  0  0  0
 26 27  1  0  0  0
 28103  1  0  0  0
 28104  1  0  0  0
 29105  1  0  0  0
 29106  1  0  0  0
 33 34  1  0  0  0
 33 66  1  0  0  0
 33 70  2  0  0  0
 34 36  1  0  0  0
 34 59  1  0  0  0
 34107  1  0  0  0
 35 44  2  0  0  0
 35 45  1  0  0  0
 35 68  1  0  0  0
 36 56  1  0  0  0
 36108  1  0  0  0
 37 39  1  0  0  0
 37 47  1  0  0  0
 37 66  1  0  0  0
 37109  1  0  0  0
 38 43  2  0  0  0
 38 46  1  0  0  0
 38 47  1  0  0  0
 39 64  1  0  0  0
 39 67  2  0  0  0
 40 52  1  0  0  0
 40 53  2  0  0  0
 40 58  1  0  0  0
 41110  1  0  0  0
 41111  1  0  0  0
 41112  1  0  0  0
 41 48  1  0  0  0
 42 43  1  0  0  0
 42 66  1  0  0  0
 42113  1  0  0  0
 42114  1  0  0  0
 43 44  1  0  0  0
 44115  1  0  0  0
 45 46  2  0  0  0
 45116  1  0  0  0
 46117  1  0  0  0
 47118  1  0  0  0
 47119  1  0  0  0
 48 56  1  0  0  0
 48 65  1  0  0  0
 48120  1  0  0  0
 49 50  1  0  0  0
 49 53  1  0  0  0
 49 64  1  0  0  0
 49121  1  0  0  0
 50 51  1  0  0  0
 50122  1  0  0  0
 50123  1  0  0  0
 51 52  1  0  0  0
 51124  1  0  0  0
 51125  1  0  0  0
 52126  1  0  0  0
 52127  1  0  0  0
 53 54  1  0  0  0
 54 55  2  0  0  0
 54128  1  0  0  0
 55 57  1  0  0  0
 55129  1  0  0  0
 56 69  2  0  0  0
 57 58  2  0  0  0
 57130  1  0  0  0
 58131  1  0  0  0
 59 60  1  0  0  0
 59 61  1  0  0  0
 59 62  1  0  0  0
 60132  1  0  0  0
 60133  1  0  0  0
 60134  1  0  0  0
 61135  1  0  0  0
 61136  1  0  0  0
 61137  1  0  0  0
 62138  1  0  0  0
 62139  1  0  0  0
 62140  1  0  0  0
 63 65  1  0  0  0
 63141  1  0  0  0
 63142  1  0  0  0
 63143  1  0  0  0
 64144  1  0  0  0
 65145  1  0  0  0
 68 80  1  0  0  0
 71 74  2  0  0  0
 71 75  1  0  0  0
 71146  1  0  0  0
 72 74  1  0  0  0
 72 76  2  0  0  0
 72147  1  0  0  0
 73 75  2  0  0  0
 73 76  1  0  0  0
 73148  1  0  0  0
 74 82  1  0  0  0
 75 83  1  0  0  0
 76 84  1  0  0  0
 77 78  1  0  0  0
 77 80  2  0  0  0
 77 81  1  0  0  0
 78 82  1  0  0  0
 78 85  2  0  0  0
 79 81  1  0  0  0
 79 82  1  0  0  0
 79 86  2  0  0  0
 80149  1  0  0  0
 81150  1  0  0  0
 81151  1  0  0  0
 83152  1  0  0  0
 83153  1  0  0  0
 84154  1  0  0  0
M  ISO  4   1 100  68 101  80 101  84 100
M  END
> <chiral flag>
0

> <version>
0

> <s_m_source_file>
/data/baiqing/PycharmProjects/Reinvent-master-3.2/result/LINK_invent/BTK/process_docking_weight1_custom_product_contain_oxygen_bond_distance_aromatic_linkinvent_7_9_3/rearranged_h_0085.sdf

> <i_m_source_file_index>
9

> <r_mmod_Potential_Energy-OPLS-2005>
370.136352539062

> <r_mmod_Stretch_Energy-OPLS-2005>
160.271286010742

> <r_mmod_Bend_Energy-OPLS-2005>
230.996292114258

> <r_mmod_Torsional_Energy-OPLS-2005>
295.416046142578

> <r_mmod_Improper_Torsional_Energy-OPLS-2005>
7.74861669540405

> <r_mmod_Van_der_Waal_Energy-OPLS-2005>
134.431854248047

> <r_mmod_Electrostatic_Energy-OPLS-2005>
-329.265991210938

> <r_mmod_Solvation_Energy-OPLS-2005>
-254.740936279297

> <b_mmod_Minimization_Converged-OPLS-2005>
0

> <r_mmod_RMS_Derivative-OPLS-2005>
2.50806879997253

$$$$
9
                    3D
 Structure written by MMmdl.
154162  0  0  1  0            999 V2000
  -30.7568  -14.4463   20.4275 C   0  0  0  0  0  0
  -30.3881  -12.2577   19.4478 C   0  0  0  0  0  0
  -29.4871  -12.4618   18.2147 C   0  0  0  0  0  0
  -28.0086  -12.3455   18.6253 C   0  0  0  0  0  0
  -27.6509  -13.2193   19.8589 C   0  0  2  0  0  0
  -28.6965  -13.0833   20.9908 C   0  0  0  0  0  0
  -25.2545  -13.8191   20.5690 C   0  0  0  0  0  0
  -24.1814  -13.0454   20.9201 C   0  0  0  0  0  0
  -24.6389  -11.6928   20.8754 C   0  0  0  0  0  0
  -23.9064  -10.4302   21.0407 C   0  0  0  0  0  0
  -24.3621   -9.4213   21.9180 C   0  0  0  0  0  0
  -23.6300   -8.2243   22.0749 C   0  0  0  0  0  0
  -22.4278   -8.0282   21.3544 C   0  0  0  0  0  0
  -21.9914   -9.0252   20.4644 C   0  0  0  0  0  0
  -22.7240  -10.2136   20.3054 C   0  0  0  0  0  0
  -21.6857   -6.0735   22.5275 C   0  0  0  0  0  0
  -21.4013   -6.5640   23.8210 C   0  0  0  0  0  0
  -21.3659   -5.6797   24.9173 C   0  0  0  0  0  0
  -21.6045   -4.3056   24.7227 C   0  0  0  0  0  0
  -21.8818   -3.8147   23.4349 C   0  0  0  0  0  0
  -21.9194   -4.6962   22.3403 C   0  0  0  0  0  0
  -22.7836  -13.5238   21.1868 C   0  0  0  0  0  0
  -22.1663   -4.2148   21.0982 F   0  0  0  0  0  0
  -21.5629   -3.4541   25.7739 F   0  0  0  0  0  0
  -30.0282  -13.3023   20.4165 N   0  0  0  0  0  0
  -26.2981  -12.9388   20.3333 N   0  0  0  0  0  0
  -25.9318  -11.6537   20.5779 N   0  0  0  0  0  0
  -22.0485  -12.8216   22.0418 N   0  0  0  0  0  0
  -25.4261  -15.1907   20.4080 N   0  0  0  0  0  0
  -31.9704  -14.4331   20.2104 O   0  0  0  0  0  0
  -21.6647   -6.8875   21.4237 O   0  0  0  0  0  0
  -22.3523  -14.5550   20.6722 O   0  0  0  0  0  0
  -24.6128  -31.8693   23.2136 C   0  0  0  0  0  0
  -25.9033  -32.4832   23.8417 C   0  0  1  0  0  0
  -27.2226  -27.4631   20.0917 C   0  0  0  0  0  0
  -25.5914  -33.8631   24.2354 N   0  0  0  0  0  0
  -23.3976  -30.4960   21.5542 C   0  0  2  0  0  0
  -24.8393  -28.9676   20.1137 C   0  0  0  0  0  0
  -22.7392  -29.4670   22.5014 C   0  0  0  0  0  0
  -18.0269  -28.1374   22.8497 C   0  0  0  0  0  0
  -24.1487  -36.7317   23.2641 C   0  0  0  0  0  0
  -25.9225  -30.8484   21.3559 C   0  0  0  0  0  0
  -25.9991  -29.4859   20.7020 C   0  0  0  0  0  0
  -27.1978  -28.7423   20.6832 C   0  0  0  0  0  0
  -26.0470  -26.9519   19.4982 C   0  0  0  0  0  0
  -24.8558  -27.7001   19.5073 C   0  0  0  0  0  0
  -23.6008  -29.8303   20.1674 C   0  0  0  0  0  0
  -25.4107  -36.3114   24.0344 C   0  0  1  0  0  0
  -20.5852  -28.3652   23.1332 C   0  0  2  0  0  0
  -20.6754  -26.9396   22.5410 C   0  0  0  0  0  0
  -19.5731  -26.6382   21.5208 C   0  0  0  0  0  0
  -18.1916  -26.7923   22.1620 C   0  0  0  0  0  0
  -19.1516  -28.8830   23.2912 C   0  0  0  0  0  0
  -18.9443  -30.1438   23.8916 C   0  0  0  0  0  0
  -17.6447  -30.6585   24.0564 C   0  0  0  0  0  0
  -25.9026  -34.9480   23.5134 C   0  0  0  0  0  0
  -16.5340  -29.9082   23.6335 C   0  0  0  0  0  0
  -16.7258  -28.6498   23.0359 C   0  0  0  0  0  0
  -26.4477  -31.6609   25.0732 C   0  0  0  0  0  0
  -25.3767  -31.3677   26.1500 C   0  0  0  0  0  0
  -27.0310  -30.3076   24.6053 C   0  0  0  0  0  0
  -27.6068  -32.4318   25.7480 C   0  0  0  0  0  0
  -27.5580  -37.1815   24.8469 C   0  0  0  0  0  0
  -21.4123  -29.3033   22.3753 N   0  0  0  0  0  0
  -26.4294  -37.3800   23.9417 N   0  0  0  0  0  0
  -24.6636  -31.0837   22.1013 N   0  0  0  0  0  0
  -23.4180  -28.8203   23.3034 O   0  0  0  0  0  0
  -28.3841  -26.7328   20.1087 O   0  0  0  0  0  0
  -26.5568  -34.8927   22.4679 O   0  0  0  0  0  0
  -23.5329  -32.1414   23.7567 O   0  0  0  0  0  0
  -28.6910  -18.4151   20.1120 C   0  0  0  0  0  0
  -28.3466  -19.7870   20.1735 C   0  0  0  0  0  0
  -31.0495  -19.0339   20.0025 C   0  0  0  0  0  0
  -30.0467  -18.0414   19.9806 C   0  0  0  0  0  0
  -29.3596  -20.7776   20.1157 C   0  0  0  0  0  0
  -30.7142  -20.3918   20.0801 C   0  0  0  0  0  0
  -30.4814  -16.6525   19.6298 C   0  0  0  0  0  0
  -28.2900  -24.3402   19.5673 C   0  0  0  0  0  0
  -28.0158  -22.8961   20.0341 C   0  0  0  0  0  0
  -28.2387  -25.4156   20.6569 C   0  0  0  0  0  0
  -31.7260  -21.3552   20.0671 N   0  0  0  0  0  0
  -29.1331  -22.1659   19.9594 N   0  0  0  0  0  0
  -30.0631  -15.6019   20.3727 N   0  0  0  0  0  0
  -31.2486  -16.5549   18.6616 O   0  0  0  0  0  0
  -28.5704  -24.6073   18.3908 O   0  0  0  0  0  0
  -26.9104  -22.5072   20.4265 O   0  0  0  0  0  0
  -31.4395  -12.2819   19.1544 H   0  0  0  0  0  0
  -30.2247  -11.2718   19.8856 H   0  0  0  0  0  0
  -29.7207  -11.7167   17.4534 H   0  0  0  0  0  0
  -29.6761  -13.4363   17.7608 H   0  0  0  0  0  0
  -27.8178  -11.2954   18.8485 H   0  0  0  0  0  0
  -27.3615  -12.5975   17.7845 H   0  0  0  0  0  0
  -27.6717  -14.2535   19.5163 H   0  0  0  0  0  0
  -28.6525  -12.0911   21.4416 H   0  0  0  0  0  0
  -28.4932  -13.7946   21.7925 H   0  0  0  0  0  0
  -25.2763   -9.5692   22.4761 H   0  0  0  0  0  0
  -24.0013   -7.4633   22.7467 H   0  0  0  0  0  0
  -21.0845   -8.8771   19.8949 H   0  0  0  0  0  0
  -22.3693  -10.9678   19.6168 H   0  0  0  0  0  0
  -21.2001   -7.6149   23.9713 H   0  0  0  0  0  0
  -21.1484   -6.0526   25.9079 H   0  0  0  0  0  0
  -22.0597   -2.7610   23.2847 H   0  0  0  0  0  0
  -22.4122  -11.9881   22.4796 H   0  0  0  0  0  0
  -21.1102  -13.1223   22.2641 H   0  0  0  0  0  0
  -24.6569  -15.8442   20.5080 H   0  0  0  0  0  0
  -26.2717  -15.6247   20.0629 H   0  0  0  0  0  0
  -26.7118  -32.5549   23.1197 H   0  0  0  0  0  0
  -25.0119  -33.9802   25.0537 H   0  0  0  0  0  0
  -22.6856  -31.3126   21.4194 H   0  0  0  0  0  0
  -23.3739  -35.9660   23.3303 H   0  0  0  0  0  0
  -24.3585  -36.8913   22.2053 H   0  0  0  0  0  0
  -23.7243  -37.6530   23.6644 H   0  0  0  0  0  0
  -26.0247  -31.6140   20.5858 H   0  0  0  0  0  0
  -26.8149  -30.9030   21.9674 H   0  0  0  0  0  0
  -28.0965  -29.1378   21.1358 H   0  0  0  0  0  0
  -26.0417  -25.9807   19.0259 H   0  0  0  0  0  0
  -23.9616  -27.2993   19.0499 H   0  0  0  0  0  0
  -23.7048  -30.6050   19.4068 H   0  0  0  0  0  0
  -22.7252  -29.2466   19.8762 H   0  0  0  0  0  0
  -25.1276  -36.1973   25.0837 H   0  0  0  0  0  0
  -20.9940  -28.3196   24.1451 H   0  0  0  0  0  0
  -20.5656  -26.2254   23.3584 H   0  0  0  0  0  0
  -21.6632  -26.7440   22.1206 H   0  0  0  0  0  0
  -19.6890  -25.6294   21.1227 H   0  0  0  0  0  0
  -19.6681  -27.3197   20.6743 H   0  0  0  0  0  0
  -17.4192  -26.6682   21.4020 H   0  0  0  0  0  0
  -18.0317  -26.0053   22.8999 H   0  0  0  0  0  0
  -19.7920  -30.7245   24.2298 H   0  0  0  0  0  0
  -17.5006  -31.6273   24.5148 H   0  0  0  0  0  0
  -15.5344  -30.2989   23.7654 H   0  0  0  0  0  0
  -15.8656  -28.0819   22.7076 H   0  0  0  0  0  0
  -24.5952  -30.7014   25.7836 H   0  0  0  0  0  0
  -24.8958  -32.2815   26.4997 H   0  0  0  0  0  0
  -25.8152  -30.8820   27.0226 H   0  0  0  0  0  0
  -26.2824  -29.6825   24.1181 H   0  0  0  0  0  0
  -27.4185  -29.7336   25.4475 H   0  0  0  0  0  0
  -27.8610  -30.4418   23.9113 H   0  0  0  0  0  0
  -27.2705  -33.3606   26.2096 H   0  0  0  0  0  0
  -28.3864  -32.6888   25.0297 H   0  0  0  0  0  0
  -28.0762  -31.8413   26.5355 H   0  0  0  0  0  0
  -28.2609  -38.0102   24.7523 H   0  0  0  0  0  0
  -28.1057  -36.2639   24.6278 H   0  0  0  0  0  0
  -27.2300  -37.1452   25.8870 H   0  0  0  0  0  0
  -20.9265  -29.8761   21.6994 H   0  0  0  0  0  0
  -26.0173  -38.2871   24.1421 H   0  0  0  0  0  0
  -27.9100  -17.6682   20.0746 H   0  0  0  0  0  0
  -27.3014  -20.0575   20.1927 H   0  0  0  0  0  0
  -32.0860  -18.7446   19.8936 H   0  0  0  0  0  0
  -29.0535  -25.2379   21.3589 H   0  0  0  0  0  0
  -27.3135  -25.3152   21.2268 H   0  0  0  0  0  0
  -32.6746  -21.0093   20.1748 H   0  0  0  0  0  0
  -31.5772  -22.1565   20.6709 H   0  0  0  0  0  0
  -29.9572  -22.6682   19.6543 H   0  0  0  0  0  0
  -29.2080  -15.6849   20.8952 H   0  0  0  0  0  0
  1 25  1  0  0  0
  1 30  2  0  0  0
  1 83  1  0  0  0
  2  3  1  0  0  0
  2 25  1  0  0  0
  2 87  1  0  0  0
  2 88  1  0  0  0
  3  4  1  0  0  0
  3 89  1  0  0  0
  3 90  1  0  0  0
  4  5  1  0  0  0
  4 91  1  0  0  0
  4 92  1  0  0  0
  5  6  1  0  0  0
  5 26  1  0  0  0
  5 93  1  0  0  0
  6 25  1  0  0  0
  6 94  1  0  0  0
  6 95  1  0  0  0
  7  8  2  0  0  0
  7 26  1  0  0  0
  7 29  1  0  0  0
  8  9  1  0  0  0
  8 22  1  0  0  0
  9 10  1  0  0  0
  9 27  2  0  0  0
 10 11  2  0  0  0
 10 15  1  0  0  0
 11 12  1  0  0  0
 11 96  1  0  0  0
 12 13  2  0  0  0
 12 97  1  0  0  0
 13 14  1  0  0  0
 13 31  1  0  0  0
 14 15  2  0  0  0
 14 98  1  0  0  0
 15 99  1  0  0  0
 16 17  2  0  0  0
 16 21  1  0  0  0
 16 31  1  0  0  0
 17 18  1  0  0  0
 17100  1  0  0  0
 18 19  2  0  0  0
 18101  1  0  0  0
 19 20  1  0  0  0
 19 24  1  0  0  0
 20 21  2  0  0  0
 20102  1  0  0  0
 21 23  1  0  0  0
 22 28  1  0  0  0
 22 32  2  0  0  0
 26 27  1  0  0  0
 28103  1  0  0  0
 28104  1  0  0  0
 29105  1  0  0  0
 29106  1  0  0  0
 33 34  1  0  0  0
 33 66  1  0  0  0
 33 70  2  0  0  0
 34 36  1  0  0  0
 34 59  1  0  0  0
 34107  1  0  0  0
 35 44  2  0  0  0
 35 45  1  0  0  0
 35 68  1  0  0  0
 36 56  1  0  0  0
 36108  1  0  0  0
 37 39  1  0  0  0
 37 47  1  0  0  0
 37 66  1  0  0  0
 37109  1  0  0  0
 38 43  2  0  0  0
 38 46  1  0  0  0
 38 47  1  0  0  0
 39 64  1  0  0  0
 39 67  2  0  0  0
 40 52  1  0  0  0
 40 53  2  0  0  0
 40 58  1  0  0  0
 41110  1  0  0  0
 41111  1  0  0  0
 41112  1  0  0  0
 41 48  1  0  0  0
 42 43  1  0  0  0
 42 66  1  0  0  0
 42113  1  0  0  0
 42114  1  0  0  0
 43 44  1  0  0  0
 44115  1  0  0  0
 45 46  2  0  0  0
 45116  1  0  0  0
 46117  1  0  0  0
 47118  1  0  0  0
 47119  1  0  0  0
 48 56  1  0  0  0
 48 65  1  0  0  0
 48120  1  0  0  0
 49 50  1  0  0  0
 49 53  1  0  0  0
 49 64  1  0  0  0
 49121  1  0  0  0
 50 51  1  0  0  0
 50122  1  0  0  0
 50123  1  0  0  0
 51 52  1  0  0  0
 51124  1  0  0  0
 51125  1  0  0  0
 52126  1  0  0  0
 52127  1  0  0  0
 53 54  1  0  0  0
 54 55  2  0  0  0
 54128  1  0  0  0
 55 57  1  0  0  0
 55129  1  0  0  0
 56 69  2  0  0  0
 57 58  2  0  0  0
 57130  1  0  0  0
 58131  1  0  0  0
 59 60  1  0  0  0
 59 61  1  0  0  0
 59 62  1  0  0  0
 60132  1  0  0  0
 60133  1  0  0  0
 60134  1  0  0  0
 61135  1  0  0  0
 61136  1  0  0  0
 61137  1  0  0  0
 62138  1  0  0  0
 62139  1  0  0  0
 62140  1  0  0  0
 63 65  1  0  0  0
 63141  1  0  0  0
 63142  1  0  0  0
 63143  1  0  0  0
 64144  1  0  0  0
 65145  1  0  0  0
 68 80  1  0  0  0
 71 72  2  0  0  0
 71 74  1  0  0  0
 71146  1  0  0  0
 72 75  1  0  0  0
 72147  1  0  0  0
 73 74  2  0  0  0
 73 76  1  0  0  0
 73148  1  0  0  0
 74 77  1  0  0  0
 75 76  2  0  0  0
 75 82  1  0  0  0
 76 81  1  0  0  0
 77 83  1  0  0  0
 77 84  2  0  0  0
 78 79  1  0  0  0
 78 80  1  0  0  0
 78 85  2  0  0  0
 79 82  1  0  0  0
 79 86  2  0  0  0
 80149  1  0  0  0
 80150  1  0  0  0
 81151  1  0  0  0
 81152  1  0  0  0
 82153  1  0  0  0
 83154  1  0  0  0
M  ISO  4   1 100  68 101  80 101  83 100
M  END
> <chiral flag>
0

> <version>
0

> <s_m_source_file>
/data/baiqing/PycharmProjects/Reinvent-master-3.2/result/LINK_invent/BTK/process_docking_weight1_custom_product_contain_oxygen_bond_distance_aromatic_linkinvent_7_9_3/rearranged_h_0085.sdf

> <i_m_source_file_index>
10

> <r_mmod_Potential_Energy-OPLS-2005>
-113.080001831055

> <r_mmod_Stretch_Energy-OPLS-2005>
32.8401794433594

> <r_mmod_Bend_Energy-OPLS-2005>
108.319076538086

> <r_mmod_Torsional_Energy-OPLS-2005>
309.858612060547

> <r_mmod_Improper_Torsional_Energy-OPLS-2005>
14.2726488113403

> <r_mmod_Van_der_Waal_Energy-OPLS-2005>
170.271148681641

> <r_mmod_Electrostatic_Energy-OPLS-2005>
-511.136474609375

> <r_mmod_Solvation_Energy-OPLS-2005>
-266.957946777344

> <b_mmod_Minimization_Converged-OPLS-2005>
0

> <r_mmod_RMS_Derivative-OPLS-2005>
1.33593249320984

$$$$
10
                    3D
 Structure written by MMmdl.
152160  0  0  1  0            999 V2000
  -30.6607  -14.6447   20.5006 C   0  0  0  0  0  0
  -30.4292  -12.4039   19.4527 C   0  0  0  0  0  0
  -29.5050  -12.5005   18.2216 C   0  0  0  0  0  0
  -28.0306  -12.3370   18.6404 C   0  0  0  0  0  0
  -27.6456  -13.2264   19.8527 C   0  0  2  0  0  0
  -28.6923  -13.1412   20.9857 C   0  0  0  0  0  0
  -25.2559  -13.8175   20.5691 C   0  0  0  0  0  0
  -24.1845  -13.0424   20.9175 C   0  0  0  0  0  0
  -24.6422  -11.6896   20.8724 C   0  0  0  0  0  0
  -23.9080  -10.4294   21.0403 C   0  0  0  0  0  0
  -24.3643   -9.4221   21.9176 C   0  0  0  0  0  0
  -23.6321   -8.2257   22.0745 C   0  0  0  0  0  0
  -22.4299   -8.0281   21.3530 C   0  0  0  0  0  0
  -21.9914   -9.0271   20.4652 C   0  0  0  0  0  0
  -22.7250  -10.2141   20.3069 C   0  0  0  0  0  0
  -21.6884   -6.0729   22.5261 C   0  0  0  0  0  0
  -21.4047   -6.5640   23.8196 C   0  0  0  0  0  0
  -21.3637   -5.6792   24.9156 C   0  0  0  0  0  0
  -21.6039   -4.3060   24.7208 C   0  0  0  0  0  0
  -21.8825   -3.8153   23.4327 C   0  0  0  0  0  0
  -21.9194   -4.6956   22.3384 C   0  0  0  0  0  0
  -22.7872  -13.5215   21.1813 C   0  0  0  0  0  0
  -22.1671   -4.2138   21.0964 F   0  0  0  0  0  0
  -21.5604   -3.4537   25.7722 F   0  0  0  0  0  0
  -29.9991  -13.4526   20.3966 N   0  0  0  0  0  0
  -26.2982  -12.9380   20.3293 N   0  0  0  0  0  0
  -25.9345  -11.6522   20.5718 N   0  0  0  0  0  0
  -22.0558  -12.8210   22.0379 N   0  0  0  0  0  0
  -25.4230  -15.1904   20.4138 N   0  0  0  0  0  0
  -31.8652  -14.7096   20.2395 O   0  0  0  0  0  0
  -21.6656   -6.8875   21.4224 O   0  0  0  0  0  0
  -22.3560  -14.5531   20.6677 O   0  0  0  0  0  0
  -24.6257  -31.8634   23.2064 C   0  0  0  0  0  0
  -25.9103  -32.4791   23.8390 C   0  0  1  0  0  0
  -27.2151  -27.3492   20.1143 C   0  0  0  0  0  0
  -25.5934  -33.8590   24.2315 N   0  0  0  0  0  0
  -23.4175  -30.4895   21.5470 C   0  0  2  0  0  0
  -24.8644  -28.9478   20.1084 C   0  0  0  0  0  0
  -22.7487  -29.4651   22.4941 C   0  0  0  0  0  0
  -18.0289  -28.1381   22.8493 C   0  0  0  0  0  0
  -24.1485  -36.7308   23.2640 C   0  0  0  0  0  0
  -25.9572  -30.7976   21.3798 C   0  0  0  0  0  0
  -26.0287  -29.4274   20.7238 C   0  0  0  0  0  0
  -27.2093  -28.6331   20.7311 C   0  0  0  0  0  0
  -26.0402  -26.9120   19.4738 C   0  0  0  0  0  0
  -24.8702  -27.6944   19.4736 C   0  0  0  0  0  0
  -23.6311  -29.8265   20.1600 C   0  0  0  0  0  0
  -25.4106  -36.3109   24.0336 C   0  0  1  0  0  0
  -20.5897  -28.3691   23.1289 C   0  0  2  0  0  0
  -20.6775  -26.9411   22.5411 C   0  0  0  0  0  0
  -19.5741  -26.6382   21.5218 C   0  0  0  0  0  0
  -18.1924  -26.7929   22.1634 C   0  0  0  0  0  0
  -19.1543  -28.8850   23.2890 C   0  0  0  0  0  0
  -18.9469  -30.1449   23.8903 C   0  0  0  0  0  0
  -17.6468  -30.6580   24.0565 C   0  0  0  0  0  0
  -25.9037  -34.9462   23.5121 C   0  0  0  0  0  0
  -16.5357  -29.9072   23.6326 C   0  0  0  0  0  0
  -16.7281  -28.6491   23.0351 C   0  0  0  0  0  0
  -26.4473  -31.6597   25.0760 C   0  0  0  0  0  0
  -25.3695  -31.3735   26.1489 C   0  0  0  0  0  0
  -27.0334  -30.3032   24.6202 C   0  0  0  0  0  0
  -27.6043  -32.4352   25.7517 C   0  0  0  0  0  0
  -27.5583  -37.1814   24.8469 C   0  0  0  0  0  0
  -21.4201  -29.3043   22.3675 N   0  0  0  0  0  0
  -26.4298  -37.3789   23.9403 N   0  0  0  0  0  0
  -24.6844  -31.0685   22.1008 N   0  0  0  0  0  0
  -23.4220  -28.8204   23.3019 O   0  0  0  0  0  0
  -28.2938  -26.4733   20.1043 O   0  0  0  0  0  0
  -26.5609  -34.8920   22.4679 O   0  0  0  0  0  0
  -23.5426  -32.1423   23.7402 O   0  0  0  0  0  0
  -27.7616  -19.0883   18.6961 C   0  0  0  0  0  0
  -28.5177  -18.0224   19.2223 C   0  0  0  0  0  0
  -27.8639  -20.3905   19.2329 C   0  0  0  0  0  0
  -29.5015  -19.5633   20.8292 C   0  0  0  0  0  0
  -29.3923  -18.2213   20.3148 C   0  0  0  0  0  0
  -28.7520  -20.6723   20.2993 C   0  0  0  0  0  0
  -28.4754  -25.7005   21.2431 C   0  0  0  0  0  0
  -30.2878  -17.0675   20.7986 C   0  0  0  0  0  0
  -28.5970  -24.3416   21.4274 C   0  0  0  0  0  0
  -28.5135  -23.2588   20.4035 C   0  0  0  0  0  0
  -28.8755  -22.0148   20.8723 N   0  0  0  0  0  0
  -29.8828  -15.7683   20.6203 N   0  0  0  0  0  0
  -31.3463  -17.3598   21.3662 O   0  0  0  0  0  0
  -28.1628  -23.4505   19.2382 O   0  0  0  0  0  0
  -28.7631  -23.9560   22.7034 O   0  0  0  0  0  0
  -31.4733  -12.5165   19.1519 H   0  0  0  0  0  0
  -30.3539  -11.4225   19.9213 H   0  0  0  0  0  0
  -29.7723  -11.7399   17.4872 H   0  0  0  0  0  0
  -29.6432  -13.4658   17.7322 H   0  0  0  0  0  0
  -27.8803  -11.2888   18.8944 H   0  0  0  0  0  0
  -27.3687  -12.5437   17.7990 H   0  0  0  0  0  0
  -27.6411  -14.2525   19.4840 H   0  0  0  0  0  0
  -28.7160  -12.1504   21.4386 H   0  0  0  0  0  0
  -28.4454  -13.8328   21.7924 H   0  0  0  0  0  0
  -25.2798   -9.5680   22.4746 H   0  0  0  0  0  0
  -24.0010   -7.4645   22.7470 H   0  0  0  0  0  0
  -21.0827   -8.8839   19.8976 H   0  0  0  0  0  0
  -22.3736  -10.9699   19.6213 H   0  0  0  0  0  0
  -21.2102   -7.6158   23.9702 H   0  0  0  0  0  0
  -21.1431   -6.0519   25.9045 H   0  0  0  0  0  0
  -22.0631   -2.7607   23.2841 H   0  0  0  0  0  0
  -22.4189  -11.9829   22.4672 H   0  0  0  0  0  0
  -21.1208  -13.1247   22.2654 H   0  0  0  0  0  0
  -24.6466  -15.8357   20.5171 H   0  0  0  0  0  0
  -26.2548  -15.6297   20.0445 H   0  0  0  0  0  0
  -26.7188  -32.5475   23.1164 H   0  0  0  0  0  0
  -25.0095  -33.9732   25.0474 H   0  0  0  0  0  0
  -22.7111  -31.3101   21.4088 H   0  0  0  0  0  0
  -23.3740  -35.9652   23.3320 H   0  0  0  0  0  0
  -24.3584  -36.8898   22.2058 H   0  0  0  0  0  0
  -23.7251  -37.6512   23.6641 H   0  0  0  0  0  0
  -26.0970  -31.5591   20.6116 H   0  0  0  0  0  0
  -26.8352  -30.8423   22.0132 H   0  0  0  0  0  0
  -28.1044  -28.9882   21.2233 H   0  0  0  0  0  0
  -26.0292  -25.9477   18.9867 H   0  0  0  0  0  0
  -23.9805  -27.3292   18.9780 H   0  0  0  0  0  0
  -23.7443  -30.6047   19.4048 H   0  0  0  0  0  0
  -22.7525  -29.2529   19.8610 H   0  0  0  0  0  0
  -25.1288  -36.1955   25.0832 H   0  0  0  0  0  0
  -21.0004  -28.3251   24.1410 H   0  0  0  0  0  0
  -20.5683  -26.2297   23.3607 H   0  0  0  0  0  0
  -21.6638  -26.7426   22.1197 H   0  0  0  0  0  0
  -19.6885  -25.6294   21.1238 H   0  0  0  0  0  0
  -19.6662  -27.3205   20.6757 H   0  0  0  0  0  0
  -17.4197  -26.6707   21.4030 H   0  0  0  0  0  0
  -18.0298  -26.0058   22.9019 H   0  0  0  0  0  0
  -19.7935  -30.7270   24.2282 H   0  0  0  0  0  0
  -17.5005  -31.6264   24.5168 H   0  0  0  0  0  0
  -15.5347  -30.2976   23.7631 H   0  0  0  0  0  0
  -15.8692  -28.0806   22.7065 H   0  0  0  0  0  0
  -24.5881  -30.7080   25.7820 H   0  0  0  0  0  0
  -24.8874  -32.2898   26.4905 H   0  0  0  0  0  0
  -25.8010  -30.8928   27.0271 H   0  0  0  0  0  0
  -26.2922  -29.6788   24.1221 H   0  0  0  0  0  0
  -27.4040  -29.7298   25.4704 H   0  0  0  0  0  0
  -27.8776  -30.4355   23.9437 H   0  0  0  0  0  0
  -27.2649  -33.3660   26.2074 H   0  0  0  0  0  0
  -28.3833  -32.6896   25.0320 H   0  0  0  0  0  0
  -28.0721  -31.8492   26.5436 H   0  0  0  0  0  0
  -28.2612  -38.0105   24.7507 H   0  0  0  0  0  0
  -28.1067  -36.2633   24.6296 H   0  0  0  0  0  0
  -27.2309  -37.1475   25.8877 H   0  0  0  0  0  0
  -20.9382  -29.8770   21.6889 H   0  0  0  0  0  0
  -26.0183  -38.2869   24.1362 H   0  0  0  0  0  0
  -27.0970  -18.9072   17.8609 H   0  0  0  0  0  0
  -28.4372  -17.0501   18.7548 H   0  0  0  0  0  0
  -27.2406  -21.1639   18.8052 H   0  0  0  0  0  0
  -30.1954  -19.7479   21.6375 H   0  0  0  0  0  0
  -28.5252  -26.3558   22.1031 H   0  0  0  0  0  0
  -29.3254  -22.0464   21.7739 H   0  0  0  0  0  0
  -28.9006  -15.6341   20.4601 H   0  0  0  0  0  0
  -28.4398  -23.0682   22.7755 H   0  0  0  0  0  0
  1 25  1  0  0  0
  1 30  2  0  0  0
  1 82  1  0  0  0
  2  3  1  0  0  0
  2 25  1  0  0  0
  2 86  1  0  0  0
  2 87  1  0  0  0
  3  4  1  0  0  0
  3 88  1  0  0  0
  3 89  1  0  0  0
  4  5  1  0  0  0
  4 90  1  0  0  0
  4 91  1  0  0  0
  5  6  1  0  0  0
  5 26  1  0  0  0
  5 92  1  0  0  0
  6 25  1  0  0  0
  6 93  1  0  0  0
  6 94  1  0  0  0
  7  8  2  0  0  0
  7 26  1  0  0  0
  7 29  1  0  0  0
  8  9  1  0  0  0
  8 22  1  0  0  0
  9 10  1  0  0  0
  9 27  2  0  0  0
 10 11  2  0  0  0
 10 15  1  0  0  0
 11 12  1  0  0  0
 11 95  1  0  0  0
 12 13  2  0  0  0
 12 96  1  0  0  0
 13 14  1  0  0  0
 13 31  1  0  0  0
 14 15  2  0  0  0
 14 97  1  0  0  0
 15 98  1  0  0  0
 16 17  2  0  0  0
 16 21  1  0  0  0
 16 31  1  0  0  0
 17 18  1  0  0  0
 17 99  1  0  0  0
 18 19  2  0  0  0
 18100  1  0  0  0
 19 20  1  0  0  0
 19 24  1  0  0  0
 20 21  2  0  0  0
 20101  1  0  0  0
 21 23  1  0  0  0
 22 28  1  0  0  0
 22 32  2  0  0  0
 26 27  1  0  0  0
 28102  1  0  0  0
 28103  1  0  0  0
 29104  1  0  0  0
 29105  1  0  0  0
 33 34  1  0  0  0
 33 66  1  0  0  0
 33 70  2  0  0  0
 34 36  1  0  0  0
 34 59  1  0  0  0
 34106  1  0  0  0
 35 44  2  0  0  0
 35 45  1  0  0  0
 35 68  1  0  0  0
 36 56  1  0  0  0
 36107  1  0  0  0
 37 39  1  0  0  0
 37 47  1  0  0  0
 37 66  1  0  0  0
 37108  1  0  0  0
 38 43  2  0  0  0
 38 46  1  0  0  0
 38 47  1  0  0  0
 39 64  1  0  0  0
 39 67  2  0  0  0
 40 52  1  0  0  0
 40 53  2  0  0  0
 40 58  1  0  0  0
 41109  1  0  0  0
 41110  1  0  0  0
 41111  1  0  0  0
 41 48  1  0  0  0
 42 43  1  0  0  0
 42 66  1  0  0  0
 42112  1  0  0  0
 42113  1  0  0  0
 43 44  1  0  0  0
 44114  1  0  0  0
 45 46  2  0  0  0
 45115  1  0  0  0
 46116  1  0  0  0
 47117  1  0  0  0
 47118  1  0  0  0
 48 56  1  0  0  0
 48 65  1  0  0  0
 48119  1  0  0  0
 49 50  1  0  0  0
 49 53  1  0  0  0
 49 64  1  0  0  0
 49120  1  0  0  0
 50 51  1  0  0  0
 50121  1  0  0  0
 50122  1  0  0  0
 51 52  1  0  0  0
 51123  1  0  0  0
 51124  1  0  0  0
 52125  1  0  0  0
 52126  1  0  0  0
 53 54  1  0  0  0
 54 55  2  0  0  0
 54127  1  0  0  0
 55 57  1  0  0  0
 55128  1  0  0  0
 56 69  2  0  0  0
 57 58  2  0  0  0
 57129  1  0  0  0
 58130  1  0  0  0
 59 60  1  0  0  0
 59 61  1  0  0  0
 59 62  1  0  0  0
 60131  1  0  0  0
 60132  1  0  0  0
 60133  1  0  0  0
 61134  1  0  0  0
 61135  1  0  0  0
 61136  1  0  0  0
 62137  1  0  0  0
 62138  1  0  0  0
 62139  1  0  0  0
 63 65  1  0  0  0
 63140  1  0  0  0
 63141  1  0  0  0
 63142  1  0  0  0
 64143  1  0  0  0
 65144  1  0  0  0
 68 77  1  0  0  0
 71 72  2  0  0  0
 71 73  1  0  0  0
 71145  1  0  0  0
 72 75  1  0  0  0
 72146  1  0  0  0
 73 76  2  0  0  0
 73147  1  0  0  0
 74 75  2  0  0  0
 74 76  1  0  0  0
 74148  1  0  0  0
 75 78  1  0  0  0
 76 81  1  0  0  0
 77 79  2  0  0  0
 77149  1  0  0  0
 78 82  1  0  0  0
 78 83  2  0  0  0
 79 80  1  0  0  0
 79 85  1  0  0  0
 80 81  1  0  0  0
 80 84  2  0  0  0
 81150  1  0  0  0
 82151  1  0  0  0
 85152  1  0  0  0
M  ISO  4   1 100  68 101  77 101  82 100
M  END
> <chiral flag>
0

> <version>
0

> <s_m_source_file>
/data/baiqing/PycharmProjects/Reinvent-master-3.2/result/LINK_invent/BTK/process_docking_weight1_custom_product_contain_oxygen_bond_distance_aromatic_linkinvent_7_9_3/rearranged_h_0085.sdf

> <i_m_source_file_index>
11

> <r_mmod_Potential_Energy-OPLS-2005>
-47.5853843688965

> <r_mmod_Stretch_Energy-OPLS-2005>
68.556037902832

> <r_mmod_Bend_Energy-OPLS-2005>
136.766998291016

> <r_mmod_Torsional_Energy-OPLS-2005>
263.045623779297

> <r_mmod_Improper_Torsional_Energy-OPLS-2005>
7.65967035293579

> <r_mmod_Van_der_Waal_Energy-OPLS-2005>
146.851745605469

> <r_mmod_Electrostatic_Energy-OPLS-2005>
-466.14404296875

> <r_mmod_Solvation_Energy-OPLS-2005>
-256.117279052734

> <b_mmod_Minimization_Converged-OPLS-2005>
0

> <r_mmod_RMS_Derivative-OPLS-2005>
4.63127756118774

$$$$
11
                    3D
 Structure written by MMmdl.
152161  0  0  1  0            999 V2000
  -30.6262  -14.7859   20.4441 C   0  0  0  0  0  0
  -30.4222  -12.4790   19.4853 C   0  0  0  0  0  0
  -29.5082  -12.5070   18.2418 C   0  0  0  0  0  0
  -28.0363  -12.3275   18.6563 C   0  0  0  0  0  0
  -27.6355  -13.2409   19.8457 C   0  0  2  0  0  0
  -28.6797  -13.2150   20.9833 C   0  0  0  0  0  0
  -25.2479  -13.8217   20.5707 C   0  0  0  0  0  0
  -24.1785  -13.0447   20.9221 C   0  0  0  0  0  0
  -24.6391  -11.6928   20.8757 C   0  0  0  0  0  0
  -23.9075  -10.4297   21.0409 C   0  0  0  0  0  0
  -24.3624   -9.4210   21.9186 C   0  0  0  0  0  0
  -23.6298   -8.2246   22.0755 C   0  0  0  0  0  0
  -22.4280   -8.0284   21.3544 C   0  0  0  0  0  0
  -21.9918   -9.0258   20.4647 C   0  0  0  0  0  0
  -22.7248  -10.2137   20.3057 C   0  0  0  0  0  0
  -21.6854   -6.0737   22.5279 C   0  0  0  0  0  0
  -21.4016   -6.5641   23.8212 C   0  0  0  0  0  0
  -21.3660   -5.6793   24.9174 C   0  0  0  0  0  0
  -21.6043   -4.3056   24.7224 C   0  0  0  0  0  0
  -21.8819   -3.8148   23.4345 C   0  0  0  0  0  0
  -21.9194   -4.6965   22.3402 C   0  0  0  0  0  0
  -22.7805  -13.5218   21.1876 C   0  0  0  0  0  0
  -22.1661   -4.2150   21.0979 F   0  0  0  0  0  0
  -21.5629   -3.4539   25.7738 F   0  0  0  0  0  0
  -29.9744  -13.5680   20.3912 N   0  0  0  0  0  0
  -26.2908  -12.9441   20.3276 N   0  0  0  0  0  0
  -25.9324  -11.6573   20.5759 N   0  0  0  0  0  0
  -22.0454  -12.8204   22.0429 N   0  0  0  0  0  0
  -25.4150  -15.1943   20.4118 N   0  0  0  0  0  0
  -31.8209  -14.8012   20.1401 O   0  0  0  0  0  0
  -21.6642   -6.8881   21.4241 O   0  0  0  0  0  0
  -22.3487  -14.5521   20.6721 O   0  0  0  0  0  0
  -24.6337  -31.8519   23.1952 C   0  0  0  0  0  0
  -25.9152  -32.4734   23.8305 C   0  0  1  0  0  0
  -27.2202  -27.2325   20.1235 C   0  0  0  0  0  0
  -25.5936  -33.8538   24.2228 N   0  0  0  0  0  0
  -23.4316  -30.4738   21.5390 C   0  0  2  0  0  0
  -24.8781  -28.9162   20.1063 C   0  0  0  0  0  0
  -22.7514  -29.4584   22.4895 C   0  0  0  0  0  0
  -18.0292  -28.1388   22.8481 C   0  0  0  0  0  0
  -24.1490  -36.7275   23.2642 C   0  0  0  0  0  0
  -25.9792  -30.7551   21.3789 C   0  0  0  0  0  0
  -26.0497  -29.3754   20.7192 C   0  0  0  0  0  0
  -27.2184  -28.5444   20.7193 C   0  0  0  0  0  0
  -26.0179  -26.8427   19.4910 C   0  0  0  0  0  0
  -24.8690  -27.6594   19.4828 C   0  0  0  0  0  0
  -23.6503  -29.8064   20.1552 C   0  0  0  0  0  0
  -25.4119  -36.3058   24.0322 C   0  0  1  0  0  0
  -20.5898  -28.3701   23.1262 C   0  0  2  0  0  0
  -20.6778  -26.9415   22.5408 C   0  0  0  0  0  0
  -19.5754  -26.6382   21.5211 C   0  0  0  0  0  0
  -18.1934  -26.7929   22.1624 C   0  0  0  0  0  0
  -19.1547  -28.8862   23.2865 C   0  0  0  0  0  0
  -18.9468  -30.1462   23.8886 C   0  0  0  0  0  0
  -17.6467  -30.6588   24.0560 C   0  0  0  0  0  0
  -25.9062  -34.9430   23.5081 C   0  0  0  0  0  0
  -16.5358  -29.9085   23.6334 C   0  0  0  0  0  0
  -16.7278  -28.6503   23.0353 C   0  0  0  0  0  0
  -26.4506  -31.6576   25.0712 C   0  0  0  0  0  0
  -25.3717  -31.3738   26.1426 C   0  0  0  0  0  0
  -27.0359  -30.2987   24.6227 C   0  0  0  0  0  0
  -27.6050  -32.4326   25.7492 C   0  0  0  0  0  0
  -27.5577  -37.1794   24.8466 C   0  0  0  0  0  0
  -21.4217  -29.3041   22.3644 N   0  0  0  0  0  0
  -26.4290  -37.3763   23.9407 N   0  0  0  0  0  0
  -24.7009  -31.0458   22.0939 N   0  0  0  0  0  0
  -23.4203  -28.8129   23.3006 O   0  0  0  0  0  0
  -28.3178  -26.3360   20.2265 O   0  0  0  0  0  0
  -26.5643  -34.8914   22.4656 O   0  0  0  0  0  0
  -23.5482  -32.1357   23.7233 O   0  0  0  0  0  0
  -32.1690  -19.0597   20.4405 C   0  0  0  0  0  0
  -31.2950  -20.1559   20.3863 C   0  0  0  0  0  0
  -31.6948  -17.7403   20.5253 C   0  0  0  0  0  0
  -29.4235  -18.6040   20.5146 C   0  0  0  0  0  0
  -29.8904  -20.0009   20.4263 C   0  0  0  0  0  0
  -30.3134  -17.4277   20.5454 C   0  0  0  0  0  0
  -27.8435  -23.0489   21.1827 C   0  0  0  0  0  0
  -28.5406  -23.5765   20.1685 C   0  0  0  0  0  0
  -28.1877  -21.6364   21.3678 C   0  0  0  0  0  0
  -29.3499  -22.4288   19.6745 C   0  0  0  0  0  0
  -28.4334  -25.0257   19.4786 C   0  0  0  0  0  0
  -29.1021  -21.2929   20.4303 N   0  0  0  0  0  0
  -29.8986  -15.9768   20.6177 N   0  0  0  0  0  0
  -27.7257  -20.8737   22.2240 O   0  0  0  0  0  0
  -30.1159  -22.4609   18.7041 O   0  0  0  0  0  0
  -31.4648  -12.5851   19.1817 H   0  0  0  0  0  0
  -30.3594  -11.5133   19.9895 H   0  0  0  0  0  0
  -29.7978  -11.7236   17.5400 H   0  0  0  0  0  0
  -29.6308  -13.4539   17.7134 H   0  0  0  0  0  0
  -27.9009  -11.2814   18.9334 H   0  0  0  0  0  0
  -27.3780  -12.5029   17.8045 H   0  0  0  0  0  0
  -27.6180  -14.2551   19.4461 H   0  0  0  0  0  0
  -28.7249  -12.2307   21.4517 H   0  0  0  0  0  0
  -28.4095  -13.9196   21.7713 H   0  0  0  0  0  0
  -25.2767   -9.5686   22.4763 H   0  0  0  0  0  0
  -24.0006   -7.4637   22.7474 H   0  0  0  0  0  0
  -21.0850   -8.8778   19.8951 H   0  0  0  0  0  0
  -22.3706  -10.9677   19.6168 H   0  0  0  0  0  0
  -21.2008   -7.6149   23.9716 H   0  0  0  0  0  0
  -21.1481   -6.0523   25.9077 H   0  0  0  0  0  0
  -22.0598   -2.7610   23.2845 H   0  0  0  0  0  0
  -22.4077  -11.9869   22.4819 H   0  0  0  0  0  0
  -21.1069  -13.1220   22.2633 H   0  0  0  0  0  0
  -24.6443  -15.8448   20.5202 H   0  0  0  0  0  0
  -26.2564  -15.6351   20.0637 H   0  0  0  0  0  0
  -26.7213  -32.5371   23.1037 H   0  0  0  0  0  0
  -25.0066  -33.9664   25.0362 H   0  0  0  0  0  0
  -22.7297  -31.2972   21.3914 H   0  0  0  0  0  0
  -23.3754  -35.9606   23.3303 H   0  0  0  0  0  0
  -24.3576  -36.8904   22.2056 H   0  0  0  0  0  0
  -23.7243  -37.6473   23.6673 H   0  0  0  0  0  0
  -26.1229  -31.5148   20.6092 H   0  0  0  0  0  0
  -26.8551  -30.8029   22.0145 H   0  0  0  0  0  0
  -28.1130  -28.8889   21.2190 H   0  0  0  0  0  0
  -25.9110  -25.8721   19.0342 H   0  0  0  0  0  0
  -23.9676  -27.2976   19.0072 H   0  0  0  0  0  0
  -23.7760  -30.5823   19.3992 H   0  0  0  0  0  0
  -22.7675  -29.2414   19.8502 H   0  0  0  0  0  0
  -25.1304  -36.1899   25.0815 H   0  0  0  0  0  0
  -20.9989  -28.3284   24.1383 H   0  0  0  0  0  0
  -20.5677  -26.2310   23.3616 H   0  0  0  0  0  0
  -21.6645  -26.7434   22.1203 H   0  0  0  0  0  0
  -19.6917  -25.6292   21.1245 H   0  0  0  0  0  0
  -19.6693  -27.3189   20.6740 H   0  0  0  0  0  0
  -17.4202  -26.6672   21.4028 H   0  0  0  0  0  0
  -18.0336  -26.0074   22.9026 H   0  0  0  0  0  0
  -19.7946  -30.7276   24.2253 H   0  0  0  0  0  0
  -17.5023  -31.6269   24.5160 H   0  0  0  0  0  0
  -15.5358  -30.2982   23.7666 H   0  0  0  0  0  0
  -15.8678  -28.0818   22.7076 H   0  0  0  0  0  0
  -24.5905  -30.7072   25.7755 H   0  0  0  0  0  0
  -24.8891  -32.2909   26.4814 H   0  0  0  0  0  0
  -25.8023  -30.8945   27.0226 H   0  0  0  0  0  0
  -26.2952  -29.6725   24.1241 H   0  0  0  0  0  0
  -27.4015  -29.7263   25.4763 H   0  0  0  0  0  0
  -27.8840  -30.4249   23.9494 H   0  0  0  0  0  0
  -27.2655  -33.3642   26.2029 H   0  0  0  0  0  0
  -28.3882  -32.6858   25.0334 H   0  0  0  0  0  0
  -28.0692  -31.8475   26.5441 H   0  0  0  0  0  0
  -28.2593  -38.0091   24.7507 H   0  0  0  0  0  0
  -28.1072  -36.2620   24.6300 H   0  0  0  0  0  0
  -27.2290  -37.1451   25.8869 H   0  0  0  0  0  0
  -20.9407  -29.8764   21.6846 H   0  0  0  0  0  0
  -26.0165  -38.2835   24.1408 H   0  0  0  0  0  0
  -33.2358  -19.2353   20.4260 H   0  0  0  0  0  0
  -31.7382  -21.1413   20.3397 H   0  0  0  0  0  0
  -32.4544  -16.9788   20.5843 H   0  0  0  0  0  0
  -28.3571  -18.4323   20.5570 H   0  0  0  0  0  0
  -27.0984  -23.5740   21.7592 H   0  0  0  0  0  0
  -27.7163  -24.9488   18.6652 H   0  0  0  0  0  0
  -29.3797  -25.1378   18.9489 H   0  0  0  0  0  0
  -28.9136  -15.8240   20.7716 H   0  0  0  0  0  0
  1 25  1  0  0  0
  1 30  2  0  0  0
  1 83  1  0  0  0
  2  3  1  0  0  0
  2 25  1  0  0  0
  2 86  1  0  0  0
  2 87  1  0  0  0
  3  4  1  0  0  0
  3 88  1  0  0  0
  3 89  1  0  0  0
  4  5  1  0  0  0
  4 90  1  0  0  0
  4 91  1  0  0  0
  5  6  1  0  0  0
  5 26  1  0  0  0
  5 92  1  0  0  0
  6 25  1  0  0  0
  6 93  1  0  0  0
  6 94  1  0  0  0
  7  8  2  0  0  0
  7 26  1  0  0  0
  7 29  1  0  0  0
  8  9  1  0  0  0
  8 22  1  0  0  0
  9 10  1  0  0  0
  9 27  2  0  0  0
 10 11  2  0  0  0
 10 15  1  0  0  0
 11 12  1  0  0  0
 11 95  1  0  0  0
 12 13  2  0  0  0
 12 96  1  0  0  0
 13 14  1  0  0  0
 13 31  1  0  0  0
 14 15  2  0  0  0
 14 97  1  0  0  0
 15 98  1  0  0  0
 16 17  2  0  0  0
 16 21  1  0  0  0
 16 31  1  0  0  0
 17 18  1  0  0  0
 17 99  1  0  0  0
 18 19  2  0  0  0
 18100  1  0  0  0
 19 20  1  0  0  0
 19 24  1  0  0  0
 20 21  2  0  0  0
 20101  1  0  0  0
 21 23  1  0  0  0
 22 28  1  0  0  0
 22 32  2  0  0  0
 26 27  1  0  0  0
 28102  1  0  0  0
 28103  1  0  0  0
 29104  1  0  0  0
 29105  1  0  0  0
 33 34  1  0  0  0
 33 66  1  0  0  0
 33 70  2  0  0  0
 34 36  1  0  0  0
 34 59  1  0  0  0
 34106  1  0  0  0
 35 44  2  0  0  0
 35 45  1  0  0  0
 35 68  1  0  0  0
 36 56  1  0  0  0
 36107  1  0  0  0
 37 39  1  0  0  0
 37 47  1  0  0  0
 37 66  1  0  0  0
 37108  1  0  0  0
 38 43  2  0  0  0
 38 46  1  0  0  0
 38 47  1  0  0  0
 39 64  1  0  0  0
 39 67  2  0  0  0
 40 52  1  0  0  0
 40 53  2  0  0  0
 40 58  1  0  0  0
 41109  1  0  0  0
 41110  1  0  0  0
 41111  1  0  0  0
 41 48  1  0  0  0
 42 43  1  0  0  0
 42 66  1  0  0  0
 42112  1  0  0  0
 42113  1  0  0  0
 43 44  1  0  0  0
 44114  1  0  0  0
 45 46  2  0  0  0
 45115  1  0  0  0
 46116  1  0  0  0
 47117  1  0  0  0
 47118  1  0  0  0
 48 56  1  0  0  0
 48 65  1  0  0  0
 48119  1  0  0  0
 49 50  1  0  0  0
 49 53  1  0  0  0
 49 64  1  0  0  0
 49120  1  0  0  0
 50 51  1  0  0  0
 50121  1  0  0  0
 50122  1  0  0  0
 51 52  1  0  0  0
 51123  1  0  0  0
 51124  1  0  0  0
 52125  1  0  0  0
 52126  1  0  0  0
 53 54  1  0  0  0
 54 55  2  0  0  0
 54127  1  0  0  0
 55 57  1  0  0  0
 55128  1  0  0  0
 56 69  2  0  0  0
 57 58  2  0  0  0
 57129  1  0  0  0
 58130  1  0  0  0
 59 60  1  0  0  0
 59 61  1  0  0  0
 59 62  1  0  0  0
 60131  1  0  0  0
 60132  1  0  0  0
 60133  1  0  0  0
 61134  1  0  0  0
 61135  1  0  0  0
 61136  1  0  0  0
 62137  1  0  0  0
 62138  1  0  0  0
 62139  1  0  0  0
 63 65  1  0  0  0
 63140  1  0  0  0
 63141  1  0  0  0
 63142  1  0  0  0
 64143  1  0  0  0
 65144  1  0  0  0
 68 81  1  0  0  0
 71 72  2  0  0  0
 71 73  1  0  0  0
 71145  1  0  0  0
 72 75  1  0  0  0
 72146  1  0  0  0
 73 76  2  0  0  0
 73147  1  0  0  0
 74 75  2  0  0  0
 74 76  1  0  0  0
 74148  1  0  0  0
 75 82  1  0  0  0
 76 83  1  0  0  0
 77 78  2  0  0  0
 77 79  1  0  0  0
 77149  1  0  0  0
 78 80  1  0  0  0
 78 81  1  0  0  0
 79 82  1  0  0  0
 79 84  2  0  0  0
 80 82  1  0  0  0
 80 85  2  0  0  0
 81150  1  0  0  0
 81151  1  0  0  0
 83152  1  0  0  0
M  ISO  4   1 100  68 101  81 101  83 100
M  END
> <chiral flag>
0

> <version>
0

> <s_m_source_file>
/data/baiqing/PycharmProjects/Reinvent-master-3.2/result/LINK_invent/BTK/process_docking_weight1_custom_product_contain_oxygen_bond_distance_aromatic_linkinvent_7_9_3/rearranged_h_0085.sdf

> <i_m_source_file_index>
12

> <r_mmod_Potential_Energy-OPLS-2005>
263.750366210938

> <r_mmod_Stretch_Energy-OPLS-2005>
153.43913269043

> <r_mmod_Bend_Energy-OPLS-2005>
235.681442260742

> <r_mmod_Torsional_Energy-OPLS-2005>
243.639572143555

> <r_mmod_Improper_Torsional_Energy-OPLS-2005>
5.71787691116333

> <r_mmod_Van_der_Waal_Energy-OPLS-2005>
143.333236694336

> <r_mmod_Electrostatic_Energy-OPLS-2005>
-383.01611328125

> <r_mmod_Solvation_Energy-OPLS-2005>
-238.981216430664

> <b_mmod_Minimization_Converged-OPLS-2005>
0

> <r_mmod_RMS_Derivative-OPLS-2005>
0.281984508037567

$$$$
12
                    3D
 Structure written by MMmdl.
154162  0  0  1  0            999 V2000
  -30.6033  -14.6187   20.5669 C   0  0  0  0  0  0
  -30.4531  -12.3985   19.4372 C   0  0  0  0  0  0
  -29.5116  -12.5279   18.2166 C   0  0  0  0  0  0
  -28.0331  -12.3594   18.6251 C   0  0  0  0  0  0
  -27.6606  -13.2071   19.8700 C   0  0  2  0  0  0
  -28.7053  -13.0098   20.9931 C   0  0  0  0  0  0
  -25.2594  -13.8136   20.5667 C   0  0  0  0  0  0
  -24.1849  -13.0424   20.9183 C   0  0  0  0  0  0
  -24.6397  -11.6889   20.8733 C   0  0  0  0  0  0
  -23.9049  -10.4287   21.0402 C   0  0  0  0  0  0
  -24.3606   -9.4209   21.9177 C   0  0  0  0  0  0
  -23.6290   -8.2243   22.0744 C   0  0  0  0  0  0
  -22.4273   -8.0276   21.3539 C   0  0  0  0  0  0
  -21.9902   -9.0248   20.4641 C   0  0  0  0  0  0
  -22.7221  -10.2128   20.3052 C   0  0  0  0  0  0
  -21.6847   -6.0736   22.5281 C   0  0  0  0  0  0
  -21.4014   -6.5638   23.8219 C   0  0  0  0  0  0
  -21.3660   -5.6789   24.9177 C   0  0  0  0  0  0
  -21.6050   -4.3053   24.7228 C   0  0  0  0  0  0
  -21.8820   -3.8141   23.4348 C   0  0  0  0  0  0
  -21.9194   -4.6964   22.3403 C   0  0  0  0  0  0
  -22.7874  -13.5229   21.1842 C   0  0  0  0  0  0
  -22.1661   -4.2152   21.0983 F   0  0  0  0  0  0
  -21.5633   -3.4542   25.7737 F   0  0  0  0  0  0
  -30.0245  -13.3812   20.4501 N   0  0  0  0  0  0
  -26.3023  -12.9303   20.3319 N   0  0  0  0  0  0
  -25.9326  -11.6469   20.5740 N   0  0  0  0  0  0
  -22.0505  -12.8231   22.0394 N   0  0  0  0  0  0
  -25.4317  -15.1864   20.4081 N   0  0  0  0  0  0
  -31.7076  -14.8809   20.0776 O   0  0  0  0  0  0
  -21.6635   -6.8875   21.4239 O   0  0  0  0  0  0
  -22.3562  -14.5543   20.6694 O   0  0  0  0  0  0
  -24.6234  -31.8612   23.2037 C   0  0  0  0  0  0
  -25.9088  -32.4788   23.8357 C   0  0  1  0  0  0
  -27.2301  -27.3392   20.1161 C   0  0  0  0  0  0
  -25.5919  -33.8591   24.2282 N   0  0  0  0  0  0
  -23.4169  -30.4832   21.5457 C   0  0  2  0  0  0
  -24.8653  -28.9351   20.1154 C   0  0  0  0  0  0
  -22.7461  -29.4629   22.4953 C   0  0  0  0  0  0
  -18.0283  -28.1380   22.8494 C   0  0  0  0  0  0
  -24.1489  -36.7297   23.2635 C   0  0  0  0  0  0
  -25.9557  -30.7961   21.3736 C   0  0  0  0  0  0
  -26.0316  -29.4231   20.7196 C   0  0  0  0  0  0
  -27.2177  -28.6344   20.7129 C   0  0  0  0  0  0
  -26.0447  -26.8947   19.4921 C   0  0  0  0  0  0
  -24.8714  -27.6747   19.4951 C   0  0  0  0  0  0
  -23.6315  -29.8137   20.1622 C   0  0  0  0  0  0
  -25.4112  -36.3092   24.0333 C   0  0  1  0  0  0
  -20.5880  -28.3684   23.1297 C   0  0  2  0  0  0
  -20.6773  -26.9410   22.5418 C   0  0  0  0  0  0
  -19.5748  -26.6383   21.5220 C   0  0  0  0  0  0
  -18.1929  -26.7928   22.1631 C   0  0  0  0  0  0
  -19.1535  -28.8848   23.2892 C   0  0  0  0  0  0
  -18.9457  -30.1453   23.8906 C   0  0  0  0  0  0
  -17.6458  -30.6588   24.0561 C   0  0  0  0  0  0
  -25.9050  -34.9461   23.5106 C   0  0  0  0  0  0
  -16.5352  -29.9087   23.6330 C   0  0  0  0  0  0
  -16.7269  -28.6503   23.0356 C   0  0  0  0  0  0
  -26.4479  -31.6600   25.0725 C   0  0  0  0  0  0
  -25.3721  -31.3752   26.1461 C   0  0  0  0  0  0
  -27.0307  -30.3020   24.6176 C   0  0  0  0  0  0
  -27.6053  -32.4329   25.7479 C   0  0  0  0  0  0
  -27.5591  -37.1787   24.8453 C   0  0  0  0  0  0
  -21.4177  -29.3040   22.3693 N   0  0  0  0  0  0
  -26.4287  -37.3793   23.9423 N   0  0  0  0  0  0
  -24.6837  -31.0631   22.0983 N   0  0  0  0  0  0
  -23.4192  -28.8175   23.3030 O   0  0  0  0  0  0
  -28.3601  -26.5171   20.1035 O   0  0  0  0  0  0
  -26.5622  -34.8929   22.4675 O   0  0  0  0  0  0
  -23.5400  -32.1404   23.7376 O   0  0  0  0  0  0
  -32.4708  -19.1637   19.8766 C   0  0  0  0  0  0
  -31.7737  -18.0511   20.3836 C   0  0  0  0  0  0
  -31.8357  -20.4113   19.7283 C   0  0  0  0  0  0
  -29.7706  -19.4471   20.5599 C   0  0  0  0  0  0
  -30.4098  -18.1526   20.7229 C   0  0  0  0  0  0
  -30.4833  -20.6021   20.0847 C   0  0  0  0  0  0
  -28.2299  -25.1460   20.3978 C   0  0  0  0  0  0
  -29.6976  -16.9910   21.3755 C   0  0  0  0  0  0
  -29.1201  -24.1758   20.0186 C   0  0  0  0  0  0
  -28.9855  -22.7279   20.3837 C   0  0  0  0  0  0
  -30.0068  -21.9711   19.8976 N   0  0  0  0  0  0
  -29.7668  -15.6189   21.2340 N   0  0  0  0  0  0
  -28.8031  -17.3875   22.2907 N   0  3  0  0  0  0
  -28.0649  -22.2435   21.0447 O   0  0  0  0  0  0
  -30.1794  -24.5531   19.2843 O   0  0  0  0  0  0
  -31.4901  -12.5525   19.1336 H   0  0  0  0  0  0
  -30.4101  -11.3896   19.8512 H   0  0  0  0  0  0
  -29.7779  -11.7928   17.4560 H   0  0  0  0  0  0
  -29.6500  -13.5062   17.7531 H   0  0  0  0  0  0
  -27.8637  -11.3020   18.8348 H   0  0  0  0  0  0
  -27.3798  -12.6107   17.7890 H   0  0  0  0  0  0
  -27.6923  -14.2517   19.5586 H   0  0  0  0  0  0
  -28.7205  -11.9668   21.3146 H   0  0  0  0  0  0
  -28.4364  -13.5752   21.8859 H   0  0  0  0  0  0
  -25.2758   -9.5705   22.4740 H   0  0  0  0  0  0
  -24.0018   -7.4637   22.7462 H   0  0  0  0  0  0
  -21.0831   -8.8759   19.8949 H   0  0  0  0  0  0
  -22.3674  -10.9666   19.6164 H   0  0  0  0  0  0
  -21.1999   -7.6143   23.9726 H   0  0  0  0  0  0
  -21.1480   -6.0514   25.9083 H   0  0  0  0  0  0
  -22.0594   -2.7608   23.2845 H   0  0  0  0  0  0
  -22.4094  -11.9889   22.4809 H   0  0  0  0  0  0
  -21.1122  -13.1274   22.2558 H   0  0  0  0  0  0
  -24.6523  -15.8289   20.4982 H   0  0  0  0  0  0
  -26.2568  -15.6232   20.0187 H   0  0  0  0  0  0
  -26.7157  -32.5461   23.1112 H   0  0  0  0  0  0
  -25.0061  -33.9738   25.0421 H   0  0  0  0  0  0
  -22.7106  -31.3038   21.4020 H   0  0  0  0  0  0
  -23.3766  -35.9611   23.3270 H   0  0  0  0  0  0
  -24.3589  -36.8942   22.2055 H   0  0  0  0  0  0
  -23.7218  -37.6483   23.6670 H   0  0  0  0  0  0
  -26.0854  -31.5591   20.6050 H   0  0  0  0  0  0
  -26.8366  -30.8458   22.0020 H   0  0  0  0  0  0
  -28.1171  -29.0062   21.1836 H   0  0  0  0  0  0
  -26.0223  -25.9304   19.0047 H   0  0  0  0  0  0
  -23.9770  -27.2963   19.0189 H   0  0  0  0  0  0
  -23.7488  -30.5883   19.4033 H   0  0  0  0  0  0
  -22.7524  -29.2406   19.8619 H   0  0  0  0  0  0
  -25.1287  -36.1941   25.0824 H   0  0  0  0  0  0
  -20.9974  -28.3250   24.1417 H   0  0  0  0  0  0
  -20.5683  -26.2290   23.3612 H   0  0  0  0  0  0
  -21.6640  -26.7450   22.1200 H   0  0  0  0  0  0
  -19.6910  -25.6295   21.1247 H   0  0  0  0  0  0
  -19.6685  -27.3197   20.6752 H   0  0  0  0  0  0
  -17.4199  -26.6680   21.4031 H   0  0  0  0  0  0
  -18.0327  -26.0067   22.9023 H   0  0  0  0  0  0
  -19.7931  -30.7269   24.2282 H   0  0  0  0  0  0
  -17.5011  -31.6270   24.5158 H   0  0  0  0  0  0
  -15.5350  -30.2992   23.7651 H   0  0  0  0  0  0
  -15.8667  -28.0823   22.7074 H   0  0  0  0  0  0
  -24.5859  -30.7149   25.7782 H   0  0  0  0  0  0
  -24.8960  -32.2932   26.4919 H   0  0  0  0  0  0
  -25.8038  -30.8884   27.0215 H   0  0  0  0  0  0
  -26.2871  -29.6785   24.1200 H   0  0  0  0  0  0
  -27.3996  -29.7269   25.4678 H   0  0  0  0  0  0
  -27.8748  -30.4295   23.9397 H   0  0  0  0  0  0
  -27.2674  -33.3627   26.2068 H   0  0  0  0  0  0
  -28.3848  -32.6896   25.0294 H   0  0  0  0  0  0
  -28.0740  -31.8451   26.5381 H   0  0  0  0  0  0
  -28.2567  -38.0127   24.7574 H   0  0  0  0  0  0
  -28.1131  -36.2668   24.6178 H   0  0  0  0  0  0
  -27.2326  -37.1310   25.8855 H   0  0  0  0  0  0
  -20.9358  -29.8751   21.6893 H   0  0  0  0  0  0
  -26.0168  -38.2858   24.1471 H   0  0  0  0  0  0
  -33.5171  -19.0692   19.6212 H   0  0  0  0  0  0
  -32.3198  -17.1351   20.5409 H   0  0  0  0  0  0
  -32.4198  -21.2403   19.3543 H   0  0  0  0  0  0
  -28.7292  -19.5656   20.8242 H   0  0  0  0  0  0
  -27.3439  -24.9293   20.9826 H   0  0  0  0  0  0
  -30.6378  -22.5684   19.3779 H   0  0  0  0  0  0
  -28.9568  -15.2268   21.6692 H   0  0  0  0  0  0
  -28.7482  -18.3764   22.4824 H   0  0  0  0  0  0
  -28.2935  -16.7737   22.9060 H   0  0  0  0  0  0
  -30.0987  -25.4901   19.1544 H   0  0  0  0  0  0
  1 25  1  0  0  0
  1 30  2  0  0  0
  1 82  1  0  0  0
  2  3  1  0  0  0
  2 25  1  0  0  0
  2 86  1  0  0  0
  2 87  1  0  0  0
  3  4  1  0  0  0
  3 88  1  0  0  0
  3 89  1  0  0  0
  4  5  1  0  0  0
  4 90  1  0  0  0
  4 91  1  0  0  0
  5  6  1  0  0  0
  5 26  1  0  0  0
  5 92  1  0  0  0
  6 25  1  0  0  0
  6 93  1  0  0  0
  6 94  1  0  0  0
  7  8  2  0  0  0
  7 26  1  0  0  0
  7 29  1  0  0  0
  8  9  1  0  0  0
  8 22  1  0  0  0
  9 10  1  0  0  0
  9 27  2  0  0  0
 10 11  2  0  0  0
 10 15  1  0  0  0
 11 12  1  0  0  0
 11 95  1  0  0  0
 12 13  2  0  0  0
 12 96  1  0  0  0
 13 14  1  0  0  0
 13 31  1  0  0  0
 14 15  2  0  0  0
 14 97  1  0  0  0
 15 98  1  0  0  0
 16 17  2  0  0  0
 16 21  1  0  0  0
 16 31  1  0  0  0
 17 18  1  0  0  0
 17 99  1  0  0  0
 18 19  2  0  0  0
 18100  1  0  0  0
 19 20  1  0  0  0
 19 24  1  0  0  0
 20 21  2  0  0  0
 20101  1  0  0  0
 21 23  1  0  0  0
 22 28  1  0  0  0
 22 32  2  0  0  0
 26 27  1  0  0  0
 28102  1  0  0  0
 28103  1  0  0  0
 29104  1  0  0  0
 29105  1  0  0  0
 33 34  1  0  0  0
 33 66  1  0  0  0
 33 70  2  0  0  0
 34 36  1  0  0  0
 34 59  1  0  0  0
 34106  1  0  0  0
 35 44  2  0  0  0
 35 45  1  0  0  0
 35 68  1  0  0  0
 36 56  1  0  0  0
 36107  1  0  0  0
 37 39  1  0  0  0
 37 47  1  0  0  0
 37 66  1  0  0  0
 37108  1  0  0  0
 38 43  2  0  0  0
 38 46  1  0  0  0
 38 47  1  0  0  0
 39 64  1  0  0  0
 39 67  2  0  0  0
 40 52  1  0  0  0
 40 53  2  0  0  0
 40 58  1  0  0  0
 41109  1  0  0  0
 41110  1  0  0  0
 41111  1  0  0  0
 41 48  1  0  0  0
 42 43  1  0  0  0
 42 66  1  0  0  0
 42112  1  0  0  0
 42113  1  0  0  0
 43 44  1  0  0  0
 44114  1  0  0  0
 45 46  2  0  0  0
 45115  1  0  0  0
 46116  1  0  0  0
 47117  1  0  0  0
 47118  1  0  0  0
 48 56  1  0  0  0
 48 65  1  0  0  0
 48119  1  0  0  0
 49 50  1  0  0  0
 49 53  1  0  0  0
 49 64  1  0  0  0
 49120  1  0  0  0
 50 51  1  0  0  0
 50121  1  0  0  0
 50122  1  0  0  0
 51 52  1  0  0  0
 51123  1  0  0  0
 51124  1  0  0  0
 52125  1  0  0  0
 52126  1  0  0  0
 53 54  1  0  0  0
 54 55  2  0  0  0
 54127  1  0  0  0
 55 57  1  0  0  0
 55128  1  0  0  0
 56 69  2  0  0  0
 57 58  2  0  0  0
 57129  1  0  0  0
 58130  1  0  0  0
 59 60  1  0  0  0
 59 61  1  0  0  0
 59 62  1  0  0  0
 60131  1  0  0  0
 60132  1  0  0  0
 60133  1  0  0  0
 61134  1  0  0  0
 61135  1  0  0  0
 61136  1  0  0  0
 62137  1  0  0  0
 62138  1  0  0  0
 62139  1  0  0  0
 63 65  1  0  0  0
 63140  1  0  0  0
 63141  1  0  0  0
 63142  1  0  0  0
 64143  1  0  0  0
 65144  1  0  0  0
 68 77  1  0  0  0
 71 72  2  0  0  0
 71 73  1  0  0  0
 71145  1  0  0  0
 72 75  1  0  0  0
 72146  1  0  0  0
 73 76  2  0  0  0
 73147  1  0  0  0
 74 75  2  0  0  0
 74 76  1  0  0  0
 74148  1  0  0  0
 75 78  1  0  0  0
 76 81  1  0  0  0
 77 79  2  0  0  0
 77149  1  0  0  0
 78 82  1  0  0  0
 78 83  2  0  0  0
 79 80  1  0  0  0
 79 85  1  0  0  0
 80 81  1  0  0  0
 80 84  2  0  0  0
 81150  1  0  0  0
 82151  1  0  0  0
 83152  1  0  0  0
 83153  1  0  0  0
 85154  1  0  0  0
M  CHG  1  83   1
M  ISO  4   1 100  68 101  77 101  82 100
M  END
> <chiral flag>
0

> <version>
0

> <s_m_source_file>
/data/baiqing/PycharmProjects/Reinvent-master-3.2/result/LINK_invent/BTK/process_docking_weight1_custom_product_contain_oxygen_bond_distance_aromatic_linkinvent_7_9_3/rearranged_h_0085.sdf

> <i_m_source_file_index>
13

> <r_mmod_Potential_Energy-OPLS-2005>
-258.068023681641

> <r_mmod_Stretch_Energy-OPLS-2005>
74.1367111206055

> <r_mmod_Bend_Energy-OPLS-2005>
198.607330322266

> <r_mmod_Torsional_Energy-OPLS-2005>
201.480560302734

> <r_mmod_Improper_Torsional_Energy-OPLS-2005>
4.0322585105896

> <r_mmod_Van_der_Waal_Energy-OPLS-2005>
148.894104003906

> <r_mmod_Electrostatic_Energy-OPLS-2005>
-482.795166015625

> <r_mmod_Solvation_Energy-OPLS-2005>
-443.319061279297

> <b_mmod_Minimization_Converged-OPLS-2005>
0

> <r_mmod_RMS_Derivative-OPLS-2005>
1.24373888969421

$$$$
13
                    3D
 Structure written by MMmdl.
152161  0  0  1  0            999 V2000
  -30.6002  -14.8086   20.3710 C   0  0  0  0  0  0
  -30.4502  -12.4683   19.4592 C   0  0  0  0  0  0
  -29.5065  -12.3856   18.2352 C   0  0  0  0  0  0
  -28.0295  -12.2703   18.6645 C   0  0  0  0  0  0
  -27.6328  -13.2149   19.8312 C   0  0  2  0  0  0
  -28.6965  -13.2238   20.9494 C   0  0  0  0  0  0
  -25.2527  -13.8152   20.5719 C   0  0  0  0  0  0
  -24.1805  -13.0429   20.9256 C   0  0  0  0  0  0
  -24.6373  -11.6899   20.8815 C   0  0  0  0  0  0
  -23.9051  -10.4284   21.0447 C   0  0  0  0  0  0
  -24.3605   -9.4188   21.9206 C   0  0  0  0  0  0
  -23.6282   -8.2222   22.0760 C   0  0  0  0  0  0
  -22.4268   -8.0273   21.3542 C   0  0  0  0  0  0
  -21.9906   -9.0253   20.4650 C   0  0  0  0  0  0
  -22.7237  -10.2133   20.3078 C   0  0  0  0  0  0
  -21.6852   -6.0732   22.5277 C   0  0  0  0  0  0
  -21.4011   -6.5636   23.8210 C   0  0  0  0  0  0
  -21.3656   -5.6787   24.9172 C   0  0  0  0  0  0
  -21.6043   -4.3050   24.7222 C   0  0  0  0  0  0
  -21.8822   -3.8145   23.4343 C   0  0  0  0  0  0
  -21.9190   -4.6961   22.3400 C   0  0  0  0  0  0
  -22.7827  -13.5227   21.1878 C   0  0  0  0  0  0
  -22.1659   -4.2151   21.0977 F   0  0  0  0  0  0
  -21.5630   -3.4530   25.7730 F   0  0  0  0  0  0
  -29.9791  -13.5711   20.3234 N   0  0  0  0  0  0
  -26.2925  -12.9316   20.3309 N   0  0  0  0  0  0
  -25.9302  -11.6491   20.5849 N   0  0  0  0  0  0
  -22.0461  -12.8229   22.0432 N   0  0  0  0  0  0
  -25.4233  -15.1862   20.4049 N   0  0  0  0  0  0
  -31.8317  -14.8536   20.3204 O   0  0  0  0  0  0
  -21.6633   -6.8873   21.4238 O   0  0  0  0  0  0
  -22.3525  -14.5526   20.6702 O   0  0  0  0  0  0
  -24.6326  -31.8556   23.1993 C   0  0  0  0  0  0
  -25.9147  -32.4756   23.8341 C   0  0  1  0  0  0
  -27.2196  -27.2534   20.1198 C   0  0  0  0  0  0
  -25.5939  -33.8560   24.2259 N   0  0  0  0  0  0
  -23.4294  -30.4808   21.5437 C   0  0  2  0  0  0
  -24.8757  -28.9331   20.1109 C   0  0  0  0  0  0
  -22.7511  -29.4606   22.4906 C   0  0  0  0  0  0
  -18.0292  -28.1383   22.8484 C   0  0  0  0  0  0
  -24.1493  -36.7282   23.2640 C   0  0  0  0  0  0
  -25.9789  -30.7667   21.3818 C   0  0  0  0  0  0
  -26.0509  -29.3906   20.7193 C   0  0  0  0  0  0
  -27.2238  -28.5639   20.7142 C   0  0  0  0  0  0
  -26.0043  -26.8642   19.5018 C   0  0  0  0  0  0
  -24.8578  -27.6771   19.4932 C   0  0  0  0  0  0
  -23.6478  -29.8211   20.1588 C   0  0  0  0  0  0
  -25.4120  -36.3069   24.0320 C   0  0  1  0  0  0
  -20.5899  -28.3696   23.1261 C   0  0  2  0  0  0
  -20.6781  -26.9410   22.5404 C   0  0  0  0  0  0
  -19.5755  -26.6377   21.5210 C   0  0  0  0  0  0
  -18.1936  -26.7922   22.1625 C   0  0  0  0  0  0
  -19.1546  -28.8855   23.2868 C   0  0  0  0  0  0
  -18.9468  -30.1457   23.8885 C   0  0  0  0  0  0
  -17.6467  -30.6583   24.0557 C   0  0  0  0  0  0
  -25.9061  -34.9440   23.5088 C   0  0  0  0  0  0
  -16.5356  -29.9079   23.6335 C   0  0  0  0  0  0
  -16.7278  -28.6496   23.0356 C   0  0  0  0  0  0
  -26.4509  -31.6579   25.0733 C   0  0  0  0  0  0
  -25.3726  -31.3740   26.1448 C   0  0  0  0  0  0
  -27.0363  -30.2990   24.6238 C   0  0  0  0  0  0
  -27.6056  -32.4327   25.7508 C   0  0  0  0  0  0
  -27.5576  -37.1801   24.8466 C   0  0  0  0  0  0
  -21.4214  -29.3047   22.3648 N   0  0  0  0  0  0
  -26.4296  -37.3764   23.9402 N   0  0  0  0  0  0
  -24.6996  -31.0519   22.0975 N   0  0  0  0  0  0
  -23.4206  -28.8135   23.3000 O   0  0  0  0  0  0
  -28.3052  -26.3365   20.1953 O   0  0  0  0  0  0
  -26.5633  -34.8909   22.4659 O   0  0  0  0  0  0
  -23.5474  -32.1380   23.7282 O   0  0  0  0  0  0
  -30.5900  -19.6960   20.4371 C   0  0  0  0  0  0
  -30.8177  -18.2729   20.3566 C   0  0  0  0  0  0
  -28.4738  -17.9250   20.5095 C   0  0  0  0  0  0
  -29.2997  -20.3195   20.4792 C   0  0  0  0  0  0
  -29.7553  -17.3205   20.3428 C   0  0  0  0  0  0
  -28.2600  -19.3419   20.5526 C   0  0  0  0  0  0
  -28.5836  -23.7498   19.9388 C   0  0  0  0  0  0
  -29.2799  -23.0414   21.0200 C   0  0  0  0  0  0
  -28.2064  -25.0464   19.5903 C   0  0  0  0  0  0
  -29.5886  -15.8156   18.5412 C   0  0  0  0  0  0
  -28.3846  -22.3936   19.2245 C   0  0  0  0  0  0
  -29.0039  -21.7796   20.4124 N   0  0  0  0  0  0
  -29.8816  -15.9063   19.8630 N   0  0  0  0  0  0
  -29.8790  -23.4481   21.9940 O   0  0  0  0  0  0
  -28.6337  -16.3747   17.9870 O   0  0  0  0  0  0
  -26.9796  -19.7808   20.6273 F   0  0  0  0  0  0
  -31.4798  -12.6192   19.1299 H   0  0  0  0  0  0
  -30.4435  -11.5287   20.0143 H   0  0  0  0  0  0
  -29.7739  -11.5143   17.6355 H   0  0  0  0  0  0
  -29.6352  -13.2293   17.5642 H   0  0  0  0  0  0
  -27.8781  -11.2358   18.9744 H   0  0  0  0  0  0
  -27.3704  -12.4241   17.8091 H   0  0  0  0  0  0
  -27.5865  -14.2132   19.4055 H   0  0  0  0  0  0
  -28.7556  -12.2545   21.4470 H   0  0  0  0  0  0
  -28.4367  -13.9563   21.7162 H   0  0  0  0  0  0
  -25.2750   -9.5655   22.4783 H   0  0  0  0  0  0
  -23.9989   -7.4605   22.7470 H   0  0  0  0  0  0
  -21.0843   -8.8779   19.8948 H   0  0  0  0  0  0
  -22.3707  -10.9679   19.6191 H   0  0  0  0  0  0
  -21.2008   -7.6144   23.9714 H   0  0  0  0  0  0
  -21.1475   -6.0517   25.9073 H   0  0  0  0  0  0
  -22.0606   -2.7611   23.2842 H   0  0  0  0  0  0
  -22.4068  -11.9893   22.4834 H   0  0  0  0  0  0
  -21.1078  -13.1262   22.2619 H   0  0  0  0  0  0
  -24.6512  -15.8382   20.4952 H   0  0  0  0  0  0
  -26.2551  -15.6080   20.0150 H   0  0  0  0  0  0
  -26.7210  -32.5402   23.1080 H   0  0  0  0  0  0
  -25.0085  -33.9703   25.0402 H   0  0  0  0  0  0
  -22.7257  -31.3034   21.4004 H   0  0  0  0  0  0
  -23.3751  -35.9620   23.3309 H   0  0  0  0  0  0
  -24.3579  -36.8901   22.2053 H   0  0  0  0  0  0
  -23.7250  -37.6485   23.6664 H   0  0  0  0  0  0
  -26.1230  -31.5294   20.6151 H   0  0  0  0  0  0
  -26.8542  -30.8105   22.0182 H   0  0  0  0  0  0
  -28.1218  -28.9091   21.2069 H   0  0  0  0  0  0
  -25.8800  -25.8947   19.0465 H   0  0  0  0  0  0
  -23.9532  -27.3136   19.0247 H   0  0  0  0  0  0
  -23.7751  -30.6005   19.4068 H   0  0  0  0  0  0
  -22.7656  -29.2577   19.8505 H   0  0  0  0  0  0
  -25.1307  -36.1919   25.0813 H   0  0  0  0  0  0
  -20.9994  -28.3274   24.1380 H   0  0  0  0  0  0
  -20.5684  -26.2304   23.3611 H   0  0  0  0  0  0
  -21.6649  -26.7432   22.1196 H   0  0  0  0  0  0
  -19.6918  -25.6289   21.1240 H   0  0  0  0  0  0
  -19.6690  -27.3187   20.6738 H   0  0  0  0  0  0
  -17.4205  -26.6662   21.4028 H   0  0  0  0  0  0
  -18.0339  -26.0064   22.9025 H   0  0  0  0  0  0
  -19.7946  -30.7274   24.2243 H   0  0  0  0  0  0
  -17.5023  -31.6262   24.5162 H   0  0  0  0  0  0
  -15.5358  -30.2977   23.7662 H   0  0  0  0  0  0
  -15.8678  -28.0810   22.7078 H   0  0  0  0  0  0
  -24.5898  -30.7093   25.7775 H   0  0  0  0  0  0
  -24.8925  -32.2918   26.4855 H   0  0  0  0  0  0
  -25.8035  -30.8927   27.0235 H   0  0  0  0  0  0
  -26.2962  -29.6727   24.1243 H   0  0  0  0  0  0
  -27.4013  -29.7263   25.4774 H   0  0  0  0  0  0
  -27.8852  -30.4253   23.9512 H   0  0  0  0  0  0
  -27.2651  -33.3627   26.2071 H   0  0  0  0  0  0
  -28.3871  -32.6885   25.0342 H   0  0  0  0  0  0
  -28.0715  -31.8465   26.5436 H   0  0  0  0  0  0
  -28.2602  -38.0090   24.7499 H   0  0  0  0  0  0
  -28.1064  -36.2618   24.6316 H   0  0  0  0  0  0
  -27.2291  -37.1479   25.8870 H   0  0  0  0  0  0
  -20.9393  -29.8777   21.6866 H   0  0  0  0  0  0
  -26.0171  -38.2839   24.1398 H   0  0  0  0  0  0
  -31.4562  -20.3401   20.3893 H   0  0  0  0  0  0
  -31.8326  -17.9258   20.2187 H   0  0  0  0  0  0
  -27.5970  -17.2960   20.4934 H   0  0  0  0  0  0
  -27.7448  -25.1427   18.6198 H   0  0  0  0  0  0
  -30.3101  -15.1870   17.9934 H   0  0  0  0  0  0
  -28.9735  -22.2131   18.3234 H   0  0  0  0  0  0
  -27.3598  -22.0485   19.0785 H   0  0  0  0  0  0
  1 25  1  0  0  0
  1 30  2  0  0  0
  1 83  1  0  0  0
  2  3  1  0  0  0
  2 25  1  0  0  0
  2 87  1  0  0  0
  2 88  1  0  0  0
  3  4  1  0  0  0
  3 89  1  0  0  0
  3 90  1  0  0  0
  4  5  1  0  0  0
  4 91  1  0  0  0
  4 92  1  0  0  0
  5  6  1  0  0  0
  5 26  1  0  0  0
  5 93  1  0  0  0
  6 25  1  0  0  0
  6 94  1  0  0  0
  6 95  1  0  0  0
  7  8  2  0  0  0
  7 26  1  0  0  0
  7 29  1  0  0  0
  8  9  1  0  0  0
  8 22  1  0  0  0
  9 10  1  0  0  0
  9 27  2  0  0  0
 10 11  2  0  0  0
 10 15  1  0  0  0
 11 12  1  0  0  0
 11 96  1  0  0  0
 12 13  2  0  0  0
 12 97  1  0  0  0
 13 14  1  0  0  0
 13 31  1  0  0  0
 14 15  2  0  0  0
 14 98  1  0  0  0
 15 99  1  0  0  0
 16 17  2  0  0  0
 16 21  1  0  0  0
 16 31  1  0  0  0
 17 18  1  0  0  0
 17100  1  0  0  0
 18 19  2  0  0  0
 18101  1  0  0  0
 19 20  1  0  0  0
 19 24  1  0  0  0
 20 21  2  0  0  0
 20102  1  0  0  0
 21 23  1  0  0  0
 22 28  1  0  0  0
 22 32  2  0  0  0
 26 27  1  0  0  0
 28103  1  0  0  0
 28104  1  0  0  0
 29105  1  0  0  0
 29106  1  0  0  0
 33 34  1  0  0  0
 33 66  1  0  0  0
 33 70  2  0  0  0
 34 36  1  0  0  0
 34 59  1  0  0  0
 34107  1  0  0  0
 35 44  2  0  0  0
 35 45  1  0  0  0
 35 68  1  0  0  0
 36 56  1  0  0  0
 36108  1  0  0  0
 37 39  1  0  0  0
 37 47  1  0  0  0
 37 66  1  0  0  0
 37109  1  0  0  0
 38 43  2  0  0  0
 38 46  1  0  0  0
 38 47  1  0  0  0
 39 64  1  0  0  0
 39 67  2  0  0  0
 40 52  1  0  0  0
 40 53  2  0  0  0
 40 58  1  0  0  0
 41110  1  0  0  0
 41111  1  0  0  0
 41112  1  0  0  0
 41 48  1  0  0  0
 42 43  1  0  0  0
 42 66  1  0  0  0
 42113  1  0  0  0
 42114  1  0  0  0
 43 44  1  0  0  0
 44115  1  0  0  0
 45 46  2  0  0  0
 45116  1  0  0  0
 46117  1  0  0  0
 47118  1  0  0  0
 47119  1  0  0  0
 48 56  1  0  0  0
 48 65  1  0  0  0
 48120  1  0  0  0
 49 50  1  0  0  0
 49 53  1  0  0  0
 49 64  1  0  0  0
 49121  1  0  0  0
 50 51  1  0  0  0
 50122  1  0  0  0
 50123  1  0  0  0
 51 52  1  0  0  0
 51124  1  0  0  0
 51125  1  0  0  0
 52126  1  0  0  0
 52127  1  0  0  0
 53 54  1  0  0  0
 54 55  2  0  0  0
 54128  1  0  0  0
 55 57  1  0  0  0
 55129  1  0  0  0
 56 69  2  0  0  0
 57 58  2  0  0  0
 57130  1  0  0  0
 58131  1  0  0  0
 59 60  1  0  0  0
 59 61  1  0  0  0
 59 62  1  0  0  0
 60132  1  0  0  0
 60133  1  0  0  0
 60134  1  0  0  0
 61135  1  0  0  0
 61136  1  0  0  0
 61137  1  0  0  0
 62138  1  0  0  0
 62139  1  0  0  0
 62140  1  0  0  0
 63 65  1  0  0  0
 63141  1  0  0  0
 63142  1  0  0  0
 63143  1  0  0  0
 64144  1  0  0  0
 65145  1  0  0  0
 68 79  1  0  0  0
 71 72  2  0  0  0
 71 74  1  0  0  0
 71146  1  0  0  0
 72 75  1  0  0  0
 72147  1  0  0  0
 73 75  2  0  0  0
 73 76  1  0  0  0
 73148  1  0  0  0
 74 76  2  0  0  0
 74 82  1  0  0  0
 75 83  1  0  0  0
 76 86  1  0  0  0
 77 78  1  0  0  0
 77 79  2  0  0  0
 77 81  1  0  0  0
 78 82  1  0  0  0
 78 84  2  0  0  0
 79149  1  0  0  0
 80 83  1  0  0  0
 80 85  2  0  0  0
 80150  1  0  0  0
 81 82  1  0  0  0
 81151  1  0  0  0
 81152  1  0  0  0
M  ISO  4   1 100  68 101  79 101  83 100
M  END
> <chiral flag>
0

> <version>
0

> <s_m_source_file>
/data/baiqing/PycharmProjects/Reinvent-master-3.2/result/LINK_invent/BTK/process_docking_weight1_custom_product_contain_oxygen_bond_distance_aromatic_linkinvent_7_9_3/rearranged_h_0085.sdf

> <i_m_source_file_index>
14

> <r_mmod_Potential_Energy-OPLS-2005>
475.914459228516

> <r_mmod_Stretch_Energy-OPLS-2005>
116.935966491699

> <r_mmod_Bend_Energy-OPLS-2005>
260.595855712891

> <r_mmod_Torsional_Energy-OPLS-2005>
361.917999267578

> <r_mmod_Improper_Torsional_Energy-OPLS-2005>
26.8933277130127

> <r_mmod_Van_der_Waal_Energy-OPLS-2005>
150.77912902832

> <r_mmod_Electrostatic_Energy-OPLS-2005>
-347.667999267578

> <r_mmod_Solvation_Energy-OPLS-2005>
-212.306869506836

> <b_mmod_Minimization_Converged-OPLS-2005>
0

> <r_mmod_RMS_Derivative-OPLS-2005>
0.950803577899933

$$$$
14
                    3D
 Structure written by MMmdl.
149158  0  0  1  0            999 V2000
  -30.5074  -14.8814   20.4484 C   0  0  0  0  0  0
  -30.4591  -12.5429   19.4796 C   0  0  0  0  0  0
  -29.5243  -12.5332   18.2449 C   0  0  0  0  0  0
  -28.0530  -12.3266   18.6591 C   0  0  0  0  0  0
  -27.6436  -13.2301   19.8510 C   0  0  2  0  0  0
  -28.6906  -13.1758   20.9858 C   0  0  0  0  0  0
  -25.2538  -13.8183   20.5696 C   0  0  0  0  0  0
  -24.1823  -13.0441   20.9218 C   0  0  0  0  0  0
  -24.6404  -11.6914   20.8754 C   0  0  0  0  0  0
  -23.9073  -10.4295   21.0416 C   0  0  0  0  0  0
  -24.3623   -9.4206   21.9188 C   0  0  0  0  0  0
  -23.6295   -8.2243   22.0756 C   0  0  0  0  0  0
  -22.4277   -8.0282   21.3545 C   0  0  0  0  0  0
  -21.9914   -9.0260   20.4651 C   0  0  0  0  0  0
  -22.7245  -10.2141   20.3065 C   0  0  0  0  0  0
  -21.6852   -6.0737   22.5279 C   0  0  0  0  0  0
  -21.4013   -6.5642   23.8212 C   0  0  0  0  0  0
  -21.3661   -5.6794   24.9174 C   0  0  0  0  0  0
  -21.6044   -4.3056   24.7225 C   0  0  0  0  0  0
  -21.8819   -3.8147   23.4346 C   0  0  0  0  0  0
  -21.9192   -4.6965   22.3403 C   0  0  0  0  0  0
  -22.7845  -13.5234   21.1868 C   0  0  0  0  0  0
  -22.1661   -4.2150   21.0981 F   0  0  0  0  0  0
  -21.5630   -3.4540   25.7737 F   0  0  0  0  0  0
  -29.9788  -13.5969   20.4100 N   0  0  0  0  0  0
  -26.2952  -12.9375   20.3267 N   0  0  0  0  0  0
  -25.9334  -11.6525   20.5741 N   0  0  0  0  0  0
  -22.0483  -12.8228   22.0421 N   0  0  0  0  0  0
  -25.4247  -15.1907   20.4099 N   0  0  0  0  0  0
  -31.6834  -15.0554   20.1074 O   0  0  0  0  0  0
  -21.6641   -6.8879   21.4239 O   0  0  0  0  0  0
  -22.3538  -14.5540   20.6709 O   0  0  0  0  0  0
  -24.6389  -31.8469   23.1912 C   0  0  0  0  0  0
  -25.9173  -32.4712   23.8290 C   0  0  1  0  0  0
  -27.2261  -27.1775   20.1466 C   0  0  0  0  0  0
  -25.5928  -33.8518   24.2202 N   0  0  0  0  0  0
  -23.4420  -30.4661   21.5360 C   0  0  2  0  0  0
  -24.8943  -28.8980   20.1123 C   0  0  0  0  0  0
  -22.7546  -29.4555   22.4877 C   0  0  0  0  0  0
  -18.0299  -28.1392   22.8484 C   0  0  0  0  0  0
  -24.1492  -36.7274   23.2646 C   0  0  0  0  0  0
  -25.9949  -30.7319   21.3869 C   0  0  0  0  0  0
  -26.0687  -29.3455   20.7319 C   0  0  0  0  0  0
  -27.2363  -28.4988   20.7378 C   0  0  0  0  0  0
  -26.0296  -26.8239   19.4857 C   0  0  0  0  0  0
  -24.8841  -27.6474   19.4762 C   0  0  0  0  0  0
  -23.6678  -29.7952   20.1553 C   0  0  0  0  0  0
  -25.4124  -36.3047   24.0317 C   0  0  1  0  0  0
  -20.5909  -28.3713   23.1248 C   0  0  2  0  0  0
  -20.6783  -26.9419   22.5411 C   0  0  0  0  0  0
  -19.5756  -26.6379   21.5219 C   0  0  0  0  0  0
  -18.1939  -26.7929   22.1633 C   0  0  0  0  0  0
  -19.1554  -28.8871   23.2858 C   0  0  0  0  0  0
  -18.9471  -30.1469   23.8879 C   0  0  0  0  0  0
  -17.6467  -30.6591   24.0562 C   0  0  0  0  0  0
  -25.9063  -34.9417   23.5070 C   0  0  0  0  0  0
  -16.5360  -29.9085   23.6334 C   0  0  0  0  0  0
  -16.7285  -28.6504   23.0356 C   0  0  0  0  0  0
  -26.4505  -31.6570   25.0719 C   0  0  0  0  0  0
  -25.3698  -31.3763   26.1421 C   0  0  0  0  0  0
  -27.0360  -30.2964   24.6286 C   0  0  0  0  0  0
  -27.6038  -32.4332   25.7499 C   0  0  0  0  0  0
  -27.5570  -37.1805   24.8472 C   0  0  0  0  0  0
  -21.4243  -29.3041   22.3623 N   0  0  0  0  0  0
  -26.4301  -37.3743   23.9386 N   0  0  0  0  0  0
  -24.7112  -31.0351   22.0935 N   0  0  0  0  0  0
  -23.4202  -28.8106   23.3017 O   0  0  0  0  0  0
  -28.2832  -26.2072   20.1717 O   0  0  0  0  0  0
  -26.5655  -34.8905   22.4651 O   0  0  0  0  0  0
  -23.5514  -32.1331   23.7146 O   0  0  0  0  0  0
  -29.9945  -18.6832   20.2524 C   0  0  0  0  0  0
  -28.2222  -17.8872   21.3223 C   0  0  0  0  0  0
  -29.3780  -17.4249   20.7440 C   0  0  0  0  0  0
  -29.1434  -19.7841   20.5720 C   0  0  0  0  0  0
  -28.7176  -23.5930   20.2724 C   0  0  0  0  0  0
  -30.0450  -23.3830   19.7132 C   0  0  0  0  0  0
  -28.2701  -22.1981   20.6391 C   0  0  0  0  0  0
  -27.9992  -24.8033   20.4404 C   0  0  0  0  0  0
  -30.3843  -21.8719   19.7350 C   0  0  0  0  0  0
  -29.2174  -21.2018   20.3412 N   0  0  0  0  0  0
  -29.5990  -15.9148   20.7414 N   0  0  0  0  0  0
  -30.8154  -24.2443   19.2763 O   0  0  0  0  0  0
  -27.1727  -21.9479   21.1504 O   0  0  0  0  0  0
  -28.0707  -19.2537   21.2319 O   0  0  0  0  0  0
  -31.4894  -12.7229   19.1674 H   0  0  0  0  0  0
  -30.4607  -11.5693   19.9718 H   0  0  0  0  0  0
  -29.8285  -11.7526   17.5463 H   0  0  0  0  0  0
  -29.6205  -13.4777   17.7073 H   0  0  0  0  0  0
  -27.9314  -11.2781   18.9334 H   0  0  0  0  0  0
  -27.3907  -12.4964   17.8092 H   0  0  0  0  0  0
  -27.6287  -14.2475   19.4605 H   0  0  0  0  0  0
  -28.7622  -12.1689   21.3996 H   0  0  0  0  0  0
  -28.3976  -13.8196   21.8169 H   0  0  0  0  0  0
  -25.2769   -9.5683   22.4760 H   0  0  0  0  0  0
  -24.0004   -7.4635   22.7476 H   0  0  0  0  0  0
  -21.0844   -8.8784   19.8958 H   0  0  0  0  0  0
  -22.3699  -10.9686   19.6181 H   0  0  0  0  0  0
  -21.2003   -7.6149   23.9718 H   0  0  0  0  0  0
  -21.1483   -6.0522   25.9078 H   0  0  0  0  0  0
  -22.0594   -2.7608   23.2845 H   0  0  0  0  0  0
  -22.4092  -11.9895   22.4825 H   0  0  0  0  0  0
  -21.1102  -13.1263   22.2624 H   0  0  0  0  0  0
  -24.6476  -15.8361   20.5002 H   0  0  0  0  0  0
  -26.2457  -15.6181   20.0016 H   0  0  0  0  0  0
  -26.7243  -32.5332   23.1027 H   0  0  0  0  0  0
  -25.0027  -33.9636   25.0317 H   0  0  0  0  0  0
  -22.7428  -31.2908   21.3828 H   0  0  0  0  0  0
  -23.3732  -35.9631   23.3348 H   0  0  0  0  0  0
  -24.3563  -36.8861   22.2051 H   0  0  0  0  0  0
  -23.7283  -37.6500   23.6651 H   0  0  0  0  0  0
  -26.1446  -31.4868   20.6138 H   0  0  0  0  0  0
  -26.8672  -30.7831   22.0269 H   0  0  0  0  0  0
  -28.1329  -28.8358   21.2387 H   0  0  0  0  0  0
  -25.9642  -25.8661   18.9895 H   0  0  0  0  0  0
  -23.9888  -27.3002   18.9787 H   0  0  0  0  0  0
  -23.7998  -30.5699   19.3991 H   0  0  0  0  0  0
  -22.7846  -29.2331   19.8468 H   0  0  0  0  0  0
  -25.1321  -36.1890   25.0813 H   0  0  0  0  0  0
  -21.0001  -28.3299   24.1368 H   0  0  0  0  0  0
  -20.5678  -26.2324   23.3627 H   0  0  0  0  0  0
  -21.6648  -26.7426   22.1206 H   0  0  0  0  0  0
  -19.6915  -25.6284   21.1261 H   0  0  0  0  0  0
  -19.6696  -27.3183   20.6744 H   0  0  0  0  0  0
  -17.4206  -26.6672   21.4038 H   0  0  0  0  0  0
  -18.0343  -26.0076   22.9038 H   0  0  0  0  0  0
  -19.7945  -30.7293   24.2239 H   0  0  0  0  0  0
  -17.5018  -31.6268   24.5165 H   0  0  0  0  0  0
  -15.5359  -30.2983   23.7661 H   0  0  0  0  0  0
  -15.8687  -28.0818   22.7075 H   0  0  0  0  0  0
  -24.5861  -30.7130   25.7741 H   0  0  0  0  0  0
  -24.8907  -32.2952   26.4808 H   0  0  0  0  0  0
  -25.7977  -30.8951   27.0225 H   0  0  0  0  0  0
  -26.2971  -29.6699   24.1275 H   0  0  0  0  0  0
  -27.3953  -29.7250   25.4855 H   0  0  0  0  0  0
  -27.8889  -30.4197   23.9608 H   0  0  0  0  0  0
  -27.2621  -33.3635   26.2047 H   0  0  0  0  0  0
  -28.3859  -32.6890   25.0339 H   0  0  0  0  0  0
  -28.0695  -31.8482   26.5440 H   0  0  0  0  0  0
  -28.2631  -38.0056   24.7433 H   0  0  0  0  0  0
  -28.1020  -36.2580   24.6411 H   0  0  0  0  0  0
  -27.2269  -37.1589   25.8873 H   0  0  0  0  0  0
  -20.9443  -29.8760   21.6815 H   0  0  0  0  0  0
  -26.0177  -38.2827   24.1333 H   0  0  0  0  0  0
  -30.9284  -18.7716   19.7156 H   0  0  0  0  0  0
  -27.3997  -17.3948   21.8240 H   0  0  0  0  0  0
  -27.0197  -24.7230   20.8915 H   0  0  0  0  0  0
  -31.2821  -21.6965   20.3278 H   0  0  0  0  0  0
  -30.5562  -21.5095   18.7214 H   0  0  0  0  0  0
  -28.7587  -15.4494   21.0497 H   0  0  0  0  0  0
  1 25  1  0  0  0
  1 30  2  0  0  0
  1 81  1  0  0  0
  2  3  1  0  0  0
  2 25  1  0  0  0
  2 85  1  0  0  0
  2 86  1  0  0  0
  3  4  1  0  0  0
  3 87  1  0  0  0
  3 88  1  0  0  0
  4  5  1  0  0  0
  4 89  1  0  0  0
  4 90  1  0  0  0
  5  6  1  0  0  0
  5 26  1  0  0  0
  5 91  1  0  0  0
  6 25  1  0  0  0
  6 92  1  0  0  0
  6 93  1  0  0  0
  7  8  2  0  0  0
  7 26  1  0  0  0
  7 29  1  0  0  0
  8  9  1  0  0  0
  8 22  1  0  0  0
  9 10  1  0  0  0
  9 27  2  0  0  0
 10 11  2  0  0  0
 10 15  1  0  0  0
 11 12  1  0  0  0
 11 94  1  0  0  0
 12 13  2  0  0  0
 12 95  1  0  0  0
 13 14  1  0  0  0
 13 31  1  0  0  0
 14 15  2  0  0  0
 14 96  1  0  0  0
 15 97  1  0  0  0
 16 17  2  0  0  0
 16 21  1  0  0  0
 16 31  1  0  0  0
 17 18  1  0  0  0
 17 98  1  0  0  0
 18 19  2  0  0  0
 18 99  1  0  0  0
 19 20  1  0  0  0
 19 24  1  0  0  0
 20 21  2  0  0  0
 20100  1  0  0  0
 21 23  1  0  0  0
 22 28  1  0  0  0
 22 32  2  0  0  0
 26 27  1  0  0  0
 28101  1  0  0  0
 28102  1  0  0  0
 29103  1  0  0  0
 29104  1  0  0  0
 33 34  1  0  0  0
 33 66  1  0  0  0
 33 70  2  0  0  0
 34 36  1  0  0  0
 34 59  1  0  0  0
 34105  1  0  0  0
 35 44  2  0  0  0
 35 45  1  0  0  0
 35 68  1  0  0  0
 36 56  1  0  0  0
 36106  1  0  0  0
 37 39  1  0  0  0
 37 47  1  0  0  0
 37 66  1  0  0  0
 37107  1  0  0  0
 38 43  2  0  0  0
 38 46  1  0  0  0
 38 47  1  0  0  0
 39 64  1  0  0  0
 39 67  2  0  0  0
 40 52  1  0  0  0
 40 53  2  0  0  0
 40 58  1  0  0  0
 41108  1  0  0  0
 41109  1  0  0  0
 41110  1  0  0  0
 41 48  1  0  0  0
 42 43  1  0  0  0
 42 66  1  0  0  0
 42111  1  0  0  0
 42112  1  0  0  0
 43 44  1  0  0  0
 44113  1  0  0  0
 45 46  2  0  0  0
 45114  1  0  0  0
 46115  1  0  0  0
 47116  1  0  0  0
 47117  1  0  0  0
 48 56  1  0  0  0
 48 65  1  0  0  0
 48118  1  0  0  0
 49 50  1  0  0  0
 49 53  1  0  0  0
 49 64  1  0  0  0
 49119  1  0  0  0
 50 51  1  0  0  0
 50120  1  0  0  0
 50121  1  0  0  0
 51 52  1  0  0  0
 51122  1  0  0  0
 51123  1  0  0  0
 52124  1  0  0  0
 52125  1  0  0  0
 53 54  1  0  0  0
 54 55  2  0  0  0
 54126  1  0  0  0
 55 57  1  0  0  0
 55127  1  0  0  0
 56 69  2  0  0  0
 57 58  2  0  0  0
 57128  1  0  0  0
 58129  1  0  0  0
 59 60  1  0  0  0
 59 61  1  0  0  0
 59 62  1  0  0  0
 60130  1  0  0  0
 60131  1  0  0  0
 60132  1  0  0  0
 61133  1  0  0  0
 61134  1  0  0  0
 61135  1  0  0  0
 62136  1  0  0  0
 62137  1  0  0  0
 62138  1  0  0  0
 63 65  1  0  0  0
 63139  1  0  0  0
 63140  1  0  0  0
 63141  1  0  0  0
 64142  1  0  0  0
 65143  1  0  0  0
 68 78  1  0  0  0
 71 73  1  0  0  0
 71 74  2  0  0  0
 71144  1  0  0  0
 72 73  2  0  0  0
 72 84  1  0  0  0
 72145  1  0  0  0
 73 81  1  0  0  0
 74 80  1  0  0  0
 74 84  1  0  0  0
 75 76  1  0  0  0
 75 77  1  0  0  0
 75 78  2  0  0  0
 76 79  1  0  0  0
 76 82  2  0  0  0
 77 80  1  0  0  0
 77 83  2  0  0  0
 78146  1  0  0  0
 79 80  1  0  0  0
 79147  1  0  0  0
 79148  1  0  0  0
 81149  1  0  0  0
M  ISO  4   1 100  68 101  78 101  81 100
M  END
> <chiral flag>
0

> <version>
0

> <s_m_source_file>
/data/baiqing/PycharmProjects/Reinvent-master-3.2/result/LINK_invent/BTK/process_docking_weight1_custom_product_contain_oxygen_bond_distance_aromatic_linkinvent_7_9_3/rearranged_h_0085.sdf

> <i_m_source_file_index>
15

> <r_mmod_Potential_Energy-OPLS-2005>
387.196868896484

> <r_mmod_Stretch_Energy-OPLS-2005>
173.804946899414

> <r_mmod_Bend_Energy-OPLS-2005>
319.539184570312

> <r_mmod_Torsional_Energy-OPLS-2005>
232.881240844727

> <r_mmod_Improper_Torsional_Energy-OPLS-2005>
3.84590148925781

> <r_mmod_Van_der_Waal_Energy-OPLS-2005>
108.66820526123

> <r_mmod_Electrostatic_Energy-OPLS-2005>
-360.330657958984

> <r_mmod_Solvation_Energy-OPLS-2005>
-245.58171081543

> <b_mmod_Minimization_Converged-OPLS-2005>
0

> <r_mmod_RMS_Derivative-OPLS-2005>
0.6964031457901

$$$$
15
                    3D
 Structure written by MMmdl.
149157  0  0  1  0            999 V2000
  -30.7076  -14.6561   20.4923 C   0  0  0  0  0  0
  -30.4095  -12.4106   19.4586 C   0  0  0  0  0  0
  -29.4936  -12.4943   18.2224 C   0  0  0  0  0  0
  -28.0210  -12.3365   18.6412 C   0  0  0  0  0  0
  -27.6393  -13.2361   19.8480 C   0  0  2  0  0  0
  -28.6890  -13.1742   20.9795 C   0  0  0  0  0  0
  -25.2497  -13.8214   20.5715 C   0  0  0  0  0  0
  -24.1795  -13.0448   20.9216 C   0  0  0  0  0  0
  -24.6395  -11.6928   20.8758 C   0  0  0  0  0  0
  -23.9074  -10.4298   21.0410 C   0  0  0  0  0  0
  -24.3621   -9.4212   21.9187 C   0  0  0  0  0  0
  -23.6298   -8.2247   22.0759 C   0  0  0  0  0  0
  -22.4281   -8.0282   21.3546 C   0  0  0  0  0  0
  -21.9921   -9.0255   20.4647 C   0  0  0  0  0  0
  -22.7248  -10.2136   20.3057 C   0  0  0  0  0  0
  -21.6854   -6.0738   22.5276 C   0  0  0  0  0  0
  -21.4012   -6.5640   23.8208 C   0  0  0  0  0  0
  -21.3662   -5.6793   24.9171 C   0  0  0  0  0  0
  -21.6045   -4.3056   24.7223 C   0  0  0  0  0  0
  -21.8817   -3.8150   23.4344 C   0  0  0  0  0  0
  -21.9193   -4.6966   22.3399 C   0  0  0  0  0  0
  -22.7812  -13.5221   21.1873 C   0  0  0  0  0  0
  -22.1662   -4.2151   21.0976 F   0  0  0  0  0  0
  -21.5634   -3.4542   25.7738 F   0  0  0  0  0  0
  -29.9932  -13.4873   20.3855 N   0  0  0  0  0  0
  -26.2931  -12.9436   20.3307 N   0  0  0  0  0  0
  -25.9327  -11.6573   20.5770 N   0  0  0  0  0  0
  -22.0462  -12.8202   22.0422 N   0  0  0  0  0  0
  -25.4172  -15.1941   20.4136 N   0  0  0  0  0  0
  -31.8985  -14.6446   20.1711 O   0  0  0  0  0  0
  -21.6642   -6.8882   21.4241 O   0  0  0  0  0  0
  -22.3493  -14.5526   20.6718 O   0  0  0  0  0  0
  -24.6300  -31.8606   23.2074 C   0  0  0  0  0  0
  -25.9145  -32.4780   23.8389 C   0  0  1  0  0  0
  -27.2019  -27.2935   20.1114 C   0  0  0  0  0  0
  -25.5958  -33.8585   24.2302 N   0  0  0  0  0  0
  -23.4223  -30.4912   21.5513 C   0  0  2  0  0  0
  -24.8647  -28.9579   20.1079 C   0  0  0  0  0  0
  -22.7487  -29.4641   22.4934 C   0  0  0  0  0  0
  -18.0287  -28.1391   22.8490 C   0  0  0  0  0  0
  -24.1486  -36.7279   23.2640 C   0  0  0  0  0  0
  -25.9701  -30.7821   21.3868 C   0  0  0  0  0  0
  -26.0391  -29.4119   20.7220 C   0  0  0  0  0  0
  -27.2115  -28.5910   20.7198 C   0  0  0  0  0  0
  -26.0064  -26.9240   19.4447 C   0  0  0  0  0  0
  -24.8524  -27.7196   19.4599 C   0  0  0  0  0  0
  -23.6365  -29.8412   20.1623 C   0  0  0  0  0  0
  -25.4115  -36.3078   24.0328 C   0  0  1  0  0  0
  -20.5891  -28.3704   23.1272 C   0  0  2  0  0  0
  -20.6780  -26.9424   22.5402 C   0  0  0  0  0  0
  -19.5748  -26.6388   21.5216 C   0  0  0  0  0  0
  -18.1929  -26.7934   22.1627 C   0  0  0  0  0  0
  -19.1543  -28.8864   23.2876 C   0  0  0  0  0  0
  -18.9465  -30.1468   23.8891 C   0  0  0  0  0  0
  -17.6464  -30.6593   24.0569 C   0  0  0  0  0  0
  -25.9059  -34.9451   23.5108 C   0  0  0  0  0  0
  -16.5354  -29.9092   23.6342 C   0  0  0  0  0  0
  -16.7274  -28.6510   23.0362 C   0  0  0  0  0  0
  -26.4519  -31.6594   25.0764 C   0  0  0  0  0  0
  -25.3739  -31.3722   26.1478 C   0  0  0  0  0  0
  -27.0387  -30.3019   24.6245 C   0  0  0  0  0  0
  -27.6073  -32.4340   25.7526 C   0  0  0  0  0  0
  -27.5577  -37.1796   24.8468 C   0  0  0  0  0  0
  -21.4198  -29.3055   22.3664 N   0  0  0  0  0  0
  -26.4287  -37.3780   23.9415 N   0  0  0  0  0  0
  -24.6931  -31.0605   22.1043 N   0  0  0  0  0  0
  -23.4198  -28.8158   23.3005 O   0  0  0  0  0  0
  -28.2716  -26.3722   20.1924 O   0  0  0  0  0  0
  -26.5612  -34.8913   22.4665 O   0  0  0  0  0  0
  -23.5461  -32.1421   23.7388 O   0  0  0  0  0  0
  -28.9284  -18.7331   19.8407 C   0  0  0  0  0  0
  -28.4598  -20.0692   19.6353 C   0  0  0  0  0  0
  -30.4034  -19.5702   21.5376 C   0  0  0  0  0  0
  -29.9295  -18.4420   20.8005 C   0  0  0  0  0  0
  -28.9554  -21.2009   20.3491 C   0  0  0  0  0  0
  -29.9423  -20.9046   21.3287 C   0  0  0  0  0  0
  -28.7847  -23.7042   20.3542 C   0  0  0  0  0  0
  -30.6493  -17.0769   20.9306 C   0  0  0  0  0  0
  -27.9100  -24.9465   19.9247 C   0  0  0  0  0  0
  -28.3911  -22.4952   20.0474 N   0  0  0  0  0  0
  -30.0474  -15.8510   20.7211 N   0  0  0  0  0  0
  -31.8326  -17.1578   21.2831 O   0  0  0  0  0  0
  -30.4673  -21.8998   22.0831 F   0  0  0  0  0  0
  -31.4533  -12.4879   19.1504 H   0  0  0  0  0  0
  -30.3178  -11.4368   19.9426 H   0  0  0  0  0  0
  -29.7604  -11.7222   17.4994 H   0  0  0  0  0  0
  -29.6353  -13.4507   17.7171 H   0  0  0  0  0  0
  -27.8652  -11.2881   18.8982 H   0  0  0  0  0  0
  -27.3633  -12.5417   17.7955 H   0  0  0  0  0  0
  -27.6333  -14.2575   19.4670 H   0  0  0  0  0  0
  -28.7089  -12.1849   21.4393 H   0  0  0  0  0  0
  -28.4418  -13.8799   21.7743 H   0  0  0  0  0  0
  -25.2766   -9.5687   22.4762 H   0  0  0  0  0  0
  -24.0007   -7.4640   22.7479 H   0  0  0  0  0  0
  -21.0857   -8.8770   19.8948 H   0  0  0  0  0  0
  -22.3708  -10.9672   19.6164 H   0  0  0  0  0  0
  -21.1997   -7.6146   23.9709 H   0  0  0  0  0  0
  -21.1489   -6.0527   25.9074 H   0  0  0  0  0  0
  -22.0594   -2.7612   23.2841 H   0  0  0  0  0  0
  -22.4091  -11.9861   22.4795 H   0  0  0  0  0  0
  -21.1074  -13.1208   22.2624 H   0  0  0  0  0  0
  -24.6480  -15.8453   20.5256 H   0  0  0  0  0  0
  -26.2617  -15.6369   20.0765 H   0  0  0  0  0  0
  -26.7212  -32.5430   23.1133 H   0  0  0  0  0  0
  -25.0135  -33.9740   25.0468 H   0  0  0  0  0  0
  -22.7176  -31.3142   21.4154 H   0  0  0  0  0  0
  -23.3757  -35.9602   23.3302 H   0  0  0  0  0  0
  -24.3577  -36.8909   22.2056 H   0  0  0  0  0  0
  -23.7233  -37.6477   23.6665 H   0  0  0  0  0  0
  -26.1131  -31.5486   20.6236 H   0  0  0  0  0  0
  -26.8467  -30.8213   22.0217 H   0  0  0  0  0  0
  -28.1047  -28.9284   21.2268 H   0  0  0  0  0  0
  -25.9064  -25.9924   18.9095 H   0  0  0  0  0  0
  -23.9570  -27.3719   18.9633 H   0  0  0  0  0  0
  -23.7604  -30.6261   19.4150 H   0  0  0  0  0  0
  -22.7532  -29.2795   19.8534 H   0  0  0  0  0  0
  -25.1294  -36.1926   25.0819 H   0  0  0  0  0  0
  -20.9989  -28.3285   24.1392 H   0  0  0  0  0  0
  -20.5703  -26.2313   23.3606 H   0  0  0  0  0  0
  -21.6646  -26.7464   22.1185 H   0  0  0  0  0  0
  -19.6915  -25.6298   21.1249 H   0  0  0  0  0  0
  -19.6684  -27.3194   20.6739 H   0  0  0  0  0  0
  -17.4200  -26.6692   21.4025 H   0  0  0  0  0  0
  -18.0324  -26.0070   22.9017 H   0  0  0  0  0  0
  -19.7942  -30.7290   24.2249 H   0  0  0  0  0  0
  -17.5019  -31.6274   24.5176 H   0  0  0  0  0  0
  -15.5355  -30.2993   23.7674 H   0  0  0  0  0  0
  -15.8674  -28.0829   22.7086 H   0  0  0  0  0  0
  -24.5948  -30.7028   25.7806 H   0  0  0  0  0  0
  -24.8881  -32.2874   26.4869 H   0  0  0  0  0  0
  -25.8061  -30.8939   27.0276 H   0  0  0  0  0  0
  -26.2991  -29.6742   24.1259 H   0  0  0  0  0  0
  -27.4080  -29.7297   25.4766 H   0  0  0  0  0  0
  -27.8854  -30.4313   23.9499 H   0  0  0  0  0  0
  -27.2704  -33.3671   26.2053 H   0  0  0  0  0  0
  -28.3906  -32.6852   25.0360 H   0  0  0  0  0  0
  -28.0712  -31.8493   26.5485 H   0  0  0  0  0  0
  -28.2586  -38.0100   24.7538 H   0  0  0  0  0  0
  -28.1082  -36.2635   24.6269 H   0  0  0  0  0  0
  -27.2292  -37.1420   25.8869 H   0  0  0  0  0  0
  -20.9373  -29.8787   21.6885 H   0  0  0  0  0  0
  -26.0159  -38.2847   24.1435 H   0  0  0  0  0  0
  -28.5404  -17.9385   19.2185 H   0  0  0  0  0  0
  -27.7018  -20.2278   18.8808 H   0  0  0  0  0  0
  -31.1832  -19.4243   22.2709 H   0  0  0  0  0  0
  -29.6997  -23.9269   20.9085 H   0  0  0  0  0  0
  -26.9490  -24.7508   20.4031 H   0  0  0  0  0  0
  -27.7549  -24.8473   18.8499 H   0  0  0  0  0  0
  -29.0427  -15.8400   20.6856 H   0  0  0  0  0  0
  1 25  1  0  0  0
  1 30  2  0  0  0
  1 81  1  0  0  0
  2  3  1  0  0  0
  2 25  1  0  0  0
  2 84  1  0  0  0
  2 85  1  0  0  0
  3  4  1  0  0  0
  3 86  1  0  0  0
  3 87  1  0  0  0
  4  5  1  0  0  0
  4 88  1  0  0  0
  4 89  1  0  0  0
  5  6  1  0  0  0
  5 26  1  0  0  0
  5 90  1  0  0  0
  6 25  1  0  0  0
  6 91  1  0  0  0
  6 92  1  0  0  0
  7  8  2  0  0  0
  7 26  1  0  0  0
  7 29  1  0  0  0
  8  9  1  0  0  0
  8 22  1  0  0  0
  9 10  1  0  0  0
  9 27  2  0  0  0
 10 11  2  0  0  0
 10 15  1  0  0  0
 11 12  1  0  0  0
 11 93  1  0  0  0
 12 13  2  0  0  0
 12 94  1  0  0  0
 13 14  1  0  0  0
 13 31  1  0  0  0
 14 15  2  0  0  0
 14 95  1  0  0  0
 15 96  1  0  0  0
 16 17  2  0  0  0
 16 21  1  0  0  0
 16 31  1  0  0  0
 17 18  1  0  0  0
 17 97  1  0  0  0
 18 19  2  0  0  0
 18 98  1  0  0  0
 19 20  1  0  0  0
 19 24  1  0  0  0
 20 21  2  0  0  0
 20 99  1  0  0  0
 21 23  1  0  0  0
 22 28  1  0  0  0
 22 32  2  0  0  0
 26 27  1  0  0  0
 28100  1  0  0  0
 28101  1  0  0  0
 29102  1  0  0  0
 29103  1  0  0  0
 33 34  1  0  0  0
 33 66  1  0  0  0
 33 70  2  0  0  0
 34 36  1  0  0  0
 34 59  1  0  0  0
 34104  1  0  0  0
 35 44  2  0  0  0
 35 45  1  0  0  0
 35 68  1  0  0  0
 36 56  1  0  0  0
 36105  1  0  0  0
 37 39  1  0  0  0
 37 47  1  0  0  0
 37 66  1  0  0  0
 37106  1  0  0  0
 38 43  2  0  0  0
 38 46  1  0  0  0
 38 47  1  0  0  0
 39 64  1  0  0  0
 39 67  2  0  0  0
 40 52  1  0  0  0
 40 53  2  0  0  0
 40 58  1  0  0  0
 41107  1  0  0  0
 41108  1  0  0  0
 41109  1  0  0  0
 41 48  1  0  0  0
 42 43  1  0  0  0
 42 66  1  0  0  0
 42110  1  0  0  0
 42111  1  0  0  0
 43 44  1  0  0  0
 44112  1  0  0  0
 45 46  2  0  0  0
 45113  1  0  0  0
 46114  1  0  0  0
 47115  1  0  0  0
 47116  1  0  0  0
 48 56  1  0  0  0
 48 65  1  0  0  0
 48117  1  0  0  0
 49 50  1  0  0  0
 49 53  1  0  0  0
 49 64  1  0  0  0
 49118  1  0  0  0
 50 51  1  0  0  0
 50119  1  0  0  0
 50120  1  0  0  0
 51 52  1  0  0  0
 51121  1  0  0  0
 51122  1  0  0  0
 52123  1  0  0  0
 52124  1  0  0  0
 53 54  1  0  0  0
 54 55  2  0  0  0
 54125  1  0  0  0
 55 57  1  0  0  0
 55126  1  0  0  0
 56 69  2  0  0  0
 57 58  2  0  0  0
 57127  1  0  0  0
 58128  1  0  0  0
 59 60  1  0  0  0
 59 61  1  0  0  0
 59 62  1  0  0  0
 60129  1  0  0  0
 60130  1  0  0  0
 60131  1  0  0  0
 61132  1  0  0  0
 61133  1  0  0  0
 61134  1  0  0  0
 62135  1  0  0  0
 62136  1  0  0  0
 62137  1  0  0  0
 63 65  1  0  0  0
 63138  1  0  0  0
 63139  1  0  0  0
 63140  1  0  0  0
 64141  1  0  0  0
 65142  1  0  0  0
 68 79  1  0  0  0
 71 72  2  0  0  0
 71 74  1  0  0  0
 71143  1  0  0  0
 72 75  1  0  0  0
 72144  1  0  0  0
 73 74  2  0  0  0
 73 76  1  0  0  0
 73145  1  0  0  0
 74 78  1  0  0  0
 75 76  2  0  0  0
 75 80  1  0  0  0
 76 83  1  0  0  0
 77 79  1  0  0  0
 77 80  2  0  0  0
 77146  1  0  0  0
 78 81  1  0  0  0
 78 82  2  0  0  0
 79147  1  0  0  0
 79148  1  0  0  0
 81149  1  0  0  0
M  ISO  4   1 100  68 101  79 101  81 100
M  END
> <chiral flag>
0

> <version>
0

> <s_m_source_file>
/data/baiqing/PycharmProjects/Reinvent-master-3.2/result/LINK_invent/BTK/process_docking_weight1_custom_product_contain_oxygen_bond_distance_aromatic_linkinvent_7_9_3/rearranged_h_0085.sdf

> <i_m_source_file_index>
16

> <r_mmod_Potential_Energy-OPLS-2005>
66.1436920166016

> <r_mmod_Stretch_Energy-OPLS-2005>
89.3368148803711

> <r_mmod_Bend_Energy-OPLS-2005>
177.476287841797

> <r_mmod_Torsional_Energy-OPLS-2005>
221.331588745117

> <r_mmod_Improper_Torsional_Energy-OPLS-2005>
6.32099151611328

> <r_mmod_Van_der_Waal_Energy-OPLS-2005>
167.230346679688

> <r_mmod_Electrostatic_Energy-OPLS-2005>
-439.211791992188

> <r_mmod_Solvation_Energy-OPLS-2005>
-225.804336547852

> <b_mmod_Minimization_Converged-OPLS-2005>
0

> <r_mmod_RMS_Derivative-OPLS-2005>
0.856771349906921

$$$$
16
                    3D
 Structure written by MMmdl.
156165  0  0  1  0            999 V2000
  -30.6005  -14.8010   20.3864 C   0  0  0  0  0  0
  -30.4491  -12.4814   19.4515 C   0  0  0  0  0  0
  -29.5242  -12.5022   18.2195 C   0  0  0  0  0  0
  -28.0498  -12.3301   18.6469 C   0  0  0  0  0  0
  -27.6537  -13.2325   19.8494 C   0  0  2  0  0  0
  -28.7099  -13.1705   20.9756 C   0  0  0  0  0  0
  -25.2652  -13.8179   20.5735 C   0  0  0  0  0  0
  -24.1906  -13.0435   20.9253 C   0  0  0  0  0  0
  -24.6504  -11.6898   20.8835 C   0  0  0  0  0  0
  -23.9155  -10.4300   21.0435 C   0  0  0  0  0  0
  -24.3671   -9.4187   21.9179 C   0  0  0  0  0  0
  -23.6361   -8.2217   22.0733 C   0  0  0  0  0  0
  -22.4338   -8.0309   21.3522 C   0  0  0  0  0  0
  -21.9994   -9.0289   20.4619 C   0  0  0  0  0  0
  -22.7327  -10.2159   20.3071 C   0  0  0  0  0  0
  -21.6840   -6.0770   22.5277 C   0  0  0  0  0  0
  -21.3991   -6.5659   23.8226 C   0  0  0  0  0  0
  -21.3663   -5.6818   24.9192 C   0  0  0  0  0  0
  -21.6069   -4.3087   24.7233 C   0  0  0  0  0  0
  -21.8837   -3.8188   23.4344 C   0  0  0  0  0  0
  -21.9202   -4.7009   22.3400 C   0  0  0  0  0  0
  -22.7908  -13.5163   21.1951 C   0  0  0  0  0  0
  -22.1686   -4.2210   21.0992 F   0  0  0  0  0  0
  -21.5649   -3.4553   25.7747 F   0  0  0  0  0  0
  -29.9952  -13.5555   20.3730 N   0  0  0  0  0  0
  -26.3095  -12.9374   20.3316 N   0  0  0  0  0  0
  -25.9452  -11.6503   20.5767 N   0  0  0  0  0  0
  -22.0603  -12.8066   22.0479 N   0  0  0  0  0  0
  -25.4361  -15.1898   20.4105 N   0  0  0  0  0  0
  -31.8091  -14.8643   20.1441 O   0  0  0  0  0  0
  -21.6674   -6.8908   21.4219 O   0  0  0  0  0  0
  -22.3559  -14.5440   20.6823 O   0  0  0  0  0  0
  -24.6432  -31.8488   23.1972 C   0  0  0  0  0  0
  -25.9243  -32.4726   23.8296 C   0  0  1  0  0  0
  -27.1969  -27.1740   20.1827 C   0  0  0  0  0  0
  -25.5994  -33.8515   24.2210 N   0  0  0  0  0  0
  -23.4363  -30.4738   21.5390 C   0  0  2  0  0  0
  -24.8840  -28.9059   20.1186 C   0  0  0  0  0  0
  -22.7571  -29.4548   22.4908 C   0  0  0  0  0  0
  -18.0330  -28.1291   22.8466 C   0  0  0  0  0  0
  -24.1486  -36.7255   23.2641 C   0  0  0  0  0  0
  -25.9922  -30.7330   21.3937 C   0  0  0  0  0  0
  -26.0586  -29.3442   20.7516 C   0  0  0  0  0  0
  -27.2234  -28.4946   20.7678 C   0  0  0  0  0  0
  -26.0014  -26.8111   19.5352 C   0  0  0  0  0  0
  -24.8660  -27.6472   19.4988 C   0  0  0  0  0  0
  -23.6614  -29.8076   20.1545 C   0  0  0  0  0  0
  -25.4139  -36.3025   24.0293 C   0  0  1  0  0  0
  -20.5986  -28.3702   23.1349 C   0  0  2  0  0  0
  -20.6879  -26.9469   22.5479 C   0  0  0  0  0  0
  -19.5850  -26.6370   21.5316 C   0  0  0  0  0  0
  -18.1983  -26.7874   22.1614 C   0  0  0  0  0  0
  -19.1583  -28.8796   23.2829 C   0  0  0  0  0  0
  -18.9433  -30.1426   23.8773 C   0  0  0  0  0  0
  -17.6421  -30.6532   24.0418 C   0  0  0  0  0  0
  -25.9118  -34.9400   23.5059 C   0  0  0  0  0  0
  -16.5338  -29.9033   23.6180 C   0  0  0  0  0  0
  -16.7321  -28.6421   23.0272 C   0  0  0  0  0  0
  -26.4513  -31.6584   25.0733 C   0  0  0  0  0  0
  -25.3657  -31.3813   26.1429 C   0  0  0  0  0  0
  -27.0421  -30.2979   24.6329 C   0  0  0  0  0  0
  -27.6054  -32.4333   25.7521 C   0  0  0  0  0  0
  -27.5562  -37.1799   24.8460 C   0  0  0  0  0  0
  -21.4264  -29.3054   22.3695 N   0  0  0  0  0  0
  -26.4273  -37.3740   23.9399 N   0  0  0  0  0  0
  -24.7082  -31.0396   22.0960 N   0  0  0  0  0  0
  -23.4207  -28.8091   23.3051 O   0  0  0  0  0  0
  -28.2487  -26.2197   20.0759 O   0  0  0  0  0  0
  -26.5678  -34.8864   22.4622 O   0  0  0  0  0  0
  -23.5584  -32.1353   23.7256 O   0  0  0  0  0  0
  -30.5562  -20.0975   19.0975 C   0  0  0  0  0  0
  -29.2937  -18.5751   20.5084 C   0  0  0  0  0  0
  -30.9982  -17.6673   19.0309 C   0  0  0  0  0  0
  -29.5076  -19.9665   20.0444 C   0  0  0  0  0  0
  -31.2791  -18.9859   18.5973 C   0  0  0  0  0  0
  -30.0367  -17.3934   20.0382 C   0  0  0  0  0  0
  -26.8043  -23.2353   21.1168 C   0  0  0  0  0  0
  -27.3535  -20.9023   20.7819 C   0  0  0  0  0  0
  -28.0173  -23.6992   20.7285 C   0  0  0  0  0  0
  -26.4344  -21.8325   21.1155 C   0  0  0  0  0  0
  -29.0494  -22.6029   20.3567 C   0  0  0  0  0  0
  -28.6854  -21.2077   20.4145 N   0  0  0  0  0  0
  -32.2940  -19.2049   17.6614 N   0  0  0  0  0  0
  -29.8060  -15.9605   20.4678 N   0  0  0  0  0  0
  -28.3148  -25.0924   21.1026 N   0  0  0  0  0  0
  -30.1925  -22.9452   20.0318 O   0  0  0  0  0  0
  -25.1971  -21.4815   21.5001 O   0  0  0  0  0  0
  -31.4813  -12.6283   19.1291 H   0  0  0  0  0  0
  -30.4282  -11.5023   19.9433 H   0  0  0  0  0  0
  -29.8084  -11.7165   17.5139 H   0  0  0  0  0  0
  -29.6614  -13.4426   17.6853 H   0  0  0  0  0  0
  -27.8972  -11.2782   18.9007 H   0  0  0  0  0  0
  -27.3899  -12.5339   17.8019 H   0  0  0  0  0  0
  -27.6455  -14.2568   19.4749 H   0  0  0  0  0  0
  -28.7800  -12.1635   21.3947 H   0  0  0  0  0  0
  -28.4632  -13.8297   21.8062 H   0  0  0  0  0  0
  -25.2809   -9.5657   22.4725 H   0  0  0  0  0  0
  -24.0094   -7.4585   22.7408 H   0  0  0  0  0  0
  -21.0929   -8.8791   19.8908 H   0  0  0  0  0  0
  -22.3772  -10.9706   19.6195 H   0  0  0  0  0  0
  -21.1963   -7.6170   23.9696 H   0  0  0  0  0  0
  -21.1452   -6.0569   25.9052 H   0  0  0  0  0  0
  -22.0612   -2.7664   23.2835 H   0  0  0  0  0  0
  -22.4242  -11.9665   22.4735 H   0  0  0  0  0  0
  -21.1194  -13.0926   22.2744 H   0  0  0  0  0  0
  -24.6693  -15.8464   20.5251 H   0  0  0  0  0  0
  -26.2581  -15.6181   20.0085 H   0  0  0  0  0  0
  -26.7288  -32.5326   23.1008 H   0  0  0  0  0  0
  -25.0044  -33.9525   25.0295 H   0  0  0  0  0  0
  -22.7399  -31.3019   21.3877 H   0  0  0  0  0  0
  -23.3724  -35.9605   23.3334 H   0  0  0  0  0  0
  -24.3577  -36.8865   22.2042 H   0  0  0  0  0  0
  -23.7234  -37.6454   23.6681 H   0  0  0  0  0  0
  -26.1566  -31.4749   20.6120 H   0  0  0  0  0  0
  -26.8622  -30.7880   22.0358 H   0  0  0  0  0  0
  -28.1325  -28.8260   21.2486 H   0  0  0  0  0  0
  -25.9433  -25.8419   19.0627 H   0  0  0  0  0  0
  -23.9677  -27.3037   18.9966 H   0  0  0  0  0  0
  -23.8063  -30.5746   19.3915 H   0  0  0  0  0  0
  -22.7790  -29.2396   19.8510 H   0  0  0  0  0  0
  -25.1332  -36.1861   25.0768 H   0  0  0  0  0  0
  -21.0079  -28.3347   24.1488 H   0  0  0  0  0  0
  -20.5876  -26.2332   23.3620 H   0  0  0  0  0  0
  -21.6686  -26.7486   22.1196 H   0  0  0  0  0  0
  -19.7024  -25.6283   21.1333 H   0  0  0  0  0  0
  -19.6811  -27.3118   20.6780 H   0  0  0  0  0  0
  -17.4349  -26.6679   21.3926 H   0  0  0  0  0  0
  -18.0321  -25.9948   22.8950 H   0  0  0  0  0  0
  -19.7891  -30.7259   24.2136 H   0  0  0  0  0  0
  -17.4972  -31.6170   24.5080 H   0  0  0  0  0  0
  -15.5302  -30.2847   23.7538 H   0  0  0  0  0  0
  -15.8724  -28.0745   22.6982 H   0  0  0  0  0  0
  -24.5791  -30.7229   25.7708 H   0  0  0  0  0  0
  -24.8887  -32.3038   26.4770 H   0  0  0  0  0  0
  -25.7867  -30.8973   27.0283 H   0  0  0  0  0  0
  -26.3085  -29.6700   24.1251 H   0  0  0  0  0  0
  -27.3986  -29.7262   25.4935 H   0  0  0  0  0  0
  -27.9015  -30.4240   23.9733 H   0  0  0  0  0  0
  -27.2656  -33.3651   26.2092 H   0  0  0  0  0  0
  -28.3881  -32.6910   25.0353 H   0  0  0  0  0  0
  -28.0756  -31.8487   26.5453 H   0  0  0  0  0  0
  -28.2620  -38.0055   24.7506 H   0  0  0  0  0  0
  -28.1013  -36.2604   24.6331 H   0  0  0  0  0  0
  -27.2296  -37.1513   25.8858 H   0  0  0  0  0  0
  -20.9471  -29.8746   21.6846 H   0  0  0  0  0  0
  -26.0167  -38.2820   24.1357 H   0  0  0  0  0  0
  -30.8108  -21.0681   18.6963 H   0  0  0  0  0  0
  -28.5437  -18.4014   21.2635 H   0  0  0  0  0  0
  -31.5418  -16.8534   18.5770 H   0  0  0  0  0  0
  -26.0888  -23.9226   21.5572 H   0  0  0  0  0  0
  -27.1003  -19.8519   20.7533 H   0  0  0  0  0  0
  -32.3761  -20.1111   17.2014 H   0  0  0  0  0  0
  -32.6395  -18.4440   17.0881 H   0  0  0  0  0  0
  -28.8619  -15.7502   20.7418 H   0  0  0  0  0  0
  -27.7489  -25.4057   21.8815 H   0  0  0  0  0  0
  -25.1504  -20.5357   21.5916 H   0  0  0  0  0  0
  1 25  1  0  0  0
  1 30  2  0  0  0
  1 84  1  0  0  0
  2  3  1  0  0  0
  2 25  1  0  0  0
  2 88  1  0  0  0
  2 89  1  0  0  0
  3  4  1  0  0  0
  3 90  1  0  0  0
  3 91  1  0  0  0
  4  5  1  0  0  0
  4 92  1  0  0  0
  4 93  1  0  0  0
  5  6  1  0  0  0
  5 26  1  0  0  0
  5 94  1  0  0  0
  6 25  1  0  0  0
  6 95  1  0  0  0
  6 96  1  0  0  0
  7  8  2  0  0  0
  7 26  1  0  0  0
  7 29  1  0  0  0
  8  9  1  0  0  0
  8 22  1  0  0  0
  9 10  1  0  0  0
  9 27  2  0  0  0
 10 11  2  0  0  0
 10 15  1  0  0  0
 11 12  1  0  0  0
 11 97  1  0  0  0
 12 13  2  0  0  0
 12 98  1  0  0  0
 13 14  1  0  0  0
 13 31  1  0  0  0
 14 15  2  0  0  0
 14 99  1  0  0  0
 15100  1  0  0  0
 16 17  2  0  0  0
 16 21  1  0  0  0
 16 31  1  0  0  0
 17 18  1  0  0  0
 17101  1  0  0  0
 18 19  2  0  0  0
 18102  1  0  0  0
 19 20  1  0  0  0
 19 24  1  0  0  0
 20 21  2  0  0  0
 20103  1  0  0  0
 21 23  1  0  0  0
 22 28  1  0  0  0
 22 32  2  0  0  0
 26 27  1  0  0  0
 28104  1  0  0  0
 28105  1  0  0  0
 29106  1  0  0  0
 29107  1  0  0  0
 33 34  1  0  0  0
 33 66  1  0  0  0
 33 70  2  0  0  0
 34 36  1  0  0  0
 34 59  1  0  0  0
 34108  1  0  0  0
 35 44  2  0  0  0
 35 45  1  0  0  0
 35 68  1  0  0  0
 36 56  1  0  0  0
 36109  1  0  0  0
 37 39  1  0  0  0
 37 47  1  0  0  0
 37 66  1  0  0  0
 37110  1  0  0  0
 38 43  2  0  0  0
 38 46  1  0  0  0
 38 47  1  0  0  0
 39 64  1  0  0  0
 39 67  2  0  0  0
 40 52  1  0  0  0
 40 53  2  0  0  0
 40 58  1  0  0  0
 41111  1  0  0  0
 41112  1  0  0  0
 41113  1  0  0  0
 41 48  1  0  0  0
 42 43  1  0  0  0
 42 66  1  0  0  0
 42114  1  0  0  0
 42115  1  0  0  0
 43 44  1  0  0  0
 44116  1  0  0  0
 45 46  2  0  0  0
 45117  1  0  0  0
 46118  1  0  0  0
 47119  1  0  0  0
 47120  1  0  0  0
 48 56  1  0  0  0
 48 65  1  0  0  0
 48121  1  0  0  0
 49 50  1  0  0  0
 49 53  1  0  0  0
 49 64  1  0  0  0
 49122  1  0  0  0
 50 51  1  0  0  0
 50123  1  0  0  0
 50124  1  0  0  0
 51 52  1  0  0  0
 51125  1  0  0  0
 51126  1  0  0  0
 52127  1  0  0  0
 52128  1  0  0  0
 53 54  1  0  0  0
 54 55  2  0  0  0
 54129  1  0  0  0
 55 57  1  0  0  0
 55130  1  0  0  0
 56 69  2  0  0  0
 57 58  2  0  0  0
 57131  1  0  0  0
 58132  1  0  0  0
 59 60  1  0  0  0
 59 61  1  0  0  0
 59 62  1  0  0  0
 60133  1  0  0  0
 60134  1  0  0  0
 60135  1  0  0  0
 61136  1  0  0  0
 61137  1  0  0  0
 61138  1  0  0  0
 62139  1  0  0  0
 62140  1  0  0  0
 62141  1  0  0  0
 63 65  1  0  0  0
 63142  1  0  0  0
 63143  1  0  0  0
 63144  1  0  0  0
 64145  1  0  0  0
 65146  1  0  0  0
 68 85  1  0  0  0
 71 74  2  0  0  0
 71 75  1  0  0  0
 71147  1  0  0  0
 72 74  1  0  0  0
 72 76  2  0  0  0
 72148  1  0  0  0
 73 75  2  0  0  0
 73 76  1  0  0  0
 73149  1  0  0  0
 74 82  1  0  0  0
 75 83  1  0  0  0
 76 84  1  0  0  0
 77 79  2  0  0  0
 77 80  1  0  0  0
 77150  1  0  0  0
 78 80  2  0  0  0
 78 82  1  0  0  0
 78151  1  0  0  0
 79 81  1  0  0  0
 79 85  1  0  0  0
 80 87  1  0  0  0
 81 82  1  0  0  0
 81 86  2  0  0  0
 83152  1  0  0  0
 83153  1  0  0  0
 84154  1  0  0  0
 85155  1  0  0  0
 87156  1  0  0  0
M  ISO  4   1 100  68 101  84 100  85 101
M  END
> <chiral flag>
0

> <version>
0

> <s_m_source_file>
/data/baiqing/PycharmProjects/Reinvent-master-3.2/result/LINK_invent/BTK/process_docking_weight1_custom_product_contain_oxygen_bond_distance_aromatic_linkinvent_7_9_3/rearranged_h_0085.sdf

> <i_m_source_file_index>
17

> <r_mmod_Potential_Energy-OPLS-2005>
450.232788085938

> <r_mmod_Stretch_Energy-OPLS-2005>
209.415771484375

> <r_mmod_Bend_Energy-OPLS-2005>
227.275421142578

> <r_mmod_Torsional_Energy-OPLS-2005>
267.948272705078

> <r_mmod_Improper_Torsional_Energy-OPLS-2005>
14.6274538040161

> <r_mmod_Van_der_Waal_Energy-OPLS-2005>
155.280380249023

> <r_mmod_Electrostatic_Energy-OPLS-2005>
-286.059020996094

> <r_mmod_Solvation_Energy-OPLS-2005>
-264.743347167969

> <b_mmod_Minimization_Converged-OPLS-2005>
0

> <r_mmod_RMS_Derivative-OPLS-2005>
11.9534769058228

$$$$
17
                    3D
 Structure written by MMmdl.
150159  0  0  1  0            999 V2000
  -30.5812  -14.8839   20.4356 C   0  0  0  0  0  0
  -30.4336  -12.5472   19.4879 C   0  0  0  0  0  0
  -29.5143  -12.5187   18.2467 C   0  0  0  0  0  0
  -28.0459  -12.3181   18.6661 C   0  0  0  0  0  0
  -27.6310  -13.2453   19.8391 C   0  0  2  0  0  0
  -28.6761  -13.2557   20.9749 C   0  0  0  0  0  0
  -25.2466  -13.8216   20.5712 C   0  0  0  0  0  0
  -24.1780  -13.0440   20.9227 C   0  0  0  0  0  0
  -24.6394  -11.6925   20.8757 C   0  0  0  0  0  0
  -23.9078  -10.4294   21.0409 C   0  0  0  0  0  0
  -24.3626   -9.4207   21.9185 C   0  0  0  0  0  0
  -23.6298   -8.2244   22.0754 C   0  0  0  0  0  0
  -22.4280   -8.0282   21.3545 C   0  0  0  0  0  0
  -21.9919   -9.0257   20.4646 C   0  0  0  0  0  0
  -22.7250  -10.2135   20.3057 C   0  0  0  0  0  0
  -21.6855   -6.0736   22.5279 C   0  0  0  0  0  0
  -21.4016   -6.5640   23.8212 C   0  0  0  0  0  0
  -21.3660   -5.6793   24.9174 C   0  0  0  0  0  0
  -21.6044   -4.3056   24.7225 C   0  0  0  0  0  0
  -21.8819   -3.8147   23.4346 C   0  0  0  0  0  0
  -21.9194   -4.6964   22.3402 C   0  0  0  0  0  0
  -22.7799  -13.5210   21.1881 C   0  0  0  0  0  0
  -22.1662   -4.2149   21.0980 F   0  0  0  0  0  0
  -21.5628   -3.4539   25.7737 F   0  0  0  0  0  0
  -29.9572  -13.6444   20.3736 N   0  0  0  0  0  0
  -26.2892  -12.9446   20.3255 N   0  0  0  0  0  0
  -25.9326  -11.6576   20.5748 N   0  0  0  0  0  0
  -22.0452  -12.8196   22.0437 N   0  0  0  0  0  0
  -25.4118  -15.1947   20.4133 N   0  0  0  0  0  0
  -31.7866  -14.9199   20.1698 O   0  0  0  0  0  0
  -21.6643   -6.8880   21.4241 O   0  0  0  0  0  0
  -22.3480  -14.5513   20.6725 O   0  0  0  0  0  0
  -24.6401  -31.8475   23.1918 C   0  0  0  0  0  0
  -25.9187  -32.4714   23.8295 C   0  0  1  0  0  0
  -27.2151  -27.1728   20.1491 C   0  0  0  0  0  0
  -25.5948  -33.8519   24.2211 N   0  0  0  0  0  0
  -23.4425  -30.4679   21.5363 C   0  0  2  0  0  0
  -24.8933  -28.9016   20.1103 C   0  0  0  0  0  0
  -22.7553  -29.4562   22.4871 C   0  0  0  0  0  0
  -18.0302  -28.1394   22.8478 C   0  0  0  0  0  0
  -24.1491  -36.7265   23.2642 C   0  0  0  0  0  0
  -25.9963  -30.7316   21.3876 C   0  0  0  0  0  0
  -26.0690  -29.3456   20.7311 C   0  0  0  0  0  0
  -27.2343  -28.4948   20.7389 C   0  0  0  0  0  0
  -26.0200  -26.8255   19.4843 C   0  0  0  0  0  0
  -24.8786  -27.6526   19.4725 C   0  0  0  0  0  0
  -23.6681  -29.7995   20.1546 C   0  0  0  0  0  0
  -25.4122  -36.3044   24.0319 C   0  0  1  0  0  0
  -20.5913  -28.3717   23.1242 C   0  0  2  0  0  0
  -20.6787  -26.9423   22.5404 C   0  0  0  0  0  0
  -19.5761  -26.6382   21.5212 C   0  0  0  0  0  0
  -18.1942  -26.7933   22.1623 C   0  0  0  0  0  0
  -19.1558  -28.8873   23.2853 C   0  0  0  0  0  0
  -18.9475  -30.1470   23.8878 C   0  0  0  0  0  0
  -17.6472  -30.6591   24.0560 C   0  0  0  0  0  0
  -25.9069  -34.9418   23.5072 C   0  0  0  0  0  0
  -16.5363  -29.9084   23.6335 C   0  0  0  0  0  0
  -16.7287  -28.6503   23.0356 C   0  0  0  0  0  0
  -26.4521  -31.6571   25.0722 C   0  0  0  0  0  0
  -25.3712  -31.3747   26.1420 C   0  0  0  0  0  0
  -27.0388  -30.2972   24.6284 C   0  0  0  0  0  0
  -27.6052  -32.4335   25.7508 C   0  0  0  0  0  0
  -27.5576  -37.1789   24.8465 C   0  0  0  0  0  0
  -21.4249  -29.3048   22.3618 N   0  0  0  0  0  0
  -26.4289  -37.3753   23.9407 N   0  0  0  0  0  0
  -24.7124  -31.0359   22.0939 N   0  0  0  0  0  0
  -23.4210  -28.8106   23.3008 O   0  0  0  0  0  0
  -28.2445  -26.1747   20.1870 O   0  0  0  0  0  0
  -26.5651  -34.8908   22.4648 O   0  0  0  0  0  0
  -23.5527  -32.1337   23.7156 O   0  0  0  0  0  0
  -31.9721  -19.1735   21.1764 C   0  0  0  0  0  0
  -31.1410  -20.2748   20.8958 C   0  0  0  0  0  0
  -31.5249  -17.8480   21.0492 C   0  0  0  0  0  0
  -29.7912  -20.1713   20.4815 C   0  0  0  0  0  0
  -30.2105  -17.5483   20.6358 C   0  0  0  0  0  0
  -29.3615  -18.7451   20.3825 C   0  0  0  0  0  0
  -28.4314  -23.5150   20.4495 C   0  0  0  0  0  0
  -29.5860  -22.8509   19.8303 C   0  0  0  0  0  0
  -27.8974  -24.8215   20.5939 C   0  0  0  0  0  0
  -28.0171  -22.0981   20.9862 C   0  0  0  0  0  0
  -29.1332  -21.5213   20.1896 N   0  0  0  0  0  0
  -29.8214  -16.0752   20.5475 N   0  0  0  0  0  0
  -30.5869  -23.3241   19.3328 O   0  0  0  0  0  0
  -28.0832  -18.5132   19.9977 F   0  0  0  0  0  0
  -31.4702  -12.6868   19.1772 H   0  0  0  0  0  0
  -30.4072  -11.5910   20.0130 H   0  0  0  0  0  0
  -29.8213  -11.7244   17.5650 H   0  0  0  0  0  0
  -29.6143  -13.4540   17.6936 H   0  0  0  0  0  0
  -27.9311  -11.2753   18.9639 H   0  0  0  0  0  0
  -27.3832  -12.4648   17.8123 H   0  0  0  0  0  0
  -27.5997  -14.2511   19.4196 H   0  0  0  0  0  0
  -28.7486  -12.2780   21.4533 H   0  0  0  0  0  0
  -28.3890  -13.9625   21.7552 H   0  0  0  0  0  0
  -25.2769   -9.5684   22.4763 H   0  0  0  0  0  0
  -24.0006   -7.4635   22.7474 H   0  0  0  0  0  0
  -21.0850   -8.8778   19.8952 H   0  0  0  0  0  0
  -22.3708  -10.9675   19.6168 H   0  0  0  0  0  0
  -21.2009   -7.6149   23.9716 H   0  0  0  0  0  0
  -21.1482   -6.0523   25.9077 H   0  0  0  0  0  0
  -22.0598   -2.7610   23.2846 H   0  0  0  0  0  0
  -22.4078  -11.9863   22.4827 H   0  0  0  0  0  0
  -21.1066  -13.1210   22.2641 H   0  0  0  0  0  0
  -24.6395  -15.8423   20.5262 H   0  0  0  0  0  0
  -26.2504  -15.6413   20.0663 H   0  0  0  0  0  0
  -26.7253  -32.5336   23.1028 H   0  0  0  0  0  0
  -25.0076  -33.9641   25.0345 H   0  0  0  0  0  0
  -22.7434  -31.2928   21.3841 H   0  0  0  0  0  0
  -23.3757  -35.9593   23.3295 H   0  0  0  0  0  0
  -24.3576  -36.8903   22.2057 H   0  0  0  0  0  0
  -23.7243  -37.6458   23.6682 H   0  0  0  0  0  0
  -26.1480  -31.4870   20.6154 H   0  0  0  0  0  0
  -26.8683  -30.7819   22.0280 H   0  0  0  0  0  0
  -28.1302  -28.8252   21.2453 H   0  0  0  0  0  0
  -25.9513  -25.8648   18.9940 H   0  0  0  0  0  0
  -23.9821  -27.3085   18.9751 H   0  0  0  0  0  0
  -23.8019  -30.5750   19.3997 H   0  0  0  0  0  0
  -22.7839  -29.2395   19.8445 H   0  0  0  0  0  0
  -25.1309  -36.1877   25.0811 H   0  0  0  0  0  0
  -21.0005  -28.3306   24.1363 H   0  0  0  0  0  0
  -20.5682  -26.2331   23.3621 H   0  0  0  0  0  0
  -21.6654  -26.7433   22.1201 H   0  0  0  0  0  0
  -19.6923  -25.6287   21.1254 H   0  0  0  0  0  0
  -19.6698  -27.3181   20.6732 H   0  0  0  0  0  0
  -17.4211  -26.6677   21.4028 H   0  0  0  0  0  0
  -18.0343  -26.0080   22.9025 H   0  0  0  0  0  0
  -19.7951  -30.7292   24.2239 H   0  0  0  0  0  0
  -17.5025  -31.6269   24.5165 H   0  0  0  0  0  0
  -15.5362  -30.2980   23.7671 H   0  0  0  0  0  0
  -15.8688  -28.0815   22.7082 H   0  0  0  0  0  0
  -24.5905  -30.7079   25.7742 H   0  0  0  0  0  0
  -24.8885  -32.2923   26.4792 H   0  0  0  0  0  0
  -25.8003  -30.8961   27.0232 H   0  0  0  0  0  0
  -26.3003  -29.6697   24.1281 H   0  0  0  0  0  0
  -27.4002  -29.7266   25.4849 H   0  0  0  0  0  0
  -27.8909  -30.4218   23.9598 H   0  0  0  0  0  0
  -27.2641  -33.3647   26.2044 H   0  0  0  0  0  0
  -28.3885  -32.6879   25.0356 H   0  0  0  0  0  0
  -28.0696  -31.8490   26.5460 H   0  0  0  0  0  0
  -28.2589  -38.0091   24.7511 H   0  0  0  0  0  0
  -28.1078  -36.2620   24.6296 H   0  0  0  0  0  0
  -27.2293  -37.1440   25.8868 H   0  0  0  0  0  0
  -20.9454  -29.8763   21.6803 H   0  0  0  0  0  0
  -26.0159  -38.2823   24.1408 H   0  0  0  0  0  0
  -32.9892  -19.3537   21.4962 H   0  0  0  0  0  0
  -31.5834  -21.2540   21.0118 H   0  0  0  0  0  0
  -32.2242  -17.0625   21.2930 H   0  0  0  0  0  0
  -26.9932  -24.8750   21.1840 H   0  0  0  0  0  0
  -27.0522  -21.6980   20.6711 H   0  0  0  0  0  0
  -28.1568  -21.9232   22.0548 H   0  0  0  0  0  0
  -28.8262  -15.9145   20.5639 H   0  0  0  0  0  0
  1 25  1  0  0  0
  1 30  2  0  0  0
  1 82  1  0  0  0
  2  3  1  0  0  0
  2 25  1  0  0  0
  2 85  1  0  0  0
  2 86  1  0  0  0
  3  4  1  0  0  0
  3 87  1  0  0  0
  3 88  1  0  0  0
  4  5  1  0  0  0
  4 89  1  0  0  0
  4 90  1  0  0  0
  5  6  1  0  0  0
  5 26  1  0  0  0
  5 91  1  0  0  0
  6 25  1  0  0  0
  6 92  1  0  0  0
  6 93  1  0  0  0
  7  8  2  0  0  0
  7 26  1  0  0  0
  7 29  1  0  0  0
  8  9  1  0  0  0
  8 22  1  0  0  0
  9 10  1  0  0  0
  9 27  2  0  0  0
 10 11  2  0  0  0
 10 15  1  0  0  0
 11 12  1  0  0  0
 11 94  1  0  0  0
 12 13  2  0  0  0
 12 95  1  0  0  0
 13 14  1  0  0  0
 13 31  1  0  0  0
 14 15  2  0  0  0
 14 96  1  0  0  0
 15 97  1  0  0  0
 16 17  2  0  0  0
 16 21  1  0  0  0
 16 31  1  0  0  0
 17 18  1  0  0  0
 17 98  1  0  0  0
 18 19  2  0  0  0
 18 99  1  0  0  0
 19 20  1  0  0  0
 19 24  1  0  0  0
 20 21  2  0  0  0
 20100  1  0  0  0
 21 23  1  0  0  0
 22 28  1  0  0  0
 22 32  2  0  0  0
 26 27  1  0  0  0
 28101  1  0  0  0
 28102  1  0  0  0
 29103  1  0  0  0
 29104  1  0  0  0
 33 34  1  0  0  0
 33 66  1  0  0  0
 33 70  2  0  0  0
 34 36  1  0  0  0
 34 59  1  0  0  0
 34105  1  0  0  0
 35 44  2  0  0  0
 35 45  1  0  0  0
 35 68  1  0  0  0
 36 56  1  0  0  0
 36106  1  0  0  0
 37 39  1  0  0  0
 37 47  1  0  0  0
 37 66  1  0  0  0
 37107  1  0  0  0
 38 43  2  0  0  0
 38 46  1  0  0  0
 38 47  1  0  0  0
 39 64  1  0  0  0
 39 67  2  0  0  0
 40 52  1  0  0  0
 40 53  2  0  0  0
 40 58  1  0  0  0
 41108  1  0  0  0
 41109  1  0  0  0
 41110  1  0  0  0
 41 48  1  0  0  0
 42 43  1  0  0  0
 42 66  1  0  0  0
 42111  1  0  0  0
 42112  1  0  0  0
 43 44  1  0  0  0
 44113  1  0  0  0
 45 46  2  0  0  0
 45114  1  0  0  0
 46115  1  0  0  0
 47116  1  0  0  0
 47117  1  0  0  0
 48 56  1  0  0  0
 48 65  1  0  0  0
 48118  1  0  0  0
 49 50  1  0  0  0
 49 53  1  0  0  0
 49 64  1  0  0  0
 49119  1  0  0  0
 50 51  1  0  0  0
 50120  1  0  0  0
 50121  1  0  0  0
 51 52  1  0  0  0
 51122  1  0  0  0
 51123  1  0  0  0
 52124  1  0  0  0
 52125  1  0  0  0
 53 54  1  0  0  0
 54 55  2  0  0  0
 54126  1  0  0  0
 55 57  1  0  0  0
 55127  1  0  0  0
 56 69  2  0  0  0
 57 58  2  0  0  0
 57128  1  0  0  0
 58129  1  0  0  0
 59 60  1  0  0  0
 59 61  1  0  0  0
 59 62  1  0  0  0
 60130  1  0  0  0
 60131  1  0  0  0
 60132  1  0  0  0
 61133  1  0  0  0
 61134  1  0  0  0
 61135  1  0  0  0
 62136  1  0  0  0
 62137  1  0  0  0
 62138  1  0  0  0
 63 65  1  0  0  0
 63139  1  0  0  0
 63140  1  0  0  0
 63141  1  0  0  0
 64142  1  0  0  0
 65143  1  0  0  0
 68 79  1  0  0  0
 71 72  2  0  0  0
 71 73  1  0  0  0
 71144  1  0  0  0
 72 74  1  0  0  0
 72145  1  0  0  0
 73 75  2  0  0  0
 73146  1  0  0  0
 74 76  2  0  0  0
 74 81  1  0  0  0
 75 76  1  0  0  0
 75 82  1  0  0  0
 76 84  1  0  0  0
 77 78  1  0  0  0
 77 79  2  0  0  0
 77 80  1  0  0  0
 78 81  1  0  0  0
 78 83  2  0  0  0
 79147  1  0  0  0
 80 81  1  0  0  0
 80148  1  0  0  0
 80149  1  0  0  0
 82150  1  0  0  0
M  ISO  4   1 100  68 101  79 101  82 100
M  END
> <chiral flag>
0

> <version>
0

> <s_m_source_file>
/data/baiqing/PycharmProjects/Reinvent-master-3.2/result/LINK_invent/BTK/process_docking_weight1_custom_product_contain_oxygen_bond_distance_aromatic_linkinvent_7_9_3/rearranged_h_0085.sdf

> <i_m_source_file_index>
18

> <r_mmod_Potential_Energy-OPLS-2005>
424.202697753906

> <r_mmod_Stretch_Energy-OPLS-2005>
192.246795654297

> <r_mmod_Bend_Energy-OPLS-2005>
278.433990478516

> <r_mmod_Torsional_Energy-OPLS-2005>
242.282638549805

> <r_mmod_Improper_Torsional_Energy-OPLS-2005>
9.47599697113037

> <r_mmod_Van_der_Waal_Energy-OPLS-2005>
133.535385131836

> <r_mmod_Electrostatic_Energy-OPLS-2005>
-373.323394775391

> <r_mmod_Solvation_Energy-OPLS-2005>
-217.390335083008

> <b_mmod_Minimization_Converged-OPLS-2005>
0

> <r_mmod_RMS_Derivative-OPLS-2005>
0.174578055739403

$$$$
18
                    3D
 Structure written by MMmdl.
154163  0  0  1  0            999 V2000
  -30.6056  -14.6946   20.4693 C   0  0  0  0  0  0
  -30.4458  -12.4216   19.4555 C   0  0  0  0  0  0
  -29.5111  -12.5062   18.2275 C   0  0  0  0  0  0
  -28.0349  -12.3382   18.6426 C   0  0  0  0  0  0
  -27.6500  -13.2201   19.8605 C   0  0  2  0  0  0
  -28.7015  -13.1055   20.9879 C   0  0  0  0  0  0
  -25.2532  -13.8148   20.5749 C   0  0  0  0  0  0
  -24.1804  -13.0394   20.9183 C   0  0  0  0  0  0
  -24.6398  -11.6880   20.8724 C   0  0  0  0  0  0
  -23.9068  -10.4270   21.0390 C   0  0  0  0  0  0
  -24.3615   -9.4194   21.9177 C   0  0  0  0  0  0
  -23.6288   -8.2234   22.0751 C   0  0  0  0  0  0
  -22.4270   -8.0274   21.3543 C   0  0  0  0  0  0
  -21.9906   -9.0244   20.4643 C   0  0  0  0  0  0
  -22.7237  -10.2117   20.3046 C   0  0  0  0  0  0
  -21.6852   -6.0730   22.5278 C   0  0  0  0  0  0
  -21.4014   -6.5635   23.8211 C   0  0  0  0  0  0
  -21.3661   -5.6788   24.9174 C   0  0  0  0  0  0
  -21.6044   -4.3052   24.7225 C   0  0  0  0  0  0
  -21.8820   -3.8143   23.4348 C   0  0  0  0  0  0
  -21.9193   -4.6959   22.3403 C   0  0  0  0  0  0
  -22.7825  -13.5189   21.1850 C   0  0  0  0  0  0
  -22.1662   -4.2146   21.0981 F   0  0  0  0  0  0
  -21.5629   -3.4535   25.7738 F   0  0  0  0  0  0
  -30.0103  -13.4574   20.4135 N   0  0  0  0  0  0
  -26.2986  -12.9361   20.3351 N   0  0  0  0  0  0
  -25.9334  -11.6504   20.5761 N   0  0  0  0  0  0
  -22.0476  -12.8188   22.0417 N   0  0  0  0  0  0
  -25.4087  -15.1892   20.4331 N   0  0  0  0  0  0
  -31.7879  -14.8494   20.1490 O   0  0  0  0  0  0
  -21.6633   -6.8872   21.4240 O   0  0  0  0  0  0
  -22.3506  -14.5500   20.6706 O   0  0  0  0  0  0
  -24.6280  -31.8580   23.2022 C   0  0  0  0  0  0
  -25.9120  -32.4770   23.8357 C   0  0  1  0  0  0
  -27.2235  -27.2957   20.1230 C   0  0  0  0  0  0
  -25.5929  -33.8573   24.2277 N   0  0  0  0  0  0
  -23.4241  -30.4820   21.5436 C   0  0  2  0  0  0
  -24.8736  -28.9370   20.1077 C   0  0  0  0  0  0
  -22.7489  -29.4616   22.4917 C   0  0  0  0  0  0
  -18.0289  -28.1382   22.8485 C   0  0  0  0  0  0
  -24.1490  -36.7291   23.2638 C   0  0  0  0  0  0
  -25.9676  -30.7797   21.3804 C   0  0  0  0  0  0
  -26.0418  -29.4048   20.7240 C   0  0  0  0  0  0
  -27.2189  -28.5931   20.7289 C   0  0  0  0  0  0
  -26.0400  -26.9010   19.4577 C   0  0  0  0  0  0
  -24.8755  -27.6906   19.4649 C   0  0  0  0  0  0
  -23.6417  -29.8184   20.1581 C   0  0  0  0  0  0
  -25.4114  -36.3079   24.0326 C   0  0  1  0  0  0
  -20.5892  -28.3694   23.1268 C   0  0  2  0  0  0
  -20.6775  -26.9416   22.5399 C   0  0  0  0  0  0
  -19.5748  -26.6383   21.5206 C   0  0  0  0  0  0
  -18.1932  -26.7922   22.1626 C   0  0  0  0  0  0
  -19.1542  -28.8856   23.2872 C   0  0  0  0  0  0
  -18.9463  -30.1455   23.8895 C   0  0  0  0  0  0
  -17.6462  -30.6586   24.0561 C   0  0  0  0  0  0
  -25.9051  -34.9448   23.5102 C   0  0  0  0  0  0
  -16.5354  -29.9082   23.6327 C   0  0  0  0  0  0
  -16.7276  -28.6496   23.0355 C   0  0  0  0  0  0
  -26.4499  -31.6583   25.0733 C   0  0  0  0  0  0
  -25.3735  -31.3732   26.1465 C   0  0  0  0  0  0
  -27.0333  -30.2998   24.6204 C   0  0  0  0  0  0
  -27.6063  -32.4318   25.7498 C   0  0  0  0  0  0
  -27.5577  -37.1802   24.8465 C   0  0  0  0  0  0
  -21.4199  -29.3048   22.3660 N   0  0  0  0  0  0
  -26.4291  -37.3774   23.9407 N   0  0  0  0  0  0
  -24.6917  -31.0570   22.0987 N   0  0  0  0  0  0
  -23.4202  -28.8150   23.3002 O   0  0  0  0  0  0
  -28.3123  -26.4001   20.1689 O   0  0  0  0  0  0
  -26.5620  -34.8918   22.4669 O   0  0  0  0  0  0
  -23.5436  -32.1394   23.7329 O   0  0  0  0  0  0
  -30.8406  -19.4754   20.7932 C   0  0  0  0  0  0
  -30.9328  -18.0438   20.8587 C   0  0  0  0  0  0
  -28.5585  -19.3182   20.0795 C   0  0  0  0  0  0
  -29.6450  -20.1715   20.4241 C   0  0  0  0  0  0
  -29.8318  -17.2085   20.5289 C   0  0  0  0  0  0
  -28.6574  -17.8919   20.1110 C   0  0  0  0  0  0
  -28.8866  -23.9153   20.2912 C   0  0  0  0  0  0
  -30.3131  -23.9074   20.0556 C   0  0  0  0  0  0
  -28.4826  -22.4982   20.4705 C   0  0  0  0  0  0
  -28.0465  -25.0137   20.3526 C   0  0  0  0  0  0
  -30.7986  -22.4613   20.1571 C   0  0  0  0  0  0
  -29.5770  -21.6585   20.3540 N   0  0  0  0  0  0
  -27.5745  -17.1289   19.6770 N   0  0  0  0  0  0
  -29.7522  -15.7480   20.6839 N   0  0  0  0  0  0
  -31.0538  -24.8702   19.8280 O   0  0  0  0  0  0
  -27.3303  -22.1095   20.6967 O   0  0  0  0  0  0
  -31.4850  -12.5575   19.1505 H   0  0  0  0  0  0
  -30.3935  -11.4338   19.9159 H   0  0  0  0  0  0
  -29.7818  -11.7445   17.4950 H   0  0  0  0  0  0
  -29.6440  -13.4686   17.7305 H   0  0  0  0  0  0
  -27.8807  -11.2863   18.8870 H   0  0  0  0  0  0
  -27.3780  -12.5519   17.7988 H   0  0  0  0  0  0
  -27.6520  -14.2483   19.5015 H   0  0  0  0  0  0
  -28.7270  -12.0925   21.3913 H   0  0  0  0  0  0
  -28.4466  -13.7551   21.8267 H   0  0  0  0  0  0
  -25.2762   -9.5672   22.4750 H   0  0  0  0  0  0
  -23.9994   -7.4629   22.7474 H   0  0  0  0  0  0
  -21.0837   -8.8765   19.8953 H   0  0  0  0  0  0
  -22.3699  -10.9656   19.6153 H   0  0  0  0  0  0
  -21.2007   -7.6144   23.9715 H   0  0  0  0  0  0
  -21.1482   -6.0518   25.9078 H   0  0  0  0  0  0
  -22.0601   -2.7605   23.2847 H   0  0  0  0  0  0
  -22.4095  -11.9851   22.4804 H   0  0  0  0  0  0
  -21.1100  -13.1217   22.2630 H   0  0  0  0  0  0
  -24.6297  -15.8202   20.5816 H   0  0  0  0  0  0
  -26.2701  -15.6954   20.2268 H   0  0  0  0  0  0
  -26.7189  -32.5433   23.1103 H   0  0  0  0  0  0
  -25.0076  -33.9716   25.0423 H   0  0  0  0  0  0
  -22.7191  -31.3033   21.3995 H   0  0  0  0  0  0
  -23.3750  -35.9624   23.3291 H   0  0  0  0  0  0
  -24.3585  -36.8922   22.2053 H   0  0  0  0  0  0
  -23.7243  -37.6492   23.6666 H   0  0  0  0  0  0
  -26.1035  -31.5403   20.6102 H   0  0  0  0  0  0
  -26.8462  -30.8293   22.0115 H   0  0  0  0  0  0
  -28.1117  -28.9419   21.2288 H   0  0  0  0  0  0
  -25.9968  -25.9525   18.9415 H   0  0  0  0  0  0
  -23.9850  -27.3314   18.9675 H   0  0  0  0  0  0
  -23.7615  -30.5955   19.4021 H   0  0  0  0  0  0
  -22.7615  -29.2480   19.8555 H   0  0  0  0  0  0
  -25.1295  -36.1928   25.0818 H   0  0  0  0  0  0
  -20.9989  -28.3266   24.1385 H   0  0  0  0  0  0
  -20.5672  -26.2308   23.3602 H   0  0  0  0  0  0
  -21.6642  -26.7437   22.1195 H   0  0  0  0  0  0
  -19.6908  -25.6291   21.1238 H   0  0  0  0  0  0
  -19.6675  -27.3188   20.6730 H   0  0  0  0  0  0
  -17.4197  -26.6663   21.4037 H   0  0  0  0  0  0
  -18.0343  -26.0066   22.9029 H   0  0  0  0  0  0
  -19.7941  -30.7268   24.2268 H   0  0  0  0  0  0
  -17.5019  -31.6268   24.5155 H   0  0  0  0  0  0
  -15.5355  -30.2986   23.7649 H   0  0  0  0  0  0
  -15.8676  -28.0812   22.7079 H   0  0  0  0  0  0
  -24.5870  -30.7134   25.7786 H   0  0  0  0  0  0
  -24.8981  -32.2909   26.4939 H   0  0  0  0  0  0
  -25.8054  -30.8854   27.0213 H   0  0  0  0  0  0
  -26.2903  -29.6750   24.1232 H   0  0  0  0  0  0
  -27.4017  -29.7258   25.4716 H   0  0  0  0  0  0
  -27.8786  -30.4266   23.9436 H   0  0  0  0  0  0
  -27.2682  -33.3628   26.2058 H   0  0  0  0  0  0
  -28.3879  -32.6859   25.0326 H   0  0  0  0  0  0
  -28.0720  -31.8452   26.5426 H   0  0  0  0  0  0
  -28.2596  -38.0099   24.7510 H   0  0  0  0  0  0
  -28.1073  -36.2629   24.6293 H   0  0  0  0  0  0
  -27.2296  -37.1455   25.8870 H   0  0  0  0  0  0
  -20.9377  -29.8786   21.6883 H   0  0  0  0  0  0
  -26.0168  -38.2848   24.1403 H   0  0  0  0  0  0
  -31.7214  -20.0412   21.0615 H   0  0  0  0  0  0
  -31.8581  -17.5939   21.1897 H   0  0  0  0  0  0
  -27.6304  -19.7627   19.7502 H   0  0  0  0  0  0
  -27.0061  -24.8382   20.5860 H   0  0  0  0  0  0
  -31.4773  -22.3608   21.0032 H   0  0  0  0  0  0
  -31.3148  -22.1685   19.2435 H   0  0  0  0  0  0
  -26.8323  -17.6713   19.2477 H   0  0  0  0  0  0
  -27.8547  -16.3902   19.0422 H   0  0  0  0  0  0
  -28.7986  -15.4445   20.8112 H   0  0  0  0  0  0
  1 25  1  0  0  0
  1 30  2  0  0  0
  1 84  1  0  0  0
  2  3  1  0  0  0
  2 25  1  0  0  0
  2 87  1  0  0  0
  2 88  1  0  0  0
  3  4  1  0  0  0
  3 89  1  0  0  0
  3 90  1  0  0  0
  4  5  1  0  0  0
  4 91  1  0  0  0
  4 92  1  0  0  0
  5  6  1  0  0  0
  5 26  1  0  0  0
  5 93  1  0  0  0
  6 25  1  0  0  0
  6 94  1  0  0  0
  6 95  1  0  0  0
  7  8  2  0  0  0
  7 26  1  0  0  0
  7 29  1  0  0  0
  8  9  1  0  0  0
  8 22  1  0  0  0
  9 10  1  0  0  0
  9 27  2  0  0  0
 10 11  2  0  0  0
 10 15  1  0  0  0
 11 12  1  0  0  0
 11 96  1  0  0  0
 12 13  2  0  0  0
 12 97  1  0  0  0
 13 14  1  0  0  0
 13 31  1  0  0  0
 14 15  2  0  0  0
 14 98  1  0  0  0
 15 99  1  0  0  0
 16 17  2  0  0  0
 16 21  1  0  0  0
 16 31  1  0  0  0
 17 18  1  0  0  0
 17100  1  0  0  0
 18 19  2  0  0  0
 18101  1  0  0  0
 19 20  1  0  0  0
 19 24  1  0  0  0
 20 21  2  0  0  0
 20102  1  0  0  0
 21 23  1  0  0  0
 22 28  1  0  0  0
 22 32  2  0  0  0
 26 27  1  0  0  0
 28103  1  0  0  0
 28104  1  0  0  0
 29105  1  0  0  0
 29106  1  0  0  0
 33 34  1  0  0  0
 33 66  1  0  0  0
 33 70  2  0  0  0
 34 36  1  0  0  0
 34 59  1  0  0  0
 34107  1  0  0  0
 35 44  2  0  0  0
 35 45  1  0  0  0
 35 68  1  0  0  0
 36 56  1  0  0  0
 36108  1  0  0  0
 37 39  1  0  0  0
 37 47  1  0  0  0
 37 66  1  0  0  0
 37109  1  0  0  0
 38 43  2  0  0  0
 38 46  1  0  0  0
 38 47  1  0  0  0
 39 64  1  0  0  0
 39 67  2  0  0  0
 40 52  1  0  0  0
 40 53  2  0  0  0
 40 58  1  0  0  0
 41110  1  0  0  0
 41111  1  0  0  0
 41112  1  0  0  0
 41 48  1  0  0  0
 42 43  1  0  0  0
 42 66  1  0  0  0
 42113  1  0  0  0
 42114  1  0  0  0
 43 44  1  0  0  0
 44115  1  0  0  0
 45 46  2  0  0  0
 45116  1  0  0  0
 46117  1  0  0  0
 47118  1  0  0  0
 47119  1  0  0  0
 48 56  1  0  0  0
 48 65  1  0  0  0
 48120  1  0  0  0
 49 50  1  0  0  0
 49 53  1  0  0  0
 49 64  1  0  0  0
 49121  1  0  0  0
 50 51  1  0  0  0
 50122  1  0  0  0
 50123  1  0  0  0
 51 52  1  0  0  0
 51124  1  0  0  0
 51125  1  0  0  0
 52126  1  0  0  0
 52127  1  0  0  0
 53 54  1  0  0  0
 54 55  2  0  0  0
 54128  1  0  0  0
 55 57  1  0  0  0
 55129  1  0  0  0
 56 69  2  0  0  0
 57 58  2  0  0  0
 57130  1  0  0  0
 58131  1  0  0  0
 59 60  1  0  0  0
 59 61  1  0  0  0
 59 62  1  0  0  0
 60132  1  0  0  0
 60133  1  0  0  0
 60134  1  0  0  0
 61135  1  0  0  0
 61136  1  0  0  0
 61137  1  0  0  0
 62138  1  0  0  0
 62139  1  0  0  0
 62140  1  0  0  0
 63 65  1  0  0  0
 63141  1  0  0  0
 63142  1  0  0  0
 63143  1  0  0  0
 64144  1  0  0  0
 65145  1  0  0  0
 68 80  1  0  0  0
 71 72  2  0  0  0
 71 74  1  0  0  0
 71146  1  0  0  0
 72 75  1  0  0  0
 72147  1  0  0  0
 73 74  2  0  0  0
 73 76  1  0  0  0
 73148  1  0  0  0
 74 82  1  0  0  0
 75 76  2  0  0  0
 75 84  1  0  0  0
 76 83  1  0  0  0
 77 78  1  0  0  0
 77 79  1  0  0  0
 77 80  2  0  0  0
 78 81  1  0  0  0
 78 85  2  0  0  0
 79 82  1  0  0  0
 79 86  2  0  0  0
 80149  1  0  0  0
 81 82  1  0  0  0
 81150  1  0  0  0
 81151  1  0  0  0
 83152  1  0  0  0
 83153  1  0  0  0
 84154  1  0  0  0
M  ISO  4   1 100  68 101  80 101  84 100
M  END
> <chiral flag>
0

> <version>
0

> <s_m_source_file>
/data/baiqing/PycharmProjects/Reinvent-master-3.2/result/LINK_invent/BTK/process_docking_weight1_custom_product_contain_oxygen_bond_distance_aromatic_linkinvent_7_9_3/rearranged_h_0085.sdf

> <i_m_source_file_index>
19

> <r_mmod_Potential_Energy-OPLS-2005>
49.6900634765625

> <r_mmod_Stretch_Energy-OPLS-2005>
91.4275665283203

> <r_mmod_Bend_Energy-OPLS-2005>
194.03092956543

> <r_mmod_Torsional_Energy-OPLS-2005>
266.795471191406

> <r_mmod_Improper_Torsional_Energy-OPLS-2005>
11.3412895202637

> <r_mmod_Van_der_Waal_Energy-OPLS-2005>
145.440322875977

> <r_mmod_Electrostatic_Energy-OPLS-2005>
-491.798919677734

> <r_mmod_Solvation_Energy-OPLS-2005>
-235.021926879883

> <b_mmod_Minimization_Converged-OPLS-2005>
0

> <r_mmod_RMS_Derivative-OPLS-2005>
0.613715350627899

$$$$
19
                    3D
 Structure written by MMmdl.
150159  0  0  1  0            999 V2000
  -30.5876  -14.8703   20.4084 C   0  0  0  0  0  0
  -30.4291  -12.5301   19.4956 C   0  0  0  0  0  0
  -29.5166  -12.5139   18.2495 C   0  0  0  0  0  0
  -28.0447  -12.3253   18.6613 C   0  0  0  0  0  0
  -27.6320  -13.2475   19.8400 C   0  0  2  0  0  0
  -28.6751  -13.2535   20.9776 C   0  0  0  0  0  0
  -25.2473  -13.8228   20.5725 C   0  0  0  0  0  0
  -24.1790  -13.0445   20.9236 C   0  0  0  0  0  0
  -24.6409  -11.6931   20.8758 C   0  0  0  0  0  0
  -23.9095  -10.4296   21.0413 C   0  0  0  0  0  0
  -24.3643   -9.4205   21.9189 C   0  0  0  0  0  0
  -23.6311   -8.2243   22.0756 C   0  0  0  0  0  0
  -22.4292   -8.0284   21.3548 C   0  0  0  0  0  0
  -21.9935   -9.0263   20.4653 C   0  0  0  0  0  0
  -22.7267  -10.2139   20.3062 C   0  0  0  0  0  0
  -21.6857   -6.0742   22.5283 C   0  0  0  0  0  0
  -21.4016   -6.5645   23.8217 C   0  0  0  0  0  0
  -21.3661   -5.6793   24.9177 C   0  0  0  0  0  0
  -21.6042   -4.3056   24.7226 C   0  0  0  0  0  0
  -21.8818   -3.8152   23.4348 C   0  0  0  0  0  0
  -21.9198   -4.6970   22.3407 C   0  0  0  0  0  0
  -22.7807  -13.5205   21.1891 C   0  0  0  0  0  0
  -22.1661   -4.2155   21.0985 F   0  0  0  0  0  0
  -21.5631   -3.4541   25.7741 F   0  0  0  0  0  0
  -29.9609  -13.6317   20.3808 N   0  0  0  0  0  0
  -26.2901  -12.9462   20.3254 N   0  0  0  0  0  0
  -25.9339  -11.6589   20.5748 N   0  0  0  0  0  0
  -22.0468  -12.8183   22.0446 N   0  0  0  0  0  0
  -25.4122  -15.1962   20.4164 N   0  0  0  0  0  0
  -31.7964  -14.8855   20.1589 O   0  0  0  0  0  0
  -21.6646   -6.8886   21.4246 O   0  0  0  0  0  0
  -22.3484  -14.5505   20.6737 O   0  0  0  0  0  0
  -24.6389  -31.8485   23.1933 C   0  0  0  0  0  0
  -25.9179  -32.4719   23.8310 C   0  0  1  0  0  0
  -27.2145  -27.1834   20.1477 C   0  0  0  0  0  0
  -25.5944  -33.8528   24.2217 N   0  0  0  0  0  0
  -23.4412  -30.4686   21.5379 C   0  0  2  0  0  0
  -24.8915  -28.9046   20.1111 C   0  0  0  0  0  0
  -22.7551  -29.4555   22.4879 C   0  0  0  0  0  0
  -18.0299  -28.1393   22.8478 C   0  0  0  0  0  0
  -24.1490  -36.7270   23.2638 C   0  0  0  0  0  0
  -25.9942  -30.7349   21.3886 C   0  0  0  0  0  0
  -26.0664  -29.3502   20.7315 C   0  0  0  0  0  0
  -27.2324  -28.5027   20.7397 C   0  0  0  0  0  0
  -26.0211  -26.8322   19.4818 C   0  0  0  0  0  0
  -24.8777  -27.6556   19.4732 C   0  0  0  0  0  0
  -23.6677  -29.8034   20.1549 C   0  0  0  0  0  0
  -25.4120  -36.3046   24.0316 C   0  0  1  0  0  0
  -20.5911  -28.3710   23.1250 C   0  0  2  0  0  0
  -20.6783  -26.9416   22.5412 C   0  0  0  0  0  0
  -19.5759  -26.6373   21.5221 C   0  0  0  0  0  0
  -18.1939  -26.7929   22.1631 C   0  0  0  0  0  0
  -19.1555  -28.8872   23.2854 C   0  0  0  0  0  0
  -18.9474  -30.1471   23.8876 C   0  0  0  0  0  0
  -17.6469  -30.6590   24.0561 C   0  0  0  0  0  0
  -25.9068  -34.9421   23.5073 C   0  0  0  0  0  0
  -16.5360  -29.9087   23.6331 C   0  0  0  0  0  0
  -16.7285  -28.6508   23.0350 C   0  0  0  0  0  0
  -26.4507  -31.6577   25.0738 C   0  0  0  0  0  0
  -25.3704  -31.3776   26.1446 C   0  0  0  0  0  0
  -27.0355  -30.2970   24.6298 C   0  0  0  0  0  0
  -27.6032  -32.4345   25.7527 C   0  0  0  0  0  0
  -27.5574  -37.1796   24.8461 C   0  0  0  0  0  0
  -21.4248  -29.3045   22.3631 N   0  0  0  0  0  0
  -26.4283  -37.3755   23.9405 N   0  0  0  0  0  0
  -24.7107  -31.0376   22.0952 N   0  0  0  0  0  0
  -23.4216  -28.8092   23.3001 O   0  0  0  0  0  0
  -28.2485  -26.1946   20.1855 O   0  0  0  0  0  0
  -26.5652  -34.8906   22.4649 O   0  0  0  0  0  0
  -23.5516  -32.1343   23.7174 O   0  0  0  0  0  0
  -29.4038  -18.7653   20.4677 C   0  0  0  0  0  0
  -30.9433  -20.1749   19.2930 C   0  0  0  0  0  0
  -31.3158  -17.7516   19.3698 C   0  0  0  0  0  0
  -29.7492  -20.1571   20.0572 C   0  0  0  0  0  0
  -30.1676  -17.5233   20.1588 C   0  0  0  0  0  0
  -31.6935  -19.0360   18.9545 C   0  0  0  0  0  0
  -28.4802  -23.5541   20.3973 C   0  0  0  0  0  0
  -28.0297  -22.2234   20.8743 C   0  0  0  0  0  0
  -27.9083  -24.8360   20.5707 C   0  0  0  0  0  0
  -29.6879  -22.8345   19.7413 C   0  0  0  0  0  0
  -29.1212  -21.5392   20.2618 N   0  0  0  0  0  0
  -29.8441  -16.0741   20.5305 N   0  0  0  0  0  0
  -27.0717  -21.9112   21.5501 O   0  0  0  0  0  0
  -32.8090  -19.1819   18.1988 F   0  0  0  0  0  0
  -31.4689  -12.6551   19.1890 H   0  0  0  0  0  0
  -30.3884  -11.5737   20.0197 H   0  0  0  0  0  0
  -29.8202  -11.7173   17.5688 H   0  0  0  0  0  0
  -29.6287  -13.4491   17.6983 H   0  0  0  0  0  0
  -27.9178  -11.2804   18.9475 H   0  0  0  0  0  0
  -27.3878  -12.4869   17.8056 H   0  0  0  0  0  0
  -27.6028  -14.2557   19.4262 H   0  0  0  0  0  0
  -28.7415  -12.2757   21.4572 H   0  0  0  0  0  0
  -28.3913  -13.9624   21.7566 H   0  0  0  0  0  0
  -25.2794   -9.5672   22.4759 H   0  0  0  0  0  0
  -24.0022   -7.4631   22.7469 H   0  0  0  0  0  0
  -21.0870   -8.8788   19.8954 H   0  0  0  0  0  0
  -22.3737  -10.9682   19.6169 H   0  0  0  0  0  0
  -21.2002   -7.6154   23.9723 H   0  0  0  0  0  0
  -21.1482   -6.0525   25.9080 H   0  0  0  0  0  0
  -22.0595   -2.7616   23.2849 H   0  0  0  0  0  0
  -22.4105  -11.9853   22.4837 H   0  0  0  0  0  0
  -21.1081  -13.1183   22.2652 H   0  0  0  0  0  0
  -24.6429  -15.8459   20.5397 H   0  0  0  0  0  0
  -26.2540  -15.6422   20.0759 H   0  0  0  0  0  0
  -26.7246  -32.5331   23.1044 H   0  0  0  0  0  0
  -25.0062  -33.9660   25.0343 H   0  0  0  0  0  0
  -22.7409  -31.2927   21.3872 H   0  0  0  0  0  0
  -23.3752  -35.9602   23.3295 H   0  0  0  0  0  0
  -24.3567  -36.8909   22.2052 H   0  0  0  0  0  0
  -23.7252  -37.6468   23.6680 H   0  0  0  0  0  0
  -26.1453  -31.4911   20.6174 H   0  0  0  0  0  0
  -26.8665  -30.7846   22.0282 H   0  0  0  0  0  0
  -28.1276  -28.8338   21.2472 H   0  0  0  0  0  0
  -25.9557  -25.8738   18.9863 H   0  0  0  0  0  0
  -23.9813  -27.3099   18.9765 H   0  0  0  0  0  0
  -23.8070  -30.5823   19.4043 H   0  0  0  0  0  0
  -22.7829  -29.2484   19.8387 H   0  0  0  0  0  0
  -25.1307  -36.1878   25.0808 H   0  0  0  0  0  0
  -20.9994  -28.3295   24.1376 H   0  0  0  0  0  0
  -20.5677  -26.2325   23.3629 H   0  0  0  0  0  0
  -21.6649  -26.7425   22.1212 H   0  0  0  0  0  0
  -19.6917  -25.6279   21.1267 H   0  0  0  0  0  0
  -19.6695  -27.3171   20.6742 H   0  0  0  0  0  0
  -17.4205  -26.6671   21.4037 H   0  0  0  0  0  0
  -18.0338  -26.0083   22.9040 H   0  0  0  0  0  0
  -19.7949  -30.7296   24.2231 H   0  0  0  0  0  0
  -17.5023  -31.6266   24.5173 H   0  0  0  0  0  0
  -15.5360  -30.2983   23.7667 H   0  0  0  0  0  0
  -15.8686  -28.0825   22.7066 H   0  0  0  0  0  0
  -24.5863  -30.7141   25.7783 H   0  0  0  0  0  0
  -24.8918  -32.2970   26.4833 H   0  0  0  0  0  0
  -25.7993  -30.8975   27.0252 H   0  0  0  0  0  0
  -26.2964  -29.6718   24.1274 H   0  0  0  0  0  0
  -27.3933  -29.7241   25.4864 H   0  0  0  0  0  0
  -27.8892  -30.4202   23.9629 H   0  0  0  0  0  0
  -27.2600  -33.3643   26.2079 H   0  0  0  0  0  0
  -28.3860  -32.6920   25.0379 H   0  0  0  0  0  0
  -28.0685  -31.8502   26.5475 H   0  0  0  0  0  0
  -28.2584  -38.0098   24.7493 H   0  0  0  0  0  0
  -28.1077  -36.2625   24.6301 H   0  0  0  0  0  0
  -27.2289  -37.1459   25.8863 H   0  0  0  0  0  0
  -20.9449  -29.8783   21.6840 H   0  0  0  0  0  0
  -26.0151  -38.2822   24.1412 H   0  0  0  0  0  0
  -28.5001  -18.6488   21.0492 H   0  0  0  0  0  0
  -31.3349  -21.1058   18.9152 H   0  0  0  0  0  0
  -31.9476  -16.9458   19.0359 H   0  0  0  0  0  0
  -26.9946  -24.8634   21.1486 H   0  0  0  0  0  0
  -30.6721  -23.0456   20.1625 H   0  0  0  0  0  0
  -29.7347  -22.8541   18.6511 H   0  0  0  0  0  0
  -28.8949  -15.9221   20.8367 H   0  0  0  0  0  0
  1 25  1  0  0  0
  1 30  2  0  0  0
  1 82  1  0  0  0
  2  3  1  0  0  0
  2 25  1  0  0  0
  2 85  1  0  0  0
  2 86  1  0  0  0
  3  4  1  0  0  0
  3 87  1  0  0  0
  3 88  1  0  0  0
  4  5  1  0  0  0
  4 89  1  0  0  0
  4 90  1  0  0  0
  5  6  1  0  0  0
  5 26  1  0  0  0
  5 91  1  0  0  0
  6 25  1  0  0  0
  6 92  1  0  0  0
  6 93  1  0  0  0
  7  8  2  0  0  0
  7 26  1  0  0  0
  7 29  1  0  0  0
  8  9  1  0  0  0
  8 22  1  0  0  0
  9 10  1  0  0  0
  9 27  2  0  0  0
 10 11  2  0  0  0
 10 15  1  0  0  0
 11 12  1  0  0  0
 11 94  1  0  0  0
 12 13  2  0  0  0
 12 95  1  0  0  0
 13 14  1  0  0  0
 13 31  1  0  0  0
 14 15  2  0  0  0
 14 96  1  0  0  0
 15 97  1  0  0  0
 16 17  2  0  0  0
 16 21  1  0  0  0
 16 31  1  0  0  0
 17 18  1  0  0  0
 17 98  1  0  0  0
 18 19  2  0  0  0
 18 99  1  0  0  0
 19 20  1  0  0  0
 19 24  1  0  0  0
 20 21  2  0  0  0
 20100  1  0  0  0
 21 23  1  0  0  0
 22 28  1  0  0  0
 22 32  2  0  0  0
 26 27  1  0  0  0
 28101  1  0  0  0
 28102  1  0  0  0
 29103  1  0  0  0
 29104  1  0  0  0
 33 34  1  0  0  0
 33 66  1  0  0  0
 33 70  2  0  0  0
 34 36  1  0  0  0
 34 59  1  0  0  0
 34105  1  0  0  0
 35 44  2  0  0  0
 35 45  1  0  0  0
 35 68  1  0  0  0
 36 56  1  0  0  0
 36106  1  0  0  0
 37 39  1  0  0  0
 37 47  1  0  0  0
 37 66  1  0  0  0
 37107  1  0  0  0
 38 43  2  0  0  0
 38 46  1  0  0  0
 38 47  1  0  0  0
 39 64  1  0  0  0
 39 67  2  0  0  0
 40 52  1  0  0  0
 40 53  2  0  0  0
 40 58  1  0  0  0
 41108  1  0  0  0
 41109  1  0  0  0
 41110  1  0  0  0
 41 48  1  0  0  0
 42 43  1  0  0  0
 42 66  1  0  0  0
 42111  1  0  0  0
 42112  1  0  0  0
 43 44  1  0  0  0
 44113  1  0  0  0
 45 46  2  0  0  0
 45114  1  0  0  0
 46115  1  0  0  0
 47116  1  0  0  0
 47117  1  0  0  0
 48 56  1  0  0  0
 48 65  1  0  0  0
 48118  1  0  0  0
 49 50  1  0  0  0
 49 53  1  0  0  0
 49 64  1  0  0  0
 49119  1  0  0  0
 50 51  1  0  0  0
 50120  1  0  0  0
 50121  1  0  0  0
 51 52  1  0  0  0
 51122  1  0  0  0
 51123  1  0  0  0
 52124  1  0  0  0
 52125  1  0  0  0
 53 54  1  0  0  0
 54 55  2  0  0  0
 54126  1  0  0  0
 55 57  1  0  0  0
 55127  1  0  0  0
 56 69  2  0  0  0
 57 58  2  0  0  0
 57128  1  0  0  0
 58129  1  0  0  0
 59 60  1  0  0  0
 59 61  1  0  0  0
 59 62  1  0  0  0
 60130  1  0  0  0
 60131  1  0  0  0
 60132  1  0  0  0
 61133  1  0  0  0
 61134  1  0  0  0
 61135  1  0  0  0
 62136  1  0  0  0
 62137  1  0  0  0
 62138  1  0  0  0
 63 65  1  0  0  0
 63139  1  0  0  0
 63140  1  0  0  0
 63141  1  0  0  0
 64142  1  0  0  0
 65143  1  0  0  0
 68 79  1  0  0  0
 71 74  2  0  0  0
 71 75  1  0  0  0
 71144  1  0  0  0
 72 74  1  0  0  0
 72 76  2  0  0  0
 72145  1  0  0  0
 73 75  2  0  0  0
 73 76  1  0  0  0
 73146  1  0  0  0
 74 81  1  0  0  0
 75 82  1  0  0  0
 76 84  1  0  0  0
 77 78  1  0  0  0
 77 79  2  0  0  0
 77 80  1  0  0  0
 78 81  1  0  0  0
 78 83  2  0  0  0
 79147  1  0  0  0
 80 81  1  0  0  0
 80148  1  0  0  0
 80149  1  0  0  0
 82150  1  0  0  0
M  ISO  4   1 100  68 101  79 101  82 100
M  END
> <chiral flag>
0

> <version>
0

> <s_m_source_file>
/data/baiqing/PycharmProjects/Reinvent-master-3.2/result/LINK_invent/BTK/process_docking_weight1_custom_product_contain_oxygen_bond_distance_aromatic_linkinvent_7_9_3/rearranged_h_0085.sdf

> <i_m_source_file_index>
20

> <r_mmod_Potential_Energy-OPLS-2005>
443.54248046875

> <r_mmod_Stretch_Energy-OPLS-2005>
190.499206542969

> <r_mmod_Bend_Energy-OPLS-2005>
287.619781494141

> <r_mmod_Torsional_Energy-OPLS-2005>
223.418807983398

> <r_mmod_Improper_Torsional_Energy-OPLS-2005>
3.9735255241394

> <r_mmod_Van_der_Waal_Energy-OPLS-2005>
140.909149169922

> <r_mmod_Electrostatic_Energy-OPLS-2005>
-335.642303466797

> <r_mmod_Solvation_Energy-OPLS-2005>
-217.531967163086

> <b_mmod_Minimization_Converged-OPLS-2005>
0

> <r_mmod_RMS_Derivative-OPLS-2005>
1.05436885356903

$$$$
20
                    3D
 Structure written by MMmdl.
158167  0  0  1  0            999 V2000
  -30.7153  -14.4759   20.5719 C   0  0  0  0  0  0
  -30.4158  -12.3130   19.4206 C   0  0  0  0  0  0
  -29.4901  -12.4997   18.2028 C   0  0  0  0  0  0
  -28.0130  -12.3591   18.6188 C   0  0  0  0  0  0
  -27.6563  -13.2103   19.8675 C   0  0  2  0  0  0
  -28.6992  -13.0155   20.9907 C   0  0  0  0  0  0
  -25.2568  -13.8170   20.5679 C   0  0  0  0  0  0
  -24.1827  -13.0440   20.9180 C   0  0  0  0  0  0
  -24.6390  -11.6904   20.8732 C   0  0  0  0  0  0
  -23.9056  -10.4292   21.0406 C   0  0  0  0  0  0
  -24.3612   -9.4207   21.9183 C   0  0  0  0  0  0
  -23.6288   -8.2243   22.0750 C   0  0  0  0  0  0
  -22.4272   -8.0283   21.3538 C   0  0  0  0  0  0
  -21.9901   -9.0257   20.4642 C   0  0  0  0  0  0
  -22.7228  -10.2136   20.3054 C   0  0  0  0  0  0
  -21.6850   -6.0732   22.5279 C   0  0  0  0  0  0
  -21.4016   -6.5637   23.8214 C   0  0  0  0  0  0
  -21.3656   -5.6788   24.9174 C   0  0  0  0  0  0
  -21.6051   -4.3053   24.7225 C   0  0  0  0  0  0
  -21.8817   -3.8141   23.4346 C   0  0  0  0  0  0
  -21.9193   -4.6958   22.3402 C   0  0  0  0  0  0
  -22.7855  -13.5237   21.1850 C   0  0  0  0  0  0
  -22.1660   -4.2144   21.0979 F   0  0  0  0  0  0
  -21.5628   -3.4536   25.7736 F   0  0  0  0  0  0
  -30.0243  -13.3133   20.4266 N   0  0  0  0  0  0
  -26.2997  -12.9340   20.3331 N   0  0  0  0  0  0
  -25.9316  -11.6500   20.5755 N   0  0  0  0  0  0
  -22.0486  -12.8238   22.0405 N   0  0  0  0  0  0
  -25.4287  -15.1887   20.4094 N   0  0  0  0  0  0
  -31.8569  -14.6251   20.1277 O   0  0  0  0  0  0
  -21.6636   -6.8876   21.4241 O   0  0  0  0  0  0
  -22.3542  -14.5542   20.6692 O   0  0  0  0  0  0
  -24.6131  -31.8685   23.2097 C   0  0  0  0  0  0
  -25.9026  -32.4828   23.8396 C   0  0  1  0  0  0
  -27.2337  -27.4357   20.0964 C   0  0  0  0  0  0
  -25.5872  -33.8629   24.2323 N   0  0  0  0  0  0
  -23.4036  -30.4880   21.5502 C   0  0  2  0  0  0
  -24.8531  -28.9566   20.1103 C   0  0  0  0  0  0
  -22.7426  -29.4644   22.5002 C   0  0  0  0  0  0
  -18.0271  -28.1369   22.8490 C   0  0  0  0  0  0
  -24.1474  -36.7319   23.2635 C   0  0  0  0  0  0
  -25.9317  -30.8335   21.3648 C   0  0  0  0  0  0
  -26.0120  -29.4678   20.7108 C   0  0  0  0  0  0
  -27.2088  -28.7137   20.7035 C   0  0  0  0  0  0
  -26.0650  -26.9407   19.4884 C   0  0  0  0  0  0
  -24.8739  -27.6914   19.4951 C   0  0  0  0  0  0
  -23.6124  -29.8196   20.1644 C   0  0  0  0  0  0
  -25.4093  -36.3120   24.0337 C   0  0  1  0  0  0
  -20.5862  -28.3656   23.1318 C   0  0  2  0  0  0
  -20.6748  -26.9391   22.5417 C   0  0  0  0  0  0
  -19.5730  -26.6378   21.5206 C   0  0  0  0  0  0
  -18.1912  -26.7918   22.1624 C   0  0  0  0  0  0
  -19.1520  -28.8833   23.2895 C   0  0  0  0  0  0
  -18.9454  -30.1441   23.8899 C   0  0  0  0  0  0
  -17.6454  -30.6575   24.0560 C   0  0  0  0  0  0
  -25.9024  -34.9487   23.5140 C   0  0  0  0  0  0
  -16.5344  -29.9076   23.6328 C   0  0  0  0  0  0
  -16.7264  -28.6496   23.0351 C   0  0  0  0  0  0
  -26.4447  -31.6605   25.0729 C   0  0  0  0  0  0
  -25.3711  -31.3724   26.1484 C   0  0  0  0  0  0
  -27.0262  -30.3036   24.6110 C   0  0  0  0  0  0
  -27.6030  -32.4321   25.7487 C   0  0  0  0  0  0
  -27.5578  -37.1804   24.8463 C   0  0  0  0  0  0
  -21.4158  -29.3019   22.3736 N   0  0  0  0  0  0
  -26.4284  -37.3805   23.9414 N   0  0  0  0  0  0
  -24.6672  -31.0783   22.0996 N   0  0  0  0  0  0
  -23.4201  -28.8205   23.3054 O   0  0  0  0  0  0
  -28.3460  -26.6273   20.1136 O   0  0  0  0  0  0
  -26.5610  -34.8941   22.4716 O   0  0  0  0  0  0
  -23.5323  -32.1454   23.7484 O   0  0  0  0  0  0
  -30.1304  -18.0172   20.8915 C   0  0  0  0  0  0
  -31.8579  -19.2240   22.1299 C   0  0  0  0  0  0
  -31.6671  -16.8101   22.3632 C   0  0  0  0  0  0
  -30.7717  -19.2443   21.2276 C   0  0  0  0  0  0
  -30.6033  -16.7873   21.4330 C   0  0  0  0  0  0
  -32.2905  -18.0205   22.7089 C   0  0  0  0  0  0
  -28.7793  -24.6834   21.5354 C   0  0  0  0  0  0
  -28.8192  -23.6220   20.5357 C   0  0  0  0  0  0
  -28.5744  -26.0048   21.3179 C   0  0  0  0  0  0
  -30.4524  -20.5627   20.5940 C   0  0  0  0  0  0
  -28.9436  -24.1004   22.9118 C   0  0  0  0  0  0
  -29.0036  -22.5947   22.6592 C   0  0  0  0  0  0
  -29.0093  -21.0897   20.6317 C   0  0  0  0  0  0
  -28.9466  -22.4520   21.2051 N   0  0  0  0  0  0
  -30.0280  -15.5289   21.0677 N   0  0  0  0  0  0
  -28.7442  -23.7295   19.3090 O   0  0  0  0  0  0
  -31.3363  -21.2837   20.1199 O   0  0  0  0  0  0
  -33.3212  -18.0238   23.5874 F   0  0  0  0  0  0
  -31.4608  -12.4040   19.1180 H   0  0  0  0  0  0
  -30.3126  -11.3064   19.8294 H   0  0  0  0  0  0
  -29.7308  -11.7690   17.4295 H   0  0  0  0  0  0
  -29.6566  -13.4825   17.7583 H   0  0  0  0  0  0
  -27.8306  -11.3040   18.8259 H   0  0  0  0  0  0
  -27.3605  -12.6214   17.7856 H   0  0  0  0  0  0
  -27.6926  -14.2540   19.5548 H   0  0  0  0  0  0
  -28.6779  -11.9872   21.3555 H   0  0  0  0  0  0
  -28.4650  -13.6384   21.8549 H   0  0  0  0  0  0
  -25.2758   -9.5684   22.4751 H   0  0  0  0  0  0
  -23.9997   -7.4634   22.7471 H   0  0  0  0  0  0
  -21.0828   -8.8780   19.8952 H   0  0  0  0  0  0
  -22.3688  -10.9679   19.6162 H   0  0  0  0  0  0
  -21.2006   -7.6143   23.9716 H   0  0  0  0  0  0
  -21.1481   -6.0517   25.9078 H   0  0  0  0  0  0
  -22.0599   -2.7604   23.2848 H   0  0  0  0  0  0
  -22.4098  -11.9908   22.4808 H   0  0  0  0  0  0
  -21.1108  -13.1279   22.2604 H   0  0  0  0  0  0
  -24.6603  -15.8427   20.5152 H   0  0  0  0  0  0
  -26.2780  -15.6281   20.0775 H   0  0  0  0  0  0
  -26.7098  -32.5537   23.1165 H   0  0  0  0  0  0
  -24.9988  -33.9783   25.0448 H   0  0  0  0  0  0
  -22.6908  -31.3031   21.4091 H   0  0  0  0  0  0
  -23.3737  -35.9650   23.3320 H   0  0  0  0  0  0
  -24.3571  -36.8922   22.2045 H   0  0  0  0  0  0
  -23.7231  -37.6530   23.6648 H   0  0  0  0  0  0
  -26.0428  -31.6005   20.5971 H   0  0  0  0  0  0
  -26.8194  -30.8887   21.9833 H   0  0  0  0  0  0
  -28.1045  -29.0975   21.1713 H   0  0  0  0  0  0
  -26.0769  -25.9624   19.0287 H   0  0  0  0  0  0
  -23.9833  -27.2909   19.0313 H   0  0  0  0  0  0
  -23.7169  -30.5954   19.4053 H   0  0  0  0  0  0
  -22.7382  -29.2364   19.8693 H   0  0  0  0  0  0
  -25.1259  -36.1987   25.0826 H   0  0  0  0  0  0
  -20.9935  -28.3217   24.1447 H   0  0  0  0  0  0
  -20.5628  -26.2270   23.3612 H   0  0  0  0  0  0
  -21.6616  -26.7412   22.1213 H   0  0  0  0  0  0
  -19.6896  -25.6299   21.1215 H   0  0  0  0  0  0
  -19.6658  -27.3202   20.6749 H   0  0  0  0  0  0
  -17.4171  -26.6668   21.4042 H   0  0  0  0  0  0
  -18.0317  -26.0050   22.9014 H   0  0  0  0  0  0
  -19.7933  -30.7248   24.2273 H   0  0  0  0  0  0
  -17.5011  -31.6256   24.5159 H   0  0  0  0  0  0
  -15.5348  -30.2971   23.7646 H   0  0  0  0  0  0
  -15.8669  -28.0810   22.7060 H   0  0  0  0  0  0
  -24.5867  -30.7091   25.7832 H   0  0  0  0  0  0
  -24.8915  -32.2883   26.4945 H   0  0  0  0  0  0
  -25.8047  -30.8888   27.0245 H   0  0  0  0  0  0
  -26.2810  -29.6833   24.1112 H   0  0  0  0  0  0
  -27.3968  -29.7242   25.4578 H   0  0  0  0  0  0
  -27.8678  -30.4347   23.9302 H   0  0  0  0  0  0
  -27.2641  -33.3603   26.2101 H   0  0  0  0  0  0
  -28.3805  -32.6908   25.0291 H   0  0  0  0  0  0
  -28.0727  -31.8423   26.5371 H   0  0  0  0  0  0
  -28.2588  -38.0106   24.7512 H   0  0  0  0  0  0
  -28.1074  -36.2641   24.6266 H   0  0  0  0  0  0
  -27.2309  -37.1423   25.8871 H   0  0  0  0  0  0
  -20.9352  -29.8738   21.6939 H   0  0  0  0  0  0
  -26.0183  -38.2884   24.1439 H   0  0  0  0  0  0
  -29.3196  -18.0168   20.1758 H   0  0  0  0  0  0
  -32.3698  -20.1411   22.3857 H   0  0  0  0  0  0
  -32.0288  -15.8949   22.8081 H   0  0  0  0  0  0
  -28.5413  -26.7081   22.1402 H   0  0  0  0  0  0
  -28.0985  -24.3716   23.5468 H   0  0  0  0  0  0
  -29.8596  -24.4700   23.3744 H   0  0  0  0  0  0
  -28.1556  -22.0863   23.1206 H   0  0  0  0  0  0
  -29.9211  -22.1649   23.0624 H   0  0  0  0  0  0
  -28.3869  -20.4153   21.2186 H   0  0  0  0  0  0
  -28.6115  -21.0799   19.6161 H   0  0  0  0  0  0
  -29.0365  -15.4067   21.2068 H   0  0  0  0  0  0
  1 25  1  0  0  0
  1 30  2  0  0  0
  1 85  1  0  0  0
  2  3  1  0  0  0
  2 25  1  0  0  0
  2 89  1  0  0  0
  2 90  1  0  0  0
  3  4  1  0  0  0
  3 91  1  0  0  0
  3 92  1  0  0  0
  4  5  1  0  0  0
  4 93  1  0  0  0
  4 94  1  0  0  0
  5  6  1  0  0  0
  5 26  1  0  0  0
  5 95  1  0  0  0
  6 25  1  0  0  0
  6 96  1  0  0  0
  6 97  1  0  0  0
  7  8  2  0  0  0
  7 26  1  0  0  0
  7 29  1  0  0  0
  8  9  1  0  0  0
  8 22  1  0  0  0
  9 10  1  0  0  0
  9 27  2  0  0  0
 10 11  2  0  0  0
 10 15  1  0  0  0
 11 12  1  0  0  0
 11 98  1  0  0  0
 12 13  2  0  0  0
 12 99  1  0  0  0
 13 14  1  0  0  0
 13 31  1  0  0  0
 14 15  2  0  0  0
 14100  1  0  0  0
 15101  1  0  0  0
 16 17  2  0  0  0
 16 21  1  0  0  0
 16 31  1  0  0  0
 17 18  1  0  0  0
 17102  1  0  0  0
 18 19  2  0  0  0
 18103  1  0  0  0
 19 20  1  0  0  0
 19 24  1  0  0  0
 20 21  2  0  0  0
 20104  1  0  0  0
 21 23  1  0  0  0
 22 28  1  0  0  0
 22 32  2  0  0  0
 26 27  1  0  0  0
 28105  1  0  0  0
 28106  1  0  0  0
 29107  1  0  0  0
 29108  1  0  0  0
 33 34  1  0  0  0
 33 66  1  0  0  0
 33 70  2  0  0  0
 34 36  1  0  0  0
 34 59  1  0  0  0
 34109  1  0  0  0
 35 44  2  0  0  0
 35 45  1  0  0  0
 35 68  1  0  0  0
 36 56  1  0  0  0
 36110  1  0  0  0
 37 39  1  0  0  0
 37 47  1  0  0  0
 37 66  1  0  0  0
 37111  1  0  0  0
 38 43  2  0  0  0
 38 46  1  0  0  0
 38 47  1  0  0  0
 39 64  1  0  0  0
 39 67  2  0  0  0
 40 52  1  0  0  0
 40 53  2  0  0  0
 40 58  1  0  0  0
 41112  1  0  0  0
 41113  1  0  0  0
 41114  1  0  0  0
 41 48  1  0  0  0
 42 43  1  0  0  0
 42 66  1  0  0  0
 42115  1  0  0  0
 42116  1  0  0  0
 43 44  1  0  0  0
 44117  1  0  0  0
 45 46  2  0  0  0
 45118  1  0  0  0
 46119  1  0  0  0
 47120  1  0  0  0
 47121  1  0  0  0
 48 56  1  0  0  0
 48 65  1  0  0  0
 48122  1  0  0  0
 49 50  1  0  0  0
 49 53  1  0  0  0
 49 64  1  0  0  0
 49123  1  0  0  0
 50 51  1  0  0  0
 50124  1  0  0  0
 50125  1  0  0  0
 51 52  1  0  0  0
 51126  1  0  0  0
 51127  1  0  0  0
 52128  1  0  0  0
 52129  1  0  0  0
 53 54  1  0  0  0
 54 55  2  0  0  0
 54130  1  0  0  0
 55 57  1  0  0  0
 55131  1  0  0  0
 56 69  2  0  0  0
 57 58  2  0  0  0
 57132  1  0  0  0
 58133  1  0  0  0
 59 60  1  0  0  0
 59 61  1  0  0  0
 59 62  1  0  0  0
 60134  1  0  0  0
 60135  1  0  0  0
 60136  1  0  0  0
 61137  1  0  0  0
 61138  1  0  0  0
 61139  1  0  0  0
 62140  1  0  0  0
 62141  1  0  0  0
 62142  1  0  0  0
 63 65  1  0  0  0
 63143  1  0  0  0
 63144  1  0  0  0
 63145  1  0  0  0
 64146  1  0  0  0
 65147  1  0  0  0
 68 79  1  0  0  0
 71 74  2  0  0  0
 71 75  1  0  0  0
 71148  1  0  0  0
 72 74  1  0  0  0
 72 76  2  0  0  0
 72149  1  0  0  0
 73 75  2  0  0  0
 73 76  1  0  0  0
 73150  1  0  0  0
 74 80  1  0  0  0
 75 85  1  0  0  0
 76 88  1  0  0  0
 77 78  1  0  0  0
 77 79  2  0  0  0
 77 81  1  0  0  0
 78 84  1  0  0  0
 78 86  2  0  0  0
 79151  1  0  0  0
 80 83  1  0  0  0
 80 87  2  0  0  0
 81 82  1  0  0  0
 81152  1  0  0  0
 81153  1  0  0  0
 82 84  1  0  0  0
 82154  1  0  0  0
 82155  1  0  0  0
 83 84  1  0  0  0
 83156  1  0  0  0
 83157  1  0  0  0
 85158  1  0  0  0
M  ISO  4   1 100  68 101  79 101  85 100
M  END
> <chiral flag>
0

> <version>
0

> <s_m_source_file>
/data/baiqing/PycharmProjects/Reinvent-master-3.2/result/LINK_invent/BTK/process_docking_weight1_custom_product_contain_oxygen_bond_distance_aromatic_linkinvent_7_9_3/rearranged_h_0085.sdf

> <i_m_source_file_index>
21

> <r_mmod_Potential_Energy-OPLS-2005>
-14.1531114578247

> <r_mmod_Stretch_Energy-OPLS-2005>
38.9745483398438

> <r_mmod_Bend_Energy-OPLS-2005>
125.238128662109

> <r_mmod_Torsional_Energy-OPLS-2005>
308.648956298828

> <r_mmod_Improper_Torsional_Energy-OPLS-2005>
4.74744892120361

> <r_mmod_Van_der_Waal_Energy-OPLS-2005>
139.516372680664

> <r_mmod_Electrostatic_Energy-OPLS-2005>
-396.214202880859

> <r_mmod_Solvation_Energy-OPLS-2005>
-250.703094482422

> <b_mmod_Minimization_Converged-OPLS-2005>
0

> <r_mmod_RMS_Derivative-OPLS-2005>
1.70640003681183

$$$$
21
                    3D
 Structure written by MMmdl.
156165  0  0  1  0            999 V2000
  -30.6692  -14.6070   20.5487 C   0  0  0  0  0  0
  -30.4312  -12.3815   19.4533 C   0  0  0  0  0  0
  -29.5092  -12.5233   18.2239 C   0  0  0  0  0  0
  -28.0315  -12.3606   18.6311 C   0  0  0  0  0  0
  -27.6565  -13.2226   19.8679 C   0  0  2  0  0  0
  -28.6996  -13.0701   20.9963 C   0  0  0  0  0  0
  -25.2560  -13.8177   20.5699 C   0  0  0  0  0  0
  -24.1825  -13.0437   20.9174 C   0  0  0  0  0  0
  -24.6406  -11.6912   20.8730 C   0  0  0  0  0  0
  -23.9076  -10.4294   21.0406 C   0  0  0  0  0  0
  -24.3621   -9.4208   21.9191 C   0  0  0  0  0  0
  -23.6289   -8.2245   22.0761 C   0  0  0  0  0  0
  -22.4271   -8.0288   21.3552 C   0  0  0  0  0  0
  -21.9914   -9.0258   20.4649 C   0  0  0  0  0  0
  -22.7246  -10.2134   20.3054 C   0  0  0  0  0  0
  -21.6849   -6.0737   22.5281 C   0  0  0  0  0  0
  -21.4015   -6.5639   23.8216 C   0  0  0  0  0  0
  -21.3661   -5.6789   24.9177 C   0  0  0  0  0  0
  -21.6042   -4.3053   24.7225 C   0  0  0  0  0  0
  -21.8818   -3.8146   23.4348 C   0  0  0  0  0  0
  -21.9192   -4.6965   22.3405 C   0  0  0  0  0  0
  -22.7847  -13.5237   21.1826 C   0  0  0  0  0  0
  -22.1662   -4.2152   21.0982 F   0  0  0  0  0  0
  -21.5628   -3.4536   25.7741 F   0  0  0  0  0  0
  -30.0197  -13.4026   20.4399 N   0  0  0  0  0  0
  -26.3011  -12.9377   20.3348 N   0  0  0  0  0  0
  -25.9335  -11.6518   20.5736 N   0  0  0  0  0  0
  -22.0486  -12.8238   22.0386 N   0  0  0  0  0  0
  -25.4251  -15.1901   20.4156 N   0  0  0  0  0  0
  -31.7910  -14.7365   20.0527 O   0  0  0  0  0  0
  -21.6634   -6.8884   21.4247 O   0  0  0  0  0  0
  -22.3537  -14.5545   20.6671 O   0  0  0  0  0  0
  -24.6238  -31.8609   23.2030 C   0  0  0  0  0  0
  -25.9093  -32.4787   23.8341 C   0  0  1  0  0  0
  -27.2271  -27.3389   20.1048 C   0  0  0  0  0  0
  -25.5925  -33.8588   24.2276 N   0  0  0  0  0  0
  -23.4166  -30.4853   21.5457 C   0  0  2  0  0  0
  -24.8649  -28.9440   20.1079 C   0  0  0  0  0  0
  -22.7445  -29.4649   22.4949 C   0  0  0  0  0  0
  -18.0286  -28.1380   22.8482 C   0  0  0  0  0  0
  -24.1495  -36.7289   23.2637 C   0  0  0  0  0  0
  -25.9580  -30.7975   21.3719 C   0  0  0  0  0  0
  -26.0332  -29.4280   20.7096 C   0  0  0  0  0  0
  -27.2171  -28.6348   20.7016 C   0  0  0  0  0  0
  -26.0314  -26.8963   19.4944 C   0  0  0  0  0  0
  -24.8643  -27.6823   19.4932 C   0  0  0  0  0  0
  -23.6311  -29.8212   20.1607 C   0  0  0  0  0  0
  -25.4122  -36.3083   24.0324 C   0  0  1  0  0  0
  -20.5884  -28.3687   23.1312 C   0  0  2  0  0  0
  -20.6813  -26.9434   22.5376 C   0  0  0  0  0  0
  -19.5802  -26.6463   21.5151 C   0  0  0  0  0  0
  -18.1966  -26.7942   22.1578 C   0  0  0  0  0  0
  -19.1532  -28.8841   23.2900 C   0  0  0  0  0  0
  -18.9445  -30.1448   23.8902 C   0  0  0  0  0  0
  -17.6439  -30.6566   24.0585 C   0  0  0  0  0  0
  -25.9056  -34.9453   23.5088 C   0  0  0  0  0  0
  -16.5327  -29.9049   23.6351 C   0  0  0  0  0  0
  -16.7268  -28.6494   23.0331 C   0  0  0  0  0  0
  -26.4487  -31.6594   25.0702 C   0  0  0  0  0  0
  -25.3726  -31.3722   26.1433 C   0  0  0  0  0  0
  -27.0339  -30.3019   24.6161 C   0  0  0  0  0  0
  -27.6038  -32.4318   25.7490 C   0  0  0  0  0  0
  -27.5583  -37.1804   24.8467 C   0  0  0  0  0  0
  -21.4153  -29.3089   22.3722 N   0  0  0  0  0  0
  -26.4294  -37.3777   23.9406 N   0  0  0  0  0  0
  -24.6851  -31.0637   22.0972 N   0  0  0  0  0  0
  -23.4167  -28.8180   23.3022 O   0  0  0  0  0  0
  -28.3278  -26.4767   20.1908 O   0  0  0  0  0  0
  -26.5604  -34.8923   22.4647 O   0  0  0  0  0  0
  -23.5408  -32.1399   23.7368 O   0  0  0  0  0  0
  -28.7980  -20.7366   22.4164 C   0  0  0  0  0  0
  -28.8770  -19.5771   23.2081 C   0  0  0  0  0  0
  -29.5167  -19.4261   20.5094 C   0  0  0  0  0  0
  -29.6090  -18.2143   21.2919 C   0  0  0  0  0  0
  -29.1194  -20.7130   21.0411 C   0  0  0  0  0  0
  -29.2811  -18.3380   22.6743 C   0  0  0  0  0  0
  -28.7098  -24.1007   19.3898 C   0  0  0  0  0  0
  -28.8422  -23.2624   20.5952 C   0  0  0  0  0  0
  -30.0946  -16.8853   20.6783 C   0  0  0  0  0  0
  -28.4761  -25.4518   19.2540 C   0  0  0  0  0  0
  -28.8503  -23.2136   18.1863 C   0  0  0  0  0  0
  -29.0627  -21.8138   18.7620 C   0  0  0  0  0  0
  -29.9480  -15.6711   21.1415 N   0  0  0  0  0  0
  -29.0136  -21.9379   20.2189 N   0  0  0  0  0  0
  -29.3689  -17.2716   23.5734 N   0  0  0  0  0  0
  -28.8173  -23.6841   21.7557 O   0  0  0  0  0  0
  -31.4762  -12.4804   19.1541 H   0  0  0  0  0  0
  -30.3444  -11.3828   19.8849 H   0  0  0  0  0  0
  -29.7731  -11.7863   17.4653 H   0  0  0  0  0  0
  -29.6570  -13.5022   17.7642 H   0  0  0  0  0  0
  -27.8651  -11.3052   18.8502 H   0  0  0  0  0  0
  -27.3795  -12.6038   17.7913 H   0  0  0  0  0  0
  -27.6800  -14.2623   19.5414 H   0  0  0  0  0  0
  -28.7005  -12.0480   21.3778 H   0  0  0  0  0  0
  -28.4437  -13.7045   21.8459 H   0  0  0  0  0  0
  -25.2768   -9.5679   22.4764 H   0  0  0  0  0  0
  -23.9995   -7.4639   22.7485 H   0  0  0  0  0  0
  -21.0845   -8.8779   19.8953 H   0  0  0  0  0  0
  -22.3716  -10.9671   19.6153 H   0  0  0  0  0  0
  -21.2010   -7.6148   23.9725 H   0  0  0  0  0  0
  -21.1483   -6.0518   25.9082 H   0  0  0  0  0  0
  -22.0595   -2.7609   23.2846 H   0  0  0  0  0  0
  -22.4079  -11.9895   22.4777 H   0  0  0  0  0  0
  -21.1100  -13.1260   22.2560 H   0  0  0  0  0  0
  -24.6643  -15.8490   20.5393 H   0  0  0  0  0  0
  -26.2980  -15.6342   20.1568 H   0  0  0  0  0  0
  -26.7124  -32.5462   23.1055 H   0  0  0  0  0  0
  -25.0115  -33.9745   25.0446 H   0  0  0  0  0  0
  -22.7110  -31.3060   21.4025 H   0  0  0  0  0  0
  -23.3755  -35.9623   23.3301 H   0  0  0  0  0  0
  -24.3586  -36.8906   22.2053 H   0  0  0  0  0  0
  -23.7254  -37.6489   23.6659 H   0  0  0  0  0  0
  -26.0894  -31.5670   20.6102 H   0  0  0  0  0  0
  -26.8388  -30.8427   22.0011 H   0  0  0  0  0  0
  -28.1143  -28.9988   21.1816 H   0  0  0  0  0  0
  -25.9716  -25.9163   19.0428 H   0  0  0  0  0  0
  -23.9635  -27.3001   19.0315 H   0  0  0  0  0  0
  -23.7476  -30.5994   19.4061 H   0  0  0  0  0  0
  -22.7515  -29.2497   19.8596 H   0  0  0  0  0  0
  -25.1311  -36.1920   25.0815 H   0  0  0  0  0  0
  -20.9978  -28.3225   24.1433 H   0  0  0  0  0  0
  -20.5743  -26.2247   23.3532 H   0  0  0  0  0  0
  -21.6683  -26.7537   22.1131 H   0  0  0  0  0  0
  -19.6983  -25.6411   21.1088 H   0  0  0  0  0  0
  -19.6738  -27.3355   20.6747 H   0  0  0  0  0  0
  -17.4237  -26.6661   21.3968 H   0  0  0  0  0  0
  -18.0402  -26.0053   22.8951 H   0  0  0  0  0  0
  -19.7911  -30.7290   24.2274 H   0  0  0  0  0  0
  -17.4984  -31.6223   24.5210 H   0  0  0  0  0  0
  -15.5305  -30.2915   23.7699 H   0  0  0  0  0  0
  -15.8680  -28.0813   22.7021 H   0  0  0  0  0  0
  -24.5889  -30.7085   25.7762 H   0  0  0  0  0  0
  -24.8926  -32.2887   26.4876 H   0  0  0  0  0  0
  -25.8064  -30.8884   27.0195 H   0  0  0  0  0  0
  -26.2918  -29.6753   24.1199 H   0  0  0  0  0  0
  -27.4050  -29.7295   25.4673 H   0  0  0  0  0  0
  -27.8781  -30.4302   23.9379 H   0  0  0  0  0  0
  -27.2640  -33.3602   26.2093 H   0  0  0  0  0  0
  -28.3866  -32.6901   25.0347 H   0  0  0  0  0  0
  -28.0686  -31.8419   26.5402 H   0  0  0  0  0  0
  -28.2600  -38.0100   24.7513 H   0  0  0  0  0  0
  -28.1081  -36.2636   24.6297 H   0  0  0  0  0  0
  -27.2302  -37.1454   25.8867 H   0  0  0  0  0  0
  -20.9304  -29.8830   21.6972 H   0  0  0  0  0  0
  -26.0171  -38.2849   24.1393 H   0  0  0  0  0  0
  -28.4745  -21.6414   22.9076 H   0  0  0  0  0  0
  -28.6306  -19.6590   24.2577 H   0  0  0  0  0  0
  -29.7709  -19.3515   19.4621 H   0  0  0  0  0  0
  -30.6419  -17.0316   19.7418 H   0  0  0  0  0  0
  -28.3992  -25.8658   18.2576 H   0  0  0  0  0  0
  -29.7003  -23.5269   17.5791 H   0  0  0  0  0  0
  -27.9479  -23.2593   17.5751 H   0  0  0  0  0  0
  -30.0253  -21.4133   18.4463 H   0  0  0  0  0  0
  -28.2809  -21.1343   18.4202 H   0  0  0  0  0  0
  -29.4382  -16.3365   23.1793 H   0  0  0  0  0  0
  -28.8650  -17.3069   24.4536 H   0  0  0  0  0  0
  1 25  1  0  0  0
  1 30  2  0  0  0
  1 83  1  0  0  0
  2  3  1  0  0  0
  2 25  1  0  0  0
  2 87  1  0  0  0
  2 88  1  0  0  0
  3  4  1  0  0  0
  3 89  1  0  0  0
  3 90  1  0  0  0
  4  5  1  0  0  0
  4 91  1  0  0  0
  4 92  1  0  0  0
  5  6  1  0  0  0
  5 26  1  0  0  0
  5 93  1  0  0  0
  6 25  1  0  0  0
  6 94  1  0  0  0
  6 95  1  0  0  0
  7  8  2  0  0  0
  7 26  1  0  0  0
  7 29  1  0  0  0
  8  9  1  0  0  0
  8 22  1  0  0  0
  9 10  1  0  0  0
  9 27  2  0  0  0
 10 11  2  0  0  0
 10 15  1  0  0  0
 11 12  1  0  0  0
 11 96  1  0  0  0
 12 13  2  0  0  0
 12 97  1  0  0  0
 13 14  1  0  0  0
 13 31  1  0  0  0
 14 15  2  0  0  0
 14 98  1  0  0  0
 15 99  1  0  0  0
 16 17  2  0  0  0
 16 21  1  0  0  0
 16 31  1  0  0  0
 17 18  1  0  0  0
 17100  1  0  0  0
 18 19  2  0  0  0
 18101  1  0  0  0
 19 20  1  0  0  0
 19 24  1  0  0  0
 20 21  2  0  0  0
 20102  1  0  0  0
 21 23  1  0  0  0
 22 28  1  0  0  0
 22 32  2  0  0  0
 26 27  1  0  0  0
 28103  1  0  0  0
 28104  1  0  0  0
 29105  1  0  0  0
 29106  1  0  0  0
 33 34  1  0  0  0
 33 66  1  0  0  0
 33 70  2  0  0  0
 34 36  1  0  0  0
 34 59  1  0  0  0
 34107  1  0  0  0
 35 44  2  0  0  0
 35 45  1  0  0  0
 35 68  1  0  0  0
 36 56  1  0  0  0
 36108  1  0  0  0
 37 39  1  0  0  0
 37 47  1  0  0  0
 37 66  1  0  0  0
 37109  1  0  0  0
 38 43  2  0  0  0
 38 46  1  0  0  0
 38 47  1  0  0  0
 39 64  1  0  0  0
 39 67  2  0  0  0
 40 52  1  0  0  0
 40 53  2  0  0  0
 40 58  1  0  0  0
 41110  1  0  0  0
 41111  1  0  0  0
 41112  1  0  0  0
 41 48  1  0  0  0
 42 43  1  0  0  0
 42 66  1  0  0  0
 42113  1  0  0  0
 42114  1  0  0  0
 43 44  1  0  0  0
 44115  1  0  0  0
 45 46  2  0  0  0
 45116  1  0  0  0
 46117  1  0  0  0
 47118  1  0  0  0
 47119  1  0  0  0
 48 56  1  0  0  0
 48 65  1  0  0  0
 48120  1  0  0  0
 49 50  1  0  0  0
 49 53  1  0  0  0
 49 64  1  0  0  0
 49121  1  0  0  0
 50 51  1  0  0  0
 50122  1  0  0  0
 50123  1  0  0  0
 51 52  1  0  0  0
 51124  1  0  0  0
 51125  1  0  0  0
 52126  1  0  0  0
 52127  1  0  0  0
 53 54  1  0  0  0
 54 55  2  0  0  0
 54128  1  0  0  0
 55 57  1  0  0  0
 55129  1  0  0  0
 56 69  2  0  0  0
 57 58  2  0  0  0
 57130  1  0  0  0
 58131  1  0  0  0
 59 60  1  0  0  0
 59 61  1  0  0  0
 59 62  1  0  0  0
 60132  1  0  0  0
 60133  1  0  0  0
 60134  1  0  0  0
 61135  1  0  0  0
 61136  1  0  0  0
 61137  1  0  0  0
 62138  1  0  0  0
 62139  1  0  0  0
 62140  1  0  0  0
 63 65  1  0  0  0
 63141  1  0  0  0
 63142  1  0  0  0
 63143  1  0  0  0
 64144  1  0  0  0
 65145  1  0  0  0
 68 80  1  0  0  0
 71 72  2  0  0  0
 71 75  1  0  0  0
 71146  1  0  0  0
 72 76  1  0  0  0
 72147  1  0  0  0
 73 74  1  0  0  0
 73 75  2  0  0  0
 73148  1  0  0  0
 74 76  2  0  0  0
 74 79  1  0  0  0
 75 84  1  0  0  0
 76 85  1  0  0  0
 77 78  1  0  0  0
 77 80  2  0  0  0
 77 81  1  0  0  0
 78 84  1  0  0  0
 78 86  2  0  0  0
 79 83  2  0  0  0
 79149  1  0  0  0
 80150  1  0  0  0
 81 82  1  0  0  0
 81151  1  0  0  0
 81152  1  0  0  0
 82 84  1  0  0  0
 82153  1  0  0  0
 82154  1  0  0  0
 85155  1  0  0  0
 85156  1  0  0  0
M  ISO  4   1 100  68 101  80 101  83 100
M  END
> <chiral flag>
0

> <version>
0

> <s_m_source_file>
/data/baiqing/PycharmProjects/Reinvent-master-3.2/result/LINK_invent/BTK/process_docking_weight1_custom_product_contain_oxygen_bond_distance_aromatic_linkinvent_7_9_3/rearranged_h_0085.sdf

> <i_m_source_file_index>
22

> <r_mmod_Potential_Energy-OPLS-2005>
213.296005249023

> <r_mmod_Stretch_Energy-OPLS-2005>
85.2511520385742

> <r_mmod_Bend_Energy-OPLS-2005>
170.715347290039

> <r_mmod_Torsional_Energy-OPLS-2005>
214.77507019043

> <r_mmod_Improper_Torsional_Energy-OPLS-2005>
5.61301946640015

> <r_mmod_Van_der_Waal_Energy-OPLS-2005>
162.154235839844

> <r_mmod_Electrostatic_Energy-OPLS-2005>
-260.270782470703

> <r_mmod_Solvation_Energy-OPLS-2005>
-205.705078125

> <b_mmod_Minimization_Converged-OPLS-2005>
0

> <r_mmod_RMS_Derivative-OPLS-2005>
2.18921160697937

$$$$
22
                    3D
 Structure written by MMmdl.
152161  0  0  1  0            999 V2000
  -30.5883  -14.7446   20.4519 C   0  0  0  0  0  0
  -30.4490  -12.4522   19.4598 C   0  0  0  0  0  0
  -29.5125  -12.5103   18.2309 C   0  0  0  0  0  0
  -28.0383  -12.3323   18.6488 C   0  0  0  0  0  0
  -27.6470  -13.2237   19.8575 C   0  0  2  0  0  0
  -28.7002  -13.1328   20.9852 C   0  0  0  0  0  0
  -25.2504  -13.8134   20.5765 C   0  0  0  0  0  0
  -24.1789  -13.0373   20.9199 C   0  0  0  0  0  0
  -24.6397  -11.6868   20.8734 C   0  0  0  0  0  0
  -23.9074  -10.4258   21.0394 C   0  0  0  0  0  0
  -24.3619   -9.4182   21.9180 C   0  0  0  0  0  0
  -23.6288   -8.2225   22.0754 C   0  0  0  0  0  0
  -22.4270   -8.0269   21.3544 C   0  0  0  0  0  0
  -21.9907   -9.0240   20.4644 C   0  0  0  0  0  0
  -22.7243  -10.2111   20.3047 C   0  0  0  0  0  0
  -21.6847   -6.0730   22.5280 C   0  0  0  0  0  0
  -21.4010   -6.5636   23.8213 C   0  0  0  0  0  0
  -21.3659   -5.6790   24.9177 C   0  0  0  0  0  0
  -21.6044   -4.3054   24.7228 C   0  0  0  0  0  0
  -21.8820   -3.8144   23.4349 C   0  0  0  0  0  0
  -21.9191   -4.6959   22.3405 C   0  0  0  0  0  0
  -22.7810  -13.5167   21.1862 C   0  0  0  0  0  0
  -22.1660   -4.2145   21.0982 F   0  0  0  0  0  0
  -21.5631   -3.4538   25.7741 F   0  0  0  0  0  0
  -30.0038  -13.4975   20.4058 N   0  0  0  0  0  0
  -26.2969  -12.9365   20.3347 N   0  0  0  0  0  0
  -25.9335  -11.6502   20.5761 N   0  0  0  0  0  0
  -22.0462  -12.8167   22.0430 N   0  0  0  0  0  0
  -25.4008  -15.1873   20.4363 N   0  0  0  0  0  0
  -31.7750  -14.8960   20.1471 O   0  0  0  0  0  0
  -21.6630   -6.8870   21.4242 O   0  0  0  0  0  0
  -22.3490  -14.5476   20.6716 O   0  0  0  0  0  0
  -24.6313  -31.8557   23.1999 C   0  0  0  0  0  0
  -25.9138  -32.4759   23.8343 C   0  0  1  0  0  0
  -27.2253  -27.2700   20.1256 C   0  0  0  0  0  0
  -25.5931  -33.8561   24.2261 N   0  0  0  0  0  0
  -23.4296  -30.4785   21.5424 C   0  0  2  0  0  0
  -24.8816  -28.9322   20.1061 C   0  0  0  0  0  0
  -22.7511  -29.4599   22.4906 C   0  0  0  0  0  0
  -18.0295  -28.1387   22.8484 C   0  0  0  0  0  0
  -24.1490  -36.7286   23.2640 C   0  0  0  0  0  0
  -25.9765  -30.7690   21.3835 C   0  0  0  0  0  0
  -26.0524  -29.3932   20.7238 C   0  0  0  0  0  0
  -27.2281  -28.5723   20.7299 C   0  0  0  0  0  0
  -26.0393  -26.8906   19.4565 C   0  0  0  0  0  0
  -24.8795  -27.6871   19.4611 C   0  0  0  0  0  0
  -23.6497  -29.8155   20.1576 C   0  0  0  0  0  0
  -25.4117  -36.3073   24.0326 C   0  0  1  0  0  0
  -20.5900  -28.3700   23.1264 C   0  0  2  0  0  0
  -20.6781  -26.9416   22.5407 C   0  0  0  0  0  0
  -19.5755  -26.6382   21.5212 C   0  0  0  0  0  0
  -18.1937  -26.7928   22.1626 C   0  0  0  0  0  0
  -19.1549  -28.8861   23.2868 C   0  0  0  0  0  0
  -18.9469  -30.1461   23.8888 C   0  0  0  0  0  0
  -17.6467  -30.6587   24.0561 C   0  0  0  0  0  0
  -25.9056  -34.9442   23.5096 C   0  0  0  0  0  0
  -16.5358  -29.9084   23.6332 C   0  0  0  0  0  0
  -16.7281  -28.6501   23.0354 C   0  0  0  0  0  0
  -26.4503  -31.6584   25.0733 C   0  0  0  0  0  0
  -25.3721  -31.3736   26.1448 C   0  0  0  0  0  0
  -27.0358  -30.2999   24.6231 C   0  0  0  0  0  0
  -27.6050  -32.4332   25.7509 C   0  0  0  0  0  0
  -27.5578  -37.1801   24.8467 C   0  0  0  0  0  0
  -21.4217  -29.3045   22.3651 N   0  0  0  0  0  0
  -26.4293  -37.3770   23.9405 N   0  0  0  0  0  0
  -24.6978  -31.0520   22.0980 N   0  0  0  0  0  0
  -23.4208  -28.8136   23.3006 O   0  0  0  0  0  0
  -28.2720  -26.3165   20.1933 O   0  0  0  0  0  0
  -26.5630  -34.8915   22.4666 O   0  0  0  0  0  0
  -23.5460  -32.1379   23.7288 O   0  0  0  0  0  0
  -30.5689  -19.6299   20.7935 C   0  0  0  0  0  0
  -30.7770  -18.1988   20.8140 C   0  0  0  0  0  0
  -28.3376  -19.3162   20.1036 C   0  0  0  0  0  0
  -29.3231  -20.2750   20.4855 C   0  0  0  0  0  0
  -29.7426  -17.2772   20.4818 C   0  0  0  0  0  0
  -28.5339  -17.8990   20.0750 C   0  0  0  0  0  0
  -28.4516  -23.7200   20.5002 C   0  0  0  0  0  0
  -27.8227  -22.4663   20.8985 C   0  0  0  0  0  0
  -27.8870  -24.9926   20.5694 C   0  0  0  0  0  0
  -29.7047  -22.9071   20.0598 C   0  0  0  0  0  0
  -28.9826  -21.7206   20.6142 N   0  0  0  0  0  0
  -27.5018  -17.0821   19.6145 N   0  0  0  0  0  0
  -29.7208  -15.8020   20.6363 N   0  0  0  0  0  0
  -26.6904  -22.2271   21.2647 O   0  0  0  0  0  0
  -31.4857  -12.5975   19.1508 H   0  0  0  0  0  0
  -30.4100  -11.4694   19.9318 H   0  0  0  0  0  0
  -29.7908  -11.7422   17.5080 H   0  0  0  0  0  0
  -29.6346  -13.4674   17.7211 H   0  0  0  0  0  0
  -27.8954  -11.2821   18.9059 H   0  0  0  0  0  0
  -27.3781  -12.5296   17.8035 H   0  0  0  0  0  0
  -27.6400  -14.2473   19.4861 H   0  0  0  0  0  0
  -28.7369  -12.1242   21.3994 H   0  0  0  0  0  0
  -28.4378  -13.7900   21.8160 H   0  0  0  0  0  0
  -25.2764   -9.5658   22.4755 H   0  0  0  0  0  0
  -23.9991   -7.4617   22.7478 H   0  0  0  0  0  0
  -21.0837   -8.8762   19.8952 H   0  0  0  0  0  0
  -22.3707  -10.9651   19.6155 H   0  0  0  0  0  0
  -21.2000   -7.6144   23.9714 H   0  0  0  0  0  0
  -21.1482   -6.0522   25.9079 H   0  0  0  0  0  0
  -22.0600   -2.7606   23.2851 H   0  0  0  0  0  0
  -22.4084  -11.9831   22.4817 H   0  0  0  0  0  0
  -21.1083  -13.1194   22.2645 H   0  0  0  0  0  0
  -24.6189  -15.8146   20.5836 H   0  0  0  0  0  0
  -26.2564  -15.6975   20.2094 H   0  0  0  0  0  0
  -26.7206  -32.5415   23.1089 H   0  0  0  0  0  0
  -25.0070  -33.9701   25.0400 H   0  0  0  0  0  0
  -22.7260  -31.3007   21.3970 H   0  0  0  0  0  0
  -23.3750  -35.9621   23.3309 H   0  0  0  0  0  0
  -24.3577  -36.8902   22.2053 H   0  0  0  0  0  0
  -23.7248  -37.6491   23.6661 H   0  0  0  0  0  0
  -26.1176  -31.5309   20.6155 H   0  0  0  0  0  0
  -26.8526  -30.8166   22.0184 H   0  0  0  0  0  0
  -28.1183  -28.9119   21.2404 H   0  0  0  0  0  0
  -25.9908  -25.9344   18.9548 H   0  0  0  0  0  0
  -23.9869  -27.3309   18.9655 H   0  0  0  0  0  0
  -23.7715  -30.5937   19.4032 H   0  0  0  0  0  0
  -22.7693  -29.2472   19.8520 H   0  0  0  0  0  0
  -25.1301  -36.1922   25.0819 H   0  0  0  0  0  0
  -20.9994  -28.3280   24.1384 H   0  0  0  0  0  0
  -20.5682  -26.2312   23.3614 H   0  0  0  0  0  0
  -21.6649  -26.7437   22.1200 H   0  0  0  0  0  0
  -19.6917  -25.6291   21.1247 H   0  0  0  0  0  0
  -19.6690  -27.3189   20.6739 H   0  0  0  0  0  0
  -17.4205  -26.6674   21.4030 H   0  0  0  0  0  0
  -18.0338  -26.0071   22.9025 H   0  0  0  0  0  0
  -19.7945  -30.7280   24.2253 H   0  0  0  0  0  0
  -17.5021  -31.6266   24.5165 H   0  0  0  0  0  0
  -15.5358  -30.2982   23.7660 H   0  0  0  0  0  0
  -15.8681  -28.0817   22.7074 H   0  0  0  0  0  0
  -24.5905  -30.7075   25.7775 H   0  0  0  0  0  0
  -24.8901  -32.2904   26.4850 H   0  0  0  0  0  0
  -25.8032  -30.8931   27.0239 H   0  0  0  0  0  0
  -26.2951  -29.6741   24.1237 H   0  0  0  0  0  0
  -27.4014  -29.7267   25.4761 H   0  0  0  0  0  0
  -27.8840  -30.4270   23.9500 H   0  0  0  0  0  0
  -27.2650  -33.3635   26.2071 H   0  0  0  0  0  0
  -28.3868  -32.6889   25.0344 H   0  0  0  0  0  0
  -28.0711  -31.8470   26.5439 H   0  0  0  0  0  0
  -28.2601  -38.0092   24.7502 H   0  0  0  0  0  0
  -28.1067  -36.2622   24.6309 H   0  0  0  0  0  0
  -27.2292  -37.1469   25.8869 H   0  0  0  0  0  0
  -20.9404  -29.8771   21.6856 H   0  0  0  0  0  0
  -26.0173  -38.2846   24.1396 H   0  0  0  0  0  0
  -31.3961  -20.2549   21.0991 H   0  0  0  0  0  0
  -31.7354  -17.8178   21.1361 H   0  0  0  0  0  0
  -27.3642  -19.6931   19.8243 H   0  0  0  0  0  0
  -26.9014  -25.0231   21.0159 H   0  0  0  0  0  0
  -30.6429  -23.0924   20.5847 H   0  0  0  0  0  0
  -29.8818  -22.8069   18.9875 H   0  0  0  0  0  0
  -26.7314  -17.5881   19.1900 H   0  0  0  0  0  0
  -27.8286  -16.3727   18.9681 H   0  0  0  0  0  0
  -28.7736  -15.4758   20.7545 H   0  0  0  0  0  0
  1 25  1  0  0  0
  1 30  2  0  0  0
  1 83  1  0  0  0
  2  3  1  0  0  0
  2 25  1  0  0  0
  2 85  1  0  0  0
  2 86  1  0  0  0
  3  4  1  0  0  0
  3 87  1  0  0  0
  3 88  1  0  0  0
  4  5  1  0  0  0
  4 89  1  0  0  0
  4 90  1  0  0  0
  5  6  1  0  0  0
  5 26  1  0  0  0
  5 91  1  0  0  0
  6 25  1  0  0  0
  6 92  1  0  0  0
  6 93  1  0  0  0
  7  8  2  0  0  0
  7 26  1  0  0  0
  7 29  1  0  0  0
  8  9  1  0  0  0
  8 22  1  0  0  0
  9 10  1  0  0  0
  9 27  2  0  0  0
 10 11  2  0  0  0
 10 15  1  0  0  0
 11 12  1  0  0  0
 11 94  1  0  0  0
 12 13  2  0  0  0
 12 95  1  0  0  0
 13 14  1  0  0  0
 13 31  1  0  0  0
 14 15  2  0  0  0
 14 96  1  0  0  0
 15 97  1  0  0  0
 16 17  2  0  0  0
 16 21  1  0  0  0
 16 31  1  0  0  0
 17 18  1  0  0  0
 17 98  1  0  0  0
 18 19  2  0  0  0
 18 99  1  0  0  0
 19 20  1  0  0  0
 19 24  1  0  0  0
 20 21  2  0  0  0
 20100  1  0  0  0
 21 23  1  0  0  0
 22 28  1  0  0  0
 22 32  2  0  0  0
 26 27  1  0  0  0
 28101  1  0  0  0
 28102  1  0  0  0
 29103  1  0  0  0
 29104  1  0  0  0
 33 34  1  0  0  0
 33 66  1  0  0  0
 33 70  2  0  0  0
 34 36  1  0  0  0
 34 59  1  0  0  0
 34105  1  0  0  0
 35 44  2  0  0  0
 35 45  1  0  0  0
 35 68  1  0  0  0
 36 56  1  0  0  0
 36106  1  0  0  0
 37 39  1  0  0  0
 37 47  1  0  0  0
 37 66  1  0  0  0
 37107  1  0  0  0
 38 43  2  0  0  0
 38 46  1  0  0  0
 38 47  1  0  0  0
 39 64  1  0  0  0
 39 67  2  0  0  0
 40 52  1  0  0  0
 40 53  2  0  0  0
 40 58  1  0  0  0
 41108  1  0  0  0
 41109  1  0  0  0
 41110  1  0  0  0
 41 48  1  0  0  0
 42 43  1  0  0  0
 42 66  1  0  0  0
 42111  1  0  0  0
 42112  1  0  0  0
 43 44  1  0  0  0
 44113  1  0  0  0
 45 46  2  0  0  0
 45114  1  0  0  0
 46115  1  0  0  0
 47116  1  0  0  0
 47117  1  0  0  0
 48 56  1  0  0  0
 48 65  1  0  0  0
 48118  1  0  0  0
 49 50  1  0  0  0
 49 53  1  0  0  0
 49 64  1  0  0  0
 49119  1  0  0  0
 50 51  1  0  0  0
 50120  1  0  0  0
 50121  1  0  0  0
 51 52  1  0  0  0
 51122  1  0  0  0
 51123  1  0  0  0
 52124  1  0  0  0
 52125  1  0  0  0
 53 54  1  0  0  0
 54 55  2  0  0  0
 54126  1  0  0  0
 55 57  1  0  0  0
 55127  1  0  0  0
 56 69  2  0  0  0
 57 58  2  0  0  0
 57128  1  0  0  0
 58129  1  0  0  0
 59 60  1  0  0  0
 59 61  1  0  0  0
 59 62  1  0  0  0
 60130  1  0  0  0
 60131  1  0  0  0
 60132  1  0  0  0
 61133  1  0  0  0
 61134  1  0  0  0
 61135  1  0  0  0
 62136  1  0  0  0
 62137  1  0  0  0
 62138  1  0  0  0
 63 65  1  0  0  0
 63139  1  0  0  0
 63140  1  0  0  0
 63141  1  0  0  0
 64142  1  0  0  0
 65143  1  0  0  0
 68 79  1  0  0  0
 71 72  2  0  0  0
 71 74  1  0  0  0
 71144  1  0  0  0
 72 75  1  0  0  0
 72145  1  0  0  0
 73 74  2  0  0  0
 73 76  1  0  0  0
 73146  1  0  0  0
 74 81  1  0  0  0
 75 76  2  0  0  0
 75 83  1  0  0  0
 76 82  1  0  0  0
 77 78  1  0  0  0
 77 79  2  0  0  0
 77 80  1  0  0  0
 78 81  1  0  0  0
 78 84  2  0  0  0
 79147  1  0  0  0
 80 81  1  0  0  0
 80148  1  0  0  0
 80149  1  0  0  0
 82150  1  0  0  0
 82151  1  0  0  0
 83152  1  0  0  0
M  ISO  4   1 100  68 101  79 101  83 100
M  END
> <chiral flag>
0

> <version>
0

> <s_m_source_file>
/data/baiqing/PycharmProjects/Reinvent-master-3.2/result/LINK_invent/BTK/process_docking_weight1_custom_product_contain_oxygen_bond_distance_aromatic_linkinvent_7_9_3/rearranged_h_0085.sdf

> <i_m_source_file_index>
23

> <r_mmod_Potential_Energy-OPLS-2005>
164.012237548828

> <r_mmod_Stretch_Energy-OPLS-2005>
102.459053039551

> <r_mmod_Bend_Energy-OPLS-2005>
264.789855957031

> <r_mmod_Torsional_Energy-OPLS-2005>
255.915130615234

> <r_mmod_Improper_Torsional_Energy-OPLS-2005>
12.7281932830811

> <r_mmod_Van_der_Waal_Energy-OPLS-2005>
144.490264892578

> <r_mmod_Electrostatic_Energy-OPLS-2005>
-490.863677978516

> <r_mmod_Solvation_Energy-OPLS-2005>
-215.716949462891

> <b_mmod_Minimization_Converged-OPLS-2005>
0

> <r_mmod_RMS_Derivative-OPLS-2005>
0.213552057743073

$$$$
23
                    3D
 Structure written by MMmdl.
157166  0  0  1  0            999 V2000
  -30.5871  -14.7748   20.4571 C   0  0  0  0  0  0
  -30.4410  -12.4787   19.4629 C   0  0  0  0  0  0
  -29.5122  -12.5010   18.2291 C   0  0  0  0  0  0
  -28.0388  -12.3149   18.6478 C   0  0  0  0  0  0
  -27.6355  -13.2274   19.8378 C   0  0  2  0  0  0
  -28.6828  -13.1793   20.9700 C   0  0  0  0  0  0
  -25.2492  -13.8184   20.5702 C   0  0  0  0  0  0
  -24.1785  -13.0422   20.9213 C   0  0  0  0  0  0
  -24.6379  -11.6900   20.8737 C   0  0  0  0  0  0
  -23.9051  -10.4285   21.0402 C   0  0  0  0  0  0
  -24.3603   -9.4208   21.9184 C   0  0  0  0  0  0
  -23.6292   -8.2232   22.0743 C   0  0  0  0  0  0
  -22.4273   -8.0268   21.3536 C   0  0  0  0  0  0
  -21.9904   -9.0241   20.4640 C   0  0  0  0  0  0
  -22.7222  -10.2126   20.3059 C   0  0  0  0  0  0
  -21.6847   -6.0736   22.5282 C   0  0  0  0  0  0
  -21.4012   -6.5640   23.8219 C   0  0  0  0  0  0
  -21.3656   -5.6791   24.9178 C   0  0  0  0  0  0
  -21.6036   -4.3051   24.7228 C   0  0  0  0  0  0
  -21.8818   -3.8146   23.4349 C   0  0  0  0  0  0
  -21.9190   -4.6965   22.3406 C   0  0  0  0  0  0
  -22.7813  -13.5210   21.1872 C   0  0  0  0  0  0
  -22.1663   -4.2158   21.0982 F   0  0  0  0  0  0
  -21.5628   -3.4526   25.7739 F   0  0  0  0  0  0
  -29.9749  -13.5445   20.3766 N   0  0  0  0  0  0
  -26.2904  -12.9378   20.3239 N   0  0  0  0  0  0
  -25.9302  -11.6522   20.5720 N   0  0  0  0  0  0
  -22.0453  -12.8216   22.0432 N   0  0  0  0  0  0
  -25.4168  -15.1923   20.4144 N   0  0  0  0  0  0
  -31.7952  -14.8702   20.2197 O   0  0  0  0  0  0
  -21.6629   -6.8873   21.4243 O   0  0  0  0  0  0
  -22.3502  -14.5513   20.6704 O   0  0  0  0  0  0
  -24.6329  -31.8551   23.1960 C   0  0  0  0  0  0
  -25.9140  -32.4751   23.8323 C   0  0  1  0  0  0
  -27.2195  -27.2576   20.1304 C   0  0  0  0  0  0
  -25.5926  -33.8550   24.2249 N   0  0  0  0  0  0
  -23.4303  -30.4773   21.5401 C   0  0  2  0  0  0
  -24.8774  -28.9190   20.1138 C   0  0  0  0  0  0
  -22.7505  -29.4618   22.4906 C   0  0  0  0  0  0
  -18.0303  -28.1396   22.8503 C   0  0  0  0  0  0
  -24.1486  -36.7284   23.2639 C   0  0  0  0  0  0
  -25.9756  -30.7683   21.3747 C   0  0  0  0  0  0
  -26.0511  -29.3886   20.7183 C   0  0  0  0  0  0
  -27.2292  -28.5722   20.7095 C   0  0  0  0  0  0
  -26.0235  -26.8514   19.5047 C   0  0  0  0  0  0
  -24.8684  -27.6584   19.4958 C   0  0  0  0  0  0
  -23.6493  -29.8083   20.1580 C   0  0  0  0  0  0
  -25.4108  -36.3066   24.0329 C   0  0  1  0  0  0
  -20.5905  -28.3724   23.1272 C   0  0  2  0  0  0
  -20.6796  -26.9438   22.5416 C   0  0  0  0  0  0
  -19.5762  -26.6391   21.5231 C   0  0  0  0  0  0
  -18.1942  -26.7941   22.1643 C   0  0  0  0  0  0
  -19.1555  -28.8874   23.2887 C   0  0  0  0  0  0
  -18.9469  -30.1469   23.8912 C   0  0  0  0  0  0
  -17.6464  -30.6597   24.0563 C   0  0  0  0  0  0
  -25.9054  -34.9438   23.5095 C   0  0  0  0  0  0
  -16.5357  -29.9091   23.6326 C   0  0  0  0  0  0
  -16.7286  -28.6503   23.0366 C   0  0  0  0  0  0
  -26.4499  -31.6575   25.0717 C   0  0  0  0  0  0
  -25.3701  -31.3744   26.1422 C   0  0  0  0  0  0
  -27.0334  -30.2984   24.6207 C   0  0  0  0  0  0
  -27.6057  -32.4312   25.7493 C   0  0  0  0  0  0
  -27.5575  -37.1794   24.8462 C   0  0  0  0  0  0
  -21.4214  -29.3059   22.3642 N   0  0  0  0  0  0
  -26.4285  -37.3764   23.9410 N   0  0  0  0  0  0
  -24.6990  -31.0504   22.0943 N   0  0  0  0  0  0
  -23.4205  -28.8175   23.3017 O   0  0  0  0  0  0
  -28.3071  -26.3550   20.1260 O   0  0  0  0  0  0
  -26.5627  -34.8920   22.4665 O   0  0  0  0  0  0
  -23.5472  -32.1377   23.7238 O   0  0  0  0  0  0
  -30.5629  -19.9814   21.8619 C   0  0  0  0  0  0
  -29.4559  -18.5180   20.2692 C   0  0  0  0  0  0
  -30.9211  -17.5495   21.9577 C   0  0  0  0  0  0
  -29.6939  -19.8856   20.7477 C   0  0  0  0  0  0
  -31.1605  -18.8486   22.4523 C   0  0  0  0  0  0
  -30.0635  -17.3236   20.8611 C   0  0  0  0  0  0
  -28.6535  -23.5591   18.6866 C   0  0  0  0  0  0
  -29.2316  -21.2077   18.7234 C   0  0  0  0  0  0
  -28.5711  -23.6375   20.0309 C   0  0  0  0  0  0
  -28.9857  -22.3199   18.0045 C   0  0  0  0  0  0
  -28.8481  -22.3580   20.8159 C   0  0  0  0  0  0
  -28.1153  -24.9939   20.7481 C   0  0  0  0  0  0
  -29.2065  -21.1722   20.1307 N   0  0  0  0  0  0
  -32.0000  -19.0156   23.5519 N   0  0  0  0  0  0
  -29.7739  -15.9062   20.5000 N   0  0  0  0  0  0
  -28.7247  -22.3505   22.0451 O   0  0  0  0  0  0
  -29.0571  -22.2781   16.6697 O   0  0  0  0  0  0
  -31.4778  -12.6300   19.1554 H   0  0  0  0  0  0
  -30.4112  -11.5083   19.9599 H   0  0  0  0  0  0
  -29.8057  -11.7215   17.5254 H   0  0  0  0  0  0
  -29.6257  -13.4495   17.7020 H   0  0  0  0  0  0
  -27.9109  -11.2702   18.9312 H   0  0  0  0  0  0
  -27.3761  -12.4799   17.7982 H   0  0  0  0  0  0
  -27.6196  -14.2426   19.4412 H   0  0  0  0  0  0
  -28.7303  -12.1854   21.4177 H   0  0  0  0  0  0
  -28.4128  -13.8677   21.7728 H   0  0  0  0  0  0
  -25.2758   -9.5693   22.4753 H   0  0  0  0  0  0
  -24.0009   -7.4625   22.7460 H   0  0  0  0  0  0
  -21.0840   -8.8747   19.8958 H   0  0  0  0  0  0
  -22.3676  -10.9650   19.6158 H   0  0  0  0  0  0
  -21.2004   -7.6149   23.9729 H   0  0  0  0  0  0
  -21.1478   -6.0517   25.9085 H   0  0  0  0  0  0
  -22.0602   -2.7610   23.2839 H   0  0  0  0  0  0
  -22.4050  -11.9891   22.4868 H   0  0  0  0  0  0
  -21.1068  -13.1252   22.2605 H   0  0  0  0  0  0
  -24.6460  -15.8415   20.5329 H   0  0  0  0  0  0
  -26.2591  -15.6378   20.0749 H   0  0  0  0  0  0
  -26.7206  -32.5401   23.1073 H   0  0  0  0  0  0
  -25.0039  -33.9677   25.0372 H   0  0  0  0  0  0
  -22.7287  -31.3002   21.3909 H   0  0  0  0  0  0
  -23.3750  -35.9614   23.3291 H   0  0  0  0  0  0
  -24.3585  -36.8915   22.2056 H   0  0  0  0  0  0
  -23.7239  -37.6483   23.6668 H   0  0  0  0  0  0
  -26.1061  -31.5271   20.6019 H   0  0  0  0  0  0
  -26.8563  -30.8230   22.0037 H   0  0  0  0  0  0
  -28.1314  -28.9285   21.1858 H   0  0  0  0  0  0
  -25.9738  -25.8829   19.0269 H   0  0  0  0  0  0
  -23.9692  -27.2931   19.0184 H   0  0  0  0  0  0
  -23.7742  -30.5824   19.3994 H   0  0  0  0  0  0
  -22.7670  -29.2420   19.8547 H   0  0  0  0  0  0
  -25.1288  -36.1914   25.0820 H   0  0  0  0  0  0
  -21.0019  -28.3303   24.1382 H   0  0  0  0  0  0
  -20.5735  -26.2321   23.3622 H   0  0  0  0  0  0
  -21.6656  -26.7472   22.1182 H   0  0  0  0  0  0
  -19.6922  -25.6299   21.1263 H   0  0  0  0  0  0
  -19.6692  -27.3202   20.6760 H   0  0  0  0  0  0
  -17.4215  -26.6712   21.4033 H   0  0  0  0  0  0
  -18.0328  -26.0084   22.9035 H   0  0  0  0  0  0
  -19.7935  -30.7288   24.2299 H   0  0  0  0  0  0
  -17.5008  -31.6285   24.5157 H   0  0  0  0  0  0
  -15.5356  -30.2998   23.7626 H   0  0  0  0  0  0
  -15.8693  -28.0812   22.7083 H   0  0  0  0  0  0
  -24.5879  -30.7099   25.7736 H   0  0  0  0  0  0
  -24.8891  -32.2921   26.4811 H   0  0  0  0  0  0
  -25.7989  -30.8932   27.0220 H   0  0  0  0  0  0
  -26.2917  -29.6745   24.1208 H   0  0  0  0  0  0
  -27.3977  -29.7238   25.4734 H   0  0  0  0  0  0
  -27.8812  -30.4248   23.9473 H   0  0  0  0  0  0
  -27.2671  -33.3619   26.2056 H   0  0  0  0  0  0
  -28.3875  -32.6857   25.0325 H   0  0  0  0  0  0
  -28.0718  -31.8445   26.5419 H   0  0  0  0  0  0
  -28.2580  -38.0101   24.7507 H   0  0  0  0  0  0
  -28.1083  -36.2630   24.6284 H   0  0  0  0  0  0
  -27.2300  -37.1439   25.8867 H   0  0  0  0  0  0
  -20.9398  -29.8735   21.6810 H   0  0  0  0  0  0
  -26.0164  -38.2836   24.1416 H   0  0  0  0  0  0
  -30.8075  -20.9556   22.2617 H   0  0  0  0  0  0
  -28.7934  -18.3836   19.4255 H   0  0  0  0  0  0
  -31.3773  -16.7045   22.4539 H   0  0  0  0  0  0
  -28.4323  -24.4444   18.1055 H   0  0  0  0  0  0
  -29.5026  -20.2712   18.2571 H   0  0  0  0  0  0
  -28.6497  -25.0398   21.6962 H   0  0  0  0  0  0
  -27.0701  -24.8621   21.0298 H   0  0  0  0  0  0
  -32.3139  -19.9417   23.8256 H   0  0  0  0  0  0
  -32.6223  -18.2665   23.8417 H   0  0  0  0  0  0
  -28.7955  -15.7019   20.3711 H   0  0  0  0  0  0
  -28.8519  -23.1435   16.3362 H   0  0  0  0  0  0
  1 25  1  0  0  0
  1 30  2  0  0  0
  1 85  1  0  0  0
  2  3  1  0  0  0
  2 25  1  0  0  0
  2 88  1  0  0  0
  2 89  1  0  0  0
  3  4  1  0  0  0
  3 90  1  0  0  0
  3 91  1  0  0  0
  4  5  1  0  0  0
  4 92  1  0  0  0
  4 93  1  0  0  0
  5  6  1  0  0  0
  5 26  1  0  0  0
  5 94  1  0  0  0
  6 25  1  0  0  0
  6 95  1  0  0  0
  6 96  1  0  0  0
  7  8  2  0  0  0
  7 26  1  0  0  0
  7 29  1  0  0  0
  8  9  1  0  0  0
  8 22  1  0  0  0
  9 10  1  0  0  0
  9 27  2  0  0  0
 10 11  2  0  0  0
 10 15  1  0  0  0
 11 12  1  0  0  0
 11 97  1  0  0  0
 12 13  2  0  0  0
 12 98  1  0  0  0
 13 14  1  0  0  0
 13 31  1  0  0  0
 14 15  2  0  0  0
 14 99  1  0  0  0
 15100  1  0  0  0
 16 17  2  0  0  0
 16 21  1  0  0  0
 16 31  1  0  0  0
 17 18  1  0  0  0
 17101  1  0  0  0
 18 19  2  0  0  0
 18102  1  0  0  0
 19 20  1  0  0  0
 19 24  1  0  0  0
 20 21  2  0  0  0
 20103  1  0  0  0
 21 23  1  0  0  0
 22 28  1  0  0  0
 22 32  2  0  0  0
 26 27  1  0  0  0
 28104  1  0  0  0
 28105  1  0  0  0
 29106  1  0  0  0
 29107  1  0  0  0
 33 34  1  0  0  0
 33 66  1  0  0  0
 33 70  2  0  0  0
 34 36  1  0  0  0
 34 59  1  0  0  0
 34108  1  0  0  0
 35 44  2  0  0  0
 35 45  1  0  0  0
 35 68  1  0  0  0
 36 56  1  0  0  0
 36109  1  0  0  0
 37 39  1  0  0  0
 37 47  1  0  0  0
 37 66  1  0  0  0
 37110  1  0  0  0
 38 43  2  0  0  0
 38 46  1  0  0  0
 38 47  1  0  0  0
 39 64  1  0  0  0
 39 67  2  0  0  0
 40 52  1  0  0  0
 40 53  2  0  0  0
 40 58  1  0  0  0
 41111  1  0  0  0
 41112  1  0  0  0
 41113  1  0  0  0
 41 48  1  0  0  0
 42 43  1  0  0  0
 42 66  1  0  0  0
 42114  1  0  0  0
 42115  1  0  0  0
 43 44  1  0  0  0
 44116  1  0  0  0
 45 46  2  0  0  0
 45117  1  0  0  0
 46118  1  0  0  0
 47119  1  0  0  0
 47120  1  0  0  0
 48 56  1  0  0  0
 48 65  1  0  0  0
 48121  1  0  0  0
 49 50  1  0  0  0
 49 53  1  0  0  0
 49 64  1  0  0  0
 49122  1  0  0  0
 50 51  1  0  0  0
 50123  1  0  0  0
 50124  1  0  0  0
 51 52  1  0  0  0
 51125  1  0  0  0
 51126  1  0  0  0
 52127  1  0  0  0
 52128  1  0  0  0
 53 54  1  0  0  0
 54 55  2  0  0  0
 54129  1  0  0  0
 55 57  1  0  0  0
 55130  1  0  0  0
 56 69  2  0  0  0
 57 58  2  0  0  0
 57131  1  0  0  0
 58132  1  0  0  0
 59 60  1  0  0  0
 59 61  1  0  0  0
 59 62  1  0  0  0
 60133  1  0  0  0
 60134  1  0  0  0
 60135  1  0  0  0
 61136  1  0  0  0
 61137  1  0  0  0
 61138  1  0  0  0
 62139  1  0  0  0
 62140  1  0  0  0
 62141  1  0  0  0
 63 65  1  0  0  0
 63142  1  0  0  0
 63143  1  0  0  0
 63144  1  0  0  0
 64145  1  0  0  0
 65146  1  0  0  0
 68 82  1  0  0  0
 71 74  2  0  0  0
 71 75  1  0  0  0
 71147  1  0  0  0
 72 74  1  0  0  0
 72 76  2  0  0  0
 72148  1  0  0  0
 73 75  2  0  0  0
 73 76  1  0  0  0
 73149  1  0  0  0
 74 83  1  0  0  0
 75 84  1  0  0  0
 76 85  1  0  0  0
 77 79  2  0  0  0
 77 80  1  0  0  0
 77150  1  0  0  0
 78 80  2  0  0  0
 78 83  1  0  0  0
 78151  1  0  0  0
 79 81  1  0  0  0
 79 82  1  0  0  0
 80 87  1  0  0  0
 81 83  1  0  0  0
 81 86  2  0  0  0
 82152  1  0  0  0
 82153  1  0  0  0
 84154  1  0  0  0
 84155  1  0  0  0
 85156  1  0  0  0
 87157  1  0  0  0
M  ISO  4   1 100  68 101  82 101  85 100
M  END
> <chiral flag>
0

> <version>
0

> <s_m_source_file>
/data/baiqing/PycharmProjects/Reinvent-master-3.2/result/LINK_invent/BTK/process_docking_weight1_custom_product_contain_oxygen_bond_distance_aromatic_linkinvent_7_9_3/rearranged_h_0085.sdf

> <i_m_source_file_index>
24

> <r_mmod_Potential_Energy-OPLS-2005>
274.566162109375

> <r_mmod_Stretch_Energy-OPLS-2005>
146.205825805664

> <r_mmod_Bend_Energy-OPLS-2005>
164.689422607422

> <r_mmod_Torsional_Energy-OPLS-2005>
278.048309326172

> <r_mmod_Improper_Torsional_Energy-OPLS-2005>
10.0312747955322

> <r_mmod_Van_der_Waal_Energy-OPLS-2005>
158.777206420898

> <r_mmod_Electrostatic_Energy-OPLS-2005>
-334.05859375

> <r_mmod_Solvation_Energy-OPLS-2005>
-245.242721557617

> <b_mmod_Minimization_Converged-OPLS-2005>
0

> <r_mmod_RMS_Derivative-OPLS-2005>
2.01923561096191

$$$$
24
                    3D
 Structure written by MMmdl.
152160  0  0  1  0            999 V2000
  -30.7024  -14.5289   20.5407 C   0  0  0  0  0  0
  -30.4190  -12.3323   19.4402 C   0  0  0  0  0  0
  -29.4964  -12.4984   18.2154 C   0  0  0  0  0  0
  -28.0194  -12.3529   18.6285 C   0  0  0  0  0  0
  -27.6562  -13.2145   19.8682 C   0  0  2  0  0  0
  -28.7000  -13.0481   20.9964 C   0  0  0  0  0  0
  -25.2561  -13.8175   20.5679 C   0  0  0  0  0  0
  -24.1828  -13.0443   20.9187 C   0  0  0  0  0  0
  -24.6393  -11.6911   20.8741 C   0  0  0  0  0  0
  -23.9064  -10.4295   21.0404 C   0  0  0  0  0  0
  -24.3614   -9.4209   21.9182 C   0  0  0  0  0  0
  -23.6289   -8.2244   22.0756 C   0  0  0  0  0  0
  -22.4274   -8.0279   21.3544 C   0  0  0  0  0  0
  -21.9906   -9.0253   20.4649 C   0  0  0  0  0  0
  -22.7234  -10.2133   20.3056 C   0  0  0  0  0  0
  -21.6853   -6.0731   22.5277 C   0  0  0  0  0  0
  -21.4017   -6.5636   23.8211 C   0  0  0  0  0  0
  -21.3659   -5.6789   24.9173 C   0  0  0  0  0  0
  -21.6043   -4.3053   24.7225 C   0  0  0  0  0  0
  -21.8819   -3.8144   23.4347 C   0  0  0  0  0  0
  -21.9194   -4.6959   22.3402 C   0  0  0  0  0  0
  -22.7848  -13.5232   21.1846 C   0  0  0  0  0  0
  -22.1659   -4.2140   21.0982 F   0  0  0  0  0  0
  -21.5627   -3.4539   25.7740 F   0  0  0  0  0  0
  -30.0253  -13.3486   20.4334 N   0  0  0  0  0  0
  -26.3000  -12.9355   20.3347 N   0  0  0  0  0  0
  -25.9323  -11.6511   20.5774 N   0  0  0  0  0  0
  -22.0493  -12.8225   22.0406 N   0  0  0  0  0  0
  -25.4278  -15.1894   20.4074 N   0  0  0  0  0  0
  -31.8482  -14.6500   20.1008 O   0  0  0  0  0  0
  -21.6641   -6.8873   21.4240 O   0  0  0  0  0  0
  -22.3530  -14.5537   20.6693 O   0  0  0  0  0  0
  -24.6184  -31.8663   23.2082 C   0  0  0  0  0  0
  -25.9060  -32.4821   23.8393 C   0  0  1  0  0  0
  -27.2242  -27.3961   20.1046 C   0  0  0  0  0  0
  -25.5902  -33.8619   24.2328 N   0  0  0  0  0  0
  -23.4100  -30.4914   21.5483 C   0  0  2  0  0  0
  -24.8584  -28.9609   20.1065 C   0  0  0  0  0  0
  -22.7446  -29.4654   22.4955 C   0  0  0  0  0  0
  -18.0279  -28.1391   22.8491 C   0  0  0  0  0  0
  -24.1487  -36.7307   23.2639 C   0  0  0  0  0  0
  -25.9449  -30.8202   21.3703 C   0  0  0  0  0  0
  -26.0223  -29.4538   20.7133 C   0  0  0  0  0  0
  -27.2118  -28.6784   20.7114 C   0  0  0  0  0  0
  -26.0488  -26.9436   19.4650 C   0  0  0  0  0  0
  -24.8687  -27.7069   19.4755 C   0  0  0  0  0  0
  -23.6214  -29.8304   20.1607 C   0  0  0  0  0  0
  -25.4111  -36.3112   24.0339 C   0  0  1  0  0  0
  -20.5879  -28.3684   23.1303 C   0  0  2  0  0  0
  -20.6774  -26.9417   22.5413 C   0  0  0  0  0  0
  -19.5748  -26.6397   21.5211 C   0  0  0  0  0  0
  -18.1927  -26.7934   22.1626 C   0  0  0  0  0  0
  -19.1532  -28.8854   23.2894 C   0  0  0  0  0  0
  -18.9459  -30.1458   23.8908 C   0  0  0  0  0  0
  -17.6462  -30.6594   24.0570 C   0  0  0  0  0  0
  -25.9038  -34.9476   23.5133 C   0  0  0  0  0  0
  -16.5351  -29.9098   23.6329 C   0  0  0  0  0  0
  -16.7269  -28.6516   23.0348 C   0  0  0  0  0  0
  -26.4475  -31.6605   25.0729 C   0  0  0  0  0  0
  -25.3735  -31.3711   26.1472 C   0  0  0  0  0  0
  -27.0306  -30.3047   24.6113 C   0  0  0  0  0  0
  -27.6053  -32.4324   25.7487 C   0  0  0  0  0  0
  -27.5586  -37.1814   24.8470 C   0  0  0  0  0  0
  -21.4168  -29.3039   22.3699 N   0  0  0  0  0  0
  -26.4300  -37.3796   23.9408 N   0  0  0  0  0  0
  -24.6760  -31.0743   22.0997 N   0  0  0  0  0  0
  -23.4204  -28.8193   23.3008 O   0  0  0  0  0  0
  -28.3141  -26.5398   20.1722 O   0  0  0  0  0  0
  -26.5602  -34.8926   22.4697 O   0  0  0  0  0  0
  -23.5366  -32.1424   23.7456 O   0  0  0  0  0  0
  -32.0539  -18.7795   21.1899 C   0  0  0  0  0  0
  -31.0534  -19.7697   21.1620 C   0  0  0  0  0  0
  -31.7177  -17.4128   21.1334 C   0  0  0  0  0  0
  -29.3680  -18.0135   21.0083 C   0  0  0  0  0  0
  -29.6914  -19.4066   21.0728 C   0  0  0  0  0  0
  -30.3677  -16.9969   21.0269 C   0  0  0  0  0  0
  -28.0140  -25.2760   20.6766 C   0  0  0  0  0  0
  -28.5988  -20.4630   21.1713 C   0  0  0  0  0  0
  -28.6867  -24.1110   20.4715 C   0  0  0  0  0  0
  -28.1351  -22.8615   21.0411 C   0  0  0  0  0  0
  -29.9904  -15.5984   20.9874 N   0  0  0  0  0  0
  -28.8947  -21.7513   20.8372 N   0  0  0  0  0  0
  -27.4797  -20.0870   21.5398 O   0  0  0  0  0  0
  -27.0613  -22.8372   21.6559 O   0  0  0  0  0  0
  -29.8178  -24.0843   19.7506 O   0  0  0  0  0  0
  -31.4641  -12.4190   19.1386 H   0  0  0  0  0  0
  -30.3165  -11.3324   19.8654 H   0  0  0  0  0  0
  -29.7446  -11.7581   17.4535 H   0  0  0  0  0  0
  -29.6578  -13.4759   17.7578 H   0  0  0  0  0  0
  -27.8435  -11.2988   18.8470 H   0  0  0  0  0  0
  -27.3658  -12.6018   17.7914 H   0  0  0  0  0  0
  -27.6851  -14.2541   19.5413 H   0  0  0  0  0  0
  -28.6866  -12.0285   21.3839 H   0  0  0  0  0  0
  -28.4602  -13.6903   21.8449 H   0  0  0  0  0  0
  -25.2762   -9.5680   22.4753 H   0  0  0  0  0  0
  -23.9997   -7.4637   22.7478 H   0  0  0  0  0  0
  -21.0835   -8.8770   19.8958 H   0  0  0  0  0  0
  -22.3693  -10.9667   19.6161 H   0  0  0  0  0  0
  -21.2012   -7.6145   23.9708 H   0  0  0  0  0  0
  -21.1478   -6.0524   25.9073 H   0  0  0  0  0  0
  -22.0599   -2.7606   23.2853 H   0  0  0  0  0  0
  -22.4109  -11.9885   22.4786 H   0  0  0  0  0  0
  -21.1116  -13.1249   22.2619 H   0  0  0  0  0  0
  -24.6600  -15.8443   20.5114 H   0  0  0  0  0  0
  -26.2748  -15.6266   20.0670 H   0  0  0  0  0  0
  -26.7133  -32.5523   23.1157 H   0  0  0  0  0  0
  -25.0053  -33.9774   25.0475 H   0  0  0  0  0  0
  -22.6992  -31.3091   21.4107 H   0  0  0  0  0  0
  -23.3750  -35.9642   23.3315 H   0  0  0  0  0  0
  -24.3576  -36.8902   22.2051 H   0  0  0  0  0  0
  -23.7239  -37.6517   23.6639 H   0  0  0  0  0  0
  -26.0660  -31.5866   20.6032 H   0  0  0  0  0  0
  -26.8297  -30.8707   21.9930 H   0  0  0  0  0  0
  -28.1025  -29.0408   21.2046 H   0  0  0  0  0  0
  -26.0354  -25.9765   18.9825 H   0  0  0  0  0  0
  -23.9777  -27.3236   18.9963 H   0  0  0  0  0  0
  -23.7338  -30.6090   19.4052 H   0  0  0  0  0  0
  -22.7440  -29.2547   19.8600 H   0  0  0  0  0  0
  -25.1293  -36.1978   25.0833 H   0  0  0  0  0  0
  -20.9971  -28.3253   24.1423 H   0  0  0  0  0  0
  -20.5681  -26.2295   23.3606 H   0  0  0  0  0  0
  -21.6646  -26.7461   22.1205 H   0  0  0  0  0  0
  -19.6903  -25.6307   21.1238 H   0  0  0  0  0  0
  -19.6680  -27.3212   20.6744 H   0  0  0  0  0  0
  -17.4199  -26.6685   21.4026 H   0  0  0  0  0  0
  -18.0323  -26.0079   22.9027 H   0  0  0  0  0  0
  -19.7933  -30.7271   24.2283 H   0  0  0  0  0  0
  -17.5015  -31.6266   24.5181 H   0  0  0  0  0  0
  -15.5352  -30.3007   23.7638 H   0  0  0  0  0  0
  -15.8669  -28.0836   22.7057 H   0  0  0  0  0  0
  -24.5907  -30.7060   25.7808 H   0  0  0  0  0  0
  -24.8918  -32.2863   26.4925 H   0  0  0  0  0  0
  -25.8080  -30.8878   27.0230 H   0  0  0  0  0  0
  -26.2853  -29.6811   24.1161 H   0  0  0  0  0  0
  -27.4073  -29.7280   25.4570 H   0  0  0  0  0  0
  -27.8694  -30.4372   23.9274 H   0  0  0  0  0  0
  -27.2679  -33.3620   26.2082 H   0  0  0  0  0  0
  -28.3845  -32.6890   25.0299 H   0  0  0  0  0  0
  -28.0740  -31.8433   26.5379 H   0  0  0  0  0  0
  -28.2625  -38.0093   24.7513 H   0  0  0  0  0  0
  -28.1063  -36.2627   24.6311 H   0  0  0  0  0  0
  -27.2299  -37.1482   25.8872 H   0  0  0  0  0  0
  -20.9331  -29.8778   21.6935 H   0  0  0  0  0  0
  -26.0190  -38.2877   24.1397 H   0  0  0  0  0  0
  -33.0918  -19.0700   21.2776 H   0  0  0  0  0  0
  -31.3477  -20.8068   21.2457 H   0  0  0  0  0  0
  -32.5241  -16.6967   21.1898 H   0  0  0  0  0  0
  -28.3271  -17.7232   20.9594 H   0  0  0  0  0  0
  -27.1150  -25.2975   21.2824 H   0  0  0  0  0  0
  -29.0326  -15.3899   21.2229 H   0  0  0  0  0  0
  -29.7867  -21.9276   20.4028 H   0  0  0  0  0  0
  -29.9863  -24.9777   19.4788 H   0  0  0  0  0  0
  1 25  1  0  0  0
  1 30  2  0  0  0
  1 81  1  0  0  0
  2  3  1  0  0  0
  2 25  1  0  0  0
  2 86  1  0  0  0
  2 87  1  0  0  0
  3  4  1  0  0  0
  3 88  1  0  0  0
  3 89  1  0  0  0
  4  5  1  0  0  0
  4 90  1  0  0  0
  4 91  1  0  0  0
  5  6  1  0  0  0
  5 26  1  0  0  0
  5 92  1  0  0  0
  6 25  1  0  0  0
  6 93  1  0  0  0
  6 94  1  0  0  0
  7  8  2  0  0  0
  7 26  1  0  0  0
  7 29  1  0  0  0
  8  9  1  0  0  0
  8 22  1  0  0  0
  9 10  1  0  0  0
  9 27  2  0  0  0
 10 11  2  0  0  0
 10 15  1  0  0  0
 11 12  1  0  0  0
 11 95  1  0  0  0
 12 13  2  0  0  0
 12 96  1  0  0  0
 13 14  1  0  0  0
 13 31  1  0  0  0
 14 15  2  0  0  0
 14 97  1  0  0  0
 15 98  1  0  0  0
 16 17  2  0  0  0
 16 21  1  0  0  0
 16 31  1  0  0  0
 17 18  1  0  0  0
 17 99  1  0  0  0
 18 19  2  0  0  0
 18100  1  0  0  0
 19 20  1  0  0  0
 19 24  1  0  0  0
 20 21  2  0  0  0
 20101  1  0  0  0
 21 23  1  0  0  0
 22 28  1  0  0  0
 22 32  2  0  0  0
 26 27  1  0  0  0
 28102  1  0  0  0
 28103  1  0  0  0
 29104  1  0  0  0
 29105  1  0  0  0
 33 34  1  0  0  0
 33 66  1  0  0  0
 33 70  2  0  0  0
 34 36  1  0  0  0
 34 59  1  0  0  0
 34106  1  0  0  0
 35 44  2  0  0  0
 35 45  1  0  0  0
 35 68  1  0  0  0
 36 56  1  0  0  0
 36107  1  0  0  0
 37 39  1  0  0  0
 37 47  1  0  0  0
 37 66  1  0  0  0
 37108  1  0  0  0
 38 43  2  0  0  0
 38 46  1  0  0  0
 38 47  1  0  0  0
 39 64  1  0  0  0
 39 67  2  0  0  0
 40 52  1  0  0  0
 40 53  2  0  0  0
 40 58  1  0  0  0
 41109  1  0  0  0
 41110  1  0  0  0
 41111  1  0  0  0
 41 48  1  0  0  0
 42 43  1  0  0  0
 42 66  1  0  0  0
 42112  1  0  0  0
 42113  1  0  0  0
 43 44  1  0  0  0
 44114  1  0  0  0
 45 46  2  0  0  0
 45115  1  0  0  0
 46116  1  0  0  0
 47117  1  0  0  0
 47118  1  0  0  0
 48 56  1  0  0  0
 48 65  1  0  0  0
 48119  1  0  0  0
 49 50  1  0  0  0
 49 53  1  0  0  0
 49 64  1  0  0  0
 49120  1  0  0  0
 50 51  1  0  0  0
 50121  1  0  0  0
 50122  1  0  0  0
 51 52  1  0  0  0
 51123  1  0  0  0
 51124  1  0  0  0
 52125  1  0  0  0
 52126  1  0  0  0
 53 54  1  0  0  0
 54 55  2  0  0  0
 54127  1  0  0  0
 55 57  1  0  0  0
 55128  1  0  0  0
 56 69  2  0  0  0
 57 58  2  0  0  0
 57129  1  0  0  0
 58130  1  0  0  0
 59 60  1  0  0  0
 59 61  1  0  0  0
 59 62  1  0  0  0
 60131  1  0  0  0
 60132  1  0  0  0
 60133  1  0  0  0
 61134  1  0  0  0
 61135  1  0  0  0
 61136  1  0  0  0
 62137  1  0  0  0
 62138  1  0  0  0
 62139  1  0  0  0
 63 65  1  0  0  0
 63140  1  0  0  0
 63141  1  0  0  0
 63142  1  0  0  0
 64143  1  0  0  0
 65144  1  0  0  0
 68 77  1  0  0  0
 71 72  2  0  0  0
 71 73  1  0  0  0
 71145  1  0  0  0
 72 75  1  0  0  0
 72146  1  0  0  0
 73 76  2  0  0  0
 73147  1  0  0  0
 74 75  2  0  0  0
 74 76  1  0  0  0
 74148  1  0  0  0
 75 78  1  0  0  0
 76 81  1  0  0  0
 77 79  2  0  0  0
 77149  1  0  0  0
 78 82  1  0  0  0
 78 83  2  0  0  0
 79 80  1  0  0  0
 79 85  1  0  0  0
 80 82  1  0  0  0
 80 84  2  0  0  0
 81150  1  0  0  0
 82151  1  0  0  0
 85152  1  0  0  0
M  ISO  4   1 100  68 101  77 101  81 100
M  END
> <chiral flag>
0

> <version>
0

> <s_m_source_file>
/data/baiqing/PycharmProjects/Reinvent-master-3.2/result/LINK_invent/BTK/process_docking_weight1_custom_product_contain_oxygen_bond_distance_aromatic_linkinvent_7_9_3/rearranged_h_0085.sdf

> <i_m_source_file_index>
25

> <r_mmod_Potential_Energy-OPLS-2005>
-205.175643920898

> <r_mmod_Stretch_Energy-OPLS-2005>
51.0612640380859

> <r_mmod_Bend_Energy-OPLS-2005>
105.611999511719

> <r_mmod_Torsional_Energy-OPLS-2005>
215.506256103516

> <r_mmod_Improper_Torsional_Energy-OPLS-2005>
4.6236252784729

> <r_mmod_Van_der_Waal_Energy-OPLS-2005>
173.690811157227

> <r_mmod_Electrostatic_Energy-OPLS-2005>
-530.527587890625

> <r_mmod_Solvation_Energy-OPLS-2005>
-251.445129394531

> <b_mmod_Minimization_Converged-OPLS-2005>
0

> <r_mmod_RMS_Derivative-OPLS-2005>
0.895522236824036

$$$$
25
                    3D
 Structure written by MMmdl.
153162  0  0  1  0            999 V2000
  -30.5939  -14.8127   20.4295 C   0  0  0  0  0  0
  -30.4295  -12.4991   19.4892 C   0  0  0  0  0  0
  -29.5125  -12.5400   18.2460 C   0  0  0  0  0  0
  -28.0382  -12.3554   18.6508 C   0  0  0  0  0  0
  -27.6404  -13.2474   19.8558 C   0  0  2  0  0  0
  -28.6841  -13.2025   20.9937 C   0  0  0  0  0  0
  -25.2498  -13.8235   20.5703 C   0  0  0  0  0  0
  -24.1791  -13.0450   20.9172 C   0  0  0  0  0  0
  -24.6399  -11.6932   20.8712 C   0  0  0  0  0  0
  -23.9058  -10.4309   21.0364 C   0  0  0  0  0  0
  -24.3613   -9.4241   21.9154 C   0  0  0  0  0  0
  -23.6293   -8.2261   22.0723 C   0  0  0  0  0  0
  -22.4273   -8.0281   21.3529 C   0  0  0  0  0  0
  -21.9909   -9.0250   20.4621 C   0  0  0  0  0  0
  -22.7219  -10.2143   20.3012 C   0  0  0  0  0  0
  -21.6849   -6.0730   22.5260 C   0  0  0  0  0  0
  -21.4037   -6.5646   23.8208 C   0  0  0  0  0  0
  -21.3656   -5.6800   24.9159 C   0  0  0  0  0  0
  -21.6041   -4.3051   24.7211 C   0  0  0  0  0  0
  -21.8817   -3.8143   23.4337 C   0  0  0  0  0  0
  -21.9200   -4.6961   22.3395 C   0  0  0  0  0  0
  -22.7816  -13.5216   21.1817 C   0  0  0  0  0  0
  -22.1648   -4.2155   21.0968 F   0  0  0  0  0  0
  -21.5629   -3.4536   25.7714 F   0  0  0  0  0  0
  -29.9819  -13.5705   20.4168 N   0  0  0  0  0  0
  -26.2940  -12.9466   20.3303 N   0  0  0  0  0  0
  -25.9352  -11.6591   20.5741 N   0  0  0  0  0  0
  -22.0477  -12.8224   22.0402 N   0  0  0  0  0  0
  -25.4199  -15.1968   20.4178 N   0  0  0  0  0  0
  -31.7728  -14.8918   20.0697 O   0  0  0  0  0  0
  -21.6631   -6.8875   21.4232 O   0  0  0  0  0  0
  -22.3492  -14.5514   20.6652 O   0  0  0  0  0  0
  -24.6393  -31.8525   23.2004 C   0  0  0  0  0  0
  -25.9213  -32.4720   23.8358 C   0  0  1  0  0  0
  -27.2052  -27.1924   20.1332 C   0  0  0  0  0  0
  -25.6033  -33.8537   24.2281 N   0  0  0  0  0  0
  -23.4376  -30.4784   21.5444 C   0  0  2  0  0  0
  -24.8847  -28.9250   20.1114 C   0  0  0  0  0  0
  -22.7554  -29.4588   22.4901 C   0  0  0  0  0  0
  -18.0310  -28.1410   22.8481 C   0  0  0  0  0  0
  -24.1508  -36.7240   23.2641 C   0  0  0  0  0  0
  -25.9938  -30.7366   21.4007 C   0  0  0  0  0  0
  -26.0590  -29.3568   20.7390 C   0  0  0  0  0  0
  -27.2175  -28.5010   20.7480 C   0  0  0  0  0  0
  -26.0113  -26.8724   19.4396 C   0  0  0  0  0  0
  -24.8710  -27.6922   19.4507 C   0  0  0  0  0  0
  -23.6630  -29.8225   20.1579 C   0  0  0  0  0  0
  -25.4138  -36.3041   24.0326 C   0  0  1  0  0  0
  -20.5924  -28.3731   23.1246 C   0  0  2  0  0  0
  -20.6809  -26.9437   22.5412 C   0  0  0  0  0  0
  -19.5773  -26.6393   21.5235 C   0  0  0  0  0  0
  -18.1949  -26.7951   22.1621 C   0  0  0  0  0  0
  -19.1565  -28.8881   23.2858 C   0  0  0  0  0  0
  -18.9471  -30.1481   23.8867 C   0  0  0  0  0  0
  -17.6468  -30.6599   24.0571 C   0  0  0  0  0  0
  -25.9097  -34.9415   23.5091 C   0  0  0  0  0  0
  -16.5361  -29.9095   23.6342 C   0  0  0  0  0  0
  -16.7294  -28.6521   23.0348 C   0  0  0  0  0  0
  -26.4565  -31.6571   25.0765 C   0  0  0  0  0  0
  -25.3780  -31.3713   26.1464 C   0  0  0  0  0  0
  -27.0445  -30.2990   24.6325 C   0  0  0  0  0  0
  -27.6139  -32.4307   25.7515 C   0  0  0  0  0  0
  -27.5575  -37.1786   24.8467 C   0  0  0  0  0  0
  -21.4255  -29.3062   22.3628 N   0  0  0  0  0  0
  -26.4288  -37.3761   23.9410 N   0  0  0  0  0  0
  -24.7094  -31.0431   22.1029 N   0  0  0  0  0  0
  -23.4224  -28.8124   23.3020 O   0  0  0  0  0  0
  -28.2666  -26.2321   20.2098 O   0  0  0  0  0  0
  -26.5637  -34.8885   22.4640 O   0  0  0  0  0  0
  -23.5524  -32.1364   23.7264 O   0  0  0  0  0  0
  -30.1803  -18.5610   17.9223 C   0  0  0  0  0  0
  -29.8456  -19.7944   18.5177 C   0  0  0  0  0  0
  -30.2179  -17.3644   18.6674 C   0  0  0  0  0  0
  -29.5665  -18.6367   20.6453 C   0  0  0  0  0  0
  -29.5356  -19.9041   19.8935 C   0  0  0  0  0  0
  -29.9048  -17.3306   20.0480 C   0  0  0  0  0  0
  -28.7910  -23.6629   20.3361 C   0  0  0  0  0  0
  -28.4015  -22.2582   19.9609 C   0  0  0  0  0  0
  -28.0429  -24.8082   20.0255 C   0  0  0  0  0  0
  -30.1067  -23.5530   21.0608 C   0  0  0  0  0  0
  -30.4069  -22.0197   21.0996 C   0  0  0  0  0  0
  -29.3255  -21.3116   20.3957 N   0  0  0  0  0  0
  -29.8566  -15.9734   20.7033 N   0  0  0  0  0  0
  -27.3719  -21.9545   19.3500 O   0  0  0  0  0  0
  -31.4701  -12.6231   19.1856 H   0  0  0  0  0  0
  -30.3802  -11.5227   19.9727 H   0  0  0  0  0  0
  -29.8034  -11.7724   17.5280 H   0  0  0  0  0  0
  -29.6326  -13.4977   17.7326 H   0  0  0  0  0  0
  -27.8943  -11.3051   18.9003 H   0  0  0  0  0  0
  -27.3843  -12.5653   17.8036 H   0  0  0  0  0  0
  -27.6275  -14.2685   19.4728 H   0  0  0  0  0  0
  -28.7387  -12.2092   21.4438 H   0  0  0  0  0  0
  -28.4019  -13.8882   21.7928 H   0  0  0  0  0  0
  -25.2768   -9.5709   22.4741 H   0  0  0  0  0  0
  -23.9982   -7.4675   22.7478 H   0  0  0  0  0  0
  -21.0813   -8.8762   19.8978 H   0  0  0  0  0  0
  -22.3649  -10.9668   19.6102 H   0  0  0  0  0  0
  -21.2050   -7.6162   23.9706 H   0  0  0  0  0  0
  -21.1464   -6.0521   25.9064 H   0  0  0  0  0  0
  -22.0605   -2.7604   23.2821 H   0  0  0  0  0  0
  -22.4079  -11.9865   22.4773 H   0  0  0  0  0  0
  -21.1093  -13.1256   22.2611 H   0  0  0  0  0  0
  -24.6577  -15.8579   20.5237 H   0  0  0  0  0  0
  -26.2780  -15.6346   20.1104 H   0  0  0  0  0  0
  -26.7283  -32.5322   23.1094 H   0  0  0  0  0  0
  -25.0320  -33.9729   25.0513 H   0  0  0  0  0  0
  -22.7372  -31.3048   21.4010 H   0  0  0  0  0  0
  -23.3808  -35.9539   23.3282 H   0  0  0  0  0  0
  -24.3601  -36.8872   22.2059 H   0  0  0  0  0  0
  -23.7211  -37.6415   23.6675 H   0  0  0  0  0  0
  -26.1588  -31.4953   20.6350 H   0  0  0  0  0  0
  -26.8624  -30.7741   22.0458 H   0  0  0  0  0  0
  -28.1069  -28.8244   21.2713 H   0  0  0  0  0  0
  -25.8928  -25.9631   18.8771 H   0  0  0  0  0  0
  -23.9784  -27.3651   18.9344 H   0  0  0  0  0  0
  -23.8100  -30.6068   19.4155 H   0  0  0  0  0  0
  -22.7768  -29.2744   19.8331 H   0  0  0  0  0  0
  -25.1337  -36.1881   25.0825 H   0  0  0  0  0  0
  -21.0009  -28.3301   24.1376 H   0  0  0  0  0  0
  -20.5749  -26.2340   23.3642 H   0  0  0  0  0  0
  -21.6658  -26.7493   22.1148 H   0  0  0  0  0  0
  -19.6929  -25.6300   21.1274 H   0  0  0  0  0  0
  -19.6700  -27.3205   20.6774 H   0  0  0  0  0  0
  -17.4239  -26.6739   21.4010 H   0  0  0  0  0  0
  -18.0304  -26.0093   22.9003 H   0  0  0  0  0  0
  -19.7948  -30.7328   24.2196 H   0  0  0  0  0  0
  -17.5019  -31.6273   24.5188 H   0  0  0  0  0  0
  -15.5355  -30.2989   23.7685 H   0  0  0  0  0  0
  -15.8696  -28.0849   22.7058 H   0  0  0  0  0  0
  -24.6012  -30.7006   25.7773 H   0  0  0  0  0  0
  -24.8918  -32.2861   26.4867 H   0  0  0  0  0  0
  -25.8093  -30.8907   27.0256 H   0  0  0  0  0  0
  -26.3058  -29.6695   24.1351 H   0  0  0  0  0  0
  -27.4112  -29.7303   25.4888 H   0  0  0  0  0  0
  -27.8944  -30.4279   23.9614 H   0  0  0  0  0  0
  -27.2830  -33.3677   26.2017 H   0  0  0  0  0  0
  -28.3980  -32.6740   25.0326 H   0  0  0  0  0  0
  -28.0779  -31.8460   26.5477 H   0  0  0  0  0  0
  -28.2583  -38.0101   24.7547 H   0  0  0  0  0  0
  -28.1086  -36.2630   24.6265 H   0  0  0  0  0  0
  -27.2287  -37.1358   25.8870 H   0  0  0  0  0  0
  -20.9473  -29.8781   21.6797 H   0  0  0  0  0  0
  -26.0153  -38.2819   24.1468 H   0  0  0  0  0  0
  -30.4166  -18.5324   16.8648 H   0  0  0  0  0  0
  -29.8596  -20.6810   17.8967 H   0  0  0  0  0  0
  -30.4694  -16.4547   18.1378 H   0  0  0  0  0  0
  -29.3344  -18.6734   21.7032 H   0  0  0  0  0  0
  -27.1233  -24.6037   19.5127 H   0  0  0  0  0  0
  -30.0251  -23.9711   22.0655 H   0  0  0  0  0  0
  -30.8798  -24.1020   20.5220 H   0  0  0  0  0  0
  -30.4758  -21.6606   22.1278 H   0  0  0  0  0  0
  -31.3606  -21.8061   20.6109 H   0  0  0  0  0  0
  -29.0289  -15.8070   21.2586 H   0  0  0  0  0  0
  1 25  1  0  0  0
  1 30  2  0  0  0
  1 83  1  0  0  0
  2  3  1  0  0  0
  2 25  1  0  0  0
  2 85  1  0  0  0
  2 86  1  0  0  0
  3  4  1  0  0  0
  3 87  1  0  0  0
  3 88  1  0  0  0
  4  5  1  0  0  0
  4 89  1  0  0  0
  4 90  1  0  0  0
  5  6  1  0  0  0
  5 26  1  0  0  0
  5 91  1  0  0  0
  6 25  1  0  0  0
  6 92  1  0  0  0
  6 93  1  0  0  0
  7  8  2  0  0  0
  7 26  1  0  0  0
  7 29  1  0  0  0
  8  9  1  0  0  0
  8 22  1  0  0  0
  9 10  1  0  0  0
  9 27  2  0  0  0
 10 11  2  0  0  0
 10 15  1  0  0  0
 11 12  1  0  0  0
 11 94  1  0  0  0
 12 13  2  0  0  0
 12 95  1  0  0  0
 13 14  1  0  0  0
 13 31  1  0  0  0
 14 15  2  0  0  0
 14 96  1  0  0  0
 15 97  1  0  0  0
 16 17  2  0  0  0
 16 21  1  0  0  0
 16 31  1  0  0  0
 17 18  1  0  0  0
 17 98  1  0  0  0
 18 19  2  0  0  0
 18 99  1  0  0  0
 19 20  1  0  0  0
 19 24  1  0  0  0
 20 21  2  0  0  0
 20100  1  0  0  0
 21 23  1  0  0  0
 22 28  1  0  0  0
 22 32  2  0  0  0
 26 27  1  0  0  0
 28101  1  0  0  0
 28102  1  0  0  0
 29103  1  0  0  0
 29104  1  0  0  0
 33 34  1  0  0  0
 33 66  1  0  0  0
 33 70  2  0  0  0
 34 36  1  0  0  0
 34 59  1  0  0  0
 34105  1  0  0  0
 35 44  2  0  0  0
 35 45  1  0  0  0
 35 68  1  0  0  0
 36 56  1  0  0  0
 36106  1  0  0  0
 37 39  1  0  0  0
 37 47  1  0  0  0
 37 66  1  0  0  0
 37107  1  0  0  0
 38 43  2  0  0  0
 38 46  1  0  0  0
 38 47  1  0  0  0
 39 64  1  0  0  0
 39 67  2  0  0  0
 40 52  1  0  0  0
 40 53  2  0  0  0
 40 58  1  0  0  0
 41108  1  0  0  0
 41109  1  0  0  0
 41110  1  0  0  0
 41 48  1  0  0  0
 42 43  1  0  0  0
 42 66  1  0  0  0
 42111  1  0  0  0
 42112  1  0  0  0
 43 44  1  0  0  0
 44113  1  0  0  0
 45 46  2  0  0  0
 45114  1  0  0  0
 46115  1  0  0  0
 47116  1  0  0  0
 47117  1  0  0  0
 48 56  1  0  0  0
 48 65  1  0  0  0
 48118  1  0  0  0
 49 50  1  0  0  0
 49 53  1  0  0  0
 49 64  1  0  0  0
 49119  1  0  0  0
 50 51  1  0  0  0
 50120  1  0  0  0
 50121  1  0  0  0
 51 52  1  0  0  0
 51122  1  0  0  0
 51123  1  0  0  0
 52124  1  0  0  0
 52125  1  0  0  0
 53 54  1  0  0  0
 54 55  2  0  0  0
 54126  1  0  0  0
 55 57  1  0  0  0
 55127  1  0  0  0
 56 69  2  0  0  0
 57 58  2  0  0  0
 57128  1  0  0  0
 58129  1  0  0  0
 59 60  1  0  0  0
 59 61  1  0  0  0
 59 62  1  0  0  0
 60130  1  0  0  0
 60131  1  0  0  0
 60132  1  0  0  0
 61133  1  0  0  0
 61134  1  0  0  0
 61135  1  0  0  0
 62136  1  0  0  0
 62137  1  0  0  0
 62138  1  0  0  0
 63 65  1  0  0  0
 63139  1  0  0  0
 63140  1  0  0  0
 63141  1  0  0  0
 64142  1  0  0  0
 65143  1  0  0  0
 68 79  1  0  0  0
 71 72  2  0  0  0
 71 73  1  0  0  0
 71144  1  0  0  0
 72 75  1  0  0  0
 72145  1  0  0  0
 73 76  2  0  0  0
 73146  1  0  0  0
 74 75  2  0  0  0
 74 76  1  0  0  0
 74147  1  0  0  0
 75 82  1  0  0  0
 76 83  1  0  0  0
 77 78  1  0  0  0
 77 79  2  0  0  0
 77 80  1  0  0  0
 78 82  1  0  0  0
 78 84  2  0  0  0
 79148  1  0  0  0
 80 81  1  0  0  0
 80149  1  0  0  0
 80150  1  0  0  0
 81 82  1  0  0  0
 81151  1  0  0  0
 81152  1  0  0  0
 83153  1  0  0  0
M  ISO  4   1 100  68 101  79 101  83 100
M  END
> <chiral flag>
0

> <version>
0

> <s_m_source_file>
/data/baiqing/PycharmProjects/Reinvent-master-3.2/result/LINK_invent/BTK/process_docking_weight1_custom_product_contain_oxygen_bond_distance_aromatic_linkinvent_7_9_3/rearranged_h_0085.sdf

> <i_m_source_file_index>
26

> <r_mmod_Potential_Energy-OPLS-2005>
407.544952392578

> <r_mmod_Stretch_Energy-OPLS-2005>
158.289138793945

> <r_mmod_Bend_Energy-OPLS-2005>
203.135238647461

> <r_mmod_Torsional_Energy-OPLS-2005>
312.056976318359

> <r_mmod_Improper_Torsional_Energy-OPLS-2005>
5.3670449256897

> <r_mmod_Van_der_Waal_Energy-OPLS-2005>
138.006500244141

> <r_mmod_Electrostatic_Energy-OPLS-2005>
-318.161254882812

> <r_mmod_Solvation_Energy-OPLS-2005>
-217.862075805664

> <b_mmod_Minimization_Converged-OPLS-2005>
0

> <r_mmod_RMS_Derivative-OPLS-2005>
3.63985276222229

$$$$
26
                    3D
 Structure written by MMmdl.
151159  0  0  1  0            999 V2000
  -30.6848  -14.4976   20.5466 C   0  0  0  0  0  0
  -30.4225  -12.3129   19.4318 C   0  0  0  0  0  0
  -29.4968  -12.5010   18.2111 C   0  0  0  0  0  0
  -28.0170  -12.3633   18.6210 C   0  0  0  0  0  0
  -27.6597  -13.2082   19.8728 C   0  0  2  0  0  0
  -28.7004  -13.0016   20.9968 C   0  0  0  0  0  0
  -25.2583  -13.8164   20.5694 C   0  0  0  0  0  0
  -24.1831  -13.0440   20.9182 C   0  0  0  0  0  0
  -24.6384  -11.6906   20.8729 C   0  0  0  0  0  0
  -23.9049  -10.4294   21.0398 C   0  0  0  0  0  0
  -24.3601   -9.4211   21.9178 C   0  0  0  0  0  0
  -23.6287   -8.2242   22.0750 C   0  0  0  0  0  0
  -22.4269   -8.0277   21.3542 C   0  0  0  0  0  0
  -21.9897   -9.0247   20.4646 C   0  0  0  0  0  0
  -22.7220  -10.2132   20.3052 C   0  0  0  0  0  0
  -21.6853   -6.0731   22.5280 C   0  0  0  0  0  0
  -21.4011   -6.5632   23.8211 C   0  0  0  0  0  0
  -21.3658   -5.6788   24.9176 C   0  0  0  0  0  0
  -21.6048   -4.3052   24.7226 C   0  0  0  0  0  0
  -21.8820   -3.8144   23.4345 C   0  0  0  0  0  0
  -21.9192   -4.6961   22.3404 C   0  0  0  0  0  0
  -22.7856  -13.5242   21.1850 C   0  0  0  0  0  0
  -22.1666   -4.2147   21.0982 F   0  0  0  0  0  0
  -21.5629   -3.4534   25.7736 F   0  0  0  0  0  0
  -30.0306  -13.3075   20.4440 N   0  0  0  0  0  0
  -26.3011  -12.9335   20.3352 N   0  0  0  0  0  0
  -25.9310  -11.6492   20.5753 N   0  0  0  0  0  0
  -22.0490  -12.8235   22.0405 N   0  0  0  0  0  0
  -25.4326  -15.1881   20.4125 N   0  0  0  0  0  0
  -31.8246  -14.6538   20.1012 O   0  0  0  0  0  0
  -21.6639   -6.8872   21.4240 O   0  0  0  0  0  0
  -22.3548  -14.5553   20.6702 O   0  0  0  0  0  0
  -24.6154  -31.8662   23.2079 C   0  0  0  0  0  0
  -25.9045  -32.4811   23.8378 C   0  0  1  0  0  0
  -27.2395  -27.4175   20.0883 C   0  0  0  0  0  0
  -25.5892  -33.8609   24.2308 N   0  0  0  0  0  0
  -23.4039  -30.4887   21.5487 C   0  0  2  0  0  0
  -24.8499  -28.9505   20.1136 C   0  0  0  0  0  0
  -22.7417  -29.4645   22.4983 C   0  0  0  0  0  0
  -18.0270  -28.1377   22.8494 C   0  0  0  0  0  0
  -24.1485  -36.7311   23.2637 C   0  0  0  0  0  0
  -25.9339  -30.8242   21.3646 C   0  0  0  0  0  0
  -26.0092  -29.4563   20.7128 C   0  0  0  0  0  0
  -27.2005  -28.6932   20.7038 C   0  0  0  0  0  0
  -26.0533  -26.9232   19.4974 C   0  0  0  0  0  0
  -24.8670  -27.6827   19.5069 C   0  0  0  0  0  0
  -23.6124  -29.8190   20.1638 C   0  0  0  0  0  0
  -25.4105  -36.3102   24.0337 C   0  0  1  0  0  0
  -20.5863  -28.3658   23.1327 C   0  0  2  0  0  0
  -20.6754  -26.9393   22.5429 C   0  0  0  0  0  0
  -19.5738  -26.6385   21.5217 C   0  0  0  0  0  0
  -18.1915  -26.7925   22.1623 C   0  0  0  0  0  0
  -19.1520  -28.8833   23.2908 C   0  0  0  0  0  0
  -18.9445  -30.1439   23.8915 C   0  0  0  0  0  0
  -17.6448  -30.6583   24.0561 C   0  0  0  0  0  0
  -25.9034  -34.9472   23.5123 C   0  0  0  0  0  0
  -16.5340  -29.9085   23.6324 C   0  0  0  0  0  0
  -16.7259  -28.6501   23.0346 C   0  0  0  0  0  0
  -26.4460  -31.6600   25.0721 C   0  0  0  0  0  0
  -25.3723  -31.3738   26.1474 C   0  0  0  0  0  0
  -27.0261  -30.3025   24.6116 C   0  0  0  0  0  0
  -27.6048  -32.4311   25.7475 C   0  0  0  0  0  0
  -27.5586  -37.1796   24.8454 C   0  0  0  0  0  0
  -21.4140  -29.3024   22.3732 N   0  0  0  0  0  0
  -26.4285  -37.3795   23.9419 N   0  0  0  0  0  0
  -24.6691  -31.0753   22.0982 N   0  0  0  0  0  0
  -23.4189  -28.8191   23.3029 O   0  0  0  0  0  0
  -28.4247  -26.7001   20.1163 O   0  0  0  0  0  0
  -26.5604  -34.8929   22.4689 O   0  0  0  0  0  0
  -23.5344  -32.1420   23.7469 O   0  0  0  0  0  0
  -31.4728  -18.9524   20.4514 C   0  0  0  0  0  0
  -29.1005  -19.1976   20.8565 C   0  0  0  0  0  0
  -31.3705  -17.5536   20.6115 C   0  0  0  0  0  0
  -28.9957  -17.7904   21.0117 C   0  0  0  0  0  0
  -30.3463  -19.8049   20.5618 C   0  0  0  0  0  0
  -30.1226  -16.9418   20.8787 C   0  0  0  0  0  0
  -28.5554  -24.2185   19.8085 C   0  0  0  0  0  0
  -30.5340  -21.3066   20.3946 C   0  0  0  0  0  0
  -28.6535  -25.6134   19.1965 C   0  0  0  0  0  0
  -29.5835  -23.4345   19.8522 N   0  0  0  0  0  0
  -29.9440  -15.5221   21.0341 N   0  0  0  0  0  0
  -29.4603  -22.1145   20.2348 N   0  0  0  0  0  0
  -31.6827  -21.7643   20.3693 O   0  0  0  0  0  0
  -31.4679  -12.4076   19.1322 H   0  0  0  0  0  0
  -30.3212  -11.3055   19.8383 H   0  0  0  0  0  0
  -29.7395  -11.7699   17.4386 H   0  0  0  0  0  0
  -29.6657  -13.4834   17.7670 H   0  0  0  0  0  0
  -27.8268  -11.3084   18.8205 H   0  0  0  0  0  0
  -27.3684  -12.6347   17.7873 H   0  0  0  0  0  0
  -27.7001  -14.2541   19.5671 H   0  0  0  0  0  0
  -28.6791  -11.9691   21.3489 H   0  0  0  0  0  0
  -28.4600  -13.6111   21.8689 H   0  0  0  0  0  0
  -25.2744   -9.5697   22.4747 H   0  0  0  0  0  0
  -24.0002   -7.4634   22.7465 H   0  0  0  0  0  0
  -21.0828   -8.8765   19.8952 H   0  0  0  0  0  0
  -22.3674  -10.9664   19.6158 H   0  0  0  0  0  0
  -21.2001   -7.6142   23.9714 H   0  0  0  0  0  0
  -21.1481   -6.0519   25.9081 H   0  0  0  0  0  0
  -22.0599   -2.7606   23.2846 H   0  0  0  0  0  0
  -22.4093  -11.9883   22.4778 H   0  0  0  0  0  0
  -21.1119  -13.1281   22.2624 H   0  0  0  0  0  0
  -24.6673  -15.8451   20.5212 H   0  0  0  0  0  0
  -26.2850  -15.6230   20.0838 H   0  0  0  0  0  0
  -26.7117  -32.5514   23.1139 H   0  0  0  0  0  0
  -25.0028  -33.9764   25.0443 H   0  0  0  0  0  0
  -22.6927  -31.3055   21.4093 H   0  0  0  0  0  0
  -23.3751  -35.9638   23.3279 H   0  0  0  0  0  0
  -24.3589  -36.8945   22.2057 H   0  0  0  0  0  0
  -23.7231  -37.6507   23.6662 H   0  0  0  0  0  0
  -26.0504  -31.5888   20.5955 H   0  0  0  0  0  0
  -26.8208  -30.8763   21.9843 H   0  0  0  0  0  0
  -28.0949  -29.0812   21.1707 H   0  0  0  0  0  0
  -26.0166  -25.9446   19.0433 H   0  0  0  0  0  0
  -23.9717  -27.2822   19.0513 H   0  0  0  0  0  0
  -23.7197  -30.5923   19.4021 H   0  0  0  0  0  0
  -22.7362  -29.2379   19.8702 H   0  0  0  0  0  0
  -25.1280  -36.1953   25.0828 H   0  0  0  0  0  0
  -20.9958  -28.3216   24.1445 H   0  0  0  0  0  0
  -20.5647  -26.2262   23.3613 H   0  0  0  0  0  0
  -21.6624  -26.7427   22.1225 H   0  0  0  0  0  0
  -19.6892  -25.6298   21.1239 H   0  0  0  0  0  0
  -19.6690  -27.3202   20.6753 H   0  0  0  0  0  0
  -17.4194  -26.6683   21.4015 H   0  0  0  0  0  0
  -18.0304  -26.0067   22.9015 H   0  0  0  0  0  0
  -19.7922  -30.7244   24.2303 H   0  0  0  0  0  0
  -17.5005  -31.6266   24.5156 H   0  0  0  0  0  0
  -15.5338  -30.2985   23.7645 H   0  0  0  0  0  0
  -15.8659  -28.0824   22.7051 H   0  0  0  0  0  0
  -24.5896  -30.7074   25.7830 H   0  0  0  0  0  0
  -24.8909  -32.2904   26.4892 H   0  0  0  0  0  0
  -25.8072  -30.8939   27.0250 H   0  0  0  0  0  0
  -26.2791  -29.6822   24.1149 H   0  0  0  0  0  0
  -27.3974  -29.7241   25.4585 H   0  0  0  0  0  0
  -27.8664  -30.4312   23.9290 H   0  0  0  0  0  0
  -27.2678  -33.3615   26.2059 H   0  0  0  0  0  0
  -28.3848  -32.6860   25.0290 H   0  0  0  0  0  0
  -28.0719  -31.8428   26.5381 H   0  0  0  0  0  0
  -28.2583  -38.0115   24.7530 H   0  0  0  0  0  0
  -28.1098  -36.2647   24.6222 H   0  0  0  0  0  0
  -27.2318  -37.1386   25.8860 H   0  0  0  0  0  0
  -20.9300  -29.8746   21.6955 H   0  0  0  0  0  0
  -26.0168  -38.2866   24.1443 H   0  0  0  0  0  0
  -32.4472  -19.3718   20.2411 H   0  0  0  0  0  0
  -28.2096  -19.7992   20.9665 H   0  0  0  0  0  0
  -32.2765  -16.9730   20.5256 H   0  0  0  0  0  0
  -28.0252  -17.3659   21.2286 H   0  0  0  0  0  0
  -27.5819  -23.8912   20.1764 H   0  0  0  0  0  0
  -28.0336  -25.6796   18.3029 H   0  0  0  0  0  0
  -29.6683  -25.7574   18.8233 H   0  0  0  0  0  0
  -29.0379  -15.2343   21.3711 H   0  0  0  0  0  0
  -28.5236  -21.7395   20.3034 H   0  0  0  0  0  0
  1 25  1  0  0  0
  1 30  2  0  0  0
  1 81  1  0  0  0
  2  3  1  0  0  0
  2 25  1  0  0  0
  2 84  1  0  0  0
  2 85  1  0  0  0
  3  4  1  0  0  0
  3 86  1  0  0  0
  3 87  1  0  0  0
  4  5  1  0  0  0
  4 88  1  0  0  0
  4 89  1  0  0  0
  5  6  1  0  0  0
  5 26  1  0  0  0
  5 90  1  0  0  0
  6 25  1  0  0  0
  6 91  1  0  0  0
  6 92  1  0  0  0
  7  8  2  0  0  0
  7 26  1  0  0  0
  7 29  1  0  0  0
  8  9  1  0  0  0
  8 22  1  0  0  0
  9 10  1  0  0  0
  9 27  2  0  0  0
 10 11  2  0  0  0
 10 15  1  0  0  0
 11 12  1  0  0  0
 11 93  1  0  0  0
 12 13  2  0  0  0
 12 94  1  0  0  0
 13 14  1  0  0  0
 13 31  1  0  0  0
 14 15  2  0  0  0
 14 95  1  0  0  0
 15 96  1  0  0  0
 16 17  2  0  0  0
 16 21  1  0  0  0
 16 31  1  0  0  0
 17 18  1  0  0  0
 17 97  1  0  0  0
 18 19  2  0  0  0
 18 98  1  0  0  0
 19 20  1  0  0  0
 19 24  1  0  0  0
 20 21  2  0  0  0
 20 99  1  0  0  0
 21 23  1  0  0  0
 22 28  1  0  0  0
 22 32  2  0  0  0
 26 27  1  0  0  0
 28100  1  0  0  0
 28101  1  0  0  0
 29102  1  0  0  0
 29103  1  0  0  0
 33 34  1  0  0  0
 33 66  1  0  0  0
 33 70  2  0  0  0
 34 36  1  0  0  0
 34 59  1  0  0  0
 34104  1  0  0  0
 35 44  2  0  0  0
 35 45  1  0  0  0
 35 68  1  0  0  0
 36 56  1  0  0  0
 36105  1  0  0  0
 37 39  1  0  0  0
 37 47  1  0  0  0
 37 66  1  0  0  0
 37106  1  0  0  0
 38 43  2  0  0  0
 38 46  1  0  0  0
 38 47  1  0  0  0
 39 64  1  0  0  0
 39 67  2  0  0  0
 40 52  1  0  0  0
 40 53  2  0  0  0
 40 58  1  0  0  0
 41107  1  0  0  0
 41108  1  0  0  0
 41109  1  0  0  0
 41 48  1  0  0  0
 42 43  1  0  0  0
 42 66  1  0  0  0
 42110  1  0  0  0
 42111  1  0  0  0
 43 44  1  0  0  0
 44112  1  0  0  0
 45 46  2  0  0  0
 45113  1  0  0  0
 46114  1  0  0  0
 47115  1  0  0  0
 47116  1  0  0  0
 48 56  1  0  0  0
 48 65  1  0  0  0
 48117  1  0  0  0
 49 50  1  0  0  0
 49 53  1  0  0  0
 49 64  1  0  0  0
 49118  1  0  0  0
 50 51  1  0  0  0
 50119  1  0  0  0
 50120  1  0  0  0
 51 52  1  0  0  0
 51121  1  0  0  0
 51122  1  0  0  0
 52123  1  0  0  0
 52124  1  0  0  0
 53 54  1  0  0  0
 54 55  2  0  0  0
 54125  1  0  0  0
 55 57  1  0  0  0
 55126  1  0  0  0
 56 69  2  0  0  0
 57 58  2  0  0  0
 57127  1  0  0  0
 58128  1  0  0  0
 59 60  1  0  0  0
 59 61  1  0  0  0
 59 62  1  0  0  0
 60129  1  0  0  0
 60130  1  0  0  0
 60131  1  0  0  0
 61132  1  0  0  0
 61133  1  0  0  0
 61134  1  0  0  0
 62135  1  0  0  0
 62136  1  0  0  0
 62137  1  0  0  0
 63 65  1  0  0  0
 63138  1  0  0  0
 63139  1  0  0  0
 63140  1  0  0  0
 64141  1  0  0  0
 65142  1  0  0  0
 68 79  1  0  0  0
 71 73  2  0  0  0
 71 75  1  0  0  0
 71143  1  0  0  0
 72 74  1  0  0  0
 72 75  2  0  0  0
 72144  1  0  0  0
 73 76  1  0  0  0
 73145  1  0  0  0
 74 76  2  0  0  0
 74146  1  0  0  0
 75 78  1  0  0  0
 76 81  1  0  0  0
 77 79  1  0  0  0
 77 80  2  0  0  0
 77147  1  0  0  0
 78 82  1  0  0  0
 78 83  2  0  0  0
 79148  1  0  0  0
 79149  1  0  0  0
 80 82  1  0  0  0
 81150  1  0  0  0
 82151  1  0  0  0
M  ISO  4   1 100  68 101  79 101  81 100
M  END
> <chiral flag>
0

> <version>
0

> <s_m_source_file>
/data/baiqing/PycharmProjects/Reinvent-master-3.2/result/LINK_invent/BTK/process_docking_weight1_custom_product_contain_oxygen_bond_distance_aromatic_linkinvent_7_9_3/rearranged_h_0085.sdf

> <i_m_source_file_index>
27

> <r_mmod_Potential_Energy-OPLS-2005>
-20.8819274902344

> <r_mmod_Stretch_Energy-OPLS-2005>
44.1030921936035

> <r_mmod_Bend_Energy-OPLS-2005>
113.980888366699

> <r_mmod_Torsional_Energy-OPLS-2005>
209.667572021484

> <r_mmod_Improper_Torsional_Energy-OPLS-2005>
4.25376558303833

> <r_mmod_Van_der_Waal_Energy-OPLS-2005>
160.402420043945

> <r_mmod_Electrostatic_Energy-OPLS-2005>
-318.756042480469

> <r_mmod_Solvation_Energy-OPLS-2005>
-250.360595703125

> <b_mmod_Minimization_Converged-OPLS-2005>
0

> <r_mmod_RMS_Derivative-OPLS-2005>
0.8830486536026

$$$$
28
                    3D
 Structure written by MMmdl.
154162  0  0  1  0            999 V2000
  -30.7008  -14.5337   20.5368 C   0  0  0  0  0  0
  -30.4184  -12.3365   19.4387 C   0  0  0  0  0  0
  -29.4959  -12.5030   18.2141 C   0  0  0  0  0  0
  -28.0189  -12.3583   18.6273 C   0  0  0  0  0  0
  -27.6553  -13.2178   19.8678 C   0  0  2  0  0  0
  -28.6997  -13.0515   20.9956 C   0  0  0  0  0  0
  -25.2556  -13.8178   20.5690 C   0  0  0  0  0  0
  -24.1825  -13.0439   20.9196 C   0  0  0  0  0  0
  -24.6396  -11.6912   20.8744 C   0  0  0  0  0  0
  -23.9066  -10.4297   21.0397 C   0  0  0  0  0  0
  -24.3612   -9.4212   21.9177 C   0  0  0  0  0  0
  -23.6295   -8.2241   22.0751 C   0  0  0  0  0  0
  -22.4276   -8.0278   21.3543 C   0  0  0  0  0  0
  -21.9911   -9.0248   20.4640 C   0  0  0  0  0  0
  -22.7238  -10.2128   20.3045 C   0  0  0  0  0  0
  -21.6853   -6.0730   22.5280 C   0  0  0  0  0  0
  -21.4009   -6.5630   23.8215 C   0  0  0  0  0  0
  -21.3657   -5.6782   24.9177 C   0  0  0  0  0  0
  -21.6045   -4.3046   24.7226 C   0  0  0  0  0  0
  -21.8822   -3.8140   23.4346 C   0  0  0  0  0  0
  -21.9194   -4.6959   22.3399 C   0  0  0  0  0  0
  -22.7850  -13.5230   21.1860 C   0  0  0  0  0  0
  -22.1665   -4.2145   21.0980 F   0  0  0  0  0  0
  -21.5622   -3.4526   25.7736 F   0  0  0  0  0  0
  -30.0241  -13.3525   20.4317 N   0  0  0  0  0  0
  -26.2999  -12.9370   20.3351 N   0  0  0  0  0  0
  -25.9326  -11.6519   20.5771 N   0  0  0  0  0  0
  -22.0482  -12.8214   22.0403 N   0  0  0  0  0  0
  -25.4272  -15.1899   20.4099 N   0  0  0  0  0  0
  -31.8473  -14.6511   20.0997 O   0  0  0  0  0  0
  -21.6639   -6.8873   21.4245 O   0  0  0  0  0  0
  -22.3543  -14.5544   20.6726 O   0  0  0  0  0  0
  -24.6186  -31.8661   23.2088 C   0  0  0  0  0  0
  -25.9069  -32.4808   23.8400 C   0  0  1  0  0  0
  -27.2241  -27.3976   20.1059 C   0  0  0  0  0  0
  -25.5914  -33.8606   24.2329 N   0  0  0  0  0  0
  -23.4089  -30.4909   21.5488 C   0  0  2  0  0  0
  -24.8564  -28.9592   20.1081 C   0  0  0  0  0  0
  -22.7442  -29.4659   22.4968 C   0  0  0  0  0  0
  -18.0267  -28.1397   22.8493 C   0  0  0  0  0  0
  -24.1479  -36.7292   23.2642 C   0  0  0  0  0  0
  -25.9428  -30.8221   21.3676 C   0  0  0  0  0  0
  -26.0208  -29.4557   20.7101 C   0  0  0  0  0  0
  -27.2115  -28.6828   20.7062 C   0  0  0  0  0  0
  -26.0467  -26.9384   19.4745 C   0  0  0  0  0  0
  -24.8661  -27.7012   19.4845 C   0  0  0  0  0  0
  -23.6188  -29.8272   20.1625 C   0  0  0  0  0  0
  -25.4099  -36.3102   24.0351 C   0  0  1  0  0  0
  -20.5866  -28.3685   23.1308 C   0  0  2  0  0  0
  -20.6753  -26.9420   22.5417 C   0  0  0  0  0  0
  -19.5735  -26.6399   21.5216 C   0  0  0  0  0  0
  -18.1914  -26.7944   22.1622 C   0  0  0  0  0  0
  -19.1521  -28.8859   23.2890 C   0  0  0  0  0  0
  -18.9449  -30.1458   23.8903 C   0  0  0  0  0  0
  -17.6451  -30.6598   24.0566 C   0  0  0  0  0  0
  -25.9040  -34.9468   23.5136 C   0  0  0  0  0  0
  -16.5340  -29.9097   23.6337 C   0  0  0  0  0  0
  -16.7257  -28.6511   23.0361 C   0  0  0  0  0  0
  -26.4481  -31.6595   25.0736 C   0  0  0  0  0  0
  -25.3739  -31.3697   26.1475 C   0  0  0  0  0  0
  -27.0307  -30.3027   24.6135 C   0  0  0  0  0  0
  -27.6054  -32.4316   25.7497 C   0  0  0  0  0  0
  -27.5584  -37.1793   24.8467 C   0  0  0  0  0  0
  -21.4168  -29.3042   22.3716 N   0  0  0  0  0  0
  -26.4274  -37.3799   23.9442 N   0  0  0  0  0  0
  -24.6750  -31.0736   22.1002 N   0  0  0  0  0  0
  -23.4199  -28.8202   23.3020 O   0  0  0  0  0  0
  -28.3174  -26.5458   20.1691 O   0  0  0  0  0  0
  -26.5599  -34.8927   22.4690 O   0  0  0  0  0  0
  -23.5370  -32.1425   23.7466 O   0  0  0  0  0  0
  -31.0710  -19.7796   21.1719 C   0  0  0  0  0  0
  -29.3760  -18.0283   21.0316 C   0  0  0  0  0  0
  -31.7261  -17.4235   21.1045 C   0  0  0  0  0  0
  -29.7080  -19.4192   21.0991 C   0  0  0  0  0  0
  -32.0707  -18.7896   21.1735 C   0  0  0  0  0  0
  -30.3724  -17.0081   21.0215 C   0  0  0  0  0  0
  -28.0311  -25.2914   20.7022 C   0  0  0  0  0  0
  -28.6245  -20.4796   21.2253 C   0  0  0  0  0  0
  -28.6806  -24.1182   20.4678 C   0  0  0  0  0  0
  -28.1558  -22.8775   21.0791 C   0  0  0  0  0  0
  -33.4101  -19.1656   21.2619 N   0  0  0  0  0  0
  -29.9887  -15.6083   20.9758 N   0  0  0  0  0  0
  -28.9068  -21.7629   20.8598 N   0  0  0  0  0  0
  -27.5205  -20.1103   21.6430 O   0  0  0  0  0  0
  -27.1096  -22.8633   21.7395 O   0  0  0  0  0  0
  -29.7658  -24.0777   19.6810 O   0  0  0  0  0  0
  -31.4635  -12.4247   19.1368 H   0  0  0  0  0  0
  -30.3165  -11.3364   19.8623 H   0  0  0  0  0  0
  -29.7436  -11.7642   17.4504 H   0  0  0  0  0  0
  -29.6589  -13.4811   17.7576 H   0  0  0  0  0  0
  -27.8395  -11.3048   18.8430 H   0  0  0  0  0  0
  -27.3663  -12.6106   17.7907 H   0  0  0  0  0  0
  -27.6830  -14.2579   19.5428 H   0  0  0  0  0  0
  -28.6864  -12.0317   21.3828 H   0  0  0  0  0  0
  -28.4611  -13.6944   21.8445 H   0  0  0  0  0  0
  -25.2754   -9.5695   22.4757 H   0  0  0  0  0  0
  -24.0005   -7.4631   22.7474 H   0  0  0  0  0  0
  -21.0838   -8.8761   19.8951 H   0  0  0  0  0  0
  -22.3687  -10.9656   19.6149 H   0  0  0  0  0  0
  -21.1998   -7.6138   23.9719 H   0  0  0  0  0  0
  -21.1468   -6.0506   25.9082 H   0  0  0  0  0  0
  -22.0597   -2.7602   23.2840 H   0  0  0  0  0  0
  -22.4061  -11.9844   22.4762 H   0  0  0  0  0  0
  -21.1116  -13.1273   22.2624 H   0  0  0  0  0  0
  -24.6613  -15.8464   20.5153 H   0  0  0  0  0  0
  -26.2758  -15.6244   20.0706 H   0  0  0  0  0  0
  -26.7142  -32.5511   23.1164 H   0  0  0  0  0  0
  -25.0093  -33.9766   25.0491 H   0  0  0  0  0  0
  -22.6988  -31.3085   21.4101 H   0  0  0  0  0  0
  -23.3773  -35.9591   23.3267 H   0  0  0  0  0  0
  -24.3593  -36.8941   22.2066 H   0  0  0  0  0  0
  -23.7190  -37.6470   23.6663 H   0  0  0  0  0  0
  -26.0618  -31.5896   20.6013 H   0  0  0  0  0  0
  -26.8284  -30.8729   21.9893 H   0  0  0  0  0  0
  -28.1039  -29.0525   21.1911 H   0  0  0  0  0  0
  -26.0317  -25.9680   18.9995 H   0  0  0  0  0  0
  -23.9728  -27.3139   19.0139 H   0  0  0  0  0  0
  -23.7269  -30.6028   19.4033 H   0  0  0  0  0  0
  -22.7430  -29.2468   19.8673 H   0  0  0  0  0  0
  -25.1269  -36.1959   25.0840 H   0  0  0  0  0  0
  -20.9951  -28.3243   24.1433 H   0  0  0  0  0  0
  -20.5666  -26.2302   23.3611 H   0  0  0  0  0  0
  -21.6621  -26.7467   22.1207 H   0  0  0  0  0  0
  -19.6898  -25.6312   21.1248 H   0  0  0  0  0  0
  -19.6681  -27.3206   20.6742 H   0  0  0  0  0  0
  -17.4200  -26.6720   21.4006 H   0  0  0  0  0  0
  -18.0292  -26.0076   22.9000 H   0  0  0  0  0  0
  -19.7925  -30.7262   24.2286 H   0  0  0  0  0  0
  -17.5018  -31.6286   24.5160 H   0  0  0  0  0  0
  -15.5343  -30.3002   23.7666 H   0  0  0  0  0  0
  -15.8657  -28.0834   22.7082 H   0  0  0  0  0  0
  -24.5930  -30.7015   25.7819 H   0  0  0  0  0  0
  -24.8890  -32.2838   26.4913 H   0  0  0  0  0  0
  -25.8101  -30.8894   27.0241 H   0  0  0  0  0  0
  -26.2849  -29.6797   24.1177 H   0  0  0  0  0  0
  -27.4044  -29.7265   25.4612 H   0  0  0  0  0  0
  -27.8708  -30.4325   23.9305 H   0  0  0  0  0  0
  -27.2684  -33.3635   26.2045 H   0  0  0  0  0  0
  -28.3870  -32.6847   25.0321 H   0  0  0  0  0  0
  -28.0700  -31.8454   26.5433 H   0  0  0  0  0  0
  -28.2563  -38.0129   24.7575 H   0  0  0  0  0  0
  -28.1110  -36.2666   24.6189 H   0  0  0  0  0  0
  -27.2329  -37.1326   25.8874 H   0  0  0  0  0  0
  -20.9344  -29.8762   21.6925 H   0  0  0  0  0  0
  -26.0160  -38.2868   24.1480 H   0  0  0  0  0  0
  -31.3528  -20.8195   21.2589 H   0  0  0  0  0  0
  -28.3326  -17.7444   21.0013 H   0  0  0  0  0  0
  -32.5238  -16.6975   21.1364 H   0  0  0  0  0  0
  -27.1688  -25.3301   21.3576 H   0  0  0  0  0  0
  -33.6423  -20.0938   21.6043 H   0  0  0  0  0  0
  -34.1036  -18.4669   21.5155 H   0  0  0  0  0  0
  -29.0287  -15.4024   21.2057 H   0  0  0  0  0  0
  -29.7794  -21.9329   20.3853 H   0  0  0  0  0  0
  -29.9197  -24.9670   19.3879 H   0  0  0  0  0  0
  1 25  1  0  0  0
  1 30  2  0  0  0
  1 82  1  0  0  0
  2  3  1  0  0  0
  2 25  1  0  0  0
  2 87  1  0  0  0
  2 88  1  0  0  0
  3  4  1  0  0  0
  3 89  1  0  0  0
  3 90  1  0  0  0
  4  5  1  0  0  0
  4 91  1  0  0  0
  4 92  1  0  0  0
  5  6  1  0  0  0
  5 26  1  0  0  0
  5 93  1  0  0  0
  6 25  1  0  0  0
  6 94  1  0  0  0
  6 95  1  0  0  0
  7  8  2  0  0  0
  7 26  1  0  0  0
  7 29  1  0  0  0
  8  9  1  0  0  0
  8 22  1  0  0  0
  9 10  1  0  0  0
  9 27  2  0  0  0
 10 11  2  0  0  0
 10 15  1  0  0  0
 11 12  1  0  0  0
 11 96  1  0  0  0
 12 13  2  0  0  0
 12 97  1  0  0  0
 13 14  1  0  0  0
 13 31  1  0  0  0
 14 15  2  0  0  0
 14 98  1  0  0  0
 15 99  1  0  0  0
 16 17  2  0  0  0
 16 21  1  0  0  0
 16 31  1  0  0  0
 17 18  1  0  0  0
 17100  1  0  0  0
 18 19  2  0  0  0
 18101  1  0  0  0
 19 20  1  0  0  0
 19 24  1  0  0  0
 20 21  2  0  0  0
 20102  1  0  0  0
 21 23  1  0  0  0
 22 28  1  0  0  0
 22 32  2  0  0  0
 26 27  1  0  0  0
 28103  1  0  0  0
 28104  1  0  0  0
 29105  1  0  0  0
 29106  1  0  0  0
 33 34  1  0  0  0
 33 66  1  0  0  0
 33 70  2  0  0  0
 34 36  1  0  0  0
 34 59  1  0  0  0
 34107  1  0  0  0
 35 44  2  0  0  0
 35 45  1  0  0  0
 35 68  1  0  0  0
 36 56  1  0  0  0
 36108  1  0  0  0
 37 39  1  0  0  0
 37 47  1  0  0  0
 37 66  1  0  0  0
 37109  1  0  0  0
 38 43  2  0  0  0
 38 46  1  0  0  0
 38 47  1  0  0  0
 39 64  1  0  0  0
 39 67  2  0  0  0
 40 52  1  0  0  0
 40 53  2  0  0  0
 40 58  1  0  0  0
 41110  1  0  0  0
 41111  1  0  0  0
 41112  1  0  0  0
 41 48  1  0  0  0
 42 43  1  0  0  0
 42 66  1  0  0  0
 42113  1  0  0  0
 42114  1  0  0  0
 43 44  1  0  0  0
 44115  1  0  0  0
 45 46  2  0  0  0
 45116  1  0  0  0
 46117  1  0  0  0
 47118  1  0  0  0
 47119  1  0  0  0
 48 56  1  0  0  0
 48 65  1  0  0  0
 48120  1  0  0  0
 49 50  1  0  0  0
 49 53  1  0  0  0
 49 64  1  0  0  0
 49121  1  0  0  0
 50 51  1  0  0  0
 50122  1  0  0  0
 50123  1  0  0  0
 51 52  1  0  0  0
 51124  1  0  0  0
 51125  1  0  0  0
 52126  1  0  0  0
 52127  1  0  0  0
 53 54  1  0  0  0
 54 55  2  0  0  0
 54128  1  0  0  0
 55 57  1  0  0  0
 55129  1  0  0  0
 56 69  2  0  0  0
 57 58  2  0  0  0
 57130  1  0  0  0
 58131  1  0  0  0
 59 60  1  0  0  0
 59 61  1  0  0  0
 59 62  1  0  0  0
 60132  1  0  0  0
 60133  1  0  0  0
 60134  1  0  0  0
 61135  1  0  0  0
 61136  1  0  0  0
 61137  1  0  0  0
 62138  1  0  0  0
 62139  1  0  0  0
 62140  1  0  0  0
 63 65  1  0  0  0
 63141  1  0  0  0
 63142  1  0  0  0
 63143  1  0  0  0
 64144  1  0  0  0
 65145  1  0  0  0
 68 77  1  0  0  0
 71 74  2  0  0  0
 71 75  1  0  0  0
 71146  1  0  0  0
 72 74  1  0  0  0
 72 76  2  0  0  0
 72147  1  0  0  0
 73 75  2  0  0  0
 73 76  1  0  0  0
 73148  1  0  0  0
 74 78  1  0  0  0
 75 81  1  0  0  0
 76 82  1  0  0  0
 77 79  2  0  0  0
 77149  1  0  0  0
 78 83  1  0  0  0
 78 84  2  0  0  0
 79 80  1  0  0  0
 79 86  1  0  0  0
 80 83  1  0  0  0
 80 85  2  0  0  0
 81150  1  0  0  0
 81151  1  0  0  0
 82152  1  0  0  0
 83153  1  0  0  0
 86154  1  0  0  0
M  ISO  4   1 100  68 101  77 101  82 100
M  END
> <chiral flag>
0

> <version>
0

> <s_m_source_file>
/data/baiqing/PycharmProjects/Reinvent-master-3.2/result/LINK_invent/BTK/process_docking_weight1_custom_product_contain_oxygen_bond_distance_aromatic_linkinvent_7_9_3/rearranged_h_0085.sdf

> <i_m_source_file_index>
28

> <r_mmod_Potential_Energy-OPLS-2005>
-233.605728149414

> <r_mmod_Stretch_Energy-OPLS-2005>
51.7684860229492

> <r_mmod_Bend_Energy-OPLS-2005>
109.3037109375

> <r_mmod_Torsional_Energy-OPLS-2005>
218.936828613281

> <r_mmod_Improper_Torsional_Energy-OPLS-2005>
7.43406629562378

> <r_mmod_Van_der_Waal_Energy-OPLS-2005>
172.295822143555

> <r_mmod_Electrostatic_Energy-OPLS-2005>
-555.439819335938

> <r_mmod_Solvation_Energy-OPLS-2005>
-263.9384765625

> <b_mmod_Minimization_Converged-OPLS-2005>
0

> <r_mmod_RMS_Derivative-OPLS-2005>
1.39332211017609

$$$$
29
                    3D
 Structure written by MMmdl.
150159  0  0  1  0            999 V2000
  -30.5692  -14.7421   20.4850 C   0  0  0  0  0  0
  -30.4511  -12.4556   19.4667 C   0  0  0  0  0  0
  -29.5167  -12.5196   18.2354 C   0  0  0  0  0  0
  -28.0415  -12.3384   18.6472 C   0  0  0  0  0  0
  -27.6514  -13.2208   19.8618 C   0  0  2  0  0  0
  -28.6968  -13.1055   20.9942 C   0  0  0  0  0  0
  -25.2559  -13.8174   20.5689 C   0  0  0  0  0  0
  -24.1830  -13.0437   20.9196 C   0  0  0  0  0  0
  -24.6401  -11.6907   20.8741 C   0  0  0  0  0  0
  -23.9068  -10.4291   21.0407 C   0  0  0  0  0  0
  -24.3618   -9.4205   21.9186 C   0  0  0  0  0  0
  -23.6292   -8.2241   22.0755 C   0  0  0  0  0  0
  -22.4275   -8.0280   21.3543 C   0  0  0  0  0  0
  -21.9909   -9.0255   20.4647 C   0  0  0  0  0  0
  -22.7237  -10.2136   20.3058 C   0  0  0  0  0  0
  -21.6853   -6.0734   22.5277 C   0  0  0  0  0  0
  -21.4013   -6.5638   23.8211 C   0  0  0  0  0  0
  -21.3661   -5.6792   24.9174 C   0  0  0  0  0  0
  -21.6046   -4.3055   24.7226 C   0  0  0  0  0  0
  -21.8819   -3.8144   23.4347 C   0  0  0  0  0  0
  -21.9194   -4.6961   22.3402 C   0  0  0  0  0  0
  -22.7851  -13.5229   21.1858 C   0  0  0  0  0  0
  -22.1663   -4.2146   21.0980 F   0  0  0  0  0  0
  -21.5630   -3.4539   25.7739 F   0  0  0  0  0  0
  -30.0028  -13.4861   20.4307 N   0  0  0  0  0  0
  -26.2984  -12.9356   20.3309 N   0  0  0  0  0  0
  -25.9333  -11.6509   20.5755 N   0  0  0  0  0  0
  -22.0493  -12.8223   22.0415 N   0  0  0  0  0  0
  -25.4275  -15.1895   20.4100 N   0  0  0  0  0  0
  -31.7264  -14.9244   20.0924 O   0  0  0  0  0  0
  -21.6639   -6.8876   21.4239 O   0  0  0  0  0  0
  -22.3536  -14.5535   20.6704 O   0  0  0  0  0  0
  -24.6314  -31.8549   23.1984 C   0  0  0  0  0  0
  -25.9134  -32.4756   23.8333 C   0  0  1  0  0  0
  -27.2250  -27.2670   20.1294 C   0  0  0  0  0  0
  -25.5927  -33.8558   24.2257 N   0  0  0  0  0  0
  -23.4299  -30.4768   21.5412 C   0  0  2  0  0  0
  -24.8813  -28.9255   20.1089 C   0  0  0  0  0  0
  -22.7508  -29.4598   22.4904 C   0  0  0  0  0  0
  -18.0293  -28.1387   22.8484 C   0  0  0  0  0  0
  -24.1489  -36.7287   23.2640 C   0  0  0  0  0  0
  -25.9762  -30.7685   21.3801 C   0  0  0  0  0  0
  -26.0527  -29.3913   20.7223 C   0  0  0  0  0  0
  -27.2303  -28.5734   20.7248 C   0  0  0  0  0  0
  -26.0356  -26.8726   19.4803 C   0  0  0  0  0  0
  -24.8772  -27.6731   19.4764 C   0  0  0  0  0  0
  -23.6501  -29.8107   20.1576 C   0  0  0  0  0  0
  -25.4115  -36.3072   24.0326 C   0  0  1  0  0  0
  -20.5898  -28.3700   23.1263 C   0  0  2  0  0  0
  -20.6781  -26.9416   22.5405 C   0  0  0  0  0  0
  -19.5756  -26.6381   21.5211 C   0  0  0  0  0  0
  -18.1937  -26.7927   22.1628 C   0  0  0  0  0  0
  -19.1547  -28.8861   23.2868 C   0  0  0  0  0  0
  -18.9469  -30.1460   23.8888 C   0  0  0  0  0  0
  -17.6468  -30.6588   24.0562 C   0  0  0  0  0  0
  -25.9054  -34.9440   23.5096 C   0  0  0  0  0  0
  -16.5358  -29.9085   23.6332 C   0  0  0  0  0  0
  -16.7280  -28.6503   23.0354 C   0  0  0  0  0  0
  -26.4501  -31.6579   25.0723 C   0  0  0  0  0  0
  -25.3721  -31.3735   26.1441 C   0  0  0  0  0  0
  -27.0351  -30.2993   24.6217 C   0  0  0  0  0  0
  -27.6049  -32.4325   25.7499 C   0  0  0  0  0  0
  -27.5577  -37.1802   24.8467 C   0  0  0  0  0  0
  -21.4213  -29.3046   22.3649 N   0  0  0  0  0  0
  -26.4294  -37.3768   23.9402 N   0  0  0  0  0  0
  -24.6980  -31.0509   22.0963 N   0  0  0  0  0  0
  -23.4201  -28.8136   23.3008 O   0  0  0  0  0  0
  -28.2753  -26.3204   20.1787 O   0  0  0  0  0  0
  -26.5632  -34.8914   22.4668 O   0  0  0  0  0  0
  -23.5459  -32.1370   23.7272 O   0  0  0  0  0  0
  -28.4147  -19.3382   21.3791 C   0  0  0  0  0  0
  -28.6190  -17.9253   21.4410 C   0  0  0  0  0  0
  -30.5052  -18.1406   20.0189 C   0  0  0  0  0  0
  -29.2142  -20.2597   20.6377 C   0  0  0  0  0  0
  -29.6714  -17.2542   20.7664 C   0  0  0  0  0  0
  -30.2800  -19.5711   19.9586 C   0  0  0  0  0  0
  -28.4329  -23.7445   20.6059 C   0  0  0  0  0  0
  -27.9293  -22.5503   21.2765 C   0  0  0  0  0  0
  -27.9469  -25.0473   20.7329 C   0  0  0  0  0  0
  -29.4929  -22.8503   19.8929 C   0  0  0  0  0  0
  -28.8819  -21.7191   20.6560 N   0  0  0  0  0  0
  -29.7268  -15.7694   20.8755 N   0  0  0  0  0  0
  -27.0121  -22.4075   22.0586 O   0  0  0  0  0  0
  -31.1316  -20.3109   19.2077 F   0  0  0  0  0  0
  -31.4873  -12.6086   19.1603 H   0  0  0  0  0  0
  -30.4187  -11.4666   19.9261 H   0  0  0  0  0  0
  -29.7977  -11.7565   17.5082 H   0  0  0  0  0  0
  -29.6392  -13.4802   17.7325 H   0  0  0  0  0  0
  -27.8950  -11.2863   18.8949 H   0  0  0  0  0  0
  -27.3838  -12.5451   17.8020 H   0  0  0  0  0  0
  -27.6590  -14.2508   19.5047 H   0  0  0  0  0  0
  -28.7335  -12.0856   21.3802 H   0  0  0  0  0  0
  -28.4237  -13.7328   21.8440 H   0  0  0  0  0  0
  -25.2766   -9.5679   22.4757 H   0  0  0  0  0  0
  -24.0002   -7.4631   22.7474 H   0  0  0  0  0  0
  -21.0839   -8.8773   19.8953 H   0  0  0  0  0  0
  -22.3696  -10.9675   19.6166 H   0  0  0  0  0  0
  -21.2003   -7.6146   23.9713 H   0  0  0  0  0  0
  -21.1484   -6.0523   25.9077 H   0  0  0  0  0  0
  -22.0597   -2.7606   23.2849 H   0  0  0  0  0  0
  -22.4110  -11.9886   22.4805 H   0  0  0  0  0  0
  -21.1109  -13.1249   22.2618 H   0  0  0  0  0  0
  -24.6575  -15.8417   20.5111 H   0  0  0  0  0  0
  -26.2692  -15.6257   20.0557 H   0  0  0  0  0  0
  -26.7202  -32.5412   23.1077 H   0  0  0  0  0  0
  -25.0057  -33.9692   25.0390 H   0  0  0  0  0  0
  -22.7266  -31.2991   21.3942 H   0  0  0  0  0  0
  -23.3747  -35.9625   23.3312 H   0  0  0  0  0  0
  -24.3575  -36.8900   22.2053 H   0  0  0  0  0  0
  -23.7250  -37.6494   23.6659 H   0  0  0  0  0  0
  -26.1149  -31.5293   20.6105 H   0  0  0  0  0  0
  -26.8530  -30.8180   22.0142 H   0  0  0  0  0  0
  -28.1244  -28.9185   21.2249 H   0  0  0  0  0  0
  -25.9906  -25.9060   18.9985 H   0  0  0  0  0  0
  -23.9820  -27.3108   18.9898 H   0  0  0  0  0  0
  -23.7730  -30.5874   19.4019 H   0  0  0  0  0  0
  -22.7692  -29.2432   19.8524 H   0  0  0  0  0  0
  -25.1299  -36.1923   25.0821 H   0  0  0  0  0  0
  -20.9994  -28.3282   24.1382 H   0  0  0  0  0  0
  -20.5678  -26.2313   23.3613 H   0  0  0  0  0  0
  -21.6649  -26.7436   22.1201 H   0  0  0  0  0  0
  -19.6918  -25.6290   21.1246 H   0  0  0  0  0  0
  -19.6690  -27.3187   20.6737 H   0  0  0  0  0  0
  -17.4204  -26.6666   21.4035 H   0  0  0  0  0  0
  -18.0347  -26.0071   22.9028 H   0  0  0  0  0  0
  -19.7944  -30.7279   24.2254 H   0  0  0  0  0  0
  -17.5022  -31.6267   24.5165 H   0  0  0  0  0  0
  -15.5359  -30.2987   23.7655 H   0  0  0  0  0  0
  -15.8680  -28.0818   22.7075 H   0  0  0  0  0  0
  -24.5883  -30.7104   25.7763 H   0  0  0  0  0  0
  -24.8932  -32.2912   26.4868 H   0  0  0  0  0  0
  -25.8030  -30.8900   27.0218 H   0  0  0  0  0  0
  -26.2942  -29.6738   24.1227 H   0  0  0  0  0  0
  -27.4010  -29.7259   25.4744 H   0  0  0  0  0  0
  -27.8829  -30.4260   23.9480 H   0  0  0  0  0  0
  -27.2645  -33.3622   26.2070 H   0  0  0  0  0  0
  -28.3863  -32.6891   25.0335 H   0  0  0  0  0  0
  -28.0714  -31.8458   26.5423 H   0  0  0  0  0  0
  -28.2605  -38.0089   24.7496 H   0  0  0  0  0  0
  -28.1064  -36.2619   24.6320 H   0  0  0  0  0  0
  -27.2292  -37.1482   25.8870 H   0  0  0  0  0  0
  -20.9399  -29.8771   21.6856 H   0  0  0  0  0  0
  -26.0176  -38.2846   24.1388 H   0  0  0  0  0  0
  -27.5767  -19.7268   21.9396 H   0  0  0  0  0  0
  -27.9237  -17.3468   22.0337 H   0  0  0  0  0  0
  -31.3323  -17.7308   19.4585 H   0  0  0  0  0  0
  -27.1165  -25.1720   21.4163 H   0  0  0  0  0  0
  -30.5402  -22.9998   20.1597 H   0  0  0  0  0  0
  -29.3912  -22.7119   18.8152 H   0  0  0  0  0  0
  -28.8841  -15.3800   21.2699 H   0  0  0  0  0  0
  1 25  1  0  0  0
  1 30  2  0  0  0
  1 82  1  0  0  0
  2  3  1  0  0  0
  2 25  1  0  0  0
  2 85  1  0  0  0
  2 86  1  0  0  0
  3  4  1  0  0  0
  3 87  1  0  0  0
  3 88  1  0  0  0
  4  5  1  0  0  0
  4 89  1  0  0  0
  4 90  1  0  0  0
  5  6  1  0  0  0
  5 26  1  0  0  0
  5 91  1  0  0  0
  6 25  1  0  0  0
  6 92  1  0  0  0
  6 93  1  0  0  0
  7  8  2  0  0  0
  7 26  1  0  0  0
  7 29  1  0  0  0
  8  9  1  0  0  0
  8 22  1  0  0  0
  9 10  1  0  0  0
  9 27  2  0  0  0
 10 11  2  0  0  0
 10 15  1  0  0  0
 11 12  1  0  0  0
 11 94  1  0  0  0
 12 13  2  0  0  0
 12 95  1  0  0  0
 13 14  1  0  0  0
 13 31  1  0  0  0
 14 15  2  0  0  0
 14 96  1  0  0  0
 15 97  1  0  0  0
 16 17  2  0  0  0
 16 21  1  0  0  0
 16 31  1  0  0  0
 17 18  1  0  0  0
 17 98  1  0  0  0
 18 19  2  0  0  0
 18 99  1  0  0  0
 19 20  1  0  0  0
 19 24  1  0  0  0
 20 21  2  0  0  0
 20100  1  0  0  0
 21 23  1  0  0  0
 22 28  1  0  0  0
 22 32  2  0  0  0
 26 27  1  0  0  0
 28101  1  0  0  0
 28102  1  0  0  0
 29103  1  0  0  0
 29104  1  0  0  0
 33 34  1  0  0  0
 33 66  1  0  0  0
 33 70  2  0  0  0
 34 36  1  0  0  0
 34 59  1  0  0  0
 34105  1  0  0  0
 35 44  2  0  0  0
 35 45  1  0  0  0
 35 68  1  0  0  0
 36 56  1  0  0  0
 36106  1  0  0  0
 37 39  1  0  0  0
 37 47  1  0  0  0
 37 66  1  0  0  0
 37107  1  0  0  0
 38 43  2  0  0  0
 38 46  1  0  0  0
 38 47  1  0  0  0
 39 64  1  0  0  0
 39 67  2  0  0  0
 40 52  1  0  0  0
 40 53  2  0  0  0
 40 58  1  0  0  0
 41108  1  0  0  0
 41109  1  0  0  0
 41110  1  0  0  0
 41 48  1  0  0  0
 42 43  1  0  0  0
 42 66  1  0  0  0
 42111  1  0  0  0
 42112  1  0  0  0
 43 44  1  0  0  0
 44113  1  0  0  0
 45 46  2  0  0  0
 45114  1  0  0  0
 46115  1  0  0  0
 47116  1  0  0  0
 47117  1  0  0  0
 48 56  1  0  0  0
 48 65  1  0  0  0
 48118  1  0  0  0
 49 50  1  0  0  0
 49 53  1  0  0  0
 49 64  1  0  0  0
 49119  1  0  0  0
 50 51  1  0  0  0
 50120  1  0  0  0
 50121  1  0  0  0
 51 52  1  0  0  0
 51122  1  0  0  0
 51123  1  0  0  0
 52124  1  0  0  0
 52125  1  0  0  0
 53 54  1  0  0  0
 54 55  2  0  0  0
 54126  1  0  0  0
 55 57  1  0  0  0
 55127  1  0  0  0
 56 69  2  0  0  0
 57 58  2  0  0  0
 57128  1  0  0  0
 58129  1  0  0  0
 59 60  1  0  0  0
 59 61  1  0  0  0
 59 62  1  0  0  0
 60130  1  0  0  0
 60131  1  0  0  0
 60132  1  0  0  0
 61133  1  0  0  0
 61134  1  0  0  0
 61135  1  0  0  0
 62136  1  0  0  0
 62137  1  0  0  0
 62138  1  0  0  0
 63 65  1  0  0  0
 63139  1  0  0  0
 63140  1  0  0  0
 63141  1  0  0  0
 64142  1  0  0  0
 65143  1  0  0  0
 68 79  1  0  0  0
 71 72  2  0  0  0
 71 74  1  0  0  0
 71144  1  0  0  0
 72 75  1  0  0  0
 72145  1  0  0  0
 73 75  2  0  0  0
 73 76  1  0  0  0
 73146  1  0  0  0
 74 76  2  0  0  0
 74 81  1  0  0  0
 75 82  1  0  0  0
 76 84  1  0  0  0
 77 78  1  0  0  0
 77 79  2  0  0  0
 77 80  1  0  0  0
 78 81  1  0  0  0
 78 83  2  0  0  0
 79147  1  0  0  0
 80 81  1  0  0  0
 80148  1  0  0  0
 80149  1  0  0  0
 82150  1  0  0  0
M  ISO  4   1 100  68 101  79 101  82 100
M  END
> <chiral flag>
0

> <version>
0

> <s_m_source_file>
/data/baiqing/PycharmProjects/Reinvent-master-3.2/result/LINK_invent/BTK/process_docking_weight1_custom_product_contain_oxygen_bond_distance_aromatic_linkinvent_7_9_3/rearranged_h_0085.sdf

> <i_m_source_file_index>
29

> <r_mmod_Potential_Energy-OPLS-2005>
227.970703125

> <r_mmod_Stretch_Energy-OPLS-2005>
107.681640625

> <r_mmod_Bend_Energy-OPLS-2005>
270.576690673828

> <r_mmod_Torsional_Energy-OPLS-2005>
220.03254699707

> <r_mmod_Improper_Torsional_Energy-OPLS-2005>
3.48363852500916

> <r_mmod_Van_der_Waal_Energy-OPLS-2005>
134.12727355957

> <r_mmod_Electrostatic_Energy-OPLS-2005>
-381.995819091797

> <r_mmod_Solvation_Energy-OPLS-2005>
-213.960922241211

> <b_mmod_Minimization_Converged-OPLS-2005>
0

> <r_mmod_RMS_Derivative-OPLS-2005>
0.390327841043472

$$$$
30
                    3D
 Structure written by MMmdl.
152161  0  0  1  0            999 V2000
  -30.6278  -14.7060   20.4244 C   0  0  0  0  0  0
  -30.4450  -12.4225   19.4440 C   0  0  0  0  0  0
  -29.5053  -12.4886   18.2209 C   0  0  0  0  0  0
  -28.0308  -12.3332   18.6427 C   0  0  0  0  0  0
  -27.6538  -13.2239   19.8561 C   0  0  2  0  0  0
  -28.7131  -13.1265   20.9790 C   0  0  0  0  0  0
  -25.2576  -13.8195   20.5741 C   0  0  0  0  0  0
  -24.1841  -13.0440   20.9199 C   0  0  0  0  0  0
  -24.6435  -11.6922   20.8743 C   0  0  0  0  0  0
  -23.9082  -10.4299   21.0399 C   0  0  0  0  0  0
  -24.3620   -9.4213   21.9179 C   0  0  0  0  0  0
  -23.6300   -8.2243   22.0741 C   0  0  0  0  0  0
  -22.4280   -8.0282   21.3530 C   0  0  0  0  0  0
  -21.9918   -9.0266   20.4638 C   0  0  0  0  0  0
  -22.7243  -10.2153   20.3052 C   0  0  0  0  0  0
  -21.6860   -6.0741   22.5276 C   0  0  0  0  0  0
  -21.4015   -6.5638   23.8211 C   0  0  0  0  0  0
  -21.3653   -5.6787   24.9172 C   0  0  0  0  0  0
  -21.6046   -4.3049   24.7225 C   0  0  0  0  0  0
  -21.8815   -3.8144   23.4338 C   0  0  0  0  0  0
  -21.9201   -4.6967   22.3400 C   0  0  0  0  0  0
  -22.7850  -13.5220   21.1864 C   0  0  0  0  0  0
  -22.1661   -4.2147   21.0984 F   0  0  0  0  0  0
  -21.5633   -3.4542   25.7733 F   0  0  0  0  0  0
  -30.0183  -13.4719   20.3935 N   0  0  0  0  0  0
  -26.3025  -12.9393   20.3368 N   0  0  0  0  0  0
  -25.9369  -11.6538   20.5794 N   0  0  0  0  0  0
  -22.0496  -12.8212   22.0422 N   0  0  0  0  0  0
  -25.4290  -15.1927   20.4280 N   0  0  0  0  0  0
  -31.8064  -14.8400   20.0908 O   0  0  0  0  0  0
  -21.6637   -6.8885   21.4235 O   0  0  0  0  0  0
  -22.3522  -14.5522   20.6718 O   0  0  0  0  0  0
  -24.6256  -31.8571   23.1983 C   0  0  0  0  0  0
  -25.9074  -32.4774   23.8316 C   0  0  1  0  0  0
  -27.2499  -27.3140   20.1071 C   0  0  0  0  0  0
  -25.5873  -33.8573   24.2221 N   0  0  0  0  0  0
  -23.4251  -30.4780   21.5396 C   0  0  2  0  0  0
  -24.8779  -28.9263   20.1171 C   0  0  0  0  0  0
  -22.7481  -29.4608   22.4905 C   0  0  0  0  0  0
  -18.0287  -28.1405   22.8469 C   0  0  0  0  0  0
  -24.1492  -36.7321   23.2645 C   0  0  0  0  0  0
  -25.9657  -30.7878   21.3691 C   0  0  0  0  0  0
  -26.0475  -29.4100   20.7169 C   0  0  0  0  0  0
  -27.2357  -28.6154   20.7039 C   0  0  0  0  0  0
  -26.0542  -26.8866   19.4863 C   0  0  0  0  0  0
  -24.8805  -27.6657   19.4998 C   0  0  0  0  0  0
  -23.6433  -29.8039   20.1595 C   0  0  0  0  0  0
  -25.4118  -36.3086   24.0322 C   0  0  1  0  0  0
  -20.5890  -28.3711   23.1279 C   0  0  2  0  0  0
  -20.6772  -26.9424   22.5424 C   0  0  0  0  0  0
  -19.5745  -26.6396   21.5221 C   0  0  0  0  0  0
  -18.1937  -26.7942   22.1629 C   0  0  0  0  0  0
  -19.1546  -28.8866   23.2865 C   0  0  0  0  0  0
  -18.9459  -30.1482   23.8874 C   0  0  0  0  0  0
  -17.6459  -30.6598   24.0568 C   0  0  0  0  0  0
  -25.9037  -34.9453   23.5076 C   0  0  0  0  0  0
  -16.5347  -29.9110   23.6338 C   0  0  0  0  0  0
  -16.7275  -28.6538   23.0326 C   0  0  0  0  0  0
  -26.4463  -31.6589   25.0692 C   0  0  0  0  0  0
  -25.3676  -31.3719   26.1384 C   0  0  0  0  0  0
  -27.0347  -30.3025   24.6166 C   0  0  0  0  0  0
  -27.5972  -32.4365   25.7490 C   0  0  0  0  0  0
  -27.5549  -37.1854   24.8470 C   0  0  0  0  0  0
  -21.4191  -29.3052   22.3642 N   0  0  0  0  0  0
  -26.4319  -37.3754   23.9335 N   0  0  0  0  0  0
  -24.6899  -31.0585   22.0915 N   0  0  0  0  0  0
  -23.4199  -28.8168   23.2996 O   0  0  0  0  0  0
  -28.3709  -26.4583   20.0972 O   0  0  0  0  0  0
  -26.5640  -34.8940   22.4670 O   0  0  0  0  0  0
  -23.5403  -32.1333   23.7325 O   0  0  0  0  0  0
  -30.8854  -19.4471   19.8263 C   0  0  0  0  0  0
  -30.9612  -18.0140   19.9427 C   0  0  0  0  0  0
  -28.6972  -19.4240   20.7885 C   0  0  0  0  0  0
  -29.7505  -20.2197   20.2464 C   0  0  0  0  0  0
  -29.8943  -17.2455   20.4909 C   0  0  0  0  0  0
  -28.7635  -18.0035   20.8969 C   0  0  0  0  0  0
  -29.0109  -23.9830   20.1349 C   0  0  0  0  0  0
  -30.3281  -23.9448   19.5299 C   0  0  0  0  0  0
  -28.6687  -22.5838   20.4765 C   0  0  0  0  0  0
  -28.1854  -25.0748   20.3590 C   0  0  0  0  0  0
  -30.7958  -22.4837   19.5131 C   0  0  0  0  0  0
  -29.6846  -21.7112   20.1138 N   0  0  0  0  0  0
  -29.8010  -15.7810   20.6509 N   0  0  0  0  0  0
  -30.9996  -24.8909   19.0994 O   0  0  0  0  0  0
  -27.6117  -22.2439   21.0218 O   0  0  0  0  0  0
  -27.6980  -17.3364   21.4018 F   0  0  0  0  0  0
  -31.4805  -12.5512   19.1256 H   0  0  0  0  0  0
  -30.3989  -11.4413   19.9173 H   0  0  0  0  0  0
  -29.7681  -11.7129   17.5014 H   0  0  0  0  0  0
  -29.6348  -13.4371   17.7001 H   0  0  0  0  0  0
  -27.8755  -11.2838   18.8979 H   0  0  0  0  0  0
  -27.3677  -12.5398   17.8004 H   0  0  0  0  0  0
  -27.6534  -14.2498   19.4854 H   0  0  0  0  0  0
  -28.7443  -12.1175   21.3938 H   0  0  0  0  0  0
  -28.4654  -13.7882   21.8103 H   0  0  0  0  0  0
  -25.2791   -9.5684   22.4737 H   0  0  0  0  0  0
  -24.0018   -7.4628   22.7463 H   0  0  0  0  0  0
  -21.0835   -8.8785   19.8952 H   0  0  0  0  0  0
  -22.3703  -10.9685   19.6141 H   0  0  0  0  0  0
  -21.1995   -7.6144   23.9712 H   0  0  0  0  0  0
  -21.1479   -6.0521   25.9080 H   0  0  0  0  0  0
  -22.0605   -2.7605   23.2843 H   0  0  0  0  0  0
  -22.4141  -11.9879   22.4784 H   0  0  0  0  0  0
  -21.1114  -13.1212   22.2631 H   0  0  0  0  0  0
  -24.6722  -15.8495   20.5879 H   0  0  0  0  0  0
  -26.3110  -15.6513   20.2372 H   0  0  0  0  0  0
  -26.7158  -32.5456   23.1087 H   0  0  0  0  0  0
  -24.9897  -33.9682   25.0277 H   0  0  0  0  0  0
  -22.7212  -31.2990   21.3899 H   0  0  0  0  0  0
  -23.3624  -35.9818   23.3598 H   0  0  0  0  0  0
  -24.3488  -36.8628   22.1999 H   0  0  0  0  0  0
  -23.7478  -37.6724   23.6455 H   0  0  0  0  0  0
  -26.0884  -31.5478   20.5974 H   0  0  0  0  0  0
  -26.8471  -30.8476   21.9950 H   0  0  0  0  0  0
  -28.1378  -28.9816   21.1720 H   0  0  0  0  0  0
  -26.0213  -25.9247   18.9964 H   0  0  0  0  0  0
  -23.9809  -27.2869   19.0347 H   0  0  0  0  0  0
  -23.7609  -30.5733   19.3953 H   0  0  0  0  0  0
  -22.7672  -29.2289   19.8561 H   0  0  0  0  0  0
  -25.1340  -36.1959   25.0830 H   0  0  0  0  0  0
  -20.9989  -28.3309   24.1395 H   0  0  0  0  0  0
  -20.5680  -26.2320   23.3633 H   0  0  0  0  0  0
  -21.6648  -26.7454   22.1220 H   0  0  0  0  0  0
  -19.6913  -25.6309   21.1258 H   0  0  0  0  0  0
  -19.6705  -27.3205   20.6758 H   0  0  0  0  0  0
  -17.4208  -26.6671   21.4041 H   0  0  0  0  0  0
  -18.0339  -26.0108   22.9043 H   0  0  0  0  0  0
  -19.7942  -30.7308   24.2230 H   0  0  0  0  0  0
  -17.5021  -31.6271   24.5185 H   0  0  0  0  0  0
  -15.5364  -30.2997   23.7694 H   0  0  0  0  0  0
  -15.8675  -28.0892   22.7004 H   0  0  0  0  0  0
  -24.5997  -30.6887   25.7740 H   0  0  0  0  0  0
  -24.8673  -32.2855   26.4609 H   0  0  0  0  0  0
  -25.8009  -30.9115   27.0271 H   0  0  0  0  0  0
  -26.2958  -29.6787   24.1123 H   0  0  0  0  0  0
  -27.3966  -29.7278   25.4700 H   0  0  0  0  0  0
  -27.8842  -30.4314   23.9454 H   0  0  0  0  0  0
  -27.2477  -33.3563   26.2191 H   0  0  0  0  0  0
  -28.3721  -32.7111   25.0325 H   0  0  0  0  0  0
  -28.0728  -31.8448   26.5324 H   0  0  0  0  0  0
  -28.2708  -38.0000   24.7321 H   0  0  0  0  0  0
  -28.0914  -36.2545   24.6579 H   0  0  0  0  0  0
  -27.2231  -37.1851   25.8867 H   0  0  0  0  0  0
  -20.9371  -29.8738   21.6825 H   0  0  0  0  0  0
  -26.0216  -38.2875   24.1193 H   0  0  0  0  0  0
  -31.7372  -19.9490   19.3884 H   0  0  0  0  0  0
  -31.8500  -17.5093   19.5869 H   0  0  0  0  0  0
  -27.7838  -19.8763   21.1339 H   0  0  0  0  0  0
  -27.2215  -24.9032   20.8221 H   0  0  0  0  0  0
  -31.7121  -22.3821   20.0990 H   0  0  0  0  0  0
  -30.9959  -22.1660   18.4887 H   0  0  0  0  0  0
  -28.8781  -15.4932   20.9351 H   0  0  0  0  0  0
  1 25  1  0  0  0
  1 30  2  0  0  0
  1 83  1  0  0  0
  2  3  1  0  0  0
  2 25  1  0  0  0
  2 87  1  0  0  0
  2 88  1  0  0  0
  3  4  1  0  0  0
  3 89  1  0  0  0
  3 90  1  0  0  0
  4  5  1  0  0  0
  4 91  1  0  0  0
  4 92  1  0  0  0
  5  6  1  0  0  0
  5 26  1  0  0  0
  5 93  1  0  0  0
  6 25  1  0  0  0
  6 94  1  0  0  0
  6 95  1  0  0  0
  7  8  2  0  0  0
  7 26  1  0  0  0
  7 29  1  0  0  0
  8  9  1  0  0  0
  8 22  1  0  0  0
  9 10  1  0  0  0
  9 27  2  0  0  0
 10 11  2  0  0  0
 10 15  1  0  0  0
 11 12  1  0  0  0
 11 96  1  0  0  0
 12 13  2  0  0  0
 12 97  1  0  0  0
 13 14  1  0  0  0
 13 31  1  0  0  0
 14 15  2  0  0  0
 14 98  1  0  0  0
 15 99  1  0  0  0
 16 17  2  0  0  0
 16 21  1  0  0  0
 16 31  1  0  0  0
 17 18  1  0  0  0
 17100  1  0  0  0
 18 19  2  0  0  0
 18101  1  0  0  0
 19 20  1  0  0  0
 19 24  1  0  0  0
 20 21  2  0  0  0
 20102  1  0  0  0
 21 23  1  0  0  0
 22 28  1  0  0  0
 22 32  2  0  0  0
 26 27  1  0  0  0
 28103  1  0  0  0
 28104  1  0  0  0
 29105  1  0  0  0
 29106  1  0  0  0
 33 34  1  0  0  0
 33 66  1  0  0  0
 33 70  2  0  0  0
 34 36  1  0  0  0
 34 59  1  0  0  0
 34107  1  0  0  0
 35 44  2  0  0  0
 35 45  1  0  0  0
 35 68  1  0  0  0
 36 56  1  0  0  0
 36108  1  0  0  0
 37 39  1  0  0  0
 37 47  1  0  0  0
 37 66  1  0  0  0
 37109  1  0  0  0
 38 43  2  0  0  0
 38 46  1  0  0  0
 38 47  1  0  0  0
 39 64  1  0  0  0
 39 67  2  0  0  0
 40 52  1  0  0  0
 40 53  2  0  0  0
 40 58  1  0  0  0
 41110  1  0  0  0
 41111  1  0  0  0
 41112  1  0  0  0
 41 48  1  0  0  0
 42 43  1  0  0  0
 42 66  1  0  0  0
 42113  1  0  0  0
 42114  1  0  0  0
 43 44  1  0  0  0
 44115  1  0  0  0
 45 46  2  0  0  0
 45116  1  0  0  0
 46117  1  0  0  0
 47118  1  0  0  0
 47119  1  0  0  0
 48 56  1  0  0  0
 48 65  1  0  0  0
 48120  1  0  0  0
 49 50  1  0  0  0
 49 53  1  0  0  0
 49 64  1  0  0  0
 49121  1  0  0  0
 50 51  1  0  0  0
 50122  1  0  0  0
 50123  1  0  0  0
 51 52  1  0  0  0
 51124  1  0  0  0
 51125  1  0  0  0
 52126  1  0  0  0
 52127  1  0  0  0
 53 54  1  0  0  0
 54 55  2  0  0  0
 54128  1  0  0  0
 55 57  1  0  0  0
 55129  1  0  0  0
 56 69  2  0  0  0
 57 58  2  0  0  0
 57130  1  0  0  0
 58131  1  0  0  0
 59 60  1  0  0  0
 59 61  1  0  0  0
 59 62  1  0  0  0
 60132  1  0  0  0
 60133  1  0  0  0
 60134  1  0  0  0
 61135  1  0  0  0
 61136  1  0  0  0
 61137  1  0  0  0
 62138  1  0  0  0
 62139  1  0  0  0
 62140  1  0  0  0
 63 65  1  0  0  0
 63141  1  0  0  0
 63142  1  0  0  0
 63143  1  0  0  0
 64144  1  0  0  0
 65145  1  0  0  0
 68 80  1  0  0  0
 71 72  2  0  0  0
 71 74  1  0  0  0
 71146  1  0  0  0
 72 75  1  0  0  0
 72147  1  0  0  0
 73 74  2  0  0  0
 73 76  1  0  0  0
 73148  1  0  0  0
 74 82  1  0  0  0
 75 76  2  0  0  0
 75 83  1  0  0  0
 76 86  1  0  0  0
 77 78  1  0  0  0
 77 79  1  0  0  0
 77 80  2  0  0  0
 78 81  1  0  0  0
 78 84  2  0  0  0
 79 82  1  0  0  0
 79 85  2  0  0  0
 80149  1  0  0  0
 81 82  1  0  0  0
 81150  1  0  0  0
 81151  1  0  0  0
 83152  1  0  0  0
M  ISO  4   1 100  68 101  80 101  83 100
M  END
> <chiral flag>
0

> <version>
0

> <s_m_source_file>
/data/baiqing/PycharmProjects/Reinvent-master-3.2/result/LINK_invent/BTK/process_docking_weight1_custom_product_contain_oxygen_bond_distance_aromatic_linkinvent_7_9_3/rearranged_h_0085.sdf

> <i_m_source_file_index>
30

> <r_mmod_Potential_Energy-OPLS-2005>
118.460357666016

> <r_mmod_Stretch_Energy-OPLS-2005>
97.5153198242188

> <r_mmod_Bend_Energy-OPLS-2005>
204.578765869141

> <r_mmod_Torsional_Energy-OPLS-2005>
240.838745117188

> <r_mmod_Improper_Torsional_Energy-OPLS-2005>
4.36470556259155

> <r_mmod_Van_der_Waal_Energy-OPLS-2005>
139.613525390625

> <r_mmod_Electrostatic_Energy-OPLS-2005>
-403.190368652344

> <r_mmod_Solvation_Energy-OPLS-2005>
-227.410781860352

> <b_mmod_Minimization_Converged-OPLS-2005>
0

> <r_mmod_RMS_Derivative-OPLS-2005>
3.80190753936768

$$$$
31
                    3D
 Structure written by MMmdl.
154163  0  0  1  0            999 V2000
  -30.5781  -14.8833   20.5205 C   0  0  0  0  0  0
  -30.4371  -12.5625   19.4942 C   0  0  0  0  0  0
  -29.5184  -12.5684   18.2499 C   0  0  0  0  0  0
  -28.0471  -12.3477   18.6543 C   0  0  0  0  0  0
  -27.6363  -13.2350   19.8598 C   0  0  2  0  0  0
  -28.6793  -13.1363   20.9887 C   0  0  0  0  0  0
  -25.2364  -13.8102   20.5521 C   0  0  0  0  0  0
  -24.1726  -13.0359   20.9174 C   0  0  0  0  0  0
  -24.6373  -11.6865   20.8759 C   0  0  0  0  0  0
  -23.9064  -10.4248   21.0415 C   0  0  0  0  0  0
  -24.3613   -9.4166   21.9193 C   0  0  0  0  0  0
  -23.6274   -8.2207   22.0762 C   0  0  0  0  0  0
  -22.4262   -8.0252   21.3538 C   0  0  0  0  0  0
  -21.9900   -9.0226   20.4649 C   0  0  0  0  0  0
  -22.7242  -10.2098   20.3053 C   0  0  0  0  0  0
  -21.6842   -6.0714   22.5280 C   0  0  0  0  0  0
  -21.4013   -6.5626   23.8213 C   0  0  0  0  0  0
  -21.3656   -5.6781   24.9182 C   0  0  0  0  0  0
  -21.6045   -4.3039   24.7239 C   0  0  0  0  0  0
  -21.8817   -3.8134   23.4355 C   0  0  0  0  0  0
  -21.9191   -4.6941   22.3417 C   0  0  0  0  0  0
  -22.7753  -13.5140   21.1869 C   0  0  0  0  0  0
  -22.1653   -4.2126   21.0982 F   0  0  0  0  0  0
  -21.5636   -3.4526   25.7751 F   0  0  0  0  0  0
  -29.9568  -13.6261   20.4316 N   0  0  0  0  0  0
  -26.2875  -12.9366   20.3289 N   0  0  0  0  0  0
  -25.9315  -11.6511   20.5792 N   0  0  0  0  0  0
  -22.0443  -12.8122   22.0453 N   0  0  0  0  0  0
  -25.3827  -15.1784   20.3632 N   0  0  0  0  0  0
  -31.7471  -14.9151   20.1204 O   0  0  0  0  0  0
  -21.6617   -6.8851   21.4239 O   0  0  0  0  0  0
  -22.3444  -14.5471   20.6777 O   0  0  0  0  0  0
  -24.6423  -31.8479   23.1925 C   0  0  0  0  0  0
  -25.9204  -32.4719   23.8321 C   0  0  1  0  0  0
  -27.2257  -27.1769   20.1377 C   0  0  0  0  0  0
  -25.5964  -33.8524   24.2252 N   0  0  0  0  0  0
  -23.4454  -30.4679   21.5372 C   0  0  2  0  0  0
  -24.8955  -28.9042   20.1101 C   0  0  0  0  0  0
  -22.7558  -29.4567   22.4876 C   0  0  0  0  0  0
  -18.0302  -28.1410   22.8484 C   0  0  0  0  0  0
  -24.1490  -36.7255   23.2641 C   0  0  0  0  0  0
  -25.9980  -30.7338   21.3864 C   0  0  0  0  0  0
  -26.0705  -29.3487   20.7286 C   0  0  0  0  0  0
  -27.2344  -28.4977   20.7314 C   0  0  0  0  0  0
  -26.0201  -26.8255   19.4873 C   0  0  0  0  0  0
  -24.8791  -27.6545   19.4772 C   0  0  0  0  0  0
  -23.6693  -29.8008   20.1557 C   0  0  0  0  0  0
  -25.4123  -36.3047   24.0318 C   0  0  1  0  0  0
  -20.5920  -28.3736   23.1231 C   0  0  2  0  0  0
  -20.6799  -26.9441   22.5400 C   0  0  0  0  0  0
  -19.5766  -26.6409   21.5217 C   0  0  0  0  0  0
  -18.1943  -26.7954   22.1629 C   0  0  0  0  0  0
  -19.1556  -28.8891   23.2853 C   0  0  0  0  0  0
  -18.9471  -30.1489   23.8888 C   0  0  0  0  0  0
  -17.6466  -30.6605   24.0567 C   0  0  0  0  0  0
  -25.9066  -34.9408   23.5091 C   0  0  0  0  0  0
  -16.5360  -29.9104   23.6335 C   0  0  0  0  0  0
  -16.7287  -28.6520   23.0361 C   0  0  0  0  0  0
  -26.4545  -31.6547   25.0727 C   0  0  0  0  0  0
  -25.3745  -31.3725   26.1436 C   0  0  0  0  0  0
  -27.0391  -30.2950   24.6252 C   0  0  0  0  0  0
  -27.6102  -32.4279   25.7500 C   0  0  0  0  0  0
  -27.5560  -37.1798   24.8483 C   0  0  0  0  0  0
  -21.4255  -29.3062   22.3599 N   0  0  0  0  0  0
  -26.4305  -37.3732   23.9376 N   0  0  0  0  0  0
  -24.7150  -31.0362   22.0951 N   0  0  0  0  0  0
  -23.4203  -28.8120   23.3014 O   0  0  0  0  0  0
  -28.2819  -26.2077   20.2451 O   0  0  0  0  0  0
  -26.5625  -34.8889   22.4662 O   0  0  0  0  0  0
  -23.5537  -32.1356   23.7142 O   0  0  0  0  0  0
  -32.0014  -19.2352   20.1260 C   0  0  0  0  0  0
  -31.1116  -20.3264   20.1596 C   0  0  0  0  0  0
  -31.5762  -17.9048   20.3040 C   0  0  0  0  0  0
  -29.3391  -18.7719   20.5697 C   0  0  0  0  0  0
  -29.7234  -20.1933   20.3771 C   0  0  0  0  0  0
  -30.2225  -17.5695   20.5464 C   0  0  0  0  0  0
  -28.5699  -23.5626   20.0437 C   0  0  0  0  0  0
  -28.4522  -22.3126   19.2730 C   0  0  0  0  0  0
  -27.7427  -16.4314   21.9996 C   0  0  0  0  0  0
  -28.1905  -24.8768   19.6741 C   0  0  0  0  0  0
  -29.0116  -15.9958   21.9599 C   0  0  0  0  0  0
  -29.2485  -22.7063   21.1567 C   0  0  0  0  0  0
  -28.9140  -21.4802   20.3401 N   0  0  0  0  0  0
  -29.8827  -16.0986   20.8697 N   0  0  0  0  0  0
  -28.1907  -22.1460   18.1001 O   0  0  0  0  0  0
  -31.4741  -12.7037   19.1887 H   0  0  0  0  0  0
  -30.4190  -11.5828   19.9732 H   0  0  0  0  0  0
  -29.8354  -11.8083   17.5347 H   0  0  0  0  0  0
  -29.6116  -13.5287   17.7391 H   0  0  0  0  0  0
  -27.9298  -11.2957   18.9166 H   0  0  0  0  0  0
  -27.3878  -12.5265   17.8043 H   0  0  0  0  0  0
  -27.6339  -14.2653   19.5052 H   0  0  0  0  0  0
  -28.7708  -12.0990   21.3165 H   0  0  0  0  0  0
  -28.3532  -13.6519   21.8847 H   0  0  0  0  0  0
  -25.2756   -9.5630   22.4779 H   0  0  0  0  0  0
  -23.9969   -7.4590   22.7482 H   0  0  0  0  0  0
  -21.0832   -8.8758   19.8950 H   0  0  0  0  0  0
  -22.3713  -10.9638   19.6162 H   0  0  0  0  0  0
  -21.2004   -7.6134   23.9714 H   0  0  0  0  0  0
  -21.1486   -6.0513   25.9082 H   0  0  0  0  0  0
  -22.0606   -2.7590   23.2873 H   0  0  0  0  0  0
  -22.4047  -11.9724   22.4742 H   0  0  0  0  0  0
  -21.1098  -13.1185   22.2770 H   0  0  0  0  0  0
  -24.6079  -15.8259   20.4560 H   0  0  0  0  0  0
  -26.2397  -15.6174   20.0566 H   0  0  0  0  0  0
  -26.7252  -32.5342   23.1034 H   0  0  0  0  0  0
  -25.0112  -33.9637   25.0402 H   0  0  0  0  0  0
  -22.7468  -31.2927   21.3857 H   0  0  0  0  0  0
  -23.3728  -35.9621   23.3391 H   0  0  0  0  0  0
  -24.3566  -36.8802   22.2039 H   0  0  0  0  0  0
  -23.7249  -37.6483   23.6620 H   0  0  0  0  0  0
  -26.1435  -31.4880   20.6114 H   0  0  0  0  0  0
  -26.8718  -30.7869   22.0245 H   0  0  0  0  0  0
  -28.1288  -28.8280   21.2411 H   0  0  0  0  0  0
  -25.9068  -25.8640   19.0102 H   0  0  0  0  0  0
  -23.9782  -27.3107   18.9897 H   0  0  0  0  0  0
  -23.8037  -30.5794   19.4043 H   0  0  0  0  0  0
  -22.7851  -29.2426   19.8429 H   0  0  0  0  0  0
  -25.1299  -36.1928   25.0806 H   0  0  0  0  0  0
  -20.9988  -28.3354   24.1365 H   0  0  0  0  0  0
  -20.5710  -26.2354   23.3631 H   0  0  0  0  0  0
  -21.6661  -26.7467   22.1176 H   0  0  0  0  0  0
  -19.6929  -25.6319   21.1253 H   0  0  0  0  0  0
  -19.6700  -27.3220   20.6751 H   0  0  0  0  0  0
  -17.4197  -26.6688   21.4044 H   0  0  0  0  0  0
  -18.0360  -26.0111   22.9044 H   0  0  0  0  0  0
  -19.7936  -30.7310   24.2268 H   0  0  0  0  0  0
  -17.5012  -31.6283   24.5178 H   0  0  0  0  0  0
  -15.5356  -30.3001   23.7672 H   0  0  0  0  0  0
  -15.8690  -28.0838   22.7087 H   0  0  0  0  0  0
  -24.5923  -30.7075   25.7759 H   0  0  0  0  0  0
  -24.8930  -32.2908   26.4808 H   0  0  0  0  0  0
  -25.8038  -30.8928   27.0245 H   0  0  0  0  0  0
  -26.2995  -29.6677   24.1260 H   0  0  0  0  0  0
  -27.4040  -29.7223   25.4788 H   0  0  0  0  0  0
  -27.8897  -30.4210   23.9550 H   0  0  0  0  0  0
  -27.2748  -33.3620   26.2025 H   0  0  0  0  0  0
  -28.3950  -32.6765   25.0337 H   0  0  0  0  0  0
  -28.0739  -31.8420   26.5448 H   0  0  0  0  0  0
  -28.2640  -38.0025   24.7420 H   0  0  0  0  0  0
  -28.0987  -36.2548   24.6477 H   0  0  0  0  0  0
  -27.2268  -37.1656   25.8888 H   0  0  0  0  0  0
  -20.9483  -29.8762   21.6752 H   0  0  0  0  0  0
  -26.0203  -38.2825   24.1326 H   0  0  0  0  0  0
  -33.0533  -19.4286   19.9701 H   0  0  0  0  0  0
  -31.5269  -21.3119   20.0019 H   0  0  0  0  0  0
  -32.3536  -17.1576   20.3010 H   0  0  0  0  0  0
  -28.2868  -18.6298   20.7451 H   0  0  0  0  0  0
  -27.1458  -16.3278   22.8945 H   0  0  0  0  0  0
  -27.2655  -16.8821   21.1450 H   0  0  0  0  0  0
  -27.7724  -24.9615   18.6822 H   0  0  0  0  0  0
  -29.4704  -15.5322   22.8246 H   0  0  0  0  0  0
  -28.7596  -22.6815   22.1316 H   0  0  0  0  0  0
  -30.3225  -22.8399   21.2938 H   0  0  0  0  0  0
  1 25  1  0  0  0
  1 30  2  0  0  0
  1 84  1  0  0  0
  2  3  1  0  0  0
  2 25  1  0  0  0
  2 86  1  0  0  0
  2 87  1  0  0  0
  3  4  1  0  0  0
  3 88  1  0  0  0
  3 89  1  0  0  0
  4  5  1  0  0  0
  4 90  1  0  0  0
  4 91  1  0  0  0
  5  6  1  0  0  0
  5 26  1  0  0  0
  5 92  1  0  0  0
  6 25  1  0  0  0
  6 93  1  0  0  0
  6 94  1  0  0  0
  7  8  2  0  0  0
  7 26  1  0  0  0
  7 29  1  0  0  0
  8  9  1  0  0  0
  8 22  1  0  0  0
  9 10  1  0  0  0
  9 27  2  0  0  0
 10 11  2  0  0  0
 10 15  1  0  0  0
 11 12  1  0  0  0
 11 95  1  0  0  0
 12 13  2  0  0  0
 12 96  1  0  0  0
 13 14  1  0  0  0
 13 31  1  0  0  0
 14 15  2  0  0  0
 14 97  1  0  0  0
 15 98  1  0  0  0
 16 17  2  0  0  0
 16 21  1  0  0  0
 16 31  1  0  0  0
 17 18  1  0  0  0
 17 99  1  0  0  0
 18 19  2  0  0  0
 18100  1  0  0  0
 19 20  1  0  0  0
 19 24  1  0  0  0
 20 21  2  0  0  0
 20101  1  0  0  0
 21 23  1  0  0  0
 22 28  1  0  0  0
 22 32  2  0  0  0
 26 27  1  0  0  0
 28102  1  0  0  0
 28103  1  0  0  0
 29104  1  0  0  0
 29105  1  0  0  0
 33 34  1  0  0  0
 33 66  1  0  0  0
 33 70  2  0  0  0
 34 36  1  0  0  0
 34 59  1  0  0  0
 34106  1  0  0  0
 35 44  2  0  0  0
 35 45  1  0  0  0
 35 68  1  0  0  0
 36 56  1  0  0  0
 36107  1  0  0  0
 37 39  1  0  0  0
 37 47  1  0  0  0
 37 66  1  0  0  0
 37108  1  0  0  0
 38 43  2  0  0  0
 38 46  1  0  0  0
 38 47  1  0  0  0
 39 64  1  0  0  0
 39 67  2  0  0  0
 40 52  1  0  0  0
 40 53  2  0  0  0
 40 58  1  0  0  0
 41109  1  0  0  0
 41110  1  0  0  0
 41111  1  0  0  0
 41 48  1  0  0  0
 42 43  1  0  0  0
 42 66  1  0  0  0
 42112  1  0  0  0
 42113  1  0  0  0
 43 44  1  0  0  0
 44114  1  0  0  0
 45 46  2  0  0  0
 45115  1  0  0  0
 46116  1  0  0  0
 47117  1  0  0  0
 47118  1  0  0  0
 48 56  1  0  0  0
 48 65  1  0  0  0
 48119  1  0  0  0
 49 50  1  0  0  0
 49 53  1  0  0  0
 49 64  1  0  0  0
 49120  1  0  0  0
 50 51  1  0  0  0
 50121  1  0  0  0
 50122  1  0  0  0
 51 52  1  0  0  0
 51123  1  0  0  0
 51124  1  0  0  0
 52125  1  0  0  0
 52126  1  0  0  0
 53 54  1  0  0  0
 54 55  2  0  0  0
 54127  1  0  0  0
 55 57  1  0  0  0
 55128  1  0  0  0
 56 69  2  0  0  0
 57 58  2  0  0  0
 57129  1  0  0  0
 58130  1  0  0  0
 59 60  1  0  0  0
 59 61  1  0  0  0
 59 62  1  0  0  0
 60131  1  0  0  0
 60132  1  0  0  0
 60133  1  0  0  0
 61134  1  0  0  0
 61135  1  0  0  0
 61136  1  0  0  0
 62137  1  0  0  0
 62138  1  0  0  0
 62139  1  0  0  0
 63 65  1  0  0  0
 63140  1  0  0  0
 63141  1  0  0  0
 63142  1  0  0  0
 64143  1  0  0  0
 65144  1  0  0  0
 68 80  1  0  0  0
 71 72  2  0  0  0
 71 73  1  0  0  0
 71145  1  0  0  0
 72 75  1  0  0  0
 72146  1  0  0  0
 73 76  2  0  0  0
 73147  1  0  0  0
 74 75  2  0  0  0
 74 76  1  0  0  0
 74148  1  0  0  0
 75 83  1  0  0  0
 76 84  1  0  0  0
 77 78  1  0  0  0
 77 80  2  0  0  0
 77 82  1  0  0  0
 78 83  1  0  0  0
 78 85  2  0  0  0
 79 81  2  0  0  0
 79149  1  0  0  0
 79150  1  0  0  0
 80151  1  0  0  0
 81 84  1  0  0  0
 81152  1  0  0  0
 82 83  1  0  0  0
 82153  1  0  0  0
 82154  1  0  0  0
M  ISO  4   1 100  68 101  80 101  84 100
M  END
> <chiral flag>
0

> <version>
0

> <s_m_source_file>
/data/baiqing/PycharmProjects/Reinvent-master-3.2/result/LINK_invent/BTK/process_docking_weight1_custom_product_contain_oxygen_bond_distance_aromatic_linkinvent_7_9_3/rearranged_h_0085.sdf

> <i_m_source_file_index>
31

> <r_mmod_Potential_Energy-OPLS-2005>
684.602478027344

> <r_mmod_Stretch_Energy-OPLS-2005>
209.1796875

> <r_mmod_Bend_Energy-OPLS-2005>
298.408416748047

> <r_mmod_Torsional_Energy-OPLS-2005>
346.618988037109

> <r_mmod_Improper_Torsional_Energy-OPLS-2005>
10.6376619338989

> <r_mmod_Van_der_Waal_Energy-OPLS-2005>
160.305572509766

> <r_mmod_Electrostatic_Energy-OPLS-2005>
-279.620025634766

> <r_mmod_Solvation_Energy-OPLS-2005>
-205.885223388672

> <b_mmod_Minimization_Converged-OPLS-2005>
0

> <r_mmod_RMS_Derivative-OPLS-2005>
2.74275922775269

$$$$
32
                    3D
 Structure written by MMmdl.
157166  0  0  1  0            999 V2000
  -30.5871  -14.7748   20.4571 C   0  0  0  0  0  0
  -30.4410  -12.4787   19.4629 C   0  0  0  0  0  0
  -29.5122  -12.5010   18.2291 C   0  0  0  0  0  0
  -28.0388  -12.3149   18.6478 C   0  0  0  0  0  0
  -27.6355  -13.2274   19.8378 C   0  0  2  0  0  0
  -28.6828  -13.1793   20.9700 C   0  0  0  0  0  0
  -25.2492  -13.8184   20.5702 C   0  0  0  0  0  0
  -24.1785  -13.0422   20.9213 C   0  0  0  0  0  0
  -24.6379  -11.6900   20.8737 C   0  0  0  0  0  0
  -23.9051  -10.4285   21.0402 C   0  0  0  0  0  0
  -24.3603   -9.4208   21.9184 C   0  0  0  0  0  0
  -23.6292   -8.2232   22.0743 C   0  0  0  0  0  0
  -22.4273   -8.0268   21.3536 C   0  0  0  0  0  0
  -21.9904   -9.0241   20.4640 C   0  0  0  0  0  0
  -22.7222  -10.2126   20.3059 C   0  0  0  0  0  0
  -21.6847   -6.0736   22.5282 C   0  0  0  0  0  0
  -21.4012   -6.5640   23.8219 C   0  0  0  0  0  0
  -21.3656   -5.6791   24.9178 C   0  0  0  0  0  0
  -21.6036   -4.3051   24.7228 C   0  0  0  0  0  0
  -21.8818   -3.8146   23.4349 C   0  0  0  0  0  0
  -21.9190   -4.6965   22.3406 C   0  0  0  0  0  0
  -22.7813  -13.5210   21.1872 C   0  0  0  0  0  0
  -22.1663   -4.2158   21.0982 F   0  0  0  0  0  0
  -21.5628   -3.4526   25.7739 F   0  0  0  0  0  0
  -29.9749  -13.5445   20.3766 N   0  0  0  0  0  0
  -26.2904  -12.9378   20.3239 N   0  0  0  0  0  0
  -25.9302  -11.6522   20.5720 N   0  0  0  0  0  0
  -22.0453  -12.8216   22.0432 N   0  0  0  0  0  0
  -25.4168  -15.1923   20.4144 N   0  0  0  0  0  0
  -31.7952  -14.8702   20.2197 O   0  0  0  0  0  0
  -21.6629   -6.8873   21.4243 O   0  0  0  0  0  0
  -22.3502  -14.5513   20.6704 O   0  0  0  0  0  0
  -24.6329  -31.8551   23.1960 C   0  0  0  0  0  0
  -25.9140  -32.4751   23.8323 C   0  0  1  0  0  0
  -27.2195  -27.2576   20.1304 C   0  0  0  0  0  0
  -25.5926  -33.8550   24.2249 N   0  0  0  0  0  0
  -23.4303  -30.4773   21.5401 C   0  0  2  0  0  0
  -24.8774  -28.9190   20.1138 C   0  0  0  0  0  0
  -22.7505  -29.4618   22.4906 C   0  0  0  0  0  0
  -18.0303  -28.1396   22.8503 C   0  0  0  0  0  0
  -24.1486  -36.7284   23.2639 C   0  0  0  0  0  0
  -25.9756  -30.7683   21.3747 C   0  0  0  0  0  0
  -26.0511  -29.3886   20.7183 C   0  0  0  0  0  0
  -27.2292  -28.5722   20.7095 C   0  0  0  0  0  0
  -26.0235  -26.8514   19.5047 C   0  0  0  0  0  0
  -24.8684  -27.6584   19.4958 C   0  0  0  0  0  0
  -23.6493  -29.8083   20.1580 C   0  0  0  0  0  0
  -25.4108  -36.3066   24.0329 C   0  0  1  0  0  0
  -20.5905  -28.3724   23.1272 C   0  0  2  0  0  0
  -20.6796  -26.9438   22.5416 C   0  0  0  0  0  0
  -19.5762  -26.6391   21.5231 C   0  0  0  0  0  0
  -18.1942  -26.7941   22.1643 C   0  0  0  0  0  0
  -19.1555  -28.8874   23.2887 C   0  0  0  0  0  0
  -18.9469  -30.1469   23.8912 C   0  0  0  0  0  0
  -17.6464  -30.6597   24.0563 C   0  0  0  0  0  0
  -25.9054  -34.9438   23.5095 C   0  0  0  0  0  0
  -16.5357  -29.9091   23.6326 C   0  0  0  0  0  0
  -16.7286  -28.6503   23.0366 C   0  0  0  0  0  0
  -26.4499  -31.6575   25.0717 C   0  0  0  0  0  0
  -25.3701  -31.3744   26.1422 C   0  0  0  0  0  0
  -27.0334  -30.2984   24.6207 C   0  0  0  0  0  0
  -27.6057  -32.4312   25.7493 C   0  0  0  0  0  0
  -27.5575  -37.1794   24.8462 C   0  0  0  0  0  0
  -21.4214  -29.3059   22.3642 N   0  0  0  0  0  0
  -26.4285  -37.3764   23.9410 N   0  0  0  0  0  0
  -24.6990  -31.0504   22.0943 N   0  0  0  0  0  0
  -23.4205  -28.8175   23.3017 O   0  0  0  0  0  0
  -28.3071  -26.3550   20.1260 O   0  0  0  0  0  0
  -26.5627  -34.8920   22.4665 O   0  0  0  0  0  0
  -23.5472  -32.1377   23.7238 O   0  0  0  0  0  0
  -30.5629  -19.9814   21.8619 C   0  0  0  0  0  0
  -29.4559  -18.5180   20.2692 C   0  0  0  0  0  0
  -30.9211  -17.5495   21.9577 C   0  0  0  0  0  0
  -29.6939  -19.8856   20.7477 C   0  0  0  0  0  0
  -31.1605  -18.8486   22.4523 C   0  0  0  0  0  0
  -30.0635  -17.3236   20.8611 C   0  0  0  0  0  0
  -28.6535  -23.5591   18.6866 C   0  0  0  0  0  0
  -29.2316  -21.2077   18.7234 C   0  0  0  0  0  0
  -28.5711  -23.6375   20.0309 C   0  0  0  0  0  0
  -28.9857  -22.3199   18.0045 C   0  0  0  0  0  0
  -28.8481  -22.3580   20.8159 C   0  0  0  0  0  0
  -28.1153  -24.9939   20.7481 C   0  0  0  0  0  0
  -29.2065  -21.1722   20.1307 N   0  0  0  0  0  0
  -32.0000  -19.0156   23.5519 N   0  0  0  0  0  0
  -29.7739  -15.9062   20.5000 N   0  0  0  0  0  0
  -28.7247  -22.3505   22.0451 O   0  0  0  0  0  0
  -29.0571  -22.2781   16.6697 O   0  0  0  0  0  0
  -31.4778  -12.6300   19.1554 H   0  0  0  0  0  0
  -30.4112  -11.5083   19.9599 H   0  0  0  0  0  0
  -29.8057  -11.7215   17.5254 H   0  0  0  0  0  0
  -29.6257  -13.4495   17.7020 H   0  0  0  0  0  0
  -27.9109  -11.2702   18.9312 H   0  0  0  0  0  0
  -27.3761  -12.4799   17.7982 H   0  0  0  0  0  0
  -27.6196  -14.2426   19.4412 H   0  0  0  0  0  0
  -28.7303  -12.1854   21.4177 H   0  0  0  0  0  0
  -28.4128  -13.8677   21.7728 H   0  0  0  0  0  0
  -25.2758   -9.5693   22.4753 H   0  0  0  0  0  0
  -24.0009   -7.4625   22.7460 H   0  0  0  0  0  0
  -21.0840   -8.8747   19.8958 H   0  0  0  0  0  0
  -22.3676  -10.9650   19.6158 H   0  0  0  0  0  0
  -21.2004   -7.6149   23.9729 H   0  0  0  0  0  0
  -21.1478   -6.0517   25.9085 H   0  0  0  0  0  0
  -22.0602   -2.7610   23.2839 H   0  0  0  0  0  0
  -22.4050  -11.9891   22.4868 H   0  0  0  0  0  0
  -21.1068  -13.1252   22.2605 H   0  0  0  0  0  0
  -24.6460  -15.8415   20.5329 H   0  0  0  0  0  0
  -26.2591  -15.6378   20.0749 H   0  0  0  0  0  0
  -26.7206  -32.5401   23.1073 H   0  0  0  0  0  0
  -25.0039  -33.9677   25.0372 H   0  0  0  0  0  0
  -22.7287  -31.3002   21.3909 H   0  0  0  0  0  0
  -23.3750  -35.9614   23.3291 H   0  0  0  0  0  0
  -24.3585  -36.8915   22.2056 H   0  0  0  0  0  0
  -23.7239  -37.6483   23.6668 H   0  0  0  0  0  0
  -26.1061  -31.5271   20.6019 H   0  0  0  0  0  0
  -26.8563  -30.8230   22.0037 H   0  0  0  0  0  0
  -28.1314  -28.9285   21.1858 H   0  0  0  0  0  0
  -25.9738  -25.8829   19.0269 H   0  0  0  0  0  0
  -23.9692  -27.2931   19.0184 H   0  0  0  0  0  0
  -23.7742  -30.5824   19.3994 H   0  0  0  0  0  0
  -22.7670  -29.2420   19.8547 H   0  0  0  0  0  0
  -25.1288  -36.1914   25.0820 H   0  0  0  0  0  0
  -21.0019  -28.3303   24.1382 H   0  0  0  0  0  0
  -20.5735  -26.2321   23.3622 H   0  0  0  0  0  0
  -21.6656  -26.7472   22.1182 H   0  0  0  0  0  0
  -19.6922  -25.6299   21.1263 H   0  0  0  0  0  0
  -19.6692  -27.3202   20.6760 H   0  0  0  0  0  0
  -17.4215  -26.6712   21.4033 H   0  0  0  0  0  0
  -18.0328  -26.0084   22.9035 H   0  0  0  0  0  0
  -19.7935  -30.7288   24.2299 H   0  0  0  0  0  0
  -17.5008  -31.6285   24.5157 H   0  0  0  0  0  0
  -15.5356  -30.2998   23.7626 H   0  0  0  0  0  0
  -15.8693  -28.0812   22.7083 H   0  0  0  0  0  0
  -24.5879  -30.7099   25.7736 H   0  0  0  0  0  0
  -24.8891  -32.2921   26.4811 H   0  0  0  0  0  0
  -25.7989  -30.8932   27.0220 H   0  0  0  0  0  0
  -26.2917  -29.6745   24.1208 H   0  0  0  0  0  0
  -27.3977  -29.7238   25.4734 H   0  0  0  0  0  0
  -27.8812  -30.4248   23.9473 H   0  0  0  0  0  0
  -27.2671  -33.3619   26.2056 H   0  0  0  0  0  0
  -28.3875  -32.6857   25.0325 H   0  0  0  0  0  0
  -28.0718  -31.8445   26.5419 H   0  0  0  0  0  0
  -28.2580  -38.0101   24.7507 H   0  0  0  0  0  0
  -28.1083  -36.2630   24.6284 H   0  0  0  0  0  0
  -27.2300  -37.1439   25.8867 H   0  0  0  0  0  0
  -20.9398  -29.8735   21.6810 H   0  0  0  0  0  0
  -26.0164  -38.2836   24.1416 H   0  0  0  0  0  0
  -30.8075  -20.9556   22.2617 H   0  0  0  0  0  0
  -28.7934  -18.3836   19.4255 H   0  0  0  0  0  0
  -31.3773  -16.7045   22.4539 H   0  0  0  0  0  0
  -28.4323  -24.4444   18.1055 H   0  0  0  0  0  0
  -29.5026  -20.2712   18.2571 H   0  0  0  0  0  0
  -28.6497  -25.0398   21.6962 H   0  0  0  0  0  0
  -27.0701  -24.8621   21.0298 H   0  0  0  0  0  0
  -32.3139  -19.9417   23.8256 H   0  0  0  0  0  0
  -32.6223  -18.2665   23.8417 H   0  0  0  0  0  0
  -28.7955  -15.7019   20.3711 H   0  0  0  0  0  0
  -28.8519  -23.1435   16.3362 H   0  0  0  0  0  0
  1 25  1  0  0  0
  1 30  2  0  0  0
  1 85  1  0  0  0
  2  3  1  0  0  0
  2 25  1  0  0  0
  2 88  1  0  0  0
  2 89  1  0  0  0
  3  4  1  0  0  0
  3 90  1  0  0  0
  3 91  1  0  0  0
  4  5  1  0  0  0
  4 92  1  0  0  0
  4 93  1  0  0  0
  5  6  1  0  0  0
  5 26  1  0  0  0
  5 94  1  0  0  0
  6 25  1  0  0  0
  6 95  1  0  0  0
  6 96  1  0  0  0
  7  8  2  0  0  0
  7 26  1  0  0  0
  7 29  1  0  0  0
  8  9  1  0  0  0
  8 22  1  0  0  0
  9 10  1  0  0  0
  9 27  2  0  0  0
 10 11  2  0  0  0
 10 15  1  0  0  0
 11 12  1  0  0  0
 11 97  1  0  0  0
 12 13  2  0  0  0
 12 98  1  0  0  0
 13 14  1  0  0  0
 13 31  1  0  0  0
 14 15  2  0  0  0
 14 99  1  0  0  0
 15100  1  0  0  0
 16 17  2  0  0  0
 16 21  1  0  0  0
 16 31  1  0  0  0
 17 18  1  0  0  0
 17101  1  0  0  0
 18 19  2  0  0  0
 18102  1  0  0  0
 19 20  1  0  0  0
 19 24  1  0  0  0
 20 21  2  0  0  0
 20103  1  0  0  0
 21 23  1  0  0  0
 22 28  1  0  0  0
 22 32  2  0  0  0
 26 27  1  0  0  0
 28104  1  0  0  0
 28105  1  0  0  0
 29106  1  0  0  0
 29107  1  0  0  0
 33 34  1  0  0  0
 33 66  1  0  0  0
 33 70  2  0  0  0
 34 36  1  0  0  0
 34 59  1  0  0  0
 34108  1  0  0  0
 35 44  2  0  0  0
 35 45  1  0  0  0
 35 68  1  0  0  0
 36 56  1  0  0  0
 36109  1  0  0  0
 37 39  1  0  0  0
 37 47  1  0  0  0
 37 66  1  0  0  0
 37110  1  0  0  0
 38 43  2  0  0  0
 38 46  1  0  0  0
 38 47  1  0  0  0
 39 64  1  0  0  0
 39 67  2  0  0  0
 40 52  1  0  0  0
 40 53  2  0  0  0
 40 58  1  0  0  0
 41111  1  0  0  0
 41112  1  0  0  0
 41113  1  0  0  0
 41 48  1  0  0  0
 42 43  1  0  0  0
 42 66  1  0  0  0
 42114  1  0  0  0
 42115  1  0  0  0
 43 44  1  0  0  0
 44116  1  0  0  0
 45 46  2  0  0  0
 45117  1  0  0  0
 46118  1  0  0  0
 47119  1  0  0  0
 47120  1  0  0  0
 48 56  1  0  0  0
 48 65  1  0  0  0
 48121  1  0  0  0
 49 50  1  0  0  0
 49 53  1  0  0  0
 49 64  1  0  0  0
 49122  1  0  0  0
 50 51  1  0  0  0
 50123  1  0  0  0
 50124  1  0  0  0
 51 52  1  0  0  0
 51125  1  0  0  0
 51126  1  0  0  0
 52127  1  0  0  0
 52128  1  0  0  0
 53 54  1  0  0  0
 54 55  2  0  0  0
 54129  1  0  0  0
 55 57  1  0  0  0
 55130  1  0  0  0
 56 69  2  0  0  0
 57 58  2  0  0  0
 57131  1  0  0  0
 58132  1  0  0  0
 59 60  1  0  0  0
 59 61  1  0  0  0
 59 62  1  0  0  0
 60133  1  0  0  0
 60134  1  0  0  0
 60135  1  0  0  0
 61136  1  0  0  0
 61137  1  0  0  0
 61138  1  0  0  0
 62139  1  0  0  0
 62140  1  0  0  0
 62141  1  0  0  0
 63 65  1  0  0  0
 63142  1  0  0  0
 63143  1  0  0  0
 63144  1  0  0  0
 64145  1  0  0  0
 65146  1  0  0  0
 68 82  1  0  0  0
 71 74  2  0  0  0
 71 75  1  0  0  0
 71147  1  0  0  0
 72 74  1  0  0  0
 72 76  2  0  0  0
 72148  1  0  0  0
 73 75  2  0  0  0
 73 76  1  0  0  0
 73149  1  0  0  0
 74 83  1  0  0  0
 75 84  1  0  0  0
 76 85  1  0  0  0
 77 79  2  0  0  0
 77 80  1  0  0  0
 77150  1  0  0  0
 78 80  2  0  0  0
 78 83  1  0  0  0
 78151  1  0  0  0
 79 81  1  0  0  0
 79 82  1  0  0  0
 80 87  1  0  0  0
 81 83  1  0  0  0
 81 86  2  0  0  0
 82152  1  0  0  0
 82153  1  0  0  0
 84154  1  0  0  0
 84155  1  0  0  0
 85156  1  0  0  0
 87157  1  0  0  0
M  ISO  4   1 100  68 101  82 101  85 100
M  END
> <chiral flag>
0

> <version>
0

> <s_m_source_file>
/data/baiqing/PycharmProjects/Reinvent-master-3.2/result/LINK_invent/BTK/process_docking_weight1_custom_product_contain_oxygen_bond_distance_aromatic_linkinvent_7_9_3/rearranged_h_0085.sdf

> <i_m_source_file_index>
32

> <r_mmod_Potential_Energy-OPLS-2005>
274.566162109375

> <r_mmod_Stretch_Energy-OPLS-2005>
146.205825805664

> <r_mmod_Bend_Energy-OPLS-2005>
164.689422607422

> <r_mmod_Torsional_Energy-OPLS-2005>
278.048309326172

> <r_mmod_Improper_Torsional_Energy-OPLS-2005>
10.0312747955322

> <r_mmod_Van_der_Waal_Energy-OPLS-2005>
158.777206420898

> <r_mmod_Electrostatic_Energy-OPLS-2005>
-334.05859375

> <r_mmod_Solvation_Energy-OPLS-2005>
-245.242721557617

> <b_mmod_Minimization_Converged-OPLS-2005>
0

> <r_mmod_RMS_Derivative-OPLS-2005>
2.01923561096191

$$$$
33
                    3D
 Structure written by MMmdl.
157166  0  0  1  0            999 V2000
  -30.6126  -14.7069   20.4790 C   0  0  0  0  0  0
  -30.4418  -12.4345   19.4637 C   0  0  0  0  0  0
  -29.5141  -12.5122   18.2299 C   0  0  0  0  0  0
  -28.0401  -12.3369   18.6422 C   0  0  0  0  0  0
  -27.6508  -13.2242   19.8561 C   0  0  2  0  0  0
  -28.6961  -13.1184   20.9893 C   0  0  0  0  0  0
  -25.2562  -13.8172   20.5706 C   0  0  0  0  0  0
  -24.1835  -13.0434   20.9202 C   0  0  0  0  0  0
  -24.6405  -11.6903   20.8720 C   0  0  0  0  0  0
  -23.9066  -10.4296   21.0385 C   0  0  0  0  0  0
  -24.3620   -9.4216   21.9173 C   0  0  0  0  0  0
  -23.6289   -8.2251   22.0745 C   0  0  0  0  0  0
  -22.4266   -8.0285   21.3547 C   0  0  0  0  0  0
  -21.9902   -9.0261   20.4656 C   0  0  0  0  0  0
  -22.7229  -10.2137   20.3045 C   0  0  0  0  0  0
  -21.6863   -6.0730   22.5278 C   0  0  0  0  0  0
  -21.4028   -6.5628   23.8209 C   0  0  0  0  0  0
  -21.3655   -5.6781   24.9167 C   0  0  0  0  0  0
  -21.6037   -4.3049   24.7216 C   0  0  0  0  0  0
  -21.8824   -3.8142   23.4343 C   0  0  0  0  0  0
  -21.9207   -4.6962   22.3402 C   0  0  0  0  0  0
  -22.7851  -13.5230   21.1840 C   0  0  0  0  0  0
  -22.1677   -4.2150   21.0979 F   0  0  0  0  0  0
  -21.5620   -3.4532   25.7729 F   0  0  0  0  0  0
  -30.0053  -13.4739   20.4215 N   0  0  0  0  0  0
  -26.2980  -12.9366   20.3282 N   0  0  0  0  0  0
  -25.9333  -11.6512   20.5716 N   0  0  0  0  0  0
  -22.0489  -12.8233   22.0400 N   0  0  0  0  0  0
  -25.4251  -15.1900   20.4156 N   0  0  0  0  0  0
  -31.7845  -14.8397   20.1177 O   0  0  0  0  0  0
  -21.6633   -6.8874   21.4245 O   0  0  0  0  0  0
  -22.3526  -14.5525   20.6675 O   0  0  0  0  0  0
  -24.6289  -31.8575   23.1992 C   0  0  0  0  0  0
  -25.9119  -32.4764   23.8339 C   0  0  1  0  0  0
  -27.2426  -27.3044   20.1292 C   0  0  0  0  0  0
  -25.5920  -33.8567   24.2272 N   0  0  0  0  0  0
  -23.4248  -30.4769   21.5427 C   0  0  2  0  0  0
  -24.8764  -28.9238   20.1134 C   0  0  0  0  0  0
  -22.7484  -29.4608   22.4949 C   0  0  0  0  0  0
  -18.0290  -28.1390   22.8480 C   0  0  0  0  0  0
  -24.1489  -36.7284   23.2647 C   0  0  0  0  0  0
  -25.9644  -30.7840   21.3719 C   0  0  0  0  0  0
  -26.0428  -29.4067   20.7205 C   0  0  0  0  0  0
  -27.2269  -28.6078   20.7193 C   0  0  0  0  0  0
  -26.0563  -26.8774   19.4929 C   0  0  0  0  0  0
  -24.8850  -27.6641   19.4901 C   0  0  0  0  0  0
  -23.6426  -29.8046   20.1602 C   0  0  0  0  0  0
  -25.4105  -36.3086   24.0353 C   0  0  1  0  0  0
  -20.5885  -28.3690   23.1294 C   0  0  2  0  0  0
  -20.6770  -26.9415   22.5425 C   0  0  0  0  0  0
  -19.5753  -26.6398   21.5206 C   0  0  0  0  0  0
  -18.1933  -26.7935   22.1620 C   0  0  0  0  0  0
  -19.1540  -28.8860   23.2880 C   0  0  0  0  0  0
  -18.9466  -30.1460   23.8906 C   0  0  0  0  0  0
  -17.6461  -30.6577   24.0571 C   0  0  0  0  0  0
  -25.9043  -34.9450   23.5115 C   0  0  0  0  0  0
  -16.5352  -29.9078   23.6323 C   0  0  0  0  0  0
  -16.7275  -28.6499   23.0335 C   0  0  0  0  0  0
  -26.4480  -31.6572   25.0718 C   0  0  0  0  0  0
  -25.3705  -31.3719   26.1445 C   0  0  0  0  0  0
  -27.0302  -30.2992   24.6177 C   0  0  0  0  0  0
  -27.6078  -32.4283   25.7459 C   0  0  0  0  0  0
  -27.5579  -37.1804   24.8464 C   0  0  0  0  0  0
  -21.4197  -29.3029   22.3670 N   0  0  0  0  0  0
  -26.4286  -37.3777   23.9423 N   0  0  0  0  0  0
  -24.6913  -31.0563   22.0952 N   0  0  0  0  0  0
  -23.4194  -28.8180   23.3065 O   0  0  0  0  0  0
  -28.3717  -26.4635   20.1403 O   0  0  0  0  0  0
  -26.5606  -34.8928   22.4683 O   0  0  0  0  0  0
  -23.5448  -32.1381   23.7308 O   0  0  0  0  0  0
  -29.1709  -19.5367   21.4042 C   0  0  0  0  0  0
  -29.1815  -18.1074   21.5364 C   0  0  0  0  0  0
  -30.6437  -19.3396   19.5315 C   0  0  0  0  0  0
  -29.9083  -20.2170   20.3940 C   0  0  0  0  0  0
  -29.9264  -17.2422   20.6788 C   0  0  0  0  0  0
  -30.6498  -17.9117   19.6519 C   0  0  0  0  0  0
  -29.2174  -24.1035   20.1589 C   0  0  0  0  0  0
  -28.9581  -22.6254   20.4052 C   0  0  0  0  0  0
  -31.6487  -23.6255   20.1949 C   0  0  0  0  0  0
  -32.7415  -24.0581   20.8469 C   0  0  0  0  0  0
  -28.2400  -25.0635   20.3474 C   0  0  0  0  0  0
  -30.5857  -24.5524   19.6737 C   0  0  0  0  0  0
  -31.3661  -22.1657   19.9069 C   0  0  0  0  0  0
  -30.0085  -21.7048   20.2730 N   0  0  0  0  0  0
  -29.8169  -15.7746   20.8413 N   0  0  0  0  0  0
  -27.8290  -22.2241   20.7084 O   0  0  0  0  0  0
  -31.3373  -17.1958   18.7309 F   0  0  0  0  0  0
  -31.4820  -12.5650   19.1588 H   0  0  0  0  0  0
  -30.3846  -11.4496   19.9283 H   0  0  0  0  0  0
  -29.7941  -11.7531   17.4986 H   0  0  0  0  0  0
  -29.6439  -13.4756   17.7328 H   0  0  0  0  0  0
  -27.8922  -11.2857   18.8939 H   0  0  0  0  0  0
  -27.3840  -12.5441   17.7956 H   0  0  0  0  0  0
  -27.6567  -14.2526   19.4935 H   0  0  0  0  0  0
  -28.7242  -12.1062   21.3953 H   0  0  0  0  0  0
  -28.4286  -13.7683   21.8233 H   0  0  0  0  0  0
  -25.2772   -9.5691   22.4737 H   0  0  0  0  0  0
  -24.0015   -7.4639   22.7451 H   0  0  0  0  0  0
  -21.0828   -8.8784   19.8959 H   0  0  0  0  0  0
  -22.3693  -10.9669   19.6143 H   0  0  0  0  0  0
  -21.2021   -7.6139   23.9711 H   0  0  0  0  0  0
  -21.1460   -6.0507   25.9069 H   0  0  0  0  0  0
  -22.0603   -2.7608   23.2846 H   0  0  0  0  0  0
  -22.4094  -11.9913   22.4830 H   0  0  0  0  0  0
  -21.1110  -13.1271   22.2582 H   0  0  0  0  0  0
  -24.6573  -15.8422   20.5334 H   0  0  0  0  0  0
  -26.2723  -15.6358   20.0889 H   0  0  0  0  0  0
  -26.7212  -32.5433   23.1105 H   0  0  0  0  0  0
  -25.0004  -33.9685   25.0383 H   0  0  0  0  0  0
  -22.7194  -31.2966   21.3954 H   0  0  0  0  0  0
  -23.3735  -35.9634   23.3356 H   0  0  0  0  0  0
  -24.3575  -36.8828   22.2046 H   0  0  0  0  0  0
  -23.7262  -37.6525   23.6613 H   0  0  0  0  0  0
  -26.0927  -31.5453   20.6006 H   0  0  0  0  0  0
  -26.8457  -30.8423   21.9985 H   0  0  0  0  0  0
  -28.1244  -28.9774   21.1953 H   0  0  0  0  0  0
  -26.0304  -25.9149   19.0021 H   0  0  0  0  0  0
  -23.9939  -27.2887   19.0067 H   0  0  0  0  0  0
  -23.7577  -30.5770   19.3986 H   0  0  0  0  0  0
  -22.7633  -29.2293   19.8656 H   0  0  0  0  0  0
  -25.1279  -36.1940   25.0843 H   0  0  0  0  0  0
  -20.9966  -28.3272   24.1420 H   0  0  0  0  0  0
  -20.5643  -26.2297   23.3622 H   0  0  0  0  0  0
  -21.6651  -26.7436   22.1250 H   0  0  0  0  0  0
  -19.6907  -25.6310   21.1236 H   0  0  0  0  0  0
  -19.6676  -27.3206   20.6731 H   0  0  0  0  0  0
  -17.4201  -26.6688   21.4024 H   0  0  0  0  0  0
  -18.0319  -26.0074   22.9014 H   0  0  0  0  0  0
  -19.7939  -30.7280   24.2283 H   0  0  0  0  0  0
  -17.5011  -31.6250   24.5185 H   0  0  0  0  0  0
  -15.5356  -30.2974   23.7643 H   0  0  0  0  0  0
  -15.8680  -28.0821   22.7039 H   0  0  0  0  0  0
  -24.5879  -30.7061   25.7778 H   0  0  0  0  0  0
  -24.8863  -32.2872   26.4855 H   0  0  0  0  0  0
  -25.8011  -30.8914   27.0235 H   0  0  0  0  0  0
  -26.2856  -29.6762   24.1205 H   0  0  0  0  0  0
  -27.3989  -29.7241   25.4679 H   0  0  0  0  0  0
  -27.8731  -30.4263   23.9382 H   0  0  0  0  0  0
  -27.2737  -33.3589   26.2051 H   0  0  0  0  0  0
  -28.3838  -32.6828   25.0233 H   0  0  0  0  0  0
  -28.0790  -31.8387   26.5328 H   0  0  0  0  0  0
  -28.2636  -38.0071   24.7500 H   0  0  0  0  0  0
  -28.1035  -36.2607   24.6282 H   0  0  0  0  0  0
  -27.2318  -37.1475   25.8878 H   0  0  0  0  0  0
  -20.9376  -29.8698   21.6832 H   0  0  0  0  0  0
  -26.0171  -38.2867   24.1383 H   0  0  0  0  0  0
  -28.5990  -20.1149   22.1182 H   0  0  0  0  0  0
  -28.5968  -17.6717   22.3340 H   0  0  0  0  0  0
  -31.2269  -19.7536   18.7231 H   0  0  0  0  0  0
  -32.9063  -25.1101   21.0314 H   0  0  0  0  0  0
  -33.4959  -23.3696   21.2025 H   0  0  0  0  0  0
  -27.2528  -24.7986   20.7008 H   0  0  0  0  0  0
  -30.7884  -25.5815   19.9759 H   0  0  0  0  0  0
  -30.5963  -24.5261   18.5826 H   0  0  0  0  0  0
  -32.1129  -21.5605   20.4258 H   0  0  0  0  0  0
  -31.5152  -22.0082   18.8377 H   0  0  0  0  0  0
  -28.9406  -15.4746   21.2375 H   0  0  0  0  0  0
  1 25  1  0  0  0
  1 30  2  0  0  0
  1 85  1  0  0  0
  2  3  1  0  0  0
  2 25  1  0  0  0
  2 88  1  0  0  0
  2 89  1  0  0  0
  3  4  1  0  0  0
  3 90  1  0  0  0
  3 91  1  0  0  0
  4  5  1  0  0  0
  4 92  1  0  0  0
  4 93  1  0  0  0
  5  6  1  0  0  0
  5 26  1  0  0  0
  5 94  1  0  0  0
  6 25  1  0  0  0
  6 95  1  0  0  0
  6 96  1  0  0  0
  7  8  2  0  0  0
  7 26  1  0  0  0
  7 29  1  0  0  0
  8  9  1  0  0  0
  8 22  1  0  0  0
  9 10  1  0  0  0
  9 27  2  0  0  0
 10 11  2  0  0  0
 10 15  1  0  0  0
 11 12  1  0  0  0
 11 97  1  0  0  0
 12 13  2  0  0  0
 12 98  1  0  0  0
 13 14  1  0  0  0
 13 31  1  0  0  0
 14 15  2  0  0  0
 14 99  1  0  0  0
 15100  1  0  0  0
 16 17  2  0  0  0
 16 21  1  0  0  0
 16 31  1  0  0  0
 17 18  1  0  0  0
 17101  1  0  0  0
 18 19  2  0  0  0
 18102  1  0  0  0
 19 20  1  0  0  0
 19 24  1  0  0  0
 20 21  2  0  0  0
 20103  1  0  0  0
 21 23  1  0  0  0
 22 28  1  0  0  0
 22 32  2  0  0  0
 26 27  1  0  0  0
 28104  1  0  0  0
 28105  1  0  0  0
 29106  1  0  0  0
 29107  1  0  0  0
 33 34  1  0  0  0
 33 66  1  0  0  0
 33 70  2  0  0  0
 34 36  1  0  0  0
 34 59  1  0  0  0
 34108  1  0  0  0
 35 44  2  0  0  0
 35 45  1  0  0  0
 35 68  1  0  0  0
 36 56  1  0  0  0
 36109  1  0  0  0
 37 39  1  0  0  0
 37 47  1  0  0  0
 37 66  1  0  0  0
 37110  1  0  0  0
 38 43  2  0  0  0
 38 46  1  0  0  0
 38 47  1  0  0  0
 39 64  1  0  0  0
 39 67  2  0  0  0
 40 52  1  0  0  0
 40 53  2  0  0  0
 40 58  1  0  0  0
 41111  1  0  0  0
 41112  1  0  0  0
 41113  1  0  0  0
 41 48  1  0  0  0
 42 43  1  0  0  0
 42 66  1  0  0  0
 42114  1  0  0  0
 42115  1  0  0  0
 43 44  1  0  0  0
 44116  1  0  0  0
 45 46  2  0  0  0
 45117  1  0  0  0
 46118  1  0  0  0
 47119  1  0  0  0
 47120  1  0  0  0
 48 56  1  0  0  0
 48 65  1  0  0  0
 48121  1  0  0  0
 49 50  1  0  0  0
 49 53  1  0  0  0
 49 64  1  0  0  0
 49122  1  0  0  0
 50 51  1  0  0  0
 50123  1  0  0  0
 50124  1  0  0  0
 51 52  1  0  0  0
 51125  1  0  0  0
 51126  1  0  0  0
 52127  1  0  0  0
 52128  1  0  0  0
 53 54  1  0  0  0
 54 55  2  0  0  0
 54129  1  0  0  0
 55 57  1  0  0  0
 55130  1  0  0  0
 56 69  2  0  0  0
 57 58  2  0  0  0
 57131  1  0  0  0
 58132  1  0  0  0
 59 60  1  0  0  0
 59 61  1  0  0  0
 59 62  1  0  0  0
 60133  1  0  0  0
 60134  1  0  0  0
 60135  1  0  0  0
 61136  1  0  0  0
 61137  1  0  0  0
 61138  1  0  0  0
 62139  1  0  0  0
 62140  1  0  0  0
 62141  1  0  0  0
 63 65  1  0  0  0
 63142  1  0  0  0
 63143  1  0  0  0
 63144  1  0  0  0
 64145  1  0  0  0
 65146  1  0  0  0
 68 81  1  0  0  0
 71 72  2  0  0  0
 71 74  1  0  0  0
 71147  1  0  0  0
 72 75  1  0  0  0
 72148  1  0  0  0
 73 74  2  0  0  0
 73 76  1  0  0  0
 73149  1  0  0  0
 74 84  1  0  0  0
 75 76  2  0  0  0
 75 85  1  0  0  0
 76 87  1  0  0  0
 77 78  1  0  0  0
 77 81  2  0  0  0
 77 82  1  0  0  0
 78 84  1  0  0  0
 78 86  2  0  0  0
 79 80  2  0  0  0
 79 82  1  0  0  0
 79 83  1  0  0  0
 80150  1  0  0  0
 80151  1  0  0  0
 81152  1  0  0  0
 82153  1  0  0  0
 82154  1  0  0  0
 83 84  1  0  0  0
 83155  1  0  0  0
 83156  1  0  0  0
 85157  1  0  0  0
M  ISO  4   1 100  68 101  81 101  85 100
M  END
> <chiral flag>
0

> <version>
0

> <s_m_source_file>
/data/baiqing/PycharmProjects/Reinvent-master-3.2/result/LINK_invent/BTK/process_docking_weight1_custom_product_contain_oxygen_bond_distance_aromatic_linkinvent_7_9_3/rearranged_h_0085.sdf

> <i_m_source_file_index>
33

> <r_mmod_Potential_Energy-OPLS-2005>
169.046646118164

> <r_mmod_Stretch_Energy-OPLS-2005>
108.403533935547

> <r_mmod_Bend_Energy-OPLS-2005>
151.176452636719

> <r_mmod_Torsional_Energy-OPLS-2005>
259.977355957031

> <r_mmod_Improper_Torsional_Energy-OPLS-2005>
3.43099594116211

> <r_mmod_Van_der_Waal_Energy-OPLS-2005>
159.234634399414

> <r_mmod_Electrostatic_Energy-OPLS-2005>
-362.006286621094

> <r_mmod_Solvation_Energy-OPLS-2005>
-213.49853515625

> <b_mmod_Minimization_Converged-OPLS-2005>
0

> <r_mmod_RMS_Derivative-OPLS-2005>
2.51332974433899

$$$$
34
                    3D
 Structure written by MMmdl.
152161  0  0  1  0            999 V2000
  -30.5511  -14.8556   20.4128 C   0  0  0  0  0  0
  -30.4352  -12.5119   19.5058 C   0  0  0  0  0  0
  -29.5296  -12.5211   18.2543 C   0  0  0  0  0  0
  -28.0431  -12.3687   18.6396 C   0  0  0  0  0  0
  -27.6362  -13.2515   19.8519 C   0  0  2  0  0  0
  -28.6760  -13.2037   20.9904 C   0  0  0  0  0  0
  -25.2487  -13.8239   20.5768 C   0  0  0  0  0  0
  -24.1805  -13.0439   20.9247 C   0  0  0  0  0  0
  -24.6426  -11.6922   20.8747 C   0  0  0  0  0  0
  -23.9137  -10.4274   21.0412 C   0  0  0  0  0  0
  -24.3658   -9.4183   21.9208 C   0  0  0  0  0  0
  -23.6309   -8.2229   22.0777 C   0  0  0  0  0  0
  -22.4304   -8.0263   21.3562 C   0  0  0  0  0  0
  -21.9949   -9.0267   20.4697 C   0  0  0  0  0  0
  -22.7292  -10.2140   20.3089 C   0  0  0  0  0  0
  -21.6859   -6.0723   22.5289 C   0  0  0  0  0  0
  -21.4020   -6.5634   23.8219 C   0  0  0  0  0  0
  -21.3665   -5.6789   24.9178 C   0  0  0  0  0  0
  -21.6035   -4.3053   24.7246 C   0  0  0  0  0  0
  -21.8823   -3.8151   23.4371 C   0  0  0  0  0  0
  -21.9209   -4.6955   22.3415 C   0  0  0  0  0  0
  -22.7814  -13.5197   21.1881 C   0  0  0  0  0  0
  -22.1661   -4.2120   21.1000 F   0  0  0  0  0  0
  -21.5645   -3.4532   25.7755 F   0  0  0  0  0  0
  -29.9653  -13.5969   20.4099 N   0  0  0  0  0  0
  -26.2910  -12.9480   20.3269 N   0  0  0  0  0  0
  -25.9359  -11.6609   20.5737 N   0  0  0  0  0  0
  -22.0480  -12.8210   22.0456 N   0  0  0  0  0  0
  -25.4143  -15.1994   20.4347 N   0  0  0  0  0  0
  -31.7432  -14.9340   20.0926 O   0  0  0  0  0  0
  -21.6666   -6.8860   21.4245 O   0  0  0  0  0  0
  -22.3484  -14.5475   20.6692 O   0  0  0  0  0  0
  -24.6416  -31.8458   23.1906 C   0  0  0  0  0  0
  -25.9188  -32.4704   23.8297 C   0  0  1  0  0  0
  -27.2307  -27.1629   20.1547 C   0  0  0  0  0  0
  -25.5944  -33.8524   24.2189 N   0  0  0  0  0  0
  -23.4464  -30.4610   21.5400 C   0  0  2  0  0  0
  -24.8994  -28.8894   20.1219 C   0  0  0  0  0  0
  -22.7575  -29.4522   22.4921 C   0  0  0  0  0  0
  -18.0301  -28.1378   22.8474 C   0  0  0  0  0  0
  -24.1491  -36.7235   23.2623 C   0  0  0  0  0  0
  -26.0012  -30.7254   21.3889 C   0  0  0  0  0  0
  -26.0772  -29.3384   20.7339 C   0  0  0  0  0  0
  -27.2468  -28.4915   20.7348 C   0  0  0  0  0  0
  -26.0261  -26.8027   19.5142 C   0  0  0  0  0  0
  -24.8834  -27.6308   19.4998 C   0  0  0  0  0  0
  -23.6771  -29.7891   20.1596 C   0  0  0  0  0  0
  -25.4121  -36.3030   24.0304 C   0  0  1  0  0  0
  -20.5906  -28.3688   23.1267 C   0  0  2  0  0  0
  -20.6787  -26.9384   22.5442 C   0  0  0  0  0  0
  -19.5767  -26.6342   21.5248 C   0  0  0  0  0  0
  -18.1940  -26.7907   22.1630 C   0  0  0  0  0  0
  -19.1549  -28.8854   23.2854 C   0  0  0  0  0  0
  -18.9472  -30.1467   23.8857 C   0  0  0  0  0  0
  -17.6464  -30.6590   24.0545 C   0  0  0  0  0  0
  -25.9077  -34.9422   23.5048 C   0  0  0  0  0  0
  -16.5360  -29.9073   23.6330 C   0  0  0  0  0  0
  -16.7286  -28.6498   23.0339 C   0  0  0  0  0  0
  -26.4510  -31.6568   25.0740 C   0  0  0  0  0  0
  -25.3708  -31.3805   26.1445 C   0  0  0  0  0  0
  -27.0306  -30.2931   24.6299 C   0  0  0  0  0  0
  -27.6031  -32.4327   25.7524 C   0  0  0  0  0  0
  -27.5569  -37.1778   24.8451 C   0  0  0  0  0  0
  -21.4261  -29.3018   22.3659 N   0  0  0  0  0  0
  -26.4261  -37.3749   23.9408 N   0  0  0  0  0  0
  -24.7164  -31.0312   22.0949 N   0  0  0  0  0  0
  -23.4235  -28.8057   23.3036 O   0  0  0  0  0  0
  -28.2761  -26.1791   20.1500 O   0  0  0  0  0  0
  -26.5668  -34.8908   22.4629 O   0  0  0  0  0  0
  -23.5533  -32.1340   23.7139 O   0  0  0  0  0  0
  -29.9836  -19.8580   18.4789 C   0  0  0  0  0  0
  -29.4148  -18.7241   20.5071 C   0  0  0  0  0  0
  -30.3476  -17.4322   18.6695 C   0  0  0  0  0  0
  -29.4668  -20.0322   19.7935 C   0  0  0  0  0  0
  -30.3899  -18.6215   17.9220 C   0  0  0  0  0  0
  -29.8632  -17.4034   19.9904 C   0  0  0  0  0  0
  -28.5178  -23.5188   20.3695 C   0  0  0  0  0  0
  -28.1839  -22.2189   21.0023 C   0  0  0  0  0  0
  -28.0236  -24.8265   20.6313 C   0  0  0  0  0  0
  -29.4989  -22.7275   19.4514 C   0  0  0  0  0  0
  -29.0694  -21.4708   20.1677 N   0  0  0  0  0  0
  -30.8266  -18.5581   16.5950 N   0  0  0  0  0  0
  -29.7742  -16.0196   20.6223 N   0  0  0  0  0  0
  -27.3884  -21.9564   21.8828 O   0  0  0  0  0  0
  -31.4773  -12.6400   19.2079 H   0  0  0  0  0  0
  -30.3945  -11.5429   20.0064 H   0  0  0  0  0  0
  -29.8210  -11.7184   17.5741 H   0  0  0  0  0  0
  -29.6793  -13.4554   17.7134 H   0  0  0  0  0  0
  -27.8636  -11.3175   18.8642 H   0  0  0  0  0  0
  -27.4124  -12.6023   17.7781 H   0  0  0  0  0  0
  -27.6190  -14.2761   19.4787 H   0  0  0  0  0  0
  -28.7319  -12.2030   21.4259 H   0  0  0  0  0  0
  -28.3926  -13.8710   21.8045 H   0  0  0  0  0  0
  -25.2812   -9.5644   22.4782 H   0  0  0  0  0  0
  -24.0027   -7.4617   22.7490 H   0  0  0  0  0  0
  -21.0886   -8.8806   19.8997 H   0  0  0  0  0  0
  -22.3763  -10.9693   19.6205 H   0  0  0  0  0  0
  -21.1985   -7.6146   23.9716 H   0  0  0  0  0  0
  -21.1486   -6.0525   25.9074 H   0  0  0  0  0  0
  -22.0592   -2.7614   23.2902 H   0  0  0  0  0  0
  -22.4102  -11.9910   22.4919 H   0  0  0  0  0  0
  -21.1106  -13.1243   22.2638 H   0  0  0  0  0  0
  -24.6550  -15.8517   20.6022 H   0  0  0  0  0  0
  -26.2742  -15.6544   20.1531 H   0  0  0  0  0  0
  -26.7261  -32.5292   23.1038 H   0  0  0  0  0  0
  -25.0082  -33.9651   25.0317 H   0  0  0  0  0  0
  -22.7474  -31.2845   21.3829 H   0  0  0  0  0  0
  -23.3774  -35.9544   23.3296 H   0  0  0  0  0  0
  -24.3557  -36.8858   22.2033 H   0  0  0  0  0  0
  -23.7255  -37.6425   23.6669 H   0  0  0  0  0  0
  -26.1533  -31.4812   20.6191 H   0  0  0  0  0  0
  -26.8759  -30.7802   22.0263 H   0  0  0  0  0  0
  -28.1506  -28.8349   21.2234 H   0  0  0  0  0  0
  -25.9572  -25.8335   19.0409 H   0  0  0  0  0  0
  -23.9818  -27.2755   19.0212 H   0  0  0  0  0  0
  -23.8198  -30.5668   19.4095 H   0  0  0  0  0  0
  -22.7950  -29.2341   19.8379 H   0  0  0  0  0  0
  -25.1323  -36.1841   25.0797 H   0  0  0  0  0  0
  -20.9973  -28.3281   24.1398 H   0  0  0  0  0  0
  -20.5683  -26.2299   23.3662 H   0  0  0  0  0  0
  -21.6653  -26.7399   22.1236 H   0  0  0  0  0  0
  -19.6931  -25.6254   21.1280 H   0  0  0  0  0  0
  -19.6716  -27.3160   20.6795 H   0  0  0  0  0  0
  -17.4206  -26.6660   21.4025 H   0  0  0  0  0  0
  -18.0323  -26.0069   22.9054 H   0  0  0  0  0  0
  -19.7945  -30.7304   24.2179 H   0  0  0  0  0  0
  -17.5015  -31.6256   24.5175 H   0  0  0  0  0  0
  -15.5345  -30.2961   23.7691 H   0  0  0  0  0  0
  -15.8689  -28.0830   22.7034 H   0  0  0  0  0  0
  -24.5899  -30.7107   25.7840 H   0  0  0  0  0  0
  -24.8878  -32.3012   26.4734 H   0  0  0  0  0  0
  -25.8008  -30.9120   27.0302 H   0  0  0  0  0  0
  -26.2902  -29.6713   24.1240 H   0  0  0  0  0  0
  -27.3823  -29.7161   25.4861 H   0  0  0  0  0  0
  -27.8892  -30.4113   23.9676 H   0  0  0  0  0  0
  -27.2590  -33.3627   26.2043 H   0  0  0  0  0  0
  -28.3876  -32.6864   25.0402 H   0  0  0  0  0  0
  -28.0649  -31.8497   26.5483 H   0  0  0  0  0  0
  -28.2562  -38.0090   24.7487 H   0  0  0  0  0  0
  -28.1081  -36.2617   24.6297 H   0  0  0  0  0  0
  -27.2270  -37.1453   25.8840 H   0  0  0  0  0  0
  -20.9487  -29.8741   21.6842 H   0  0  0  0  0  0
  -26.0127  -38.2792   24.1458 H   0  0  0  0  0  0
  -30.0595  -20.7177   17.8302 H   0  0  0  0  0  0
  -29.0217  -18.7407   21.5112 H   0  0  0  0  0  0
  -30.6523  -16.5089   18.1987 H   0  0  0  0  0  0
  -27.2883  -24.8917   21.4220 H   0  0  0  0  0  0
  -30.5634  -22.9294   19.5843 H   0  0  0  0  0  0
  -29.2519  -22.7121   18.3890 H   0  0  0  0  0  0
  -30.4487  -19.2277   15.9294 H   0  0  0  0  0  0
  -30.9277  -17.6379   16.1741 H   0  0  0  0  0  0
  -28.8978  -15.8391   21.0923 H   0  0  0  0  0  0
  1 25  1  0  0  0
  1 30  2  0  0  0
  1 83  1  0  0  0
  2  3  1  0  0  0
  2 25  1  0  0  0
  2 85  1  0  0  0
  2 86  1  0  0  0
  3  4  1  0  0  0
  3 87  1  0  0  0
  3 88  1  0  0  0
  4  5  1  0  0  0
  4 89  1  0  0  0
  4 90  1  0  0  0
  5  6  1  0  0  0
  5 26  1  0  0  0
  5 91  1  0  0  0
  6 25  1  0  0  0
  6 92  1  0  0  0
  6 93  1  0  0  0
  7  8  2  0  0  0
  7 26  1  0  0  0
  7 29  1  0  0  0
  8  9  1  0  0  0
  8 22  1  0  0  0
  9 10  1  0  0  0
  9 27  2  0  0  0
 10 11  2  0  0  0
 10 15  1  0  0  0
 11 12  1  0  0  0
 11 94  1  0  0  0
 12 13  2  0  0  0
 12 95  1  0  0  0
 13 14  1  0  0  0
 13 31  1  0  0  0
 14 15  2  0  0  0
 14 96  1  0  0  0
 15 97  1  0  0  0
 16 17  2  0  0  0
 16 21  1  0  0  0
 16 31  1  0  0  0
 17 18  1  0  0  0
 17 98  1  0  0  0
 18 19  2  0  0  0
 18 99  1  0  0  0
 19 20  1  0  0  0
 19 24  1  0  0  0
 20 21  2  0  0  0
 20100  1  0  0  0
 21 23  1  0  0  0
 22 28  1  0  0  0
 22 32  2  0  0  0
 26 27  1  0  0  0
 28101  1  0  0  0
 28102  1  0  0  0
 29103  1  0  0  0
 29104  1  0  0  0
 33 34  1  0  0  0
 33 66  1  0  0  0
 33 70  2  0  0  0
 34 36  1  0  0  0
 34 59  1  0  0  0
 34105  1  0  0  0
 35 44  2  0  0  0
 35 45  1  0  0  0
 35 68  1  0  0  0
 36 56  1  0  0  0
 36106  1  0  0  0
 37 39  1  0  0  0
 37 47  1  0  0  0
 37 66  1  0  0  0
 37107  1  0  0  0
 38 43  2  0  0  0
 38 46  1  0  0  0
 38 47  1  0  0  0
 39 64  1  0  0  0
 39 67  2  0  0  0
 40 52  1  0  0  0
 40 53  2  0  0  0
 40 58  1  0  0  0
 41108  1  0  0  0
 41109  1  0  0  0
 41110  1  0  0  0
 41 48  1  0  0  0
 42 43  1  0  0  0
 42 66  1  0  0  0
 42111  1  0  0  0
 42112  1  0  0  0
 43 44  1  0  0  0
 44113  1  0  0  0
 45 46  2  0  0  0
 45114  1  0  0  0
 46115  1  0  0  0
 47116  1  0  0  0
 47117  1  0  0  0
 48 56  1  0  0  0
 48 65  1  0  0  0
 48118  1  0  0  0
 49 50  1  0  0  0
 49 53  1  0  0  0
 49 64  1  0  0  0
 49119  1  0  0  0
 50 51  1  0  0  0
 50120  1  0  0  0
 50121  1  0  0  0
 51 52  1  0  0  0
 51122  1  0  0  0
 51123  1  0  0  0
 52124  1  0  0  0
 52125  1  0  0  0
 53 54  1  0  0  0
 54 55  2  0  0  0
 54126  1  0  0  0
 55 57  1  0  0  0
 55127  1  0  0  0
 56 69  2  0  0  0
 57 58  2  0  0  0
 57128  1  0  0  0
 58129  1  0  0  0
 59 60  1  0  0  0
 59 61  1  0  0  0
 59 62  1  0  0  0
 60130  1  0  0  0
 60131  1  0  0  0
 60132  1  0  0  0
 61133  1  0  0  0
 61134  1  0  0  0
 61135  1  0  0  0
 62136  1  0  0  0
 62137  1  0  0  0
 62138  1  0  0  0
 63 65  1  0  0  0
 63139  1  0  0  0
 63140  1  0  0  0
 63141  1  0  0  0
 64142  1  0  0  0
 65143  1  0  0  0
 68 79  1  0  0  0
 71 74  2  0  0  0
 71 75  1  0  0  0
 71144  1  0  0  0
 72 74  1  0  0  0
 72 76  2  0  0  0
 72145  1  0  0  0
 73 75  2  0  0  0
 73 76  1  0  0  0
 73146  1  0  0  0
 74 81  1  0  0  0
 75 82  1  0  0  0
 76 83  1  0  0  0
 77 78  1  0  0  0
 77 79  2  0  0  0
 77 80  1  0  0  0
 78 81  1  0  0  0
 78 84  2  0  0  0
 79147  1  0  0  0
 80 81  1  0  0  0
 80148  1  0  0  0
 80149  1  0  0  0
 82150  1  0  0  0
 82151  1  0  0  0
 83152  1  0  0  0
M  ISO  4   1 100  68 101  79 101  83 100
M  END
> <chiral flag>
0

> <version>
0

> <s_m_source_file>
/data/baiqing/PycharmProjects/Reinvent-master-3.2/result/LINK_invent/BTK/process_docking_weight1_custom_product_contain_oxygen_bond_distance_aromatic_linkinvent_7_9_3/rearranged_h_0085.sdf

> <i_m_source_file_index>
34

> <r_mmod_Potential_Energy-OPLS-2005>
485.473541259766

> <r_mmod_Stretch_Energy-OPLS-2005>
197.736923217773

> <r_mmod_Bend_Energy-OPLS-2005>
294.002868652344

> <r_mmod_Torsional_Energy-OPLS-2005>
250.508224487305

> <r_mmod_Improper_Torsional_Energy-OPLS-2005>
8.29264640808105

> <r_mmod_Van_der_Waal_Energy-OPLS-2005>
129.912048339844

> <r_mmod_Electrostatic_Energy-OPLS-2005>
-306.998413085938

> <r_mmod_Solvation_Energy-OPLS-2005>
-236.653793334961

> <b_mmod_Minimization_Converged-OPLS-2005>
0

> <r_mmod_RMS_Derivative-OPLS-2005>
5.08015918731689

$$$$
35
                    3D
 Structure written by MMmdl.
154162  0  0  1  0            999 V2000
  -30.6793  -14.6388   20.4804 C   0  0  0  0  0  0
  -30.4144  -12.3976   19.4456 C   0  0  0  0  0  0
  -29.4944  -12.4889   18.2121 C   0  0  0  0  0  0
  -28.0217  -12.3252   18.6361 C   0  0  0  0  0  0
  -27.6368  -13.2247   19.8415 C   0  0  2  0  0  0
  -28.6850  -13.1483   20.9730 C   0  0  0  0  0  0
  -25.2482  -13.8174   20.5672 C   0  0  0  0  0  0
  -24.1778  -13.0428   20.9218 C   0  0  0  0  0  0
  -24.6365  -11.6905   20.8757 C   0  0  0  0  0  0
  -23.9033  -10.4292   21.0423 C   0  0  0  0  0  0
  -24.3599   -9.4209   21.9191 C   0  0  0  0  0  0
  -23.6288   -8.2238   22.0754 C   0  0  0  0  0  0
  -22.4267   -8.0274   21.3550 C   0  0  0  0  0  0
  -21.9894   -9.0239   20.4647 C   0  0  0  0  0  0
  -22.7212  -10.2125   20.3060 C   0  0  0  0  0  0
  -21.6853   -6.0729   22.5276 C   0  0  0  0  0  0
  -21.4013   -6.5637   23.8210 C   0  0  0  0  0  0
  -21.3663   -5.6789   24.9171 C   0  0  0  0  0  0
  -21.6049   -4.3050   24.7223 C   0  0  0  0  0  0
  -21.8816   -3.8137   23.4343 C   0  0  0  0  0  0
  -21.9191   -4.6954   22.3398 C   0  0  0  0  0  0
  -22.7811  -13.5223   21.1873 C   0  0  0  0  0  0
  -22.1659   -4.2143   21.0977 F   0  0  0  0  0  0
  -21.5636   -3.4534   25.7737 F   0  0  0  0  0  0
  -29.9885  -13.4609   20.3776 N   0  0  0  0  0  0
  -26.2896  -12.9374   20.3229 N   0  0  0  0  0  0
  -25.9285  -11.6527   20.5731 N   0  0  0  0  0  0
  -22.0433  -12.8231   22.0429 N   0  0  0  0  0  0
  -25.4133  -15.1905   20.4079 N   0  0  0  0  0  0
  -31.8885  -14.6876   20.2350 O   0  0  0  0  0  0
  -21.6638   -6.8866   21.4243 O   0  0  0  0  0  0
  -22.3510  -14.5533   20.6705 O   0  0  0  0  0  0
  -24.6270  -31.8588   23.2038 C   0  0  0  0  0  0
  -25.9123  -32.4767   23.8357 C   0  0  1  0  0  0
  -27.2206  -27.3121   20.1023 C   0  0  0  0  0  0
  -25.5941  -33.8568   24.2286 N   0  0  0  0  0  0
  -23.4192  -30.4844   21.5468 C   0  0  2  0  0  0
  -24.8608  -28.9386   20.1119 C   0  0  0  0  0  0
  -22.7480  -29.4622   22.4950 C   0  0  0  0  0  0
  -18.0287  -28.1380   22.8474 C   0  0  0  0  0  0
  -24.1487  -36.7289   23.2640 C   0  0  0  0  0  0
  -25.9606  -30.7866   21.3756 C   0  0  0  0  0  0
  -26.0305  -29.4140   20.7153 C   0  0  0  0  0  0
  -27.2081  -28.6098   20.7043 C   0  0  0  0  0  0
  -26.0167  -26.8829   19.4961 C   0  0  0  0  0  0
  -24.8551  -27.6779   19.4987 C   0  0  0  0  0  0
  -23.6321  -29.8214   20.1612 C   0  0  0  0  0  0
  -25.4111  -36.3079   24.0328 C   0  0  1  0  0  0
  -20.5883  -28.3689   23.1282 C   0  0  2  0  0  0
  -20.6774  -26.9415   22.5423 C   0  0  0  0  0  0
  -19.5760  -26.6382   21.5213 C   0  0  0  0  0  0
  -18.1931  -26.7927   22.1608 C   0  0  0  0  0  0
  -19.1541  -28.8853   23.2865 C   0  0  0  0  0  0
  -18.9461  -30.1453   23.8889 C   0  0  0  0  0  0
  -17.6462  -30.6576   24.0571 C   0  0  0  0  0  0
  -25.9049  -34.9447   23.5106 C   0  0  0  0  0  0
  -16.5357  -29.9082   23.6325 C   0  0  0  0  0  0
  -16.7275  -28.6505   23.0337 C   0  0  0  0  0  0
  -26.4500  -31.6575   25.0728 C   0  0  0  0  0  0
  -25.3732  -31.3716   26.1459 C   0  0  0  0  0  0
  -27.0341  -30.2999   24.6185 C   0  0  0  0  0  0
  -27.6054  -32.4305   25.7499 C   0  0  0  0  0  0
  -27.5575  -37.1798   24.8459 C   0  0  0  0  0  0
  -21.4198  -29.3040   22.3688 N   0  0  0  0  0  0
  -26.4289  -37.3777   23.9407 N   0  0  0  0  0  0
  -24.6879  -31.0597   22.0992 N   0  0  0  0  0  0
  -23.4202  -28.8158   23.3028 O   0  0  0  0  0  0
  -28.3623  -26.4944   20.1622 O   0  0  0  0  0  0
  -26.5623  -34.8914   22.4675 O   0  0  0  0  0  0
  -23.5434  -32.1397   23.7367 O   0  0  0  0  0  0
  -29.7760  -19.5132   21.6399 C   0  0  0  0  0  0
  -29.4085  -20.8711   21.3794 C   0  0  0  0  0  0
  -29.4648  -18.9585   19.3184 C   0  0  0  0  0  0
  -29.8314  -18.5228   20.6166 C   0  0  0  0  0  0
  -29.1041  -21.3205   20.0669 C   0  0  0  0  0  0
  -29.1383  -20.3237   19.0454 C   0  0  0  0  0  0
  -30.4757  -17.1711   20.8546 C   0  0  0  0  0  0
  -28.7110  -23.8965   20.3276 C   0  0  0  0  0  0
  -28.4667  -25.1956   19.4521 C   0  0  0  0  0  0
  -28.8956  -20.6979   17.7202 N   0  0  0  0  0  0
  -28.7870  -22.6955   19.6714 N   0  0  0  0  0  0
  -29.9438  -15.9209   20.5929 N   0  0  0  0  0  0
  -31.7112  -17.2618   21.3633 N   0  3  0  0  0  0
  -28.8302  -23.9921   21.5525 O   0  0  0  0  0  0
  -31.4590  -12.4948   19.1463 H   0  0  0  0  0  0
  -30.3263  -11.4173   19.9165 H   0  0  0  0  0  0
  -29.7619  -11.7238   17.4819 H   0  0  0  0  0  0
  -29.6351  -13.4489   17.7127 H   0  0  0  0  0  0
  -27.8736  -11.2767   18.8989 H   0  0  0  0  0  0
  -27.3600  -12.5186   17.7923 H   0  0  0  0  0  0
  -27.6339  -14.2464   19.4632 H   0  0  0  0  0  0
  -28.6990  -12.1549   21.4245 H   0  0  0  0  0  0
  -28.4391  -13.8461   21.7752 H   0  0  0  0  0  0
  -25.2740   -9.5717   22.4767 H   0  0  0  0  0  0
  -24.0008   -7.4637   22.7477 H   0  0  0  0  0  0
  -21.0826   -8.8752   19.8955 H   0  0  0  0  0  0
  -22.3658  -10.9662   19.6174 H   0  0  0  0  0  0
  -21.2006   -7.6137   23.9711 H   0  0  0  0  0  0
  -21.1494   -6.0514   25.9077 H   0  0  0  0  0  0
  -22.0593   -2.7596   23.2836 H   0  0  0  0  0  0
  -22.4021  -11.9904   22.4861 H   0  0  0  0  0  0
  -21.1050  -13.1285   22.2613 H   0  0  0  0  0  0
  -24.6298  -15.8278   20.5041 H   0  0  0  0  0  0
  -26.2320  -15.6321   20.0114 H   0  0  0  0  0  0
  -26.7191  -32.5427   23.1096 H   0  0  0  0  0  0
  -25.0092  -33.9709   25.0439 H   0  0  0  0  0  0
  -22.7120  -31.3047   21.4072 H   0  0  0  0  0  0
  -23.3746  -35.9622   23.3303 H   0  0  0  0  0  0
  -24.3573  -36.8919   22.2053 H   0  0  0  0  0  0
  -23.7245  -37.6491   23.6666 H   0  0  0  0  0  0
  -26.0931  -31.5499   20.6077 H   0  0  0  0  0  0
  -26.8407  -30.8306   22.0056 H   0  0  0  0  0  0
  -28.1060  -28.9717   21.1848 H   0  0  0  0  0  0
  -25.9106  -25.9148   19.0371 H   0  0  0  0  0  0
  -23.9528  -27.3010   19.0360 H   0  0  0  0  0  0
  -23.7591  -30.5989   19.4077 H   0  0  0  0  0  0
  -22.7491  -29.2576   19.8548 H   0  0  0  0  0  0
  -25.1291  -36.1922   25.0821 H   0  0  0  0  0  0
  -20.9960  -28.3275   24.1409 H   0  0  0  0  0  0
  -20.5665  -26.2314   23.3629 H   0  0  0  0  0  0
  -21.6649  -26.7443   22.1235 H   0  0  0  0  0  0
  -19.6932  -25.6292   21.1246 H   0  0  0  0  0  0
  -19.6697  -27.3192   20.6738 H   0  0  0  0  0  0
  -17.4216  -26.6688   21.3992 H   0  0  0  0  0  0
  -18.0316  -26.0058   22.8989 H   0  0  0  0  0  0
  -19.7944  -30.7272   24.2248 H   0  0  0  0  0  0
  -17.5021  -31.6245   24.5204 H   0  0  0  0  0  0
  -15.5355  -30.2982   23.7649 H   0  0  0  0  0  0
  -15.8678  -28.0826   22.7039 H   0  0  0  0  0  0
  -24.5903  -30.7068   25.7799 H   0  0  0  0  0  0
  -24.8928  -32.2888   26.4875 H   0  0  0  0  0  0
  -25.8063  -30.8904   27.0241 H   0  0  0  0  0  0
  -26.2922  -29.6739   24.1225 H   0  0  0  0  0  0
  -27.4056  -29.7254   25.4679 H   0  0  0  0  0  0
  -27.8780  -30.4272   23.9403 H   0  0  0  0  0  0
  -27.2657  -33.3585   26.2105 H   0  0  0  0  0  0
  -28.3851  -32.6903   25.0327 H   0  0  0  0  0  0
  -28.0747  -31.8424   26.5394 H   0  0  0  0  0  0
  -28.2596  -38.0093   24.7507 H   0  0  0  0  0  0
  -28.1069  -36.2625   24.6275 H   0  0  0  0  0  0
  -27.2301  -37.1451   25.8867 H   0  0  0  0  0  0
  -20.9390  -29.8763   21.6892 H   0  0  0  0  0  0
  -26.0162  -38.2850   24.1413 H   0  0  0  0  0  0
  -30.0609  -19.2427   22.6484 H   0  0  0  0  0  0
  -29.4036  -21.5718   22.2013 H   0  0  0  0  0  0
  -29.5325  -18.2543   18.5005 H   0  0  0  0  0  0
  -27.6726  -24.9960   18.7415 H   0  0  0  0  0  0
  -29.3500  -25.2918   18.8212 H   0  0  0  0  0  0
  -29.0774  -19.9828   17.0228 H   0  0  0  0  0  0
  -29.3109  -21.5749   17.4255 H   0  0  0  0  0  0
  -28.6007  -22.7624   18.6811 H   0  0  0  0  0  0
  -28.9416  -15.9537   20.5289 H   0  0  0  0  0  0
  -32.1198  -18.1675   21.5365 H   0  0  0  0  0  0
  -32.3047  -16.4430   21.3647 H   0  0  0  0  0  0
  1 25  1  0  0  0
  1 30  2  0  0  0
  1 82  1  0  0  0
  2  3  1  0  0  0
  2 25  1  0  0  0
  2 85  1  0  0  0
  2 86  1  0  0  0
  3  4  1  0  0  0
  3 87  1  0  0  0
  3 88  1  0  0  0
  4  5  1  0  0  0
  4 89  1  0  0  0
  4 90  1  0  0  0
  5  6  1  0  0  0
  5 26  1  0  0  0
  5 91  1  0  0  0
  6 25  1  0  0  0
  6 92  1  0  0  0
  6 93  1  0  0  0
  7  8  2  0  0  0
  7 26  1  0  0  0
  7 29  1  0  0  0
  8  9  1  0  0  0
  8 22  1  0  0  0
  9 10  1  0  0  0
  9 27  2  0  0  0
 10 11  2  0  0  0
 10 15  1  0  0  0
 11 12  1  0  0  0
 11 94  1  0  0  0
 12 13  2  0  0  0
 12 95  1  0  0  0
 13 14  1  0  0  0
 13 31  1  0  0  0
 14 15  2  0  0  0
 14 96  1  0  0  0
 15 97  1  0  0  0
 16 17  2  0  0  0
 16 21  1  0  0  0
 16 31  1  0  0  0
 17 18  1  0  0  0
 17 98  1  0  0  0
 18 19  2  0  0  0
 18 99  1  0  0  0
 19 20  1  0  0  0
 19 24  1  0  0  0
 20 21  2  0  0  0
 20100  1  0  0  0
 21 23  1  0  0  0
 22 28  1  0  0  0
 22 32  2  0  0  0
 26 27  1  0  0  0
 28101  1  0  0  0
 28102  1  0  0  0
 29103  1  0  0  0
 29104  1  0  0  0
 33 34  1  0  0  0
 33 66  1  0  0  0
 33 70  2  0  0  0
 34 36  1  0  0  0
 34 59  1  0  0  0
 34105  1  0  0  0
 35 44  2  0  0  0
 35 45  1  0  0  0
 35 68  1  0  0  0
 36 56  1  0  0  0
 36106  1  0  0  0
 37 39  1  0  0  0
 37 47  1  0  0  0
 37 66  1  0  0  0
 37107  1  0  0  0
 38 43  2  0  0  0
 38 46  1  0  0  0
 38 47  1  0  0  0
 39 64  1  0  0  0
 39 67  2  0  0  0
 40 52  1  0  0  0
 40 53  2  0  0  0
 40 58  1  0  0  0
 41108  1  0  0  0
 41109  1  0  0  0
 41110  1  0  0  0
 41 48  1  0  0  0
 42 43  1  0  0  0
 42 66  1  0  0  0
 42111  1  0  0  0
 42112  1  0  0  0
 43 44  1  0  0  0
 44113  1  0  0  0
 45 46  2  0  0  0
 45114  1  0  0  0
 46115  1  0  0  0
 47116  1  0  0  0
 47117  1  0  0  0
 48 56  1  0  0  0
 48 65  1  0  0  0
 48118  1  0  0  0
 49 50  1  0  0  0
 49 53  1  0  0  0
 49 64  1  0  0  0
 49119  1  0  0  0
 50 51  1  0  0  0
 50120  1  0  0  0
 50121  1  0  0  0
 51 52  1  0  0  0
 51122  1  0  0  0
 51123  1  0  0  0
 52124  1  0  0  0
 52125  1  0  0  0
 53 54  1  0  0  0
 54 55  2  0  0  0
 54126  1  0  0  0
 55 57  1  0  0  0
 55127  1  0  0  0
 56 69  2  0  0  0
 57 58  2  0  0  0
 57128  1  0  0  0
 58129  1  0  0  0
 59 60  1  0  0  0
 59 61  1  0  0  0
 59 62  1  0  0  0
 60130  1  0  0  0
 60131  1  0  0  0
 60132  1  0  0  0
 61133  1  0  0  0
 61134  1  0  0  0
 61135  1  0  0  0
 62136  1  0  0  0
 62137  1  0  0  0
 62138  1  0  0  0
 63 65  1  0  0  0
 63139  1  0  0  0
 63140  1  0  0  0
 63141  1  0  0  0
 64142  1  0  0  0
 65143  1  0  0  0
 68 79  1  0  0  0
 71 72  2  0  0  0
 71 74  1  0  0  0
 71144  1  0  0  0
 72 75  1  0  0  0
 72145  1  0  0  0
 73 74  2  0  0  0
 73 76  1  0  0  0
 73146  1  0  0  0
 74 77  1  0  0  0
 75 76  2  0  0  0
 75 81  1  0  0  0
 76 80  1  0  0  0
 77 82  1  0  0  0
 77 83  2  0  0  0
 78 79  1  0  0  0
 78 81  1  0  0  0
 78 84  2  0  0  0
 79147  1  0  0  0
 79148  1  0  0  0
 80149  1  0  0  0
 80150  1  0  0  0
 81151  1  0  0  0
 82152  1  0  0  0
 83153  1  0  0  0
 83154  1  0  0  0
M  CHG  1  83   1
M  ISO  4   1 100  68 101  79 101  82 100
M  END
> <chiral flag>
0

> <version>
0

> <s_m_source_file>
/data/baiqing/PycharmProjects/Reinvent-master-3.2/result/LINK_invent/BTK/process_docking_weight1_custom_product_contain_oxygen_bond_distance_aromatic_linkinvent_7_9_3/rearranged_h_0085.sdf

> <i_m_source_file_index>
35

> <r_mmod_Potential_Energy-OPLS-2005>
-277.815948486328

> <r_mmod_Stretch_Energy-OPLS-2005>
80.8000106811523

> <r_mmod_Bend_Energy-OPLS-2005>
162.599197387695

> <r_mmod_Torsional_Energy-OPLS-2005>
238.647125244141

> <r_mmod_Improper_Torsional_Energy-OPLS-2005>
13.3492975234985

> <r_mmod_Van_der_Waal_Energy-OPLS-2005>
155.42121887207

> <r_mmod_Electrostatic_Energy-OPLS-2005>
-507.015747070312

> <r_mmod_Solvation_Energy-OPLS-2005>
-477.428894042969

> <b_mmod_Minimization_Converged-OPLS-2005>
0

> <r_mmod_RMS_Derivative-OPLS-2005>
1.95873296260834

$$$$
36
                    3D
 Structure written by MMmdl.
162172  0  0  1  0            999 V2000
  -30.7479  -14.4080   20.6479 C   0  0  0  0  0  0
  -30.4337  -12.2978   19.3967 C   0  0  0  0  0  0
  -29.4954  -12.5263   18.1957 C   0  0  0  0  0  0
  -28.0192  -12.3833   18.6145 C   0  0  0  0  0  0
  -27.6761  -13.2042   19.8830 C   0  0  2  0  0  0
  -28.7195  -12.9474   20.9950 C   0  0  0  0  0  0
  -25.2653  -13.8155   20.5687 C   0  0  0  0  0  0
  -24.1892  -13.0448   20.9180 C   0  0  0  0  0  0
  -24.6427  -11.6905   20.8717 C   0  0  0  0  0  0
  -23.9072  -10.4301   21.0391 C   0  0  0  0  0  0
  -24.3608   -9.4219   21.9174 C   0  0  0  0  0  0
  -23.6293   -8.2257   22.0744 C   0  0  0  0  0  0
  -22.4274   -8.0288   21.3537 C   0  0  0  0  0  0
  -21.9901   -9.0260   20.4637 C   0  0  0  0  0  0
  -22.7231  -10.2142   20.3048 C   0  0  0  0  0  0
  -21.6855   -6.0726   22.5283 C   0  0  0  0  0  0
  -21.4010   -6.5627   23.8220 C   0  0  0  0  0  0
  -21.3670   -5.6779   24.9180 C   0  0  0  0  0  0
  -21.6041   -4.3045   24.7229 C   0  0  0  0  0  0
  -21.8825   -3.8134   23.4358 C   0  0  0  0  0  0
  -21.9193   -4.6947   22.3408 C   0  0  0  0  0  0
  -22.7911  -13.5247   21.1875 C   0  0  0  0  0  0
  -22.1665   -4.2128   21.0984 F   0  0  0  0  0  0
  -21.5633   -3.4537   25.7744 F   0  0  0  0  0  0
  -30.0697  -13.2414   20.4627 N   0  0  0  0  0  0
  -26.3118  -12.9324   20.3414 N   0  0  0  0  0  0
  -25.9362  -11.6478   20.5763 N   0  0  0  0  0  0
  -22.0532  -12.8227   22.0408 N   0  0  0  0  0  0
  -25.4392  -15.1864   20.4041 N   0  0  0  0  0  0
  -31.7367  -14.7434   19.9904 O   0  0  0  0  0  0
  -21.6642   -6.8876   21.4242 O   0  0  0  0  0  0
  -22.3596  -14.5560   20.6744 O   0  0  0  0  0  0
  -24.6182  -31.8623   23.2030 C   0  0  0  0  0  0
  -25.9051  -32.4797   23.8341 C   0  0  1  0  0  0
  -27.2593  -27.4006   20.0854 C   0  0  0  0  0  0
  -25.5890  -33.8592   24.2301 N   0  0  0  0  0  0
  -23.4139  -30.4807   21.5409 C   0  0  2  0  0  0
  -24.8709  -28.9434   20.1028 C   0  0  0  0  0  0
  -22.7450  -29.4628   22.4949 C   0  0  0  0  0  0
  -18.0279  -28.1419   22.8478 C   0  0  0  0  0  0
  -24.1469  -36.7287   23.2633 C   0  0  0  0  0  0
  -25.9467  -30.8155   21.3625 C   0  0  0  0  0  0
  -26.0304  -29.4491   20.7006 C   0  0  0  0  0  0
  -27.2277  -28.6851   20.6888 C   0  0  0  0  0  0
  -26.0765  -26.9137   19.4876 C   0  0  0  0  0  0
  -24.8904  -27.6786   19.4879 C   0  0  0  0  0  0
  -23.6284  -29.8085   20.1571 C   0  0  0  0  0  0
  -25.4089  -36.3093   24.0345 C   0  0  1  0  0  0
  -20.5869  -28.3699   23.1304 C   0  0  2  0  0  0
  -20.6772  -26.9423   22.5438 C   0  0  0  0  0  0
  -19.5755  -26.6412   21.5235 C   0  0  0  0  0  0
  -18.1929  -26.7968   22.1632 C   0  0  0  0  0  0
  -19.1532  -28.8874   23.2896 C   0  0  0  0  0  0
  -18.9474  -30.1473   23.8909 C   0  0  0  0  0  0
  -17.6479  -30.6633   24.0569 C   0  0  0  0  0  0
  -25.9037  -34.9461   23.5128 C   0  0  0  0  0  0
  -16.5359  -29.9147   23.6327 C   0  0  0  0  0  0
  -16.7272  -28.6560   23.0359 C   0  0  0  0  0  0
  -26.4464  -31.6603   25.0700 C   0  0  0  0  0  0
  -25.3723  -31.3760   26.1448 C   0  0  0  0  0  0
  -27.0290  -30.3026   24.6106 C   0  0  0  0  0  0
  -27.6025  -32.4326   25.7486 C   0  0  0  0  0  0
  -27.5581  -37.1791   24.8458 C   0  0  0  0  0  0
  -21.4176  -29.3051   22.3707 N   0  0  0  0  0  0
  -26.4268  -37.3798   23.9439 N   0  0  0  0  0  0
  -24.6780  -31.0673   22.0941 N   0  0  0  0  0  0
  -23.4204  -28.8181   23.3005 O   0  0  0  0  0  0
  -28.3746  -26.5814   20.1912 O   0  0  0  0  0  0
  -26.5606  -34.8930   22.4694 O   0  0  0  0  0  0
  -23.5377  -32.1406   23.7410 O   0  0  0  0  0  0
  -29.3819  -23.7129   19.7648 C   0  0  0  0  0  0
  -28.6983  -22.7788   17.2026 C   0  0  0  0  0  0
  -29.4120  -19.1530   22.5252 C   0  0  0  0  0  0
  -30.2857  -17.5281   20.9299 C   0  0  0  0  0  0
  -29.6906  -16.8343   23.1952 C   0  0  0  0  0  0
  -29.4909  -22.3131   19.4692 C   0  0  0  0  0  0
  -29.1421  -21.8583   18.1754 C   0  0  0  0  0  0
  -29.8888  -18.8804   21.2149 C   0  0  0  0  0  0
  -28.9204  -24.6414   18.7836 C   0  0  0  0  0  0
  -29.3466  -18.1534   23.5089 C   0  0  0  0  0  0
  -30.1496  -16.4999   21.9093 C   0  0  0  0  0  0
  -28.5849  -24.1472   17.5063 C   0  0  0  0  0  0
  -29.5440  -19.5501   18.8817 C   0  0  0  0  0  0
  -29.2313  -20.4157   17.9032 C   0  0  0  0  0  0
  -29.9748  -21.2893   20.4986 C   0  0  0  0  0  0
  -29.8365  -19.9428   20.2080 N   0  0  0  0  0  0
  -28.9175  -18.4571   24.7966 N   0  0  0  0  0  0
  -30.3462  -15.1010   21.7171 N   0  0  0  0  0  0
  -28.8427  -26.0489   18.9368 N   0  0  0  0  0  0
  -30.4894  -21.7144   21.5409 O   0  0  0  0  0  0
  -28.9712  -20.0107   16.6519 O   0  0  0  0  0  0
  -28.1549  -25.0049   16.5480 F   0  0  0  0  0  0
  -31.4770  -12.4034   19.0927 H   0  0  0  0  0  0
  -30.3343  -11.2758   19.7642 H   0  0  0  0  0  0
  -29.7258  -11.8130   17.4029 H   0  0  0  0  0  0
  -29.6681  -13.5191   17.7756 H   0  0  0  0  0  0
  -27.8338  -11.3254   18.8000 H   0  0  0  0  0  0
  -27.3625  -12.6682   17.7919 H   0  0  0  0  0  0
  -27.7354  -14.2585   19.6117 H   0  0  0  0  0  0
  -28.6839  -11.9061   21.3188 H   0  0  0  0  0  0
  -28.4645  -13.5272   21.8814 H   0  0  0  0  0  0
  -25.2743   -9.5697   22.4739 H   0  0  0  0  0  0
  -23.9995   -7.4644   22.7454 H   0  0  0  0  0  0
  -21.0831   -8.8781   19.8938 H   0  0  0  0  0  0
  -22.3689  -10.9678   19.6143 H   0  0  0  0  0  0
  -21.2006   -7.6134   23.9714 H   0  0  0  0  0  0
  -21.1481   -6.0508   25.9074 H   0  0  0  0  0  0
  -22.0591   -2.7599   23.2866 H   0  0  0  0  0  0
  -22.4114  -11.9863   22.4779 H   0  0  0  0  0  0
  -21.1155  -13.1263   22.2625 H   0  0  0  0  0  0
  -24.6779  -15.8481   20.5064 H   0  0  0  0  0  0
  -26.3007  -15.6170   20.0903 H   0  0  0  0  0  0
  -26.7135  -32.5481   23.1120 H   0  0  0  0  0  0
  -25.0038  -33.9732   25.0443 H   0  0  0  0  0  0
  -22.7063  -31.3025   21.3991 H   0  0  0  0  0  0
  -23.3750  -35.9607   23.3304 H   0  0  0  0  0  0
  -24.3560  -36.8883   22.2040 H   0  0  0  0  0  0
  -23.7215  -37.6494   23.6639 H   0  0  0  0  0  0
  -26.0636  -31.5806   20.5938 H   0  0  0  0  0  0
  -26.8286  -30.8724   21.9856 H   0  0  0  0  0  0
  -28.1147  -29.0619   21.1757 H   0  0  0  0  0  0
  -26.0567  -25.9256   19.0503 H   0  0  0  0  0  0
  -23.9938  -27.2833   19.0315 H   0  0  0  0  0  0
  -23.7448  -30.5839   19.3987 H   0  0  0  0  0  0
  -22.7530  -29.2326   19.8580 H   0  0  0  0  0  0
  -25.1282  -36.1938   25.0848 H   0  0  0  0  0  0
  -20.9952  -28.3273   24.1437 H   0  0  0  0  0  0
  -20.5679  -26.2309   23.3632 H   0  0  0  0  0  0
  -21.6637  -26.7489   22.1218 H   0  0  0  0  0  0
  -19.6899  -25.6338   21.1249 H   0  0  0  0  0  0
  -19.6685  -27.3222   20.6748 H   0  0  0  0  0  0
  -17.4196  -26.6707   21.4037 H   0  0  0  0  0  0
  -18.0318  -26.0150   22.9057 H   0  0  0  0  0  0
  -19.7960  -30.7287   24.2297 H   0  0  0  0  0  0
  -17.5051  -31.6300   24.5208 H   0  0  0  0  0  0
  -15.5370  -30.3069   23.7674 H   0  0  0  0  0  0
  -15.8663  -28.0899   22.7082 H   0  0  0  0  0  0
  -24.5875  -30.7123   25.7808 H   0  0  0  0  0  0
  -24.8932  -32.2938   26.4858 H   0  0  0  0  0  0
  -25.8057  -30.8962   27.0226 H   0  0  0  0  0  0
  -26.2850  -29.6819   24.1085 H   0  0  0  0  0  0
  -27.3980  -29.7241   25.4591 H   0  0  0  0  0  0
  -27.8729  -30.4354   23.9327 H   0  0  0  0  0  0
  -27.2617  -33.3617   26.2065 H   0  0  0  0  0  0
  -28.3825  -32.6899   25.0309 H   0  0  0  0  0  0
  -28.0676  -31.8439   26.5396 H   0  0  0  0  0  0
  -28.2591  -38.0103   24.7564 H   0  0  0  0  0  0
  -28.1107  -36.2654   24.6226 H   0  0  0  0  0  0
  -27.2317  -37.1346   25.8862 H   0  0  0  0  0  0
  -20.9374  -29.8800   21.6916 H   0  0  0  0  0  0
  -26.0160  -38.2872   24.1480 H   0  0  0  0  0  0
  -29.6676  -24.0741   20.7422 H   0  0  0  0  0  0
  -28.4464  -22.4445   16.2089 H   0  0  0  0  0  0
  -29.0627  -20.1388   22.7900 H   0  0  0  0  0  0
  -30.6676  -17.2584   19.9549 H   0  0  0  0  0  0
  -29.5889  -16.0602   23.9435 H   0  0  0  0  0  0
  -29.5843  -18.4914   18.6878 H   0  0  0  0  0  0
  -28.9464  -19.4289   25.0868 H   0  0  0  0  0  0
  -29.2045  -17.8231   25.5354 H   0  0  0  0  0  0
  -29.8440  -14.5198   22.3729 H   0  0  0  0  0  0
  -28.3333  -26.5029   18.1829 H   0  0  0  0  0  0
  -29.0538  -19.0644   16.6281 H   0  0  0  0  0  0
  1 25  1  0  0  0
  1 30  2  0  0  0
  1 88  1  0  0  0
  2  3  1  0  0  0
  2 25  1  0  0  0
  2 93  1  0  0  0
  2 94  1  0  0  0
  3  4  1  0  0  0
  3 95  1  0  0  0
  3 96  1  0  0  0
  4  5  1  0  0  0
  4 97  1  0  0  0
  4 98  1  0  0  0
  5  6  1  0  0  0
  5 26  1  0  0  0
  5 99  1  0  0  0
  6 25  1  0  0  0
  6100  1  0  0  0
  6101  1  0  0  0
  7  8  2  0  0  0
  7 26  1  0  0  0
  7 29  1  0  0  0
  8  9  1  0  0  0
  8 22  1  0  0  0
  9 10  1  0  0  0
  9 27  2  0  0  0
 10 11  2  0  0  0
 10 15  1  0  0  0
 11 12  1  0  0  0
 11102  1  0  0  0
 12 13  2  0  0  0
 12103  1  0  0  0
 13 14  1  0  0  0
 13 31  1  0  0  0
 14 15  2  0  0  0
 14104  1  0  0  0
 15105  1  0  0  0
 16 17  2  0  0  0
 16 21  1  0  0  0
 16 31  1  0  0  0
 17 18  1  0  0  0
 17106  1  0  0  0
 18 19  2  0  0  0
 18107  1  0  0  0
 19 20  1  0  0  0
 19 24  1  0  0  0
 20 21  2  0  0  0
 20108  1  0  0  0
 21 23  1  0  0  0
 22 28  1  0  0  0
 22 32  2  0  0  0
 26 27  1  0  0  0
 28109  1  0  0  0
 28110  1  0  0  0
 29111  1  0  0  0
 29112  1  0  0  0
 33 34  1  0  0  0
 33 66  1  0  0  0
 33 70  2  0  0  0
 34 36  1  0  0  0
 34 59  1  0  0  0
 34113  1  0  0  0
 35 44  2  0  0  0
 35 45  1  0  0  0
 35 68  1  0  0  0
 36 56  1  0  0  0
 36114  1  0  0  0
 37 39  1  0  0  0
 37 47  1  0  0  0
 37 66  1  0  0  0
 37115  1  0  0  0
 38 43  2  0  0  0
 38 46  1  0  0  0
 38 47  1  0  0  0
 39 64  1  0  0  0
 39 67  2  0  0  0
 40 52  1  0  0  0
 40 53  2  0  0  0
 40 58  1  0  0  0
 41116  1  0  0  0
 41117  1  0  0  0
 41118  1  0  0  0
 41 48  1  0  0  0
 42 43  1  0  0  0
 42 66  1  0  0  0
 42119  1  0  0  0
 42120  1  0  0  0
 43 44  1  0  0  0
 44121  1  0  0  0
 45 46  2  0  0  0
 45122  1  0  0  0
 46123  1  0  0  0
 47124  1  0  0  0
 47125  1  0  0  0
 48 56  1  0  0  0
 48 65  1  0  0  0
 48126  1  0  0  0
 49 50  1  0  0  0
 49 53  1  0  0  0
 49 64  1  0  0  0
 49127  1  0  0  0
 50 51  1  0  0  0
 50128  1  0  0  0
 50129  1  0  0  0
 51 52  1  0  0  0
 51130  1  0  0  0
 51131  1  0  0  0
 52132  1  0  0  0
 52133  1  0  0  0
 53 54  1  0  0  0
 54 55  2  0  0  0
 54134  1  0  0  0
 55 57  1  0  0  0
 55135  1  0  0  0
 56 69  2  0  0  0
 57 58  2  0  0  0
 57136  1  0  0  0
 58137  1  0  0  0
 59 60  1  0  0  0
 59 61  1  0  0  0
 59 62  1  0  0  0
 60138  1  0  0  0
 60139  1  0  0  0
 60140  1  0  0  0
 61141  1  0  0  0
 61142  1  0  0  0
 61143  1  0  0  0
 62144  1  0  0  0
 62145  1  0  0  0
 62146  1  0  0  0
 63 65  1  0  0  0
 63147  1  0  0  0
 63148  1  0  0  0
 63149  1  0  0  0
 64150  1  0  0  0
 65151  1  0  0  0
 68 89  1  0  0  0
 71 76  2  0  0  0
 71 79  1  0  0  0
 71152  1  0  0  0
 72 77  2  0  0  0
 72 82  1  0  0  0
 72153  1  0  0  0
 73 78  2  0  0  0
 73 80  1  0  0  0
 73154  1  0  0  0
 74 78  1  0  0  0
 74 81  2  0  0  0
 74155  1  0  0  0
 75 80  2  0  0  0
 75 81  1  0  0  0
 75156  1  0  0  0
 76 77  1  0  0  0
 76 85  1  0  0  0
 77 84  1  0  0  0
 78 86  1  0  0  0
 79 82  2  0  0  0
 79 89  1  0  0  0
 80 87  1  0  0  0
 81 88  1  0  0  0
 82 92  1  0  0  0
 83 84  2  0  0  0
 83 86  1  0  0  0
 83157  1  0  0  0
 84 91  1  0  0  0
 85 86  1  0  0  0
 85 90  2  0  0  0
 87158  1  0  0  0
 87159  1  0  0  0
 88160  1  0  0  0
 89161  1  0  0  0
 91162  1  0  0  0
M  ISO  4   1 100  68 101  88 100  89 101
M  END
> <chiral flag>
0

> <version>
0

> <s_m_source_file>
/data/baiqing/PycharmProjects/Reinvent-master-3.2/result/LINK_invent/BTK/process_docking_weight1_custom_product_contain_oxygen_bond_distance_aromatic_linkinvent_7_9_3/rearranged_h_0085.sdf

> <i_m_source_file_index>
36

> <r_mmod_Potential_Energy-OPLS-2005>
38.9344291687012

> <r_mmod_Stretch_Energy-OPLS-2005>
61.2669296264648

> <r_mmod_Bend_Energy-OPLS-2005>
125.088203430176

> <r_mmod_Torsional_Energy-OPLS-2005>
236.632019042969

> <r_mmod_Improper_Torsional_Energy-OPLS-2005>
14.55104637146

> <r_mmod_Van_der_Waal_Energy-OPLS-2005>
194.591400146484

> <r_mmod_Electrostatic_Energy-OPLS-2005>
-360.108367919922

> <r_mmod_Solvation_Energy-OPLS-2005>
-250.437515258789

> <b_mmod_Minimization_Converged-OPLS-2005>
0

> <r_mmod_RMS_Derivative-OPLS-2005>
4.2123703956604

$$$$
37
                    3D
 Structure written by MMmdl.
155164  0  0  1  0            999 V2000
  -30.4895  -15.1373   20.3492 C   0  0  0  0  0  0
  -30.4592  -12.7115   19.5030 C   0  0  0  0  0  0
  -29.5484  -12.5139   18.2668 C   0  0  0  0  0  0
  -28.0943  -12.2650   18.7130 C   0  0  0  0  0  0
  -27.6248  -13.2530   19.8082 C   0  0  2  0  0  0
  -28.6683  -13.3972   20.9345 C   0  0  0  0  0  0
  -25.2557  -13.8193   20.5788 C   0  0  0  0  0  0
  -24.1837  -13.0431   20.9240 C   0  0  0  0  0  0
  -24.6465  -11.6922   20.8766 C   0  0  0  0  0  0
  -23.9158  -10.4303   21.0439 C   0  0  0  0  0  0
  -24.3683   -9.4174   21.9204 C   0  0  0  0  0  0
  -23.6299   -8.2250   22.0778 C   0  0  0  0  0  0
  -22.4272   -8.0366   21.3589 C   0  0  0  0  0  0
  -21.9950   -9.0334   20.4678 C   0  0  0  0  0  0
  -22.7332  -10.2184   20.3075 C   0  0  0  0  0  0
  -21.6868   -6.0836   22.5303 C   0  0  0  0  0  0
  -21.4022   -6.5698   23.8251 C   0  0  0  0  0  0
  -21.3625   -5.6816   24.9183 C   0  0  0  0  0  0
  -21.5993   -4.3067   24.7193 C   0  0  0  0  0  0
  -21.8820   -3.8207   23.4298 C   0  0  0  0  0  0
  -21.9184   -4.7069   22.3383 C   0  0  0  0  0  0
  -22.7864  -13.5270   21.1842 C   0  0  0  0  0  0
  -22.1659   -4.2277   21.0962 F   0  0  0  0  0  0
  -21.5571   -3.4527   25.7667 F   0  0  0  0  0  0
  -29.9101  -13.8556   20.2924 N   0  0  0  0  0  0
  -26.2928  -12.9417   20.3163 N   0  0  0  0  0  0
  -25.9385  -11.6557   20.5624 N   0  0  0  0  0  0
  -22.0412  -12.8356   22.0368 N   0  0  0  0  0  0
  -25.4269  -15.1935   20.4377 N   0  0  0  0  0  0
  -31.7244  -15.1580   20.2661 O   0  0  0  0  0  0
  -21.6613   -6.8991   21.4289 O   0  0  0  0  0  0
  -22.3618  -14.5575   20.6613 O   0  0  0  0  0  0
  -24.6601  -31.8258   23.1719 C   0  0  0  0  0  0
  -25.9332  -32.4579   23.8131 C   0  0  1  0  0  0
  -27.2171  -26.9875   20.1404 C   0  0  0  0  0  0
  -25.6048  -33.8380   24.2103 N   0  0  0  0  0  0
  -23.4653  -30.4476   21.5144 C   0  0  2  0  0  0
  -24.9230  -28.8535   20.0827 C   0  0  0  0  0  0
  -22.7607  -29.4496   22.4707 C   0  0  0  0  0  0
  -18.0351  -28.1431   22.8473 C   0  0  0  0  0  0
  -24.1500  -36.7238   23.2614 C   0  0  0  0  0  0
  -26.0294  -30.6312   21.4060 C   0  0  0  0  0  0
  -26.0949  -29.2306   20.7516 C   0  0  0  0  0  0
  -27.2342  -28.3135   20.7815 C   0  0  0  0  0  0
  -26.0435  -26.7861   19.3817 C   0  0  0  0  0  0
  -24.9319  -27.6537   19.3648 C   0  0  0  0  0  0
  -23.6990  -29.7703   20.1322 C   0  0  0  0  0  0
  -25.4129  -36.2966   24.0309 C   0  0  1  0  0  0
  -20.5946  -28.3833   23.1121 C   0  0  2  0  0  0
  -20.6771  -26.9527   22.5307 C   0  0  0  0  0  0
  -19.5741  -26.6433   21.5127 C   0  0  0  0  0  0
  -18.1975  -26.7970   22.1619 C   0  0  0  0  0  0
  -19.1603  -28.8939   23.2823 C   0  0  0  0  0  0
  -18.9518  -30.1508   23.8925 C   0  0  0  0  0  0
  -17.6517  -30.6622   24.0579 C   0  0  0  0  0  0
  -25.9110  -34.9335   23.5024 C   0  0  0  0  0  0
  -16.5411  -29.9112   23.6336 C   0  0  0  0  0  0
  -16.7337  -28.6501   23.0391 C   0  0  0  0  0  0
  -26.4640  -31.6488   25.0630 C   0  0  0  0  0  0
  -25.3799  -31.3742   26.1339 C   0  0  0  0  0  0
  -27.0471  -30.2801   24.6345 C   0  0  0  0  0  0
  -27.6149  -32.4274   25.7472 C   0  0  0  0  0  0
  -27.5608  -37.1761   24.8502 C   0  0  0  0  0  0
  -21.4278  -29.3142   22.3487 N   0  0  0  0  0  0
  -26.4307  -37.3696   23.9441 N   0  0  0  0  0  0
  -24.7360  -30.9948   22.0842 N   0  0  0  0  0  0
  -23.4172  -28.8072   23.2945 O   0  0  0  0  0  0
  -28.1785  -25.8570   20.1711 O   0  0  0  0  0  0
  -26.5686  -34.8881   22.4614 O   0  0  0  0  0  0
  -23.5713  -32.1265   23.6841 O   0  0  0  0  0  0
  -29.4694  -19.1504   19.7274 C   0  0  0  0  0  0
  -29.2769  -20.5841   21.6680 C   0  0  0  0  0  0
  -29.7316  -18.1468   21.9131 C   0  0  0  0  0  0
  -29.2496  -20.5647   20.2637 C   0  0  0  0  0  0
  -29.7142  -17.8790   20.5241 C   0  0  0  0  0  0
  -29.5104  -19.4373   22.4573 C   0  0  0  0  0  0
  -28.0180  -23.0028   19.8878 C   0  0  0  0  0  0
  -26.7825  -22.2998   19.4216 C   0  0  0  0  0  0
  -28.1725  -21.8612   17.3047 C   0  0  0  0  0  0
  -27.6960  -24.4276   20.0735 C   0  0  0  0  0  0
  -26.8020  -21.6789   17.9956 C   0  0  0  0  0  0
  -29.4283  -21.8815   18.2012 C   0  0  0  0  0  0
  -29.0793  -21.9483   19.6342 N   0  0  0  0  0  0
  -29.7034  -16.3464   20.1342 N   0  0  0  0  0  0
  -25.7640  -22.1825   20.1152 O   0  0  0  0  0  0
  -28.2549  -21.9662   16.0738 O   0  0  0  0  0  0
  -29.5206  -19.5804   23.8055 F   0  0  0  0  0  0
  -31.4882  -12.8944   19.1938 H   0  0  0  0  0  0
  -30.4815  -11.8024   20.1061 H   0  0  0  0  0  0
  -29.9052  -11.6760   17.6686 H   0  0  0  0  0  0
  -29.6032  -13.3937   17.6231 H   0  0  0  0  0  0
  -28.0719  -11.2494   19.1141 H   0  0  0  0  0  0
  -27.4136  -12.2638   17.8598 H   0  0  0  0  0  0
  -27.5478  -14.2186   19.3099 H   0  0  0  0  0  0
  -28.8071  -12.4428   21.4454 H   0  0  0  0  0  0
  -28.3382  -14.1246   21.6760 H   0  0  0  0  0  0
  -25.2856   -9.5596   22.4756 H   0  0  0  0  0  0
  -23.9967   -7.4648   22.7514 H   0  0  0  0  0  0
  -21.0869   -8.8920   19.9004 H   0  0  0  0  0  0
  -22.3853  -10.9735   19.6153 H   0  0  0  0  0  0
  -21.2070   -7.6211   23.9822 H   0  0  0  0  0  0
  -21.1400   -6.0507   25.9099 H   0  0  0  0  0  0
  -22.0614   -2.7691   23.2753 H   0  0  0  0  0  0
  -22.3923  -12.0083   22.4919 H   0  0  0  0  0  0
  -21.1021  -13.1480   22.2381 H   0  0  0  0  0  0
  -24.6660  -15.8431   20.6116 H   0  0  0  0  0  0
  -26.2829  -15.6516   20.1526 H   0  0  0  0  0  0
  -26.7389  -32.5077   23.0835 H   0  0  0  0  0  0
  -25.0205  -33.9442   25.0257 H   0  0  0  0  0  0
  -22.7826  -31.2849   21.3528 H   0  0  0  0  0  0
  -23.3734  -35.9605   23.3281 H   0  0  0  0  0  0
  -24.3567  -36.8864   22.2023 H   0  0  0  0  0  0
  -23.7271  -37.6449   23.6642 H   0  0  0  0  0  0
  -26.2078  -31.3651   20.6189 H   0  0  0  0  0  0
  -26.8898  -30.6772   22.0586 H   0  0  0  0  0  0
  -28.0978  -28.6060   21.3588 H   0  0  0  0  0  0
  -25.9423  -25.8924   18.7848 H   0  0  0  0  0  0
  -24.0922  -27.3698   18.7455 H   0  0  0  0  0  0
  -23.8404  -30.5457   19.3782 H   0  0  0  0  0  0
  -22.8042  -29.2255   19.8116 H   0  0  0  0  0  0
  -25.1276  -36.1780   25.0790 H   0  0  0  0  0  0
  -21.0122  -28.3442   24.1196 H   0  0  0  0  0  0
  -20.5546  -26.2520   23.3568 H   0  0  0  0  0  0
  -21.6653  -26.7419   22.1195 H   0  0  0  0  0  0
  -19.6889  -25.6315   21.1217 H   0  0  0  0  0  0
  -19.6601  -27.3180   20.6598 H   0  0  0  0  0  0
  -17.4175  -26.6717   21.4094 H   0  0  0  0  0  0
  -18.0490  -26.0102   22.9025 H   0  0  0  0  0  0
  -19.7981  -30.7309   24.2314 H   0  0  0  0  0  0
  -17.5062  -31.6291   24.5207 H   0  0  0  0  0  0
  -15.5407  -30.3030   23.7592 H   0  0  0  0  0  0
  -15.8749  -28.0777   22.7139 H   0  0  0  0  0  0
  -24.6024  -30.7022   25.7688 H   0  0  0  0  0  0
  -24.8938  -32.2945   26.4576 H   0  0  0  0  0  0
  -25.8062  -30.9050   27.0225 H   0  0  0  0  0  0
  -26.3057  -29.6528   24.1380 H   0  0  0  0  0  0
  -27.4025  -29.7109   25.4950 H   0  0  0  0  0  0
  -27.9039  -30.3935   23.9708 H   0  0  0  0  0  0
  -27.2726  -33.3627   26.1927 H   0  0  0  0  0  0
  -28.4051  -32.6752   25.0376 H   0  0  0  0  0  0
  -28.0751  -31.8473   26.5504 H   0  0  0  0  0  0
  -28.2615  -38.0059   24.7502 H   0  0  0  0  0  0
  -28.1108  -36.2578   24.6357 H   0  0  0  0  0  0
  -27.2351  -37.1462   25.8913 H   0  0  0  0  0  0
  -20.9516  -29.8967   21.6743 H   0  0  0  0  0  0
  -26.0180  -38.2792   24.1326 H   0  0  0  0  0  0
  -29.4238  -19.0286   18.6559 H   0  0  0  0  0  0
  -29.1363  -21.5349   22.1652 H   0  0  0  0  0  0
  -29.8648  -17.3388   22.6118 H   0  0  0  0  0  0
  -26.6267  -24.5352   20.2028 H   0  0  0  0  0  0
  -26.0265  -22.1304   17.3715 H   0  0  0  0  0  0
  -26.6004  -20.6099   18.0499 H   0  0  0  0  0  0
  -30.0265  -22.7494   17.9319 H   0  0  0  0  0  0
  -30.0538  -21.0298   17.9378 H   0  0  0  0  0  0
  -28.7873  -16.0783   19.8114 H   0  0  0  0  0  0
  1 25  1  0  0  0
  1 30  2  0  0  0
  1 84  1  0  0  0
  2  3  1  0  0  0
  2 25  1  0  0  0
  2 88  1  0  0  0
  2 89  1  0  0  0
  3  4  1  0  0  0
  3 90  1  0  0  0
  3 91  1  0  0  0
  4  5  1  0  0  0
  4 92  1  0  0  0
  4 93  1  0  0  0
  5  6  1  0  0  0
  5 26  1  0  0  0
  5 94  1  0  0  0
  6 25  1  0  0  0
  6 95  1  0  0  0
  6 96  1  0  0  0
  7  8  2  0  0  0
  7 26  1  0  0  0
  7 29  1  0  0  0
  8  9  1  0  0  0
  8 22  1  0  0  0
  9 10  1  0  0  0
  9 27  2  0  0  0
 10 11  2  0  0  0
 10 15  1  0  0  0
 11 12  1  0  0  0
 11 97  1  0  0  0
 12 13  2  0  0  0
 12 98  1  0  0  0
 13 14  1  0  0  0
 13 31  1  0  0  0
 14 15  2  0  0  0
 14 99  1  0  0  0
 15100  1  0  0  0
 16 17  2  0  0  0
 16 21  1  0  0  0
 16 31  1  0  0  0
 17 18  1  0  0  0
 17101  1  0  0  0
 18 19  2  0  0  0
 18102  1  0  0  0
 19 20  1  0  0  0
 19 24  1  0  0  0
 20 21  2  0  0  0
 20103  1  0  0  0
 21 23  1  0  0  0
 22 28  1  0  0  0
 22 32  2  0  0  0
 26 27  1  0  0  0
 28104  1  0  0  0
 28105  1  0  0  0
 29106  1  0  0  0
 29107  1  0  0  0
 33 34  1  0  0  0
 33 66  1  0  0  0
 33 70  2  0  0  0
 34 36  1  0  0  0
 34 59  1  0  0  0
 34108  1  0  0  0
 35 44  2  0  0  0
 35 45  1  0  0  0
 35 68  1  0  0  0
 36 56  1  0  0  0
 36109  1  0  0  0
 37 39  1  0  0  0
 37 47  1  0  0  0
 37 66  1  0  0  0
 37110  1  0  0  0
 38 43  2  0  0  0
 38 46  1  0  0  0
 38 47  1  0  0  0
 39 64  1  0  0  0
 39 67  2  0  0  0
 40 52  1  0  0  0
 40 53  2  0  0  0
 40 58  1  0  0  0
 41111  1  0  0  0
 41112  1  0  0  0
 41113  1  0  0  0
 41 48  1  0  0  0
 42 43  1  0  0  0
 42 66  1  0  0  0
 42114  1  0  0  0
 42115  1  0  0  0
 43 44  1  0  0  0
 44116  1  0  0  0
 45 46  2  0  0  0
 45117  1  0  0  0
 46118  1  0  0  0
 47119  1  0  0  0
 47120  1  0  0  0
 48 56  1  0  0  0
 48 65  1  0  0  0
 48121  1  0  0  0
 49 50  1  0  0  0
 49 53  1  0  0  0
 49 64  1  0  0  0
 49122  1  0  0  0
 50 51  1  0  0  0
 50123  1  0  0  0
 50124  1  0  0  0
 51 52  1  0  0  0
 51125  1  0  0  0
 51126  1  0  0  0
 52127  1  0  0  0
 52128  1  0  0  0
 53 54  1  0  0  0
 54 55  2  0  0  0
 54129  1  0  0  0
 55 57  1  0  0  0
 55130  1  0  0  0
 56 69  2  0  0  0
 57 58  2  0  0  0
 57131  1  0  0  0
 58132  1  0  0  0
 59 60  1  0  0  0
 59 61  1  0  0  0
 59 62  1  0  0  0
 60133  1  0  0  0
 60134  1  0  0  0
 60135  1  0  0  0
 61136  1  0  0  0
 61137  1  0  0  0
 61138  1  0  0  0
 62139  1  0  0  0
 62140  1  0  0  0
 62141  1  0  0  0
 63 65  1  0  0  0
 63142  1  0  0  0
 63143  1  0  0  0
 63144  1  0  0  0
 64145  1  0  0  0
 65146  1  0  0  0
 68 80  1  0  0  0
 71 74  2  0  0  0
 71 75  1  0  0  0
 71147  1  0  0  0
 72 74  1  0  0  0
 72 76  2  0  0  0
 72148  1  0  0  0
 73 75  2  0  0  0
 73 76  1  0  0  0
 73149  1  0  0  0
 74 83  1  0  0  0
 75 84  1  0  0  0
 76 87  1  0  0  0
 77 78  1  0  0  0
 77 80  2  0  0  0
 77 83  1  0  0  0
 78 81  1  0  0  0
 78 85  2  0  0  0
 79 81  1  0  0  0
 79 82  1  0  0  0
 79 86  2  0  0  0
 80150  1  0  0  0
 81151  1  0  0  0
 81152  1  0  0  0
 82 83  1  0  0  0
 82153  1  0  0  0
 82154  1  0  0  0
 84155  1  0  0  0
M  ISO  4   1 100  68 101  80 101  84 100
M  END
> <chiral flag>
0

> <version>
0

> <s_m_source_file>
/data/baiqing/PycharmProjects/Reinvent-master-3.2/result/LINK_invent/BTK/process_docking_weight1_custom_product_contain_oxygen_bond_distance_aromatic_linkinvent_7_9_3/rearranged_h_0085.sdf

> <i_m_source_file_index>
37

> <r_mmod_Potential_Energy-OPLS-2005>
1147.88110351562

> <r_mmod_Stretch_Energy-OPLS-2005>
394.853363037109

> <r_mmod_Bend_Energy-OPLS-2005>
429.384704589844

> <r_mmod_Torsional_Energy-OPLS-2005>
351.10888671875

> <r_mmod_Improper_Torsional_Energy-OPLS-2005>
16.5388584136963

> <r_mmod_Van_der_Waal_Energy-OPLS-2005>
158.334808349609

> <r_mmod_Electrostatic_Energy-OPLS-2005>
-334.440338134766

> <r_mmod_Solvation_Energy-OPLS-2005>
-240.940948486328

> <b_mmod_Minimization_Converged-OPLS-2005>
0

> <r_mmod_RMS_Derivative-OPLS-2005>
8.96584510803223

$$$$
38
                    3D
 Structure written by MMmdl.
151159  0  0  1  0            999 V2000
  -30.6906  -14.5436   20.5184 C   0  0  0  0  0  0
  -30.4169  -12.3364   19.4421 C   0  0  0  0  0  0
  -29.4948  -12.4932   18.2154 C   0  0  0  0  0  0
  -28.0179  -12.3464   18.6291 C   0  0  0  0  0  0
  -27.6522  -13.2143   19.8630 C   0  0  2  0  0  0
  -28.6954  -13.0591   20.9924 C   0  0  0  0  0  0
  -25.2560  -13.8180   20.5685 C   0  0  0  0  0  0
  -24.1831  -13.0443   20.9204 C   0  0  0  0  0  0
  -24.6393  -11.6912   20.8751 C   0  0  0  0  0  0
  -23.9061  -10.4295   21.0414 C   0  0  0  0  0  0
  -24.3615   -9.4208   21.9189 C   0  0  0  0  0  0
  -23.6294   -8.2241   22.0755 C   0  0  0  0  0  0
  -22.4277   -8.0279   21.3543 C   0  0  0  0  0  0
  -21.9910   -9.0253   20.4647 C   0  0  0  0  0  0
  -22.7234  -10.2136   20.3061 C   0  0  0  0  0  0
  -21.6850   -6.0740   22.5282 C   0  0  0  0  0  0
  -21.4011   -6.5645   23.8216 C   0  0  0  0  0  0
  -21.3658   -5.6796   24.9177 C   0  0  0  0  0  0
  -21.6042   -4.3059   24.7226 C   0  0  0  0  0  0
  -21.8818   -3.8153   23.4348 C   0  0  0  0  0  0
  -21.9194   -4.6969   22.3405 C   0  0  0  0  0  0
  -22.7854  -13.5236   21.1859 C   0  0  0  0  0  0
  -22.1668   -4.2157   21.0983 F   0  0  0  0  0  0
  -21.5624   -3.4542   25.7739 F   0  0  0  0  0  0
  -30.0174  -13.3598   20.4248 N   0  0  0  0  0  0
  -26.2982  -12.9356   20.3322 N   0  0  0  0  0  0
  -25.9318  -11.6510   20.5765 N   0  0  0  0  0  0
  -22.0494  -12.8225   22.0410 N   0  0  0  0  0  0
  -25.4269  -15.1898   20.4069 N   0  0  0  0  0  0
  -31.8622  -14.6296   20.1391 O   0  0  0  0  0  0
  -21.6636   -6.8881   21.4243 O   0  0  0  0  0  0
  -22.3542  -14.5542   20.6706 O   0  0  0  0  0  0
  -24.6187  -31.8658   23.2076 C   0  0  0  0  0  0
  -25.9066  -32.4811   23.8389 C   0  0  1  0  0  0
  -27.2264  -27.3991   20.1074 C   0  0  0  0  0  0
  -25.5906  -33.8612   24.2318 N   0  0  0  0  0  0
  -23.4089  -30.4896   21.5483 C   0  0  2  0  0  0
  -24.8568  -28.9541   20.1112 C   0  0  0  0  0  0
  -22.7431  -29.4658   22.4970 C   0  0  0  0  0  0
  -18.0290  -28.1364   22.8494 C   0  0  0  0  0  0
  -24.1487  -36.7311   23.2639 C   0  0  0  0  0  0
  -25.9423  -30.8215   21.3664 C   0  0  0  0  0  0
  -26.0205  -29.4544   20.7113 C   0  0  0  0  0  0
  -27.2130  -28.6854   20.7044 C   0  0  0  0  0  0
  -26.0483  -26.9276   19.4913 C   0  0  0  0  0  0
  -24.8673  -27.6919   19.4945 C   0  0  0  0  0  0
  -23.6195  -29.8234   20.1629 C   0  0  0  0  0  0
  -25.4108  -36.3108   24.0337 C   0  0  1  0  0  0
  -20.5882  -28.3669   23.1306 C   0  0  2  0  0  0
  -20.6785  -26.9407   22.5396 C   0  0  0  0  0  0
  -19.5752  -26.6388   21.5205 C   0  0  0  0  0  0
  -18.1937  -26.7911   22.1627 C   0  0  0  0  0  0
  -19.1536  -28.8828   23.2902 C   0  0  0  0  0  0
  -18.9459  -30.1434   23.8909 C   0  0  0  0  0  0
  -17.6460  -30.6569   24.0561 C   0  0  0  0  0  0
  -25.9037  -34.9473   23.5123 C   0  0  0  0  0  0
  -16.5356  -29.9069   23.6320 C   0  0  0  0  0  0
  -16.7279  -28.6483   23.0351 C   0  0  0  0  0  0
  -26.4476  -31.6597   25.0728 C   0  0  0  0  0  0
  -25.3734  -31.3705   26.1467 C   0  0  0  0  0  0
  -27.0312  -30.3037   24.6121 C   0  0  0  0  0  0
  -27.6052  -32.4316   25.7488 C   0  0  0  0  0  0
  -27.5580  -37.1812   24.8466 C   0  0  0  0  0  0
  -21.4151  -29.3058   22.3722 N   0  0  0  0  0  0
  -26.4295  -37.3792   23.9407 N   0  0  0  0  0  0
  -24.6749  -31.0737   22.0988 N   0  0  0  0  0  0
  -23.4189  -28.8195   23.3022 O   0  0  0  0  0  0
  -28.3369  -26.5726   20.1332 O   0  0  0  0  0  0
  -26.5602  -34.8928   22.4687 O   0  0  0  0  0  0
  -23.5369  -32.1422   23.7451 O   0  0  0  0  0  0
  -27.0654  -18.7001   21.9071 C   0  0  0  0  0  0
  -28.0272  -17.6939   21.6921 C   0  0  0  0  0  0
  -27.3270  -20.0358   21.5454 C   0  0  0  0  0  0
  -29.5146  -19.3702   20.7285 C   0  0  0  0  0  0
  -29.2664  -18.0069   21.0890 C   0  0  0  0  0  0
  -28.5641  -20.4059   20.9649 C   0  0  0  0  0  0
  -28.6670  -24.1499   20.3628 C   0  0  0  0  0  0
  -28.1433  -25.3442   20.7531 C   0  0  0  0  0  0
  -30.3327  -16.9379   20.8849 C   0  0  0  0  0  0
  -28.3471  -22.9206   21.1087 C   0  0  0  0  0  0
  -28.8376  -21.7723   20.5683 N   0  0  0  0  0  0
  -29.9434  -15.6322   20.8507 N   0  0  0  0  0  0
  -31.4986  -17.3180   20.7273 O   0  0  0  0  0  0
  -27.7024  -22.9237   22.1618 O   0  0  0  0  0  0
  -31.4619  -12.4232   19.1395 H   0  0  0  0  0  0
  -30.3159  -11.3394   19.8744 H   0  0  0  0  0  0
  -29.7464  -11.7505   17.4566 H   0  0  0  0  0  0
  -29.6521  -13.4695   17.7541 H   0  0  0  0  0  0
  -27.8437  -11.2935   18.8528 H   0  0  0  0  0  0
  -27.3640  -12.5900   17.7911 H   0  0  0  0  0  0
  -27.6762  -14.2508   19.5267 H   0  0  0  0  0  0
  -28.6831  -12.0418   21.3876 H   0  0  0  0  0  0
  -28.4574  -13.7107   21.8346 H   0  0  0  0  0  0
  -25.2757   -9.5686   22.4764 H   0  0  0  0  0  0
  -24.0003   -7.4630   22.7471 H   0  0  0  0  0  0
  -21.0842   -8.8771   19.8950 H   0  0  0  0  0  0
  -22.3692  -10.9677   19.6173 H   0  0  0  0  0  0
  -21.2002   -7.6154   23.9722 H   0  0  0  0  0  0
  -21.1480   -6.0527   25.9080 H   0  0  0  0  0  0
  -22.0597   -2.7617   23.2847 H   0  0  0  0  0  0
  -22.4102  -11.9884   22.4797 H   0  0  0  0  0  0
  -21.1116  -13.1259   22.2612 H   0  0  0  0  0  0
  -24.6498  -15.8352   20.4949 H   0  0  0  0  0  0
  -26.2566  -15.6259   20.0269 H   0  0  0  0  0  0
  -26.7137  -32.5512   23.1154 H   0  0  0  0  0  0
  -25.0056  -33.9766   25.0460 H   0  0  0  0  0  0
  -22.6998  -31.3083   21.4084 H   0  0  0  0  0  0
  -23.3746  -35.9647   23.3308 H   0  0  0  0  0  0
  -24.3580  -36.8918   22.2051 H   0  0  0  0  0  0
  -23.7242  -37.6519   23.6647 H   0  0  0  0  0  0
  -26.0607  -31.5875   20.5989 H   0  0  0  0  0  0
  -26.8271  -30.8734   21.9891 H   0  0  0  0  0  0
  -28.1090  -29.0604   21.1786 H   0  0  0  0  0  0
  -26.0400  -25.9531   19.0239 H   0  0  0  0  0  0
  -23.9740  -27.3014   19.0262 H   0  0  0  0  0  0
  -23.7293  -30.5990   19.4042 H   0  0  0  0  0  0
  -22.7426  -29.2456   19.8659 H   0  0  0  0  0  0
  -25.1287  -36.1972   25.0830 H   0  0  0  0  0  0
  -20.9986  -28.3220   24.1419 H   0  0  0  0  0  0
  -21.6651  -26.7460   22.1169 H   0  0  0  0  0  0
  -20.5709  -26.2266   23.3574 H   0  0  0  0  0  0
  -19.6915  -25.6308   21.1213 H   0  0  0  0  0  0
  -19.6673  -27.3220   20.6751 H   0  0  0  0  0  0
  -17.4205  -26.6655   21.4027 H   0  0  0  0  0  0
  -18.0350  -26.0049   22.9024 H   0  0  0  0  0  0
  -19.7934  -30.7247   24.2283 H   0  0  0  0  0  0
  -17.5012  -31.6255   24.5148 H   0  0  0  0  0  0
  -15.5355  -30.2971   23.7628 H   0  0  0  0  0  0
  -15.8683  -28.0802   22.7060 H   0  0  0  0  0  0
  -24.5909  -30.7053   25.7793 H   0  0  0  0  0  0
  -24.8924  -32.2863   26.4916 H   0  0  0  0  0  0
  -25.8080  -30.8869   27.0225 H   0  0  0  0  0  0
  -26.2865  -29.6797   24.1164 H   0  0  0  0  0  0
  -27.4064  -29.7274   25.4587 H   0  0  0  0  0  0
  -27.8708  -30.4348   23.9290 H   0  0  0  0  0  0
  -27.2672  -33.3606   26.2089 H   0  0  0  0  0  0
  -28.3846  -32.6890   25.0304 H   0  0  0  0  0  0
  -28.0737  -31.8428   26.5383 H   0  0  0  0  0  0
  -28.2609  -38.0099   24.7512 H   0  0  0  0  0  0
  -28.1069  -36.2635   24.6298 H   0  0  0  0  0  0
  -27.2303  -37.1468   25.8871 H   0  0  0  0  0  0
  -20.9311  -29.8783   21.6947 H   0  0  0  0  0  0
  -26.0186  -38.2872   24.1400 H   0  0  0  0  0  0
  -26.1157  -18.4465   22.3583 H   0  0  0  0  0  0
  -27.7968  -16.6842   22.0031 H   0  0  0  0  0  0
  -26.5515  -20.7681   21.7180 H   0  0  0  0  0  0
  -30.4629  -19.6249   20.2760 H   0  0  0  0  0  0
  -29.3102  -24.1080   19.4962 H   0  0  0  0  0  0
  -27.4949  -25.4351   21.6162 H   0  0  0  0  0  0
  -29.4729  -21.8914   19.7914 H   0  0  0  0  0  0
  -28.9720  -15.4603   21.0380 H   0  0  0  0  0  0
  1 25  1  0  0  0
  1 30  2  0  0  0
  1 82  1  0  0  0
  2  3  1  0  0  0
  2 25  1  0  0  0
  2 85  1  0  0  0
  2 86  1  0  0  0
  3  4  1  0  0  0
  3 87  1  0  0  0
  3 88  1  0  0  0
  4  5  1  0  0  0
  4 89  1  0  0  0
  4 90  1  0  0  0
  5  6  1  0  0  0
  5 26  1  0  0  0
  5 91  1  0  0  0
  6 25  1  0  0  0
  6 92  1  0  0  0
  6 93  1  0  0  0
  7  8  2  0  0  0
  7 26  1  0  0  0
  7 29  1  0  0  0
  8  9  1  0  0  0
  8 22  1  0  0  0
  9 10  1  0  0  0
  9 27  2  0  0  0
 10 11  2  0  0  0
 10 15  1  0  0  0
 11 12  1  0  0  0
 11 94  1  0  0  0
 12 13  2  0  0  0
 12 95  1  0  0  0
 13 14  1  0  0  0
 13 31  1  0  0  0
 14 15  2  0  0  0
 14 96  1  0  0  0
 15 97  1  0  0  0
 16 17  2  0  0  0
 16 21  1  0  0  0
 16 31  1  0  0  0
 17 18  1  0  0  0
 17 98  1  0  0  0
 18 19  2  0  0  0
 18 99  1  0  0  0
 19 20  1  0  0  0
 19 24  1  0  0  0
 20 21  2  0  0  0
 20100  1  0  0  0
 21 23  1  0  0  0
 22 28  1  0  0  0
 22 32  2  0  0  0
 26 27  1  0  0  0
 28101  1  0  0  0
 28102  1  0  0  0
 29103  1  0  0  0
 29104  1  0  0  0
 33 34  1  0  0  0
 33 66  1  0  0  0
 33 70  2  0  0  0
 34 36  1  0  0  0
 34 59  1  0  0  0
 34105  1  0  0  0
 35 44  2  0  0  0
 35 45  1  0  0  0
 35 68  1  0  0  0
 36 56  1  0  0  0
 36106  1  0  0  0
 37 39  1  0  0  0
 37 47  1  0  0  0
 37 66  1  0  0  0
 37107  1  0  0  0
 38 43  2  0  0  0
 38 46  1  0  0  0
 38 47  1  0  0  0
 39 64  1  0  0  0
 39 67  2  0  0  0
 40 52  1  0  0  0
 40 53  2  0  0  0
 40 58  1  0  0  0
 41108  1  0  0  0
 41109  1  0  0  0
 41110  1  0  0  0
 41 48  1  0  0  0
 42 43  1  0  0  0
 42 66  1  0  0  0
 42111  1  0  0  0
 42112  1  0  0  0
 43 44  1  0  0  0
 44113  1  0  0  0
 45 46  2  0  0  0
 45114  1  0  0  0
 46115  1  0  0  0
 47116  1  0  0  0
 47117  1  0  0  0
 48 56  1  0  0  0
 48 65  1  0  0  0
 48118  1  0  0  0
 49 50  1  0  0  0
 49 53  1  0  0  0
 49 64  1  0  0  0
 49119  1  0  0  0
 50 51  1  0  0  0
 50120  1  0  0  0
 50121  1  0  0  0
 51 52  1  0  0  0
 51122  1  0  0  0
 51123  1  0  0  0
 52124  1  0  0  0
 52125  1  0  0  0
 53 54  1  0  0  0
 54 55  2  0  0  0
 54126  1  0  0  0
 55 57  1  0  0  0
 55127  1  0  0  0
 56 69  2  0  0  0
 57 58  2  0  0  0
 57128  1  0  0  0
 58129  1  0  0  0
 59 60  1  0  0  0
 59 61  1  0  0  0
 59 62  1  0  0  0
 60130  1  0  0  0
 60131  1  0  0  0
 60132  1  0  0  0
 61133  1  0  0  0
 61134  1  0  0  0
 61135  1  0  0  0
 62136  1  0  0  0
 62137  1  0  0  0
 62138  1  0  0  0
 63 65  1  0  0  0
 63139  1  0  0  0
 63140  1  0  0  0
 63141  1  0  0  0
 64142  1  0  0  0
 65143  1  0  0  0
 68 78  1  0  0  0
 71 72  2  0  0  0
 71 73  1  0  0  0
 71144  1  0  0  0
 72 75  1  0  0  0
 72145  1  0  0  0
 73 76  2  0  0  0
 73146  1  0  0  0
 74 75  2  0  0  0
 74 76  1  0  0  0
 74147  1  0  0  0
 75 79  1  0  0  0
 76 81  1  0  0  0
 77 78  2  0  0  0
 77 80  1  0  0  0
 77148  1  0  0  0
 78149  1  0  0  0
 79 82  1  0  0  0
 79 83  2  0  0  0
 80 81  1  0  0  0
 80 84  2  0  0  0
 81150  1  0  0  0
 82151  1  0  0  0
M  ISO  4   1 100  68 101  78 101  82 100
M  END
> <chiral flag>
0

> <version>
0

> <s_m_source_file>
/data/baiqing/PycharmProjects/Reinvent-master-3.2/result/LINK_invent/BTK/process_docking_weight1_custom_product_contain_oxygen_bond_distance_aromatic_linkinvent_7_9_3/rearranged_h_0085.sdf

> <i_m_source_file_index>
38

> <r_mmod_Potential_Energy-OPLS-2005>
-149.643798828125

> <r_mmod_Stretch_Energy-OPLS-2005>
49.2140274047852

> <r_mmod_Bend_Energy-OPLS-2005>
100.441253662109

> <r_mmod_Torsional_Energy-OPLS-2005>
230.571594238281

> <r_mmod_Improper_Torsional_Energy-OPLS-2005>
5.04714965820312

> <r_mmod_Van_der_Waal_Energy-OPLS-2005>
161.360702514648

> <r_mmod_Electrostatic_Energy-OPLS-2005>
-481.779266357422

> <r_mmod_Solvation_Energy-OPLS-2005>
-240.564544677734

> <b_mmod_Minimization_Converged-OPLS-2005>
0

> <r_mmod_RMS_Derivative-OPLS-2005>
0.726689279079437

$$$$
39
                    3D
 Structure written by MMmdl.
156165  0  0  1  0            999 V2000
  -30.6231  -14.7807   20.4318 C   0  0  0  0  0  0
  -30.4278  -12.4712   19.4673 C   0  0  0  0  0  0
  -29.5026  -12.4975   18.2311 C   0  0  0  0  0  0
  -28.0283  -12.3375   18.6493 C   0  0  0  0  0  0
  -27.6367  -13.2444   19.8456 C   0  0  2  0  0  0
  -28.6929  -13.2013   20.9712 C   0  0  0  0  0  0
  -25.2500  -13.8228   20.5739 C   0  0  0  0  0  0
  -24.1825  -13.0431   20.9250 C   0  0  0  0  0  0
  -24.6457  -11.6930   20.8814 C   0  0  0  0  0  0
  -23.9140  -10.4296   21.0464 C   0  0  0  0  0  0
  -24.3674   -9.4199   21.9225 C   0  0  0  0  0  0
  -23.6326   -8.2246   22.0777 C   0  0  0  0  0  0
  -22.4313   -8.0309   21.3544 C   0  0  0  0  0  0
  -21.9971   -9.0293   20.4644 C   0  0  0  0  0  0
  -22.7332  -10.2158   20.3088 C   0  0  0  0  0  0
  -21.6839   -6.0780   22.5304 C   0  0  0  0  0  0
  -21.4004   -6.5669   23.8236 C   0  0  0  0  0  0
  -21.3650   -5.6808   24.9185 C   0  0  0  0  0  0
  -21.6047   -4.3071   24.7228 C   0  0  0  0  0  0
  -21.8820   -3.8180   23.4340 C   0  0  0  0  0  0
  -21.9187   -4.7011   22.3405 C   0  0  0  0  0  0
  -22.7830  -13.5181   21.1871 C   0  0  0  0  0  0
  -22.1654   -4.2193   21.0972 F   0  0  0  0  0  0
  -21.5626   -3.4544   25.7722 F   0  0  0  0  0  0
  -29.9819  -13.5597   20.3705 N   0  0  0  0  0  0
  -26.2935  -12.9465   20.3325 N   0  0  0  0  0  0
  -25.9385  -11.6606   20.5832 N   0  0  0  0  0  0
  -22.0473  -12.8141   22.0405 N   0  0  0  0  0  0
  -25.4113  -15.1973   20.4167 N   0  0  0  0  0  0
  -31.8294  -14.8277   20.1700 O   0  0  0  0  0  0
  -21.6657   -6.8926   21.4263 O   0  0  0  0  0  0
  -22.3489  -14.5466   20.6713 O   0  0  0  0  0  0
  -24.6343  -31.8511   23.1970 C   0  0  0  0  0  0
  -25.9132  -32.4744   23.8352 C   0  0  1  0  0  0
  -27.2304  -27.2390   20.1308 C   0  0  0  0  0  0
  -25.5930  -33.8552   24.2252 N   0  0  0  0  0  0
  -23.4364  -30.4696   21.5396 C   0  0  2  0  0  0
  -24.8895  -28.9043   20.1221 C   0  0  0  0  0  0
  -22.7534  -29.4578   22.4913 C   0  0  0  0  0  0
  -18.0307  -28.1404   22.8505 C   0  0  0  0  0  0
  -24.1489  -36.7268   23.2647 C   0  0  0  0  0  0
  -25.9842  -30.7563   21.3823 C   0  0  0  0  0  0
  -26.0626  -29.3743   20.7260 C   0  0  0  0  0  0
  -27.2414  -28.5560   20.7139 C   0  0  0  0  0  0
  -26.0298  -26.8308   19.5187 C   0  0  0  0  0  0
  -24.8755  -27.6400   19.5127 C   0  0  0  0  0  0
  -23.6612  -29.7926   20.1619 C   0  0  0  0  0  0
  -25.4126  -36.3068   24.0312 C   0  0  1  0  0  0
  -20.5920  -28.3733   23.1268 C   0  0  2  0  0  0
  -20.6784  -26.9456   22.5413 C   0  0  0  0  0  0
  -19.5747  -26.6403   21.5231 C   0  0  0  0  0  0
  -18.1926  -26.7958   22.1634 C   0  0  0  0  0  0
  -19.1573  -28.8901   23.2866 C   0  0  0  0  0  0
  -18.9462  -30.1488   23.8899 C   0  0  0  0  0  0
  -17.6459  -30.6602   24.0573 C   0  0  0  0  0  0
  -25.9057  -34.9423   23.5071 C   0  0  0  0  0  0
  -16.5362  -29.9098   23.6335 C   0  0  0  0  0  0
  -16.7291  -28.6512   23.0388 C   0  0  0  0  0  0
  -26.4518  -31.6594   25.0760 C   0  0  0  0  0  0
  -25.3708  -31.3726   26.1451 C   0  0  0  0  0  0
  -27.0412  -30.3013   24.6286 C   0  0  0  0  0  0
  -27.6064  -32.4375   25.7537 C   0  0  0  0  0  0
  -27.5575  -37.1778   24.8457 C   0  0  0  0  0  0
  -21.4253  -29.3036   22.3637 N   0  0  0  0  0  0
  -26.4294  -37.3756   23.9400 N   0  0  0  0  0  0
  -24.7038  -31.0459   22.0947 N   0  0  0  0  0  0
  -23.4198  -28.8124   23.3051 O   0  0  0  0  0  0
  -28.3110  -26.3229   20.0855 O   0  0  0  0  0  0
  -26.5641  -34.8890   22.4640 O   0  0  0  0  0  0
  -23.5487  -32.1380   23.7200 O   0  0  0  0  0  0
  -31.9506  -18.9831   21.5194 C   0  0  0  0  0  0
  -31.1449  -20.0953   21.2043 C   0  0  0  0  0  0
  -31.5234  -17.6685   21.2660 C   0  0  0  0  0  0
  -27.2619  -22.6503   20.4024 C   0  0  0  0  0  0
  -29.4719  -18.5791   20.3259 C   0  0  0  0  0  0
  -28.3785  -23.5337   20.4902 C   0  0  0  0  0  0
  -29.8759  -19.9748   20.5871 C   0  0  0  0  0  0
  -30.2731  -17.3938   20.6649 C   0  0  0  0  0  0
  -29.4674  -22.6498   20.3290 C   0  0  0  0  0  0
  -27.6836  -21.3427   20.3830 C   0  0  0  0  0  0
  -30.8958  -23.0685   20.1373 C   0  0  0  0  0  0
  -28.2434  -25.0874   20.9410 C   0  0  0  0  0  0
  -29.0733  -21.2475   20.4061 N   0  0  0  0  0  0
  -29.8663  -15.9561   20.5127 N   0  0  0  0  0  0
  -26.9038  -20.2277   20.4176 O   0  0  0  0  0  0
  -31.4681  -12.5852   19.1526 H   0  0  0  0  0  0
  -30.3761  -11.5069   19.9763 H   0  0  0  0  0  0
  -29.7723  -11.7067   17.5304 H   0  0  0  0  0  0
  -29.6350  -13.4402   17.7001 H   0  0  0  0  0  0
  -27.8733  -11.2917   18.9148 H   0  0  0  0  0  0
  -27.3752  -12.5358   17.8001 H   0  0  0  0  0  0
  -27.6178  -14.2624   19.4543 H   0  0  0  0  0  0
  -28.7448  -12.2101   21.4216 H   0  0  0  0  0  0
  -28.4400  -13.8893   21.7784 H   0  0  0  0  0  0
  -25.2815   -9.5625   22.4806 H   0  0  0  0  0  0
  -24.0010   -7.4616   22.7513 H   0  0  0  0  0  0
  -21.0901   -8.8846   19.8935 H   0  0  0  0  0  0
  -22.3833  -10.9715   19.6202 H   0  0  0  0  0  0
  -21.2007   -7.6180   23.9720 H   0  0  0  0  0  0
  -21.1459   -6.0557   25.9076 H   0  0  0  0  0  0
  -22.0610   -2.7637   23.2831 H   0  0  0  0  0  0
  -22.4104  -11.9777   22.4760 H   0  0  0  0  0  0
  -21.1101  -13.1166   22.2658 H   0  0  0  0  0  0
  -24.6404  -15.8445   20.5429 H   0  0  0  0  0  0
  -26.2467  -15.6468   20.0639 H   0  0  0  0  0  0
  -26.7199  -32.5391   23.1116 H   0  0  0  0  0  0
  -25.0074  -33.9714   25.0395 H   0  0  0  0  0  0
  -22.7312  -31.2879   21.3831 H   0  0  0  0  0  0
  -23.3770  -35.9575   23.3295 H   0  0  0  0  0  0
  -24.3566  -36.8924   22.2062 H   0  0  0  0  0  0
  -23.7215  -37.6428   23.6717 H   0  0  0  0  0  0
  -26.1287  -31.5172   20.6145 H   0  0  0  0  0  0
  -26.8563  -30.8082   22.0226 H   0  0  0  0  0  0
  -28.1484  -28.9164   21.1795 H   0  0  0  0  0  0
  -25.9819  -25.8551   19.0525 H   0  0  0  0  0  0
  -23.9722  -27.2724   19.0477 H   0  0  0  0  0  0
  -23.7845  -30.5622   19.3989 H   0  0  0  0  0  0
  -22.7834  -29.2188   19.8605 H   0  0  0  0  0  0
  -25.1310  -36.1906   25.0804 H   0  0  0  0  0  0
  -20.9979  -28.3320   24.1400 H   0  0  0  0  0  0
  -20.5734  -26.2346   23.3626 H   0  0  0  0  0  0
  -21.6643  -26.7476   22.1181 H   0  0  0  0  0  0
  -19.6904  -25.6305   21.1283 H   0  0  0  0  0  0
  -19.6691  -27.3202   20.6752 H   0  0  0  0  0  0
  -17.4205  -26.6766   21.4027 H   0  0  0  0  0  0
  -18.0285  -26.0109   22.9034 H   0  0  0  0  0  0
  -19.7927  -30.7317   24.2284 H   0  0  0  0  0  0
  -17.5002  -31.6287   24.5174 H   0  0  0  0  0  0
  -15.5355  -30.2997   23.7655 H   0  0  0  0  0  0
  -15.8695  -28.0807   22.7123 H   0  0  0  0  0  0
  -24.5905  -30.7100   25.7709 H   0  0  0  0  0  0
  -24.8918  -32.2905   26.4857 H   0  0  0  0  0  0
  -25.8011  -30.8889   27.0228 H   0  0  0  0  0  0
  -26.3038  -29.6731   24.1301 H   0  0  0  0  0  0
  -27.4059  -29.7326   25.4844 H   0  0  0  0  0  0
  -27.8927  -30.4315   23.9604 H   0  0  0  0  0  0
  -27.2670  -33.3706   26.2047 H   0  0  0  0  0  0
  -28.3902  -32.6867   25.0370 H   0  0  0  0  0  0
  -28.0704  -31.8542   26.5502 H   0  0  0  0  0  0
  -28.2548  -38.0112   24.7526 H   0  0  0  0  0  0
  -28.1113  -36.2621   24.6297 H   0  0  0  0  0  0
  -27.2280  -37.1430   25.8854 H   0  0  0  0  0  0
  -20.9471  -29.8743   21.6809 H   0  0  0  0  0  0
  -26.0171  -38.2814   24.1427 H   0  0  0  0  0  0
  -32.9079  -19.1404   21.9995 H   0  0  0  0  0  0
  -31.5271  -21.0559   21.5025 H   0  0  0  0  0  0
  -32.1741  -16.8640   21.5766 H   0  0  0  0  0  0
  -26.2259  -22.9510   20.4611 H   0  0  0  0  0  0
  -28.5060  -18.4090   19.8712 H   0  0  0  0  0  0
  -30.9485  -23.9827   19.5468 H   0  0  0  0  0  0
  -31.4629  -22.3188   19.5853 H   0  0  0  0  0  0
  -31.3959  -23.2569   21.0887 H   0  0  0  0  0  0
  -29.0135  -25.2308   21.6998 H   0  0  0  0  0  0
  -27.3059  -25.1335   21.4986 H   0  0  0  0  0  0
  -28.8723  -15.7947   20.4792 H   0  0  0  0  0  0
  -25.9976  -20.5101   20.5014 H   0  0  0  0  0  0
  1 25  1  0  0  0
  1 30  2  0  0  0
  1 84  1  0  0  0
  2  3  1  0  0  0
  2 25  1  0  0  0
  2 86  1  0  0  0
  2 87  1  0  0  0
  3  4  1  0  0  0
  3 88  1  0  0  0
  3 89  1  0  0  0
  4  5  1  0  0  0
  4 90  1  0  0  0
  4 91  1  0  0  0
  5  6  1  0  0  0
  5 26  1  0  0  0
  5 92  1  0  0  0
  6 25  1  0  0  0
  6 93  1  0  0  0
  6 94  1  0  0  0
  7  8  2  0  0  0
  7 26  1  0  0  0
  7 29  1  0  0  0
  8  9  1  0  0  0
  8 22  1  0  0  0
  9 10  1  0  0  0
  9 27  2  0  0  0
 10 11  2  0  0  0
 10 15  1  0  0  0
 11 12  1  0  0  0
 11 95  1  0  0  0
 12 13  2  0  0  0
 12 96  1  0  0  0
 13 14  1  0  0  0
 13 31  1  0  0  0
 14 15  2  0  0  0
 14 97  1  0  0  0
 15 98  1  0  0  0
 16 17  2  0  0  0
 16 21  1  0  0  0
 16 31  1  0  0  0
 17 18  1  0  0  0
 17 99  1  0  0  0
 18 19  2  0  0  0
 18100  1  0  0  0
 19 20  1  0  0  0
 19 24  1  0  0  0
 20 21  2  0  0  0
 20101  1  0  0  0
 21 23  1  0  0  0
 22 28  1  0  0  0
 22 32  2  0  0  0
 26 27  1  0  0  0
 28102  1  0  0  0
 28103  1  0  0  0
 29104  1  0  0  0
 29105  1  0  0  0
 33 34  1  0  0  0
 33 66  1  0  0  0
 33 70  2  0  0  0
 34 36  1  0  0  0
 34 59  1  0  0  0
 34106  1  0  0  0
 35 44  2  0  0  0
 35 45  1  0  0  0
 35 68  1  0  0  0
 36 56  1  0  0  0
 36107  1  0  0  0
 37 39  1  0  0  0
 37 47  1  0  0  0
 37 66  1  0  0  0
 37108  1  0  0  0
 38 43  2  0  0  0
 38 46  1  0  0  0
 38 47  1  0  0  0
 39 64  1  0  0  0
 39 67  2  0  0  0
 40 52  1  0  0  0
 40 53  2  0  0  0
 40 58  1  0  0  0
 41109  1  0  0  0
 41110  1  0  0  0
 41111  1  0  0  0
 41 48  1  0  0  0
 42 43  1  0  0  0
 42 66  1  0  0  0
 42112  1  0  0  0
 42113  1  0  0  0
 43 44  1  0  0  0
 44114  1  0  0  0
 45 46  2  0  0  0
 45115  1  0  0  0
 46116  1  0  0  0
 47117  1  0  0  0
 47118  1  0  0  0
 48 56  1  0  0  0
 48 65  1  0  0  0
 48119  1  0  0  0
 49 50  1  0  0  0
 49 53  1  0  0  0
 49 64  1  0  0  0
 49120  1  0  0  0
 50 51  1  0  0  0
 50121  1  0  0  0
 50122  1  0  0  0
 51 52  1  0  0  0
 51123  1  0  0  0
 51124  1  0  0  0
 52125  1  0  0  0
 52126  1  0  0  0
 53 54  1  0  0  0
 54 55  2  0  0  0
 54127  1  0  0  0
 55 57  1  0  0  0
 55128  1  0  0  0
 56 69  2  0  0  0
 57 58  2  0  0  0
 57129  1  0  0  0
 58130  1  0  0  0
 59 60  1  0  0  0
 59 61  1  0  0  0
 59 62  1  0  0  0
 60131  1  0  0  0
 60132  1  0  0  0
 60133  1  0  0  0
 61134  1  0  0  0
 61135  1  0  0  0
 61136  1  0  0  0
 62137  1  0  0  0
 62138  1  0  0  0
 62139  1  0  0  0
 63 65  1  0  0  0
 63140  1  0  0  0
 63141  1  0  0  0
 63142  1  0  0  0
 64143  1  0  0  0
 65144  1  0  0  0
 68 82  1  0  0  0
 71 72  2  0  0  0
 71 73  1  0  0  0
 71145  1  0  0  0
 72 77  1  0  0  0
 72146  1  0  0  0
 73 78  2  0  0  0
 73147  1  0  0  0
 74 76  1  0  0  0
 74 80  2  0  0  0
 74148  1  0  0  0
 75 77  2  0  0  0
 75 78  1  0  0  0
 75149  1  0  0  0
 76 79  2  0  0  0
 76 82  1  0  0  0
 77 83  1  0  0  0
 78 84  1  0  0  0
 79 81  1  0  0  0
 79 83  1  0  0  0
 80 83  1  0  0  0
 80 85  1  0  0  0
 81150  1  0  0  0
 81151  1  0  0  0
 81152  1  0  0  0
 82153  1  0  0  0
 82154  1  0  0  0
 84155  1  0  0  0
 85156  1  0  0  0
M  ISO  4   1 100  68 101  82 101  84 100
M  END
> <chiral flag>
0

> <version>
0

> <s_m_source_file>
/data/baiqing/PycharmProjects/Reinvent-master-3.2/result/LINK_invent/BTK/process_docking_weight1_custom_product_contain_oxygen_bond_distance_aromatic_linkinvent_7_9_3/rearranged_h_0085.sdf

> <i_m_source_file_index>
39

> <r_mmod_Potential_Energy-OPLS-2005>
297.580627441406

> <r_mmod_Stretch_Energy-OPLS-2005>
156.443374633789

> <r_mmod_Bend_Energy-OPLS-2005>
195.139801025391

> <r_mmod_Torsional_Energy-OPLS-2005>
277.431365966797

> <r_mmod_Improper_Torsional_Energy-OPLS-2005>
9.12706279754639

> <r_mmod_Van_der_Waal_Energy-OPLS-2005>
137.420333862305

> <r_mmod_Electrostatic_Energy-OPLS-2005>
-362.141021728516

> <r_mmod_Solvation_Energy-OPLS-2005>
-216.519805908203

> <b_mmod_Minimization_Converged-OPLS-2005>
0

> <r_mmod_RMS_Derivative-OPLS-2005>
4.597815990448

$$$$
40
                    3D
 Structure written by MMmdl.
150159  0  0  1  0            999 V2000
  -30.7247  -14.8153   20.4630 C   0  0  0  0  0  0
  -30.3949  -12.5342   19.4691 C   0  0  0  0  0  0
  -29.4849  -12.4954   18.2297 C   0  0  0  0  0  0
  -28.0290  -12.2817   18.6701 C   0  0  0  0  0  0
  -27.6155  -13.2353   19.8201 C   0  0  2  0  0  0
  -28.6683  -13.3192   20.9491 C   0  0  0  0  0  0
  -25.2452  -13.8193   20.5759 C   0  0  0  0  0  0
  -24.1745  -13.0432   20.9229 C   0  0  0  0  0  0
  -24.6343  -11.6914   20.8755 C   0  0  0  0  0  0
  -23.9038  -10.4288   21.0407 C   0  0  0  0  0  0
  -24.3596   -9.4207   21.9185 C   0  0  0  0  0  0
  -23.6275   -8.2240   22.0752 C   0  0  0  0  0  0
  -22.4262   -8.0275   21.3540 C   0  0  0  0  0  0
  -21.9891   -9.0248   20.4642 C   0  0  0  0  0  0
  -22.7211  -10.2126   20.3056 C   0  0  0  0  0  0
  -21.6851   -6.0727   22.5274 C   0  0  0  0  0  0
  -21.4017   -6.5632   23.8209 C   0  0  0  0  0  0
  -21.3664   -5.6784   24.9171 C   0  0  0  0  0  0
  -21.6046   -4.3047   24.7223 C   0  0  0  0  0  0
  -21.8816   -3.8138   23.4343 C   0  0  0  0  0  0
  -21.9188   -4.6954   22.3398 C   0  0  0  0  0  0
  -22.7776  -13.5215   21.1894 C   0  0  0  0  0  0
  -22.1656   -4.2140   21.0975 F   0  0  0  0  0  0
  -21.5629   -3.4531   25.7739 F   0  0  0  0  0  0
  -29.9432  -13.6765   20.3168 N   0  0  0  0  0  0
  -26.2829  -12.9391   20.3242 N   0  0  0  0  0  0
  -25.9268  -11.6533   20.5756 N   0  0  0  0  0  0
  -22.0427  -12.8199   22.0440 N   0  0  0  0  0  0
  -25.4214  -15.1912   20.4287 N   0  0  0  0  0  0
  -31.9293  -14.6529   20.2536 O   0  0  0  0  0  0
  -21.6629   -6.8872   21.4235 O   0  0  0  0  0  0
  -22.3463  -14.5526   20.6747 O   0  0  0  0  0  0
  -24.6375  -31.8522   23.1967 C   0  0  0  0  0  0
  -25.9183  -32.4746   23.8319 C   0  0  1  0  0  0
  -27.2016  -27.2061   20.1265 C   0  0  0  0  0  0
  -25.5967  -33.8550   24.2234 N   0  0  0  0  0  0
  -23.4354  -30.4767   21.5438 C   0  0  2  0  0  0
  -24.8798  -28.9251   20.1069 C   0  0  0  0  0  0
  -22.7539  -29.4582   22.4912 C   0  0  0  0  0  0
  -18.0292  -28.1388   22.8481 C   0  0  0  0  0  0
  -24.1490  -36.7277   23.2631 C   0  0  0  0  0  0
  -25.9885  -30.7460   21.3880 C   0  0  0  0  0  0
  -26.0574  -29.3669   20.7242 C   0  0  0  0  0  0
  -27.2214  -28.5206   20.7244 C   0  0  0  0  0  0
  -26.0019  -26.8629   19.4591 C   0  0  0  0  0  0
  -24.8614  -27.6835   19.4617 C   0  0  0  0  0  0
  -23.6537  -29.8164   20.1591 C   0  0  0  0  0  0
  -25.4118  -36.3060   24.0317 C   0  0  1  0  0  0
  -20.5900  -28.3709   23.1260 C   0  0  2  0  0  0
  -20.6782  -26.9423   22.5406 C   0  0  0  0  0  0
  -19.5755  -26.6373   21.5218 C   0  0  0  0  0  0
  -18.1925  -26.7935   22.1613 C   0  0  0  0  0  0
  -19.1549  -28.8869   23.2855 C   0  0  0  0  0  0
  -18.9469  -30.1470   23.8870 C   0  0  0  0  0  0
  -17.6470  -30.6595   24.0556 C   0  0  0  0  0  0
  -25.9071  -34.9435   23.5075 C   0  0  0  0  0  0
  -16.5361  -29.9086   23.6340 C   0  0  0  0  0  0
  -16.7282  -28.6503   23.0363 C   0  0  0  0  0  0
  -26.4515  -31.6609   25.0746 C   0  0  0  0  0  0
  -25.3709  -31.3796   26.1451 C   0  0  0  0  0  0
  -27.0388  -30.3009   24.6301 C   0  0  0  0  0  0
  -27.6043  -32.4384   25.7526 C   0  0  0  0  0  0
  -27.5595  -37.1771   24.8444 C   0  0  0  0  0  0
  -21.4239  -29.3057   22.3663 N   0  0  0  0  0  0
  -26.4277  -37.3776   23.9429 N   0  0  0  0  0  0
  -24.7067  -31.0440   22.0977 N   0  0  0  0  0  0
  -23.4221  -28.8095   23.3004 O   0  0  0  0  0  0
  -28.2470  -26.2344   20.2070 O   0  0  0  0  0  0
  -26.5635  -34.8919   22.4640 O   0  0  0  0  0  0
  -23.5514  -32.1376   23.7227 O   0  0  0  0  0  0
  -31.3692  -19.8248   21.0009 C   0  0  0  0  0  0
  -30.6014  -21.0061   20.7970 C   0  0  0  0  0  0
  -28.6619  -19.6251   20.2903 C   0  0  0  0  0  0
  -29.4514  -18.4186   20.5063 C   0  0  0  0  0  0
  -30.7712  -18.5557   20.8443 C   0  0  0  0  0  0
  -29.2234  -20.9736   20.4304 C   0  0  0  0  0  0
  -29.1574  -16.9006   20.4018 C   0  0  0  0  0  0
  -28.8028  -23.4857   20.3401 C   0  0  0  0  0  0
  -31.3842  -17.1698   20.9558 C   0  0  0  0  0  0
  -27.8870  -24.7700   19.9527 C   0  0  0  0  0  0
  -28.4589  -22.2060   20.1782 N   0  0  0  0  0  0
  -30.3149  -16.1630   20.6321 N   0  0  0  0  0  0
  -28.0410  -16.4679   20.1117 O   0  0  0  0  0  0
  -31.4327  -12.6125   19.1431 H   0  0  0  0  0  0
  -30.3355  -11.5960   20.0232 H   0  0  0  0  0  0
  -29.7946  -11.6959   17.5547 H   0  0  0  0  0  0
  -29.5738  -13.4267   17.6681 H   0  0  0  0  0  0
  -27.9388  -11.2470   19.0016 H   0  0  0  0  0  0
  -27.3531  -12.3881   17.8209 H   0  0  0  0  0  0
  -27.5575  -14.2095   19.3427 H   0  0  0  0  0  0
  -28.7462  -12.3728   21.4862 H   0  0  0  0  0  0
  -28.3814  -14.0734   21.6833 H   0  0  0  0  0  0
  -25.2740   -9.5683   22.4756 H   0  0  0  0  0  0
  -23.9989   -7.4632   22.7466 H   0  0  0  0  0  0
  -21.0827   -8.8761   19.8945 H   0  0  0  0  0  0
  -22.3674  -10.9664   19.6165 H   0  0  0  0  0  0
  -21.2018   -7.6141   23.9712 H   0  0  0  0  0  0
  -21.1490   -6.0514   25.9075 H   0  0  0  0  0  0
  -22.0591   -2.7599   23.2844 H   0  0  0  0  0  0
  -22.4040  -11.9846   22.4808 H   0  0  0  0  0  0
  -21.1057  -13.1232   22.2675 H   0  0  0  0  0  0
  -24.6832  -15.8646   20.5979 H   0  0  0  0  0  0
  -26.3196  -15.6276   20.2189 H   0  0  0  0  0  0
  -26.7247  -32.5363   23.1048 H   0  0  0  0  0  0
  -25.0157  -33.9689   25.0415 H   0  0  0  0  0  0
  -22.7332  -31.2998   21.3981 H   0  0  0  0  0  0
  -23.3775  -35.9579   23.3231 H   0  0  0  0  0  0
  -24.3589  -36.8976   22.2057 H   0  0  0  0  0  0
  -23.7208  -37.6439   23.6712 H   0  0  0  0  0  0
  -26.1406  -31.5063   20.6206 H   0  0  0  0  0  0
  -26.8607  -30.7886   22.0288 H   0  0  0  0  0  0
  -28.1163  -28.8481   21.2349 H   0  0  0  0  0  0
  -25.8944  -25.9233   18.9398 H   0  0  0  0  0  0
  -23.9636  -27.3428   18.9649 H   0  0  0  0  0  0
  -23.7789  -30.5940   19.4051 H   0  0  0  0  0  0
  -22.7696  -29.2535   19.8536 H   0  0  0  0  0  0
  -25.1289  -36.1889   25.0805 H   0  0  0  0  0  0
  -20.9976  -28.3288   24.1389 H   0  0  0  0  0  0
  -20.5700  -26.2319   23.3617 H   0  0  0  0  0  0
  -21.6648  -26.7448   22.1190 H   0  0  0  0  0  0
  -19.6913  -25.6272   21.1276 H   0  0  0  0  0  0
  -19.6695  -27.3159   20.6729 H   0  0  0  0  0  0
  -17.4207  -26.6705   21.3997 H   0  0  0  0  0  0
  -18.0286  -26.0072   22.8998 H   0  0  0  0  0  0
  -19.7949  -30.7286   24.2230 H   0  0  0  0  0  0
  -17.5028  -31.6278   24.5147 H   0  0  0  0  0  0
  -15.5362  -30.2973   23.7692 H   0  0  0  0  0  0
  -15.8677  -28.0820   22.7095 H   0  0  0  0  0  0
  -24.5871  -30.7164   25.7779 H   0  0  0  0  0  0
  -24.8916  -32.2989   26.4834 H   0  0  0  0  0  0
  -25.7983  -30.8997   27.0264 H   0  0  0  0  0  0
  -26.3013  -29.6734   24.1282 H   0  0  0  0  0  0
  -27.3996  -29.7307   25.4871 H   0  0  0  0  0  0
  -27.8913  -30.4267   23.9620 H   0  0  0  0  0  0
  -27.2630  -33.3706   26.2045 H   0  0  0  0  0  0
  -28.3871  -32.6930   25.0371 H   0  0  0  0  0  0
  -28.0690  -31.8567   26.5497 H   0  0  0  0  0  0
  -28.2528  -38.0151   24.7616 H   0  0  0  0  0  0
  -28.1176  -36.2690   24.6107 H   0  0  0  0  0  0
  -27.2335  -37.1221   25.8846 H   0  0  0  0  0  0
  -20.9439  -29.8838   21.6908 H   0  0  0  0  0  0
  -26.0147  -38.2830   24.1502 H   0  0  0  0  0  0
  -32.4166  -19.9008   21.2595 H   0  0  0  0  0  0
  -31.1101  -21.9518   20.9143 H   0  0  0  0  0  0
  -27.6259  -19.5126   20.0032 H   0  0  0  0  0  0
  -29.7717  -23.7661   20.7608 H   0  0  0  0  0  0
  -31.7696  -17.0084   21.9640 H   0  0  0  0  0  0
  -32.2220  -17.1139   20.2584 H   0  0  0  0  0  0
  -26.9283  -24.5797   20.4363 H   0  0  0  0  0  0
  -27.7088  -24.6825   18.8805 H   0  0  0  0  0  0
  1 25  1  0  0  0
  1 30  2  0  0  0
  1 82  1  0  0  0
  2  3  1  0  0  0
  2 25  1  0  0  0
  2 84  1  0  0  0
  2 85  1  0  0  0
  3  4  1  0  0  0
  3 86  1  0  0  0
  3 87  1  0  0  0
  4  5  1  0  0  0
  4 88  1  0  0  0
  4 89  1  0  0  0
  5  6  1  0  0  0
  5 26  1  0  0  0
  5 90  1  0  0  0
  6 25  1  0  0  0
  6 91  1  0  0  0
  6 92  1  0  0  0
  7  8  2  0  0  0
  7 26  1  0  0  0
  7 29  1  0  0  0
  8  9  1  0  0  0
  8 22  1  0  0  0
  9 10  1  0  0  0
  9 27  2  0  0  0
 10 11  2  0  0  0
 10 15  1  0  0  0
 11 12  1  0  0  0
 11 93  1  0  0  0
 12 13  2  0  0  0
 12 94  1  0  0  0
 13 14  1  0  0  0
 13 31  1  0  0  0
 14 15  2  0  0  0
 14 95  1  0  0  0
 15 96  1  0  0  0
 16 17  2  0  0  0
 16 21  1  0  0  0
 16 31  1  0  0  0
 17 18  1  0  0  0
 17 97  1  0  0  0
 18 19  2  0  0  0
 18 98  1  0  0  0
 19 20  1  0  0  0
 19 24  1  0  0  0
 20 21  2  0  0  0
 20 99  1  0  0  0
 21 23  1  0  0  0
 22 28  1  0  0  0
 22 32  2  0  0  0
 26 27  1  0  0  0
 28100  1  0  0  0
 28101  1  0  0  0
 29102  1  0  0  0
 29103  1  0  0  0
 33 34  1  0  0  0
 33 66  1  0  0  0
 33 70  2  0  0  0
 34 36  1  0  0  0
 34 59  1  0  0  0
 34104  1  0  0  0
 35 44  2  0  0  0
 35 45  1  0  0  0
 35 68  1  0  0  0
 36 56  1  0  0  0
 36105  1  0  0  0
 37 39  1  0  0  0
 37 47  1  0  0  0
 37 66  1  0  0  0
 37106  1  0  0  0
 38 43  2  0  0  0
 38 46  1  0  0  0
 38 47  1  0  0  0
 39 64  1  0  0  0
 39 67  2  0  0  0
 40 52  1  0  0  0
 40 53  2  0  0  0
 40 58  1  0  0  0
 41107  1  0  0  0
 41108  1  0  0  0
 41109  1  0  0  0
 41 48  1  0  0  0
 42 43  1  0  0  0
 42 66  1  0  0  0
 42110  1  0  0  0
 42111  1  0  0  0
 43 44  1  0  0  0
 44112  1  0  0  0
 45 46  2  0  0  0
 45113  1  0  0  0
 46114  1  0  0  0
 47115  1  0  0  0
 47116  1  0  0  0
 48 56  1  0  0  0
 48 65  1  0  0  0
 48117  1  0  0  0
 49 50  1  0  0  0
 49 53  1  0  0  0
 49 64  1  0  0  0
 49118  1  0  0  0
 50 51  1  0  0  0
 50119  1  0  0  0
 50120  1  0  0  0
 51 52  1  0  0  0
 51121  1  0  0  0
 51122  1  0  0  0
 52123  1  0  0  0
 52124  1  0  0  0
 53 54  1  0  0  0
 54 55  2  0  0  0
 54125  1  0  0  0
 55 57  1  0  0  0
 55126  1  0  0  0
 56 69  2  0  0  0
 57 58  2  0  0  0
 57127  1  0  0  0
 58128  1  0  0  0
 59 60  1  0  0  0
 59 61  1  0  0  0
 59 62  1  0  0  0
 60129  1  0  0  0
 60130  1  0  0  0
 60131  1  0  0  0
 61132  1  0  0  0
 61133  1  0  0  0
 61134  1  0  0  0
 62135  1  0  0  0
 62136  1  0  0  0
 62137  1  0  0  0
 63 65  1  0  0  0
 63138  1  0  0  0
 63139  1  0  0  0
 63140  1  0  0  0
 64141  1  0  0  0
 65142  1  0  0  0
 68 80  1  0  0  0
 71 72  2  0  0  0
 71 75  1  0  0  0
 71143  1  0  0  0
 72 76  1  0  0  0
 72144  1  0  0  0
 73 74  1  0  0  0
 73 76  2  0  0  0
 73145  1  0  0  0
 74 75  2  0  0  0
 74 77  1  0  0  0
 75 79  1  0  0  0
 76 81  1  0  0  0
 77 82  1  0  0  0
 77 83  2  0  0  0
 78 80  1  0  0  0
 78 81  2  0  0  0
 78146  1  0  0  0
 79 82  1  0  0  0
 79147  1  0  0  0
 79148  1  0  0  0
 80149  1  0  0  0
 80150  1  0  0  0
M  ISO  4   1 100  68 101  80 101  82 100
M  END
> <chiral flag>
0

> <version>
0

> <s_m_source_file>
/data/baiqing/PycharmProjects/Reinvent-master-3.2/result/LINK_invent/BTK/process_docking_weight1_custom_product_contain_oxygen_bond_distance_aromatic_linkinvent_7_9_3/rearranged_h_0085.sdf

> <i_m_source_file_index>
40

> <r_mmod_Potential_Energy-OPLS-2005>
407.605224609375

> <r_mmod_Stretch_Energy-OPLS-2005>
161.538665771484

> <r_mmod_Bend_Energy-OPLS-2005>
302.712066650391

> <r_mmod_Torsional_Energy-OPLS-2005>
224.542892456055

> <r_mmod_Improper_Torsional_Energy-OPLS-2005>
4.42989587783813

> <r_mmod_Van_der_Waal_Energy-OPLS-2005>
149.067291259766

> <r_mmod_Electrostatic_Energy-OPLS-2005>
-387.105102539062

> <r_mmod_Solvation_Energy-OPLS-2005>
-191.241439819336

> <b_mmod_Minimization_Converged-OPLS-2005>
0

> <r_mmod_RMS_Derivative-OPLS-2005>
1.29205882549286

$$$$
41
                    3D
 Structure written by MMmdl.
166176  0  0  1  0            999 V2000
  -30.7471  -14.4472   20.5441 C   0  0  0  0  0  0
  -30.4403  -12.2807   19.4348 C   0  0  0  0  0  0
  -29.5109  -12.4548   18.2150 C   0  0  0  0  0  0
  -28.0274  -12.3665   18.6150 C   0  0  0  0  0  0
  -27.6729  -13.2033   19.8772 C   0  0  2  0  0  0
  -28.7177  -13.0101   21.0000 C   0  0  0  0  0  0
  -25.2683  -13.8179   20.5664 C   0  0  0  0  0  0
  -24.1911  -13.0452   20.9178 C   0  0  0  0  0  0
  -24.6456  -11.6926   20.8717 C   0  0  0  0  0  0
  -23.9113  -10.4308   21.0387 C   0  0  0  0  0  0
  -24.3679   -9.4238   21.9160 C   0  0  0  0  0  0
  -23.6339   -8.2286   22.0748 C   0  0  0  0  0  0
  -22.4318   -8.0323   21.3557 C   0  0  0  0  0  0
  -21.9977   -9.0302   20.4676 C   0  0  0  0  0  0
  -22.7302  -10.2171   20.3062 C   0  0  0  0  0  0
  -21.6877   -6.0766   22.5281 C   0  0  0  0  0  0
  -21.4017   -6.5653   23.8216 C   0  0  0  0  0  0
  -21.3621   -5.6802   24.9174 C   0  0  0  0  0  0
  -21.6032   -4.3067   24.7229 C   0  0  0  0  0  0
  -21.8836   -3.8179   23.4349 C   0  0  0  0  0  0
  -21.9221   -4.6995   22.3409 C   0  0  0  0  0  0
  -22.7930  -13.5258   21.1782 C   0  0  0  0  0  0
  -22.1690   -4.2171   21.0989 F   0  0  0  0  0  0
  -21.5614   -3.4553   25.7732 F   0  0  0  0  0  0
  -30.0538  -13.2831   20.4387 N   0  0  0  0  0  0
  -26.3112  -12.9340   20.3379 N   0  0  0  0  0  0
  -25.9388  -11.6499   20.5763 N   0  0  0  0  0  0
  -22.0555  -12.8267   22.0355 N   0  0  0  0  0  0
  -25.4367  -15.1909   20.4006 N   0  0  0  0  0  0
  -31.9109  -14.5769   20.1592 O   0  0  0  0  0  0
  -21.6681   -6.8930   21.4246 O   0  0  0  0  0  0
  -22.3594  -14.5505   20.6567 O   0  0  0  0  0  0
  -24.6139  -31.8739   23.2131 C   0  0  0  0  0  0
  -25.9011  -32.4907   23.8478 C   0  0  1  0  0  0
  -27.2440  -27.4796   20.0779 C   0  0  0  0  0  0
  -25.5825  -33.8698   24.2405 N   0  0  0  0  0  0
  -23.4061  -30.4880   21.5590 C   0  0  2  0  0  0
  -24.8528  -28.9575   20.1280 C   0  0  0  0  0  0
  -22.7484  -29.4625   22.5121 C   0  0  0  0  0  0
  -18.0271  -28.1386   22.8505 C   0  0  0  0  0  0
  -24.1450  -36.7393   23.2627 C   0  0  0  0  0  0
  -25.9198  -30.8571   21.3483 C   0  0  0  0  0  0
  -26.0048  -29.4771   20.7329 C   0  0  0  0  0  0
  -27.2067  -28.7363   20.7203 C   0  0  0  0  0  0
  -26.0739  -26.9526   19.4891 C   0  0  0  0  0  0
  -24.8803  -27.6989   19.5001 C   0  0  0  0  0  0
  -23.6136  -29.8168   20.1743 C   0  0  0  0  0  0
  -25.4062  -36.3188   24.0359 C   0  0  1  0  0  0
  -20.5870  -28.3625   23.1429 C   0  0  2  0  0  0
  -20.6769  -26.9387   22.5489 C   0  0  0  0  0  0
  -19.5737  -26.6395   21.5273 C   0  0  0  0  0  0
  -18.1902  -26.7931   22.1682 C   0  0  0  0  0  0
  -19.1527  -28.8834   23.2959 C   0  0  0  0  0  0
  -18.9445  -30.1434   23.8981 C   0  0  0  0  0  0
  -17.6439  -30.6572   24.0598 C   0  0  0  0  0  0
  -25.8979  -34.9538   23.5187 C   0  0  0  0  0  0
  -16.5332  -29.9122   23.6251 C   0  0  0  0  0  0
  -16.7267  -28.6543   23.0269 C   0  0  0  0  0  0
  -26.4396  -31.6668   25.0785 C   0  0  0  0  0  0
  -25.3688  -31.3804   26.1587 C   0  0  0  0  0  0
  -27.0130  -30.3146   24.5949 C   0  0  0  0  0  0
  -27.5954  -32.4388   25.7553 C   0  0  0  0  0  0
  -27.5569  -37.1834   24.8438 C   0  0  0  0  0  0
  -21.4198  -29.2975   22.3895 N   0  0  0  0  0  0
  -26.4268  -37.3863   23.9407 N   0  0  0  0  0  0
  -24.6674  -31.0879   22.1028 N   0  0  0  0  0  0
  -23.4316  -28.8173   23.3129 O   0  0  0  0  0  0
  -28.4170  -26.8025   19.8959 O   0  0  0  0  0  0
  -26.5550  -34.8949   22.4752 O   0  0  0  0  0  0
  -23.5338  -32.1412   23.7549 O   0  0  0  0  0  0
  -29.6603  -17.8435   17.9886 C   0  0  0  0  0  0
  -35.2106  -23.3836   19.6903 C   0  0  0  0  0  0
  -30.3992  -18.9667   18.4042 C   0  0  0  0  0  0
  -34.5093  -24.5533   20.0565 C   0  0  0  0  0  0
  -29.5275  -16.7304   18.8353 C   0  0  0  0  0  0
  -34.5143  -22.1984   19.3987 C   0  0  0  0  0  0
  -30.8770  -17.8559   20.5337 C   0  0  0  0  0  0
  -32.4160  -23.3823   19.8132 C   0  0  0  0  0  0
  -30.9953  -18.9970   19.6875 C   0  0  0  0  0  0
  -33.0943  -24.5983   20.1101 C   0  0  0  0  0  0
  -30.1465  -16.7157   20.0999 C   0  0  0  0  0  0
  -33.1103  -22.1870   19.4928 C   0  0  0  0  0  0
  -30.5005  -26.2746   20.8439 C   0  0  0  0  0  0
  -31.3787  -26.4630   19.7262 C   0  0  0  0  0  0
  -29.1748  -26.4613   20.9725 C   0  0  0  0  0  0
  -31.6942  -20.2294   20.1064 C   0  0  0  0  0  0
  -31.6341  -25.7753   21.6927 C   0  0  0  0  0  0
  -32.4057  -25.8126   20.4282 N   0  0  0  0  0  0
  -31.6109  -20.6490   21.3715 N   0  0  0  0  0  0
  -30.0294  -15.5306   20.8764 N   0  0  0  0  0  0
  -32.4095  -20.9479   19.2071 N   0  3  0  0  0  0
  -31.2363  -27.0514   18.6750 O   0  0  0  0  0  0
  -31.4829  -12.3769   19.1191 H   0  0  0  0  0  0
  -30.3605  -11.2746   19.8522 H   0  0  0  0  0  0
  -29.7371  -11.6807   17.4806 H   0  0  0  0  0  0
  -29.7126  -13.4075   17.7279 H   0  0  0  0  0  0
  -27.7920  -11.3164   18.7958 H   0  0  0  0  0  0
  -27.4021  -12.6719   17.7745 H   0  0  0  0  0  0
  -27.7131  -14.2518   19.5836 H   0  0  0  0  0  0
  -28.6816  -11.9916   21.3840 H   0  0  0  0  0  0
  -28.4923  -13.6491   21.8566 H   0  0  0  0  0  0
  -25.2847   -9.5679   22.4732 H   0  0  0  0  0  0
  -24.0068   -7.4664   22.7457 H   0  0  0  0  0  0
  -21.0921   -8.8855   19.8953 H   0  0  0  0  0  0
  -22.3803  -10.9744   19.6191 H   0  0  0  0  0  0
  -21.1994   -7.6163   23.9728 H   0  0  0  0  0  0
  -21.1396   -6.0522   25.9064 H   0  0  0  0  0  0
  -22.0643   -2.7654   23.2843 H   0  0  0  0  0  0
  -22.4188  -12.0012   22.4885 H   0  0  0  0  0  0
  -21.1101  -13.1201   22.2377 H   0  0  0  0  0  0
  -24.6582  -15.8347   20.4964 H   0  0  0  0  0  0
  -26.2708  -15.6401   20.0422 H   0  0  0  0  0  0
  -26.7131  -32.5632   23.1318 H   0  0  0  0  0  0
  -24.9979  -33.9913   25.0557 H   0  0  0  0  0  0
  -22.6892  -31.2981   21.4240 H   0  0  0  0  0  0
  -23.3693  -35.9745   23.3301 H   0  0  0  0  0  0
  -24.3543  -36.8992   22.2035 H   0  0  0  0  0  0
  -23.7217  -37.6622   23.6610 H   0  0  0  0  0  0
  -25.9643  -31.5891   20.5427 H   0  0  0  0  0  0
  -26.8374  -30.9869   21.9073 H   0  0  0  0  0  0
  -28.1080  -29.1387   21.1619 H   0  0  0  0  0  0
  -26.0932  -25.9856   18.9939 H   0  0  0  0  0  0
  -24.0002  -27.3252   19.0004 H   0  0  0  0  0  0
  -23.7052  -30.5854   19.4076 H   0  0  0  0  0  0
  -22.7456  -29.2220   19.8897 H   0  0  0  0  0  0
  -25.1231  -36.2093   25.0858 H   0  0  0  0  0  0
  -20.9897  -28.3092   24.1582 H   0  0  0  0  0  0
  -20.5724  -26.2185   23.3655 H   0  0  0  0  0  0
  -21.6618  -26.7445   22.1237 H   0  0  0  0  0  0
  -19.6885  -25.6320   21.1255 H   0  0  0  0  0  0
  -19.6671  -27.3259   20.6842 H   0  0  0  0  0  0
  -17.4203  -26.6647   21.4081 H   0  0  0  0  0  0
  -18.0282  -26.0099   22.9098 H   0  0  0  0  0  0
  -19.7891  -30.7200   24.2442 H   0  0  0  0  0  0
  -17.4969  -31.6231   24.5251 H   0  0  0  0  0  0
  -15.5333  -30.3066   23.7501 H   0  0  0  0  0  0
  -15.8668  -28.0930   22.6889 H   0  0  0  0  0  0
  -24.5885  -30.7065   25.8032 H   0  0  0  0  0  0
  -24.8825  -32.2965   26.4938 H   0  0  0  0  0  0
  -25.8097  -30.9143   27.0411 H   0  0  0  0  0  0
  -26.2583  -29.7079   24.0922 H   0  0  0  0  0  0
  -27.3904  -29.7187   25.4251 H   0  0  0  0  0  0
  -27.8403  -30.4569   23.9007 H   0  0  0  0  0  0
  -27.2549  -33.3705   26.2087 H   0  0  0  0  0  0
  -28.3783  -32.6956   25.0410 H   0  0  0  0  0  0
  -28.0576  -31.8565   26.5531 H   0  0  0  0  0  0
  -28.2592  -38.0129   24.7535 H   0  0  0  0  0  0
  -28.1084  -36.2681   24.6210 H   0  0  0  0  0  0
  -27.2316  -37.1429   25.8849 H   0  0  0  0  0  0
  -20.9451  -29.8738   21.7082 H   0  0  0  0  0  0
  -26.0184  -38.2957   24.1423 H   0  0  0  0  0  0
  -29.2032  -17.8240   17.0108 H   0  0  0  0  0  0
  -36.2935  -23.3888   19.6557 H   0  0  0  0  0  0
  -30.4835  -19.8130   17.7353 H   0  0  0  0  0  0
  -35.0858  -25.4408   20.2893 H   0  0  0  0  0  0
  -28.9713  -15.8717   18.4893 H   0  0  0  0  0  0
  -35.0647  -21.3032   19.1362 H   0  0  0  0  0  0
  -31.3486  -17.8444   21.5069 H   0  0  0  0  0  0
  -31.3391  -23.3907   19.8175 H   0  0  0  0  0  0
  -28.5901  -26.2562   21.8591 H   0  0  0  0  0  0
  -31.5218  -24.7842   22.1406 H   0  0  0  0  0  0
  -32.0375  -26.4837   22.4199 H   0  0  0  0  0  0
  -30.9359  -20.2379   21.9964 H   0  0  0  0  0  0
  -32.2116  -21.3806   21.7157 H   0  0  0  0  0  0
  -29.0906  -15.2966   21.1693 H   0  0  0  0  0  0
  -32.6619  -20.3985   18.3912 H   0  0  0  0  0  0
  1 25  1  0  0  0
  1 30  2  0  0  0
  1 90  1  0  0  0
  2  3  1  0  0  0
  2 25  1  0  0  0
  2 93  1  0  0  0
  2 94  1  0  0  0
  3  4  1  0  0  0
  3 95  1  0  0  0
  3 96  1  0  0  0
  4  5  1  0  0  0
  4 97  1  0  0  0
  4 98  1  0  0  0
  5  6  1  0  0  0
  5 26  1  0  0  0
  5 99  1  0  0  0
  6 25  1  0  0  0
  6100  1  0  0  0
  6101  1  0  0  0
  7  8  2  0  0  0
  7 26  1  0  0  0
  7 29  1  0  0  0
  8  9  1  0  0  0
  8 22  1  0  0  0
  9 10  1  0  0  0
  9 27  2  0  0  0
 10 11  2  0  0  0
 10 15  1  0  0  0
 11 12  1  0  0  0
 11102  1  0  0  0
 12 13  2  0  0  0
 12103  1  0  0  0
 13 14  1  0  0  0
 13 31  1  0  0  0
 14 15  2  0  0  0
 14104  1  0  0  0
 15105  1  0  0  0
 16 17  2  0  0  0
 16 21  1  0  0  0
 16 31  1  0  0  0
 17 18  1  0  0  0
 17106  1  0  0  0
 18 19  2  0  0  0
 18107  1  0  0  0
 19 20  1  0  0  0
 19 24  1  0  0  0
 20 21  2  0  0  0
 20108  1  0  0  0
 21 23  1  0  0  0
 22 28  1  0  0  0
 22 32  2  0  0  0
 26 27  1  0  0  0
 28109  1  0  0  0
 28110  1  0  0  0
 29111  1  0  0  0
 29112  1  0  0  0
 33 34  1  0  0  0
 33 66  1  0  0  0
 33 70  2  0  0  0
 34 36  1  0  0  0
 34 59  1  0  0  0
 34113  1  0  0  0
 35 44  2  0  0  0
 35 45  1  0  0  0
 35 68  1  0  0  0
 36 56  1  0  0  0
 36114  1  0  0  0
 37 39  1  0  0  0
 37 47  1  0  0  0
 37 66  1  0  0  0
 37115  1  0  0  0
 38 43  2  0  0  0
 38 46  1  0  0  0
 38 47  1  0  0  0
 39 64  1  0  0  0
 39 67  2  0  0  0
 40 52  1  0  0  0
 40 53  2  0  0  0
 40 58  1  0  0  0
 41116  1  0  0  0
 41117  1  0  0  0
 41118  1  0  0  0
 41 48  1  0  0  0
 42 43  1  0  0  0
 42 66  1  0  0  0
 42119  1  0  0  0
 42120  1  0  0  0
 43 44  1  0  0  0
 44121  1  0  0  0
 45 46  2  0  0  0
 45122  1  0  0  0
 46123  1  0  0  0
 47124  1  0  0  0
 47125  1  0  0  0
 48 56  1  0  0  0
 48 65  1  0  0  0
 48126  1  0  0  0
 49 50  1  0  0  0
 49 53  1  0  0  0
 49 64  1  0  0  0
 49127  1  0  0  0
 50 51  1  0  0  0
 50128  1  0  0  0
 50129  1  0  0  0
 51 52  1  0  0  0
 51130  1  0  0  0
 51131  1  0  0  0
 52132  1  0  0  0
 52133  1  0  0  0
 53 54  1  0  0  0
 54 55  2  0  0  0
 54134  1  0  0  0
 55 57  1  0  0  0
 55135  1  0  0  0
 56 69  2  0  0  0
 57 58  2  0  0  0
 57136  1  0  0  0
 58137  1  0  0  0
 59 60  1  0  0  0
 59 61  1  0  0  0
 59 62  1  0  0  0
 60138  1  0  0  0
 60139  1  0  0  0
 60140  1  0  0  0
 61141  1  0  0  0
 61142  1  0  0  0
 61143  1  0  0  0
 62144  1  0  0  0
 62145  1  0  0  0
 62146  1  0  0  0
 63 65  1  0  0  0
 63147  1  0  0  0
 63148  1  0  0  0
 63149  1  0  0  0
 64150  1  0  0  0
 65151  1  0  0  0
 68 85  1  0  0  0
 71 73  2  0  0  0
 71 75  1  0  0  0
 71152  1  0  0  0
 72 74  2  0  0  0
 72 76  1  0  0  0
 72153  1  0  0  0
 73 79  1  0  0  0
 73154  1  0  0  0
 74 80  1  0  0  0
 74155  1  0  0  0
 75 81  2  0  0  0
 75156  1  0  0  0
 76 82  2  0  0  0
 76157  1  0  0  0
 77 79  2  0  0  0
 77 81  1  0  0  0
 77158  1  0  0  0
 78 80  2  0  0  0
 78 82  1  0  0  0
 78159  1  0  0  0
 79 86  1  0  0  0
 80 88  1  0  0  0
 81 90  1  0  0  0
 82 91  1  0  0  0
 83 84  1  0  0  0
 83 85  2  0  0  0
 83 87  1  0  0  0
 84 88  1  0  0  0
 84 92  2  0  0  0
 85160  1  0  0  0
 86 89  1  0  0  0
 86 91  2  0  0  0
 87 88  1  0  0  0
 87161  1  0  0  0
 87162  1  0  0  0
 89163  1  0  0  0
 89164  1  0  0  0
 90165  1  0  0  0
 91166  1  0  0  0
M  CHG  1  91   1
M  ISO  4   1 100  68 101  85 101  90 100
M  END
> <chiral flag>
0

> <version>
0

> <s_m_source_file>
/data/baiqing/PycharmProjects/Reinvent-master-3.2/result/LINK_invent/BTK/process_docking_weight1_custom_product_contain_oxygen_bond_distance_aromatic_linkinvent_7_9_3/rearranged_h_0085.sdf

> <i_m_source_file_index>
41

> <r_mmod_Potential_Energy-OPLS-2005>
-106.997703552246

> <r_mmod_Stretch_Energy-OPLS-2005>
41.315242767334

> <r_mmod_Bend_Energy-OPLS-2005>
159.102920532227

> <r_mmod_Torsional_Energy-OPLS-2005>
313.14599609375

> <r_mmod_Improper_Torsional_Energy-OPLS-2005>
16.3547019958496

> <r_mmod_Van_der_Waal_Energy-OPLS-2005>
162.272979736328

> <r_mmod_Electrostatic_Energy-OPLS-2005>
-360.611450195312

> <r_mmod_Solvation_Energy-OPLS-2005>
-454.614074707031

> <b_mmod_Minimization_Converged-OPLS-2005>
0

> <r_mmod_RMS_Derivative-OPLS-2005>
9.15394115447998

$$$$
42
                    3D
 Structure written by MMmdl.
152161  0  0  1  0            999 V2000
  -30.5839  -14.6972   20.4547 C   0  0  0  0  0  0
  -30.4484  -12.4202   19.4513 C   0  0  0  0  0  0
  -29.5101  -12.4892   18.2250 C   0  0  0  0  0  0
  -28.0350  -12.3228   18.6439 C   0  0  0  0  0  0
  -27.6502  -13.2128   19.8547 C   0  0  2  0  0  0
  -28.6982  -13.0898   20.9837 C   0  0  0  0  0  0
  -25.2528  -13.8138   20.5575 C   0  0  0  0  0  0
  -24.1830  -13.0423   20.9222 C   0  0  0  0  0  0
  -24.6400  -11.6893   20.8791 C   0  0  0  0  0  0
  -23.9065  -10.4277   21.0434 C   0  0  0  0  0  0
  -24.3614   -9.4179   21.9203 C   0  0  0  0  0  0
  -23.6284   -8.2219   22.0751 C   0  0  0  0  0  0
  -22.4272   -8.0277   21.3538 C   0  0  0  0  0  0
  -21.9909   -9.0257   20.4652 C   0  0  0  0  0  0
  -22.7238  -10.2134   20.3074 C   0  0  0  0  0  0
  -21.6838   -6.0724   22.5281 C   0  0  0  0  0  0
  -21.4008   -6.5624   23.8210 C   0  0  0  0  0  0
  -21.3654   -5.6783   24.9179 C   0  0  0  0  0  0
  -21.6044   -4.3043   24.7224 C   0  0  0  0  0  0
  -21.8821   -3.8135   23.4346 C   0  0  0  0  0  0
  -21.9193   -4.6954   22.3403 C   0  0  0  0  0  0
  -22.7850  -13.5233   21.1879 C   0  0  0  0  0  0
  -22.1656   -4.2137   21.0984 F   0  0  0  0  0  0
  -21.5634   -3.4536   25.7738 F   0  0  0  0  0  0
  -30.0055  -13.4513   20.4132 N   0  0  0  0  0  0
  -26.2971  -12.9324   20.3270 N   0  0  0  0  0  0
  -25.9335  -11.6483   20.5788 N   0  0  0  0  0  0
  -22.0486  -12.8240   22.0445 N   0  0  0  0  0  0
  -25.4159  -15.1833   20.3698 N   0  0  0  0  0  0
  -31.7531  -14.8650   20.0967 O   0  0  0  0  0  0
  -21.6627   -6.8879   21.4237 O   0  0  0  0  0  0
  -22.3549  -14.5528   20.6694 O   0  0  0  0  0  0
  -24.6298  -31.8554   23.1997 C   0  0  0  0  0  0
  -25.9130  -32.4768   23.8306 C   0  0  1  0  0  0
  -27.2360  -27.3075   20.1085 C   0  0  0  0  0  0
  -25.5907  -33.8568   24.2229 N   0  0  0  0  0  0
  -23.4233  -30.4801   21.5424 C   0  0  2  0  0  0
  -24.8701  -28.9252   20.1165 C   0  0  0  0  0  0
  -22.7469  -29.4626   22.4926 C   0  0  0  0  0  0
  -18.0280  -28.1403   22.8467 C   0  0  0  0  0  0
  -24.1505  -36.7327   23.2666 C   0  0  0  0  0  0
  -25.9664  -30.7852   21.3674 C   0  0  0  0  0  0
  -26.0433  -29.4094   20.7104 C   0  0  0  0  0  0
  -27.2315  -28.6142   20.6928 C   0  0  0  0  0  0
  -26.0363  -26.8723   19.5032 C   0  0  0  0  0  0
  -24.8668  -27.6600   19.5082 C   0  0  0  0  0  0
  -23.6374  -29.8077   20.1608 C   0  0  0  0  0  0
  -25.4148  -36.3085   24.0313 C   0  0  1  0  0  0
  -20.5877  -28.3708   23.1278 C   0  0  2  0  0  0
  -20.6768  -26.9426   22.5416 C   0  0  0  0  0  0
  -19.5753  -26.6388   21.5203 C   0  0  0  0  0  0
  -18.1931  -26.7940   22.1612 C   0  0  0  0  0  0
  -19.1532  -28.8866   23.2867 C   0  0  0  0  0  0
  -18.9461  -30.1471   23.8877 C   0  0  0  0  0  0
  -17.6463  -30.6607   24.0560 C   0  0  0  0  0  0
  -25.9040  -34.9445   23.5074 C   0  0  0  0  0  0
  -16.5344  -29.9110   23.6339 C   0  0  0  0  0  0
  -16.7266  -28.6530   23.0335 C   0  0  0  0  0  0
  -26.4485  -31.6601   25.0697 C   0  0  0  0  0  0
  -25.3690  -31.3749   26.1401 C   0  0  0  0  0  0
  -27.0332  -30.3020   24.6189 C   0  0  0  0  0  0
  -27.5994  -32.4371   25.7497 C   0  0  0  0  0  0
  -27.5524  -37.1916   24.8530 C   0  0  0  0  0  0
  -21.4189  -29.3051   22.3657 N   0  0  0  0  0  0
  -26.4378  -37.3712   23.9268 N   0  0  0  0  0  0
  -24.6925  -31.0553   22.0942 N   0  0  0  0  0  0
  -23.4179  -28.8179   23.3023 O   0  0  0  0  0  0
  -28.3462  -26.4404   20.1011 O   0  0  0  0  0  0
  -26.5620  -34.8915   22.4650 O   0  0  0  0  0  0
  -23.5460  -32.1343   23.7341 O   0  0  0  0  0  0
  -28.6517  -19.4052   21.0702 C   0  0  0  0  0  0
  -30.6382  -19.3926   19.7437 C   0  0  0  0  0  0
  -28.7374  -17.9831   21.1943 C   0  0  0  0  0  0
  -30.7308  -17.9647   19.8737 C   0  0  0  0  0  0
  -29.5931  -20.1784   20.3333 C   0  0  0  0  0  0
  -29.7767  -17.2077   20.6090 C   0  0  0  0  0  0
  -28.8883  -23.9505   20.1924 C   0  0  0  0  0  0
  -30.0636  -23.8434   19.3542 C   0  0  0  0  0  0
  -28.5958  -22.5765   20.6739 C   0  0  0  0  0  0
  -28.1538  -25.0898   20.4898 C   0  0  0  0  0  0
  -30.4895  -22.3739   19.3174 C   0  0  0  0  0  0
  -29.5084  -21.6638   20.1618 N   0  0  0  0  0  0
  -29.7336  -15.7397   20.7581 N   0  0  0  0  0  0
  -30.6556  -24.7468   18.7530 O   0  0  0  0  0  0
  -27.6656  -22.2855   21.4355 O   0  0  0  0  0  0
  -31.4853  -12.5618   19.1405 H   0  0  0  0  0  0
  -30.4091  -11.4329   19.9129 H   0  0  0  0  0  0
  -29.7804  -11.7161   17.5046 H   0  0  0  0  0  0
  -29.6399  -13.4422   17.7128 H   0  0  0  0  0  0
  -27.8867  -11.2727   18.9004 H   0  0  0  0  0  0
  -27.3742  -12.5204   17.7992 H   0  0  0  0  0  0
  -27.6614  -14.2407   19.4926 H   0  0  0  0  0  0
  -28.7292  -12.0694   21.3702 H   0  0  0  0  0  0
  -28.4408  -13.7251   21.8322 H   0  0  0  0  0  0
  -25.2767   -9.5642   22.4765 H   0  0  0  0  0  0
  -23.9987   -7.4604   22.7455 H   0  0  0  0  0  0
  -21.0842   -8.8789   19.8962 H   0  0  0  0  0  0
  -22.3708  -10.9680   19.6179 H   0  0  0  0  0  0
  -21.1991   -7.6133   23.9708 H   0  0  0  0  0  0
  -21.1475   -6.0514   25.9080 H   0  0  0  0  0  0
  -22.0607   -2.7601   23.2847 H   0  0  0  0  0  0
  -22.4088  -11.9920   22.4863 H   0  0  0  0  0  0
  -21.1112  -13.1282   22.2654 H   0  0  0  0  0  0
  -24.5968  -15.7835   20.3614 H   0  0  0  0  0  0
  -26.1779  -15.5578   19.8180 H   0  0  0  0  0  0
  -26.7202  -32.5426   23.1042 H   0  0  0  0  0  0
  -24.9942  -33.9667   25.0294 H   0  0  0  0  0  0
  -22.7193  -31.3034   21.3947 H   0  0  0  0  0  0
  -23.3580  -35.9908   23.3785 H   0  0  0  0  0  0
  -24.3428  -36.8462   22.1985 H   0  0  0  0  0  0
  -23.7589  -37.6814   23.6356 H   0  0  0  0  0  0
  -26.0915  -31.5465   20.5966 H   0  0  0  0  0  0
  -26.8510  -30.8367   21.9912 H   0  0  0  0  0  0
  -28.1390  -28.9873   21.1457 H   0  0  0  0  0  0
  -25.9889  -25.8985   19.0375 H   0  0  0  0  0  0
  -23.9650  -27.2732   19.0547 H   0  0  0  0  0  0
  -23.7594  -30.5822   19.4012 H   0  0  0  0  0  0
  -22.7540  -29.2409   19.8604 H   0  0  0  0  0  0
  -25.1385  -36.1980   25.0827 H   0  0  0  0  0  0
  -20.9966  -28.3310   24.1395 H   0  0  0  0  0  0
  -20.5646  -26.2323   23.3619 H   0  0  0  0  0  0
  -21.6648  -26.7433   22.1222 H   0  0  0  0  0  0
  -19.6923  -25.6292   21.1258 H   0  0  0  0  0  0
  -19.6725  -27.3169   20.6715 H   0  0  0  0  0  0
  -17.4188  -26.6649   21.4033 H   0  0  0  0  0  0
  -18.0370  -26.0104   22.9042 H   0  0  0  0  0  0
  -19.7945  -30.7292   24.2237 H   0  0  0  0  0  0
  -17.5028  -31.6284   24.5180 H   0  0  0  0  0  0
  -15.5365  -30.3002   23.7695 H   0  0  0  0  0  0
  -15.8661  -28.0873   22.7035 H   0  0  0  0  0  0
  -24.5953  -30.6968   25.7778 H   0  0  0  0  0  0
  -24.8745  -32.2897   26.4686 H   0  0  0  0  0  0
  -25.8026  -30.9092   27.0255 H   0  0  0  0  0  0
  -26.2918  -29.6792   24.1170 H   0  0  0  0  0  0
  -27.3952  -29.7274   25.4725 H   0  0  0  0  0  0
  -27.8814  -30.4303   23.9458 H   0  0  0  0  0  0
  -27.2502  -33.3587   26.2179 H   0  0  0  0  0  0
  -28.3752  -32.7114   25.0329 H   0  0  0  0  0  0
  -28.0735  -31.8456   26.5340 H   0  0  0  0  0  0
  -28.2913  -37.9799   24.7004 H   0  0  0  0  0  0
  -28.0605  -36.2358   24.7139 H   0  0  0  0  0  0
  -27.2123  -37.2535   25.8885 H   0  0  0  0  0  0
  -20.9365  -29.8760   21.6844 H   0  0  0  0  0  0
  -26.0292  -38.2878   24.0895 H   0  0  0  0  0  0
  -27.8150  -19.8843   21.5566 H   0  0  0  0  0  0
  -31.4051  -19.8721   19.1501 H   0  0  0  0  0  0
  -27.9640  -17.4850   21.7597 H   0  0  0  0  0  0
  -31.5438  -17.4527   19.3788 H   0  0  0  0  0  0
  -27.2896  -25.0071   21.1353 H   0  0  0  0  0  0
  -31.4993  -22.2633   19.7158 H   0  0  0  0  0  0
  -30.4653  -21.9925   18.2950 H   0  0  0  0  0  0
  -28.8413  -15.3973   21.0796 H   0  0  0  0  0  0
  1 25  1  0  0  0
  1 30  2  0  0  0
  1 83  1  0  0  0
  2  3  1  0  0  0
  2 25  1  0  0  0
  2 86  1  0  0  0
  2 87  1  0  0  0
  3  4  1  0  0  0
  3 88  1  0  0  0
  3 89  1  0  0  0
  4  5  1  0  0  0
  4 90  1  0  0  0
  4 91  1  0  0  0
  5  6  1  0  0  0
  5 26  1  0  0  0
  5 92  1  0  0  0
  6 25  1  0  0  0
  6 93  1  0  0  0
  6 94  1  0  0  0
  7  8  2  0  0  0
  7 26  1  0  0  0
  7 29  1  0  0  0
  8  9  1  0  0  0
  8 22  1  0  0  0
  9 10  1  0  0  0
  9 27  2  0  0  0
 10 11  2  0  0  0
 10 15  1  0  0  0
 11 12  1  0  0  0
 11 95  1  0  0  0
 12 13  2  0  0  0
 12 96  1  0  0  0
 13 14  1  0  0  0
 13 31  1  0  0  0
 14 15  2  0  0  0
 14 97  1  0  0  0
 15 98  1  0  0  0
 16 17  2  0  0  0
 16 21  1  0  0  0
 16 31  1  0  0  0
 17 18  1  0  0  0
 17 99  1  0  0  0
 18 19  2  0  0  0
 18100  1  0  0  0
 19 20  1  0  0  0
 19 24  1  0  0  0
 20 21  2  0  0  0
 20101  1  0  0  0
 21 23  1  0  0  0
 22 28  1  0  0  0
 22 32  2  0  0  0
 26 27  1  0  0  0
 28102  1  0  0  0
 28103  1  0  0  0
 29104  1  0  0  0
 29105  1  0  0  0
 33 34  1  0  0  0
 33 66  1  0  0  0
 33 70  2  0  0  0
 34 36  1  0  0  0
 34 59  1  0  0  0
 34106  1  0  0  0
 35 44  2  0  0  0
 35 45  1  0  0  0
 35 68  1  0  0  0
 36 56  1  0  0  0
 36107  1  0  0  0
 37 39  1  0  0  0
 37 47  1  0  0  0
 37 66  1  0  0  0
 37108  1  0  0  0
 38 43  2  0  0  0
 38 46  1  0  0  0
 38 47  1  0  0  0
 39 64  1  0  0  0
 39 67  2  0  0  0
 40 52  1  0  0  0
 40 53  2  0  0  0
 40 58  1  0  0  0
 41109  1  0  0  0
 41110  1  0  0  0
 41111  1  0  0  0
 41 48  1  0  0  0
 42 43  1  0  0  0
 42 66  1  0  0  0
 42112  1  0  0  0
 42113  1  0  0  0
 43 44  1  0  0  0
 44114  1  0  0  0
 45 46  2  0  0  0
 45115  1  0  0  0
 46116  1  0  0  0
 47117  1  0  0  0
 47118  1  0  0  0
 48 56  1  0  0  0
 48 65  1  0  0  0
 48119  1  0  0  0
 49 50  1  0  0  0
 49 53  1  0  0  0
 49 64  1  0  0  0
 49120  1  0  0  0
 50 51  1  0  0  0
 50121  1  0  0  0
 50122  1  0  0  0
 51 52  1  0  0  0
 51123  1  0  0  0
 51124  1  0  0  0
 52125  1  0  0  0
 52126  1  0  0  0
 53 54  1  0  0  0
 54 55  2  0  0  0
 54127  1  0  0  0
 55 57  1  0  0  0
 55128  1  0  0  0
 56 69  2  0  0  0
 57 58  2  0  0  0
 57129  1  0  0  0
 58130  1  0  0  0
 59 60  1  0  0  0
 59 61  1  0  0  0
 59 62  1  0  0  0
 60131  1  0  0  0
 60132  1  0  0  0
 60133  1  0  0  0
 61134  1  0  0  0
 61135  1  0  0  0
 61136  1  0  0  0
 62137  1  0  0  0
 62138  1  0  0  0
 62139  1  0  0  0
 63 65  1  0  0  0
 63140  1  0  0  0
 63141  1  0  0  0
 63142  1  0  0  0
 64143  1  0  0  0
 65144  1  0  0  0
 68 80  1  0  0  0
 71 73  2  0  0  0
 71 75  1  0  0  0
 71145  1  0  0  0
 72 74  1  0  0  0
 72 75  2  0  0  0
 72146  1  0  0  0
 73 76  1  0  0  0
 73147  1  0  0  0
 74 76  2  0  0  0
 74148  1  0  0  0
 75 82  1  0  0  0
 76 83  1  0  0  0
 77 78  1  0  0  0
 77 79  1  0  0  0
 77 80  2  0  0  0
 78 81  1  0  0  0
 78 84  2  0  0  0
 79 82  1  0  0  0
 79 85  2  0  0  0
 80149  1  0  0  0
 81 82  1  0  0  0
 81150  1  0  0  0
 81151  1  0  0  0
 83152  1  0  0  0
M  ISO  4   1 100  68 101  80 101  83 100
M  END
> <chiral flag>
0

> <version>
0

> <s_m_source_file>
/data/baiqing/PycharmProjects/Reinvent-master-3.2/result/LINK_invent/BTK/process_docking_weight1_custom_product_contain_oxygen_bond_distance_aromatic_linkinvent_7_9_3/rearranged_h_0085.sdf

> <i_m_source_file_index>
42

> <r_mmod_Potential_Energy-OPLS-2005>
140.831954956055

> <r_mmod_Stretch_Energy-OPLS-2005>
96.8356628417969

> <r_mmod_Bend_Energy-OPLS-2005>
193.692153930664

> <r_mmod_Torsional_Energy-OPLS-2005>
246.367477416992

> <r_mmod_Improper_Torsional_Energy-OPLS-2005>
6.03921556472778

> <r_mmod_Van_der_Waal_Energy-OPLS-2005>
139.20719909668

> <r_mmod_Electrostatic_Energy-OPLS-2005>
-370.401000976562

> <r_mmod_Solvation_Energy-OPLS-2005>
-233.459274291992

> <b_mmod_Minimization_Converged-OPLS-2005>
0

> <r_mmod_RMS_Derivative-OPLS-2005>
3.65911078453064

$$$$
43
                    3D
 Structure written by MMmdl.
160169  0  0  1  0            999 V2000
  -30.6005  -14.6794   20.5112 C   0  0  0  0  0  0
  -30.4419  -12.4191   19.4634 C   0  0  0  0  0  0
  -29.5134  -12.5232   18.2316 C   0  0  0  0  0  0
  -28.0367  -12.3517   18.6401 C   0  0  0  0  0  0
  -27.6543  -13.2205   19.8672 C   0  0  2  0  0  0
  -28.6967  -13.0800   20.9995 C   0  0  0  0  0  0
  -25.2568  -13.8173   20.5701 C   0  0  0  0  0  0
  -24.1831  -13.0437   20.9180 C   0  0  0  0  0  0
  -24.6402  -11.6907   20.8724 C   0  0  0  0  0  0
  -23.9062  -10.4291   21.0394 C   0  0  0  0  0  0
  -24.3612   -9.4214   21.9179 C   0  0  0  0  0  0
  -23.6286   -8.2250   22.0750 C   0  0  0  0  0  0
  -22.4266   -8.0286   21.3537 C   0  0  0  0  0  0
  -21.9895   -9.0259   20.4641 C   0  0  0  0  0  0
  -22.7228  -10.2138   20.3052 C   0  0  0  0  0  0
  -21.6853   -6.0732   22.5275 C   0  0  0  0  0  0
  -21.4017   -6.5638   23.8207 C   0  0  0  0  0  0
  -21.3657   -5.6788   24.9167 C   0  0  0  0  0  0
  -21.6039   -4.3049   24.7221 C   0  0  0  0  0  0
  -21.8823   -3.8142   23.4341 C   0  0  0  0  0  0
  -21.9196   -4.6957   22.3397 C   0  0  0  0  0  0
  -22.7856  -13.5236   21.1844 C   0  0  0  0  0  0
  -22.1667   -4.2143   21.0971 F   0  0  0  0  0  0
  -21.5619   -3.4536   25.7738 F   0  0  0  0  0  0
  -30.0107  -13.4404   20.4429 N   0  0  0  0  0  0
  -26.2998  -12.9365   20.3327 N   0  0  0  0  0  0
  -25.9334  -11.6510   20.5737 N   0  0  0  0  0  0
  -22.0492  -12.8239   22.0406 N   0  0  0  0  0  0
  -25.4297  -15.1897   20.4163 N   0  0  0  0  0  0
  -31.7482  -14.8574   20.0893 O   0  0  0  0  0  0
  -21.6632   -6.8880   21.4237 O   0  0  0  0  0  0
  -22.3553  -14.5548   20.6700 O   0  0  0  0  0  0
  -24.6290  -31.8579   23.2013 C   0  0  0  0  0  0
  -25.9127  -32.4760   23.8357 C   0  0  1  0  0  0
  -27.2236  -27.2827   20.1276 C   0  0  0  0  0  0
  -25.5932  -33.8562   24.2277 N   0  0  0  0  0  0
  -23.4259  -30.4806   21.5434 C   0  0  2  0  0  0
  -24.8758  -28.9361   20.1075 C   0  0  0  0  0  0
  -22.7503  -29.4604   22.4910 C   0  0  0  0  0  0
  -18.0298  -28.1385   22.8483 C   0  0  0  0  0  0
  -24.1483  -36.7274   23.2627 C   0  0  0  0  0  0
  -25.9716  -30.7737   21.3849 C   0  0  0  0  0  0
  -26.0438  -29.3982   20.7277 C   0  0  0  0  0  0
  -27.2183  -28.5808   20.7361 C   0  0  0  0  0  0
  -26.0420  -26.9026   19.4488 C   0  0  0  0  0  0
  -24.8784  -27.6932   19.4580 C   0  0  0  0  0  0
  -23.6453  -29.8194   20.1576 C   0  0  0  0  0  0
  -25.4100  -36.3063   24.0329 C   0  0  1  0  0  0
  -20.5899  -28.3689   23.1265 C   0  0  2  0  0  0
  -20.6781  -26.9409   22.5403 C   0  0  0  0  0  0
  -19.5754  -26.6382   21.5210 C   0  0  0  0  0  0
  -18.1936  -26.7927   22.1628 C   0  0  0  0  0  0
  -19.1548  -28.8859   23.2870 C   0  0  0  0  0  0
  -18.9468  -30.1457   23.8895 C   0  0  0  0  0  0
  -17.6464  -30.6580   24.0565 C   0  0  0  0  0  0
  -25.9061  -34.9438   23.5109 C   0  0  0  0  0  0
  -16.5358  -29.9077   23.6324 C   0  0  0  0  0  0
  -16.7281  -28.6491   23.0351 C   0  0  0  0  0  0
  -26.4493  -31.6574   25.0737 C   0  0  0  0  0  0
  -25.3711  -31.3726   26.1454 C   0  0  0  0  0  0
  -27.0325  -30.2982   24.6230 C   0  0  0  0  0  0
  -27.6069  -32.4297   25.7490 C   0  0  0  0  0  0
  -27.5600  -37.1746   24.8428 C   0  0  0  0  0  0
  -21.4212  -29.3030   22.3648 N   0  0  0  0  0  0
  -26.4256  -37.3785   23.9457 N   0  0  0  0  0  0
  -24.6936  -31.0557   22.0986 N   0  0  0  0  0  0
  -23.4206  -28.8150   23.3009 O   0  0  0  0  0  0
  -28.3112  -26.3809   20.1844 O   0  0  0  0  0  0
  -26.5633  -34.8912   22.4680 O   0  0  0  0  0  0
  -23.5446  -32.1403   23.7311 O   0  0  0  0  0  0
  -30.5763  -17.9048   19.8519 C   0  0  0  0  0  0
  -28.9884  -17.9811   21.6308 C   0  0  0  0  0  0
  -30.4862  -19.3353   19.7059 C   0  0  0  0  0  0
  -29.6384  -20.1502   20.5467 C   0  0  0  0  0  0
  -29.8330  -17.1791   20.8164 C   0  0  0  0  0  0
  -28.8921  -19.4050   21.5157 C   0  0  0  0  0  0
  -28.9279  -23.9108   20.3406 C   0  0  0  0  0  0
  -28.5041  -22.4858   20.3909 C   0  0  0  0  0  0
  -28.0543  -24.9819   20.2900 C   0  0  0  0  0  0
  -31.2337  -19.9128   18.5547 C   0  0  0  0  0  0
  -30.4268  -23.9444   20.3585 C   0  0  0  0  0  0
  -30.8182  -22.4679   20.6115 C   0  0  0  0  0  0
  -32.6389  -19.3762   18.3031 C   0  0  0  0  0  0
  -29.5953  -21.6487   20.4879 N   0  0  0  0  0  0
  -28.0453  -20.0562   22.4125 N   0  0  0  0  0  0
  -29.8051  -15.7099   20.9620 N   0  0  0  0  0  0
  -27.3352  -22.0894   20.3337 O   0  0  0  0  0  0
  -30.7885  -20.8028   17.8256 O   0  0  0  0  0  0
  -31.4837  -12.5485   19.1652 H   0  0  0  0  0  0
  -30.3809  -11.4236   19.9060 H   0  0  0  0  0  0
  -29.7844  -11.7735   17.4869 H   0  0  0  0  0  0
  -29.6502  -13.4946   17.7531 H   0  0  0  0  0  0
  -27.8782  -11.2975   18.8705 H   0  0  0  0  0  0
  -27.3827  -12.5798   17.7975 H   0  0  0  0  0  0
  -27.6706  -14.2559   19.5261 H   0  0  0  0  0  0
  -28.7161  -12.0564   21.3773 H   0  0  0  0  0  0
  -28.4302  -13.7039   21.8537 H   0  0  0  0  0  0
  -25.2754   -9.5692   22.4756 H   0  0  0  0  0  0
  -23.9987   -7.4646   22.7480 H   0  0  0  0  0  0
  -21.0811   -8.8786   19.8957 H   0  0  0  0  0  0
  -22.3679  -10.9680   19.6164 H   0  0  0  0  0  0
  -21.2016   -7.6146   23.9713 H   0  0  0  0  0  0
  -21.1466   -6.0512   25.9068 H   0  0  0  0  0  0
  -22.0600   -2.7602   23.2848 H   0  0  0  0  0  0
  -22.4083  -11.9881   22.4779 H   0  0  0  0  0  0
  -21.1125  -13.1301   22.2623 H   0  0  0  0  0  0
  -24.6643  -15.8454   20.5318 H   0  0  0  0  0  0
  -26.2802  -15.6308   20.0908 H   0  0  0  0  0  0
  -26.7194  -32.5418   23.1105 H   0  0  0  0  0  0
  -25.0036  -33.9700   25.0392 H   0  0  0  0  0  0
  -22.7203  -31.3013   21.3999 H   0  0  0  0  0  0
  -23.3774  -35.9572   23.3208 H   0  0  0  0  0  0
  -24.3605  -36.8975   22.2060 H   0  0  0  0  0  0
  -23.7189  -37.6433   23.6696 H   0  0  0  0  0  0
  -26.1159  -31.5358   20.6182 H   0  0  0  0  0  0
  -26.8470  -30.8187   22.0206 H   0  0  0  0  0  0
  -28.1084  -28.9257   21.2427 H   0  0  0  0  0  0
  -25.9949  -25.9656   18.9136 H   0  0  0  0  0  0
  -23.9896  -27.3401   18.9529 H   0  0  0  0  0  0
  -23.7661  -30.5994   19.4044 H   0  0  0  0  0  0
  -22.7648  -29.2507   19.8516 H   0  0  0  0  0  0
  -25.1257  -36.1896   25.0813 H   0  0  0  0  0  0
  -20.9988  -28.3271   24.1388 H   0  0  0  0  0  0
  -20.5679  -26.2299   23.3604 H   0  0  0  0  0  0
  -21.6651  -26.7424   22.1197 H   0  0  0  0  0  0
  -19.6906  -25.6295   21.1237 H   0  0  0  0  0  0
  -19.6682  -27.3198   20.6741 H   0  0  0  0  0  0
  -17.4198  -26.6666   21.4042 H   0  0  0  0  0  0
  -18.0338  -26.0073   22.9028 H   0  0  0  0  0  0
  -19.7941  -30.7279   24.2262 H   0  0  0  0  0  0
  -17.5012  -31.6255   24.5172 H   0  0  0  0  0  0
  -15.5358  -30.2978   23.7640 H   0  0  0  0  0  0
  -15.8681  -28.0805   22.7073 H   0  0  0  0  0  0
  -24.5872  -30.7097   25.7769 H   0  0  0  0  0  0
  -24.8917  -32.2894   26.4891 H   0  0  0  0  0  0
  -25.8012  -30.8876   27.0224 H   0  0  0  0  0  0
  -26.2898  -29.6737   24.1248 H   0  0  0  0  0  0
  -27.3982  -29.7244   25.4757 H   0  0  0  0  0  0
  -27.8796  -30.4243   23.9485 H   0  0  0  0  0  0
  -27.2701  -33.3598   26.2082 H   0  0  0  0  0  0
  -28.3857  -32.6853   25.0289 H   0  0  0  0  0  0
  -28.0759  -31.8407   26.5385 H   0  0  0  0  0  0
  -28.2479  -38.0180   24.7692 H   0  0  0  0  0  0
  -28.1235  -36.2736   24.5956 H   0  0  0  0  0  0
  -27.2363  -37.1025   25.8826 H   0  0  0  0  0  0
  -20.9400  -29.8742   21.6844 H   0  0  0  0  0  0
  -26.0125  -38.2821   24.1601 H   0  0  0  0  0  0
  -31.1992  -17.3390   19.1739 H   0  0  0  0  0  0
  -28.3886  -17.4818   22.3794 H   0  0  0  0  0  0
  -26.9974  -24.7654   20.3415 H   0  0  0  0  0  0
  -30.8027  -24.6090   21.1364 H   0  0  0  0  0  0
  -30.7931  -24.2929   19.3923 H   0  0  0  0  0  0
  -31.2029  -22.3526   21.6260 H   0  0  0  0  0  0
  -31.6177  -22.1686   19.9390 H   0  0  0  0  0  0
  -33.1793  -19.2748   19.2442 H   0  0  0  0  0  0
  -33.1963  -20.0548   17.6584 H   0  0  0  0  0  0
  -32.5982  -18.4019   17.8182 H   0  0  0  0  0  0
  -27.3831  -19.4775   22.9193 H   0  0  0  0  0  0
  -27.5923  -20.8922   22.0516 H   0  0  0  0  0  0
  -28.9692  -15.3617   21.4070 H   0  0  0  0  0  0
  1 25  1  0  0  0
  1 30  2  0  0  0
  1 86  1  0  0  0
  2  3  1  0  0  0
  2 25  1  0  0  0
  2 89  1  0  0  0
  2 90  1  0  0  0
  3  4  1  0  0  0
  3 91  1  0  0  0
  3 92  1  0  0  0
  4  5  1  0  0  0
  4 93  1  0  0  0
  4 94  1  0  0  0
  5  6  1  0  0  0
  5 26  1  0  0  0
  5 95  1  0  0  0
  6 25  1  0  0  0
  6 96  1  0  0  0
  6 97  1  0  0  0
  7  8  2  0  0  0
  7 26  1  0  0  0
  7 29  1  0  0  0
  8  9  1  0  0  0
  8 22  1  0  0  0
  9 10  1  0  0  0
  9 27  2  0  0  0
 10 11  2  0  0  0
 10 15  1  0  0  0
 11 12  1  0  0  0
 11 98  1  0  0  0
 12 13  2  0  0  0
 12 99  1  0  0  0
 13 14  1  0  0  0
 13 31  1  0  0  0
 14 15  2  0  0  0
 14100  1  0  0  0
 15101  1  0  0  0
 16 17  2  0  0  0
 16 21  1  0  0  0
 16 31  1  0  0  0
 17 18  1  0  0  0
 17102  1  0  0  0
 18 19  2  0  0  0
 18103  1  0  0  0
 19 20  1  0  0  0
 19 24  1  0  0  0
 20 21  2  0  0  0
 20104  1  0  0  0
 21 23  1  0  0  0
 22 28  1  0  0  0
 22 32  2  0  0  0
 26 27  1  0  0  0
 28105  1  0  0  0
 28106  1  0  0  0
 29107  1  0  0  0
 29108  1  0  0  0
 33 34  1  0  0  0
 33 66  1  0  0  0
 33 70  2  0  0  0
 34 36  1  0  0  0
 34 59  1  0  0  0
 34109  1  0  0  0
 35 44  2  0  0  0
 35 45  1  0  0  0
 35 68  1  0  0  0
 36 56  1  0  0  0
 36110  1  0  0  0
 37 39  1  0  0  0
 37 47  1  0  0  0
 37 66  1  0  0  0
 37111  1  0  0  0
 38 43  2  0  0  0
 38 46  1  0  0  0
 38 47  1  0  0  0
 39 64  1  0  0  0
 39 67  2  0  0  0
 40 52  1  0  0  0
 40 53  2  0  0  0
 40 58  1  0  0  0
 41112  1  0  0  0
 41113  1  0  0  0
 41114  1  0  0  0
 41 48  1  0  0  0
 42 43  1  0  0  0
 42 66  1  0  0  0
 42115  1  0  0  0
 42116  1  0  0  0
 43 44  1  0  0  0
 44117  1  0  0  0
 45 46  2  0  0  0
 45118  1  0  0  0
 46119  1  0  0  0
 47120  1  0  0  0
 47121  1  0  0  0
 48 56  1  0  0  0
 48 65  1  0  0  0
 48122  1  0  0  0
 49 50  1  0  0  0
 49 53  1  0  0  0
 49 64  1  0  0  0
 49123  1  0  0  0
 50 51  1  0  0  0
 50124  1  0  0  0
 50125  1  0  0  0
 51 52  1  0  0  0
 51126  1  0  0  0
 51127  1  0  0  0
 52128  1  0  0  0
 52129  1  0  0  0
 53 54  1  0  0  0
 54 55  2  0  0  0
 54130  1  0  0  0
 55 57  1  0  0  0
 55131  1  0  0  0
 56 69  2  0  0  0
 57 58  2  0  0  0
 57132  1  0  0  0
 58133  1  0  0  0
 59 60  1  0  0  0
 59 61  1  0  0  0
 59 62  1  0  0  0
 60134  1  0  0  0
 60135  1  0  0  0
 60136  1  0  0  0
 61137  1  0  0  0
 61138  1  0  0  0
 61139  1  0  0  0
 62140  1  0  0  0
 62141  1  0  0  0
 62142  1  0  0  0
 63 65  1  0  0  0
 63143  1  0  0  0
 63144  1  0  0  0
 63145  1  0  0  0
 64146  1  0  0  0
 65147  1  0  0  0
 68 79  1  0  0  0
 71 73  2  0  0  0
 71 75  1  0  0  0
 71148  1  0  0  0
 72 75  2  0  0  0
 72 76  1  0  0  0
 72149  1  0  0  0
 73 74  1  0  0  0
 73 80  1  0  0  0
 74 76  2  0  0  0
 74 84  1  0  0  0
 75 86  1  0  0  0
 76 85  1  0  0  0
 77 78  1  0  0  0
 77 79  2  0  0  0
 77 81  1  0  0  0
 78 84  1  0  0  0
 78 87  2  0  0  0
 79150  1  0  0  0
 80 83  1  0  0  0
 80 88  2  0  0  0
 81 82  1  0  0  0
 81151  1  0  0  0
 81152  1  0  0  0
 82 84  1  0  0  0
 82153  1  0  0  0
 82154  1  0  0  0
 83155  1  0  0  0
 83156  1  0  0  0
 83157  1  0  0  0
 85158  1  0  0  0
 85159  1  0  0  0
 86160  1  0  0  0
M  ISO  4   1 100  68 101  79 101  86 100
M  END
> <chiral flag>
0

> <version>
0

> <s_m_source_file>
/data/baiqing/PycharmProjects/Reinvent-master-3.2/result/LINK_invent/BTK/process_docking_weight1_custom_product_contain_oxygen_bond_distance_aromatic_linkinvent_7_9_3/rearranged_h_0085.sdf

> <i_m_source_file_index>
43

> <r_mmod_Potential_Energy-OPLS-2005>
175.859161376953

> <r_mmod_Stretch_Energy-OPLS-2005>
101.75252532959

> <r_mmod_Bend_Energy-OPLS-2005>
174.306976318359

> <r_mmod_Torsional_Energy-OPLS-2005>
316.740692138672

> <r_mmod_Improper_Torsional_Energy-OPLS-2005>
8.2913064956665

> <r_mmod_Van_der_Waal_Energy-OPLS-2005>
149.761596679688

> <r_mmod_Electrostatic_Energy-OPLS-2005>
-415.646606445312

> <r_mmod_Solvation_Energy-OPLS-2005>
-225.924392700195

> <b_mmod_Minimization_Converged-OPLS-2005>
0

> <r_mmod_RMS_Derivative-OPLS-2005>
1.44189429283142

$$$$
44
                    3D
 Structure written by MMmdl.
157166  0  0  1  0            999 V2000
  -30.6022  -14.7761   20.4662 C   0  0  0  0  0  0
  -30.4376  -12.4781   19.4722 C   0  0  0  0  0  0
  -29.5124  -12.5069   18.2360 C   0  0  0  0  0  0
  -28.0400  -12.3230   18.6538 C   0  0  0  0  0  0
  -27.6403  -13.2312   19.8472 C   0  0  2  0  0  0
  -28.6865  -13.1769   20.9806 C   0  0  0  0  0  0
  -25.2514  -13.8191   20.5693 C   0  0  0  0  0  0
  -24.1798  -13.0436   20.9212 C   0  0  0  0  0  0
  -24.6386  -11.6915   20.8758 C   0  0  0  0  0  0
  -23.9058  -10.4296   21.0412 C   0  0  0  0  0  0
  -24.3607   -9.4213   21.9186 C   0  0  0  0  0  0
  -23.6284   -8.2247   22.0760 C   0  0  0  0  0  0
  -22.4268   -8.0278   21.3548 C   0  0  0  0  0  0
  -21.9899   -9.0256   20.4653 C   0  0  0  0  0  0
  -22.7230  -10.2137   20.3062 C   0  0  0  0  0  0
  -21.6849   -6.0732   22.5279 C   0  0  0  0  0  0
  -21.4009   -6.5635   23.8213 C   0  0  0  0  0  0
  -21.3656   -5.6789   24.9176 C   0  0  0  0  0  0
  -21.6044   -4.3054   24.7229 C   0  0  0  0  0  0
  -21.8820   -3.8145   23.4352 C   0  0  0  0  0  0
  -21.9193   -4.6960   22.3404 C   0  0  0  0  0  0
  -22.7824  -13.5235   21.1865 C   0  0  0  0  0  0
  -22.1663   -4.2143   21.0983 F   0  0  0  0  0  0
  -21.5629   -3.4537   25.7743 F   0  0  0  0  0  0
  -29.9787  -13.5469   20.3921 N   0  0  0  0  0  0
  -26.2931  -12.9390   20.3269 N   0  0  0  0  0  0
  -25.9313  -11.6539   20.5745 N   0  0  0  0  0  0
  -22.0454  -12.8235   22.0424 N   0  0  0  0  0  0
  -25.4219  -15.1907   20.4097 N   0  0  0  0  0  0
  -31.7996  -14.8532   20.1724 O   0  0  0  0  0  0
  -21.6639   -6.8869   21.4241 O   0  0  0  0  0  0
  -22.3522  -14.5545   20.6715 O   0  0  0  0  0  0
  -24.6323  -31.8537   23.1966 C   0  0  0  0  0  0
  -25.9144  -32.4752   23.8312 C   0  0  1  0  0  0
  -27.2236  -27.2459   20.1460 C   0  0  0  0  0  0
  -25.5949  -33.8558   24.2244 N   0  0  0  0  0  0
  -23.4299  -30.4721   21.5418 C   0  0  2  0  0  0
  -24.8797  -28.9083   20.1219 C   0  0  0  0  0  0
  -22.7501  -29.4589   22.4924 C   0  0  0  0  0  0
  -18.0284  -28.1422   22.8469 C   0  0  0  0  0  0
  -24.1499  -36.7296   23.2642 C   0  0  0  0  0  0
  -25.9759  -30.7644   21.3754 C   0  0  0  0  0  0
  -26.0515  -29.3798   20.7280 C   0  0  0  0  0  0
  -27.2303  -28.5627   20.7239 C   0  0  0  0  0  0
  -26.0292  -26.8362   19.5229 C   0  0  0  0  0  0
  -24.8721  -27.6428   19.5123 C   0  0  0  0  0  0
  -23.6504  -29.7991   20.1610 C   0  0  0  0  0  0
  -25.4128  -36.3061   24.0317 C   0  0  1  0  0  0
  -20.5884  -28.3715   23.1287 C   0  0  2  0  0  0
  -20.6782  -26.9434   22.5422 C   0  0  0  0  0  0
  -19.5750  -26.6383   21.5242 C   0  0  0  0  0  0
  -18.1922  -26.7956   22.1627 C   0  0  0  0  0  0
  -19.1537  -28.8886   23.2859 C   0  0  0  0  0  0
  -18.9459  -30.1485   23.8877 C   0  0  0  0  0  0
  -17.6461  -30.6612   24.0566 C   0  0  0  0  0  0
  -25.9058  -34.9432   23.5073 C   0  0  0  0  0  0
  -16.5353  -29.9109   23.6348 C   0  0  0  0  0  0
  -16.7268  -28.6540   23.0340 C   0  0  0  0  0  0
  -26.4508  -31.6595   25.0714 C   0  0  0  0  0  0
  -25.3722  -31.3780   26.1429 C   0  0  0  0  0  0
  -27.0376  -30.3007   24.6231 C   0  0  0  0  0  0
  -27.6032  -32.4364   25.7512 C   0  0  0  0  0  0
  -27.5577  -37.1799   24.8459 C   0  0  0  0  0  0
  -21.4204  -29.3067   22.3699 N   0  0  0  0  0  0
  -26.4296  -37.3761   23.9405 N   0  0  0  0  0  0
  -24.6984  -31.0484   22.0946 N   0  0  0  0  0  0
  -23.4196  -28.8112   23.3013 O   0  0  0  0  0  0
  -28.3308  -26.3749   20.0555 O   0  0  0  0  0  0
  -26.5617  -34.8911   22.4637 O   0  0  0  0  0  0
  -23.5467  -32.1365   23.7254 O   0  0  0  0  0  0
  -31.4021  -17.6272   21.4930 C   0  0  0  0  0  0
  -31.7632  -18.9326   21.8575 C   0  0  0  0  0  0
  -29.3836  -18.5499   20.5114 C   0  0  0  0  0  0
  -29.7244  -19.9492   20.8515 C   0  0  0  0  0  0
  -30.1910  -17.3644   20.8296 C   0  0  0  0  0  0
  -30.9613  -20.0595   21.5726 C   0  0  0  0  0  0
  -26.8878  -23.2565   20.4087 C   0  0  0  0  0  0
  -27.4488  -20.9080   20.4782 C   0  0  0  0  0  0
  -28.1752  -23.6483   20.4701 C   0  0  0  0  0  0
  -26.5056  -21.8610   20.3414 C   0  0  0  0  0  0
  -29.2234  -22.5344   20.4289 C   0  0  0  0  0  0
  -28.4771  -25.1584   20.9265 C   0  0  0  0  0  0
  -28.8348  -21.1737   20.5934 N   0  0  0  0  0  0
  -31.4573  -21.2502   22.1009 N   0  0  0  0  0  0
  -29.8191  -15.9280   20.6152 N   0  0  0  0  0  0
  -30.3947  -22.8347   20.1799 O   0  0  0  0  0  0
  -25.2190  -21.5187   20.2240 O   0  0  0  0  0  0
  -31.4757  -12.6138   19.1636 H   0  0  0  0  0  0
  -30.3983  -11.5057   19.9647 H   0  0  0  0  0  0
  -29.8015  -11.7284   17.5284 H   0  0  0  0  0  0
  -29.6296  -13.4566   17.7113 H   0  0  0  0  0  0
  -27.9075  -11.2760   18.9294 H   0  0  0  0  0  0
  -27.3792  -12.4990   17.8043 H   0  0  0  0  0  0
  -27.6302  -14.2494   19.4582 H   0  0  0  0  0  0
  -28.7342  -12.1765   21.4137 H   0  0  0  0  0  0
  -28.4187  -13.8534   21.7938 H   0  0  0  0  0  0
  -25.2743   -9.5691   22.4768 H   0  0  0  0  0  0
  -23.9993   -7.4637   22.7478 H   0  0  0  0  0  0
  -21.0829   -8.8768   19.8959 H   0  0  0  0  0  0
  -22.3675  -10.9674   19.6179 H   0  0  0  0  0  0
  -21.1996   -7.6140   23.9712 H   0  0  0  0  0  0
  -21.1476   -6.0521   25.9078 H   0  0  0  0  0  0
  -22.0601   -2.7603   23.2856 H   0  0  0  0  0  0
  -22.4048  -11.9890   22.4813 H   0  0  0  0  0  0
  -21.1079  -13.1292   22.2625 H   0  0  0  0  0  0
  -24.6548  -15.8453   20.5182 H   0  0  0  0  0  0
  -26.2599  -15.6243   20.0450 H   0  0  0  0  0  0
  -26.7219  -32.5402   23.1059 H   0  0  0  0  0  0
  -25.0135  -33.9712   25.0410 H   0  0  0  0  0  0
  -22.7262  -31.2931   21.3907 H   0  0  0  0  0  0
  -23.3745  -35.9640   23.3295 H   0  0  0  0  0  0
  -24.3587  -36.8936   22.2054 H   0  0  0  0  0  0
  -23.7271  -37.6502   23.6680 H   0  0  0  0  0  0
  -26.1100  -31.5221   20.6018 H   0  0  0  0  0  0
  -26.8549  -30.8204   22.0054 H   0  0  0  0  0  0
  -28.1363  -28.9337   21.1808 H   0  0  0  0  0  0
  -25.9941  -25.8736   19.0342 H   0  0  0  0  0  0
  -23.9746  -27.2755   19.0341 H   0  0  0  0  0  0
  -23.7766  -30.5724   19.4028 H   0  0  0  0  0  0
  -22.7687  -29.2317   19.8566 H   0  0  0  0  0  0
  -25.1305  -36.1898   25.0809 H   0  0  0  0  0  0
  -20.9955  -28.3295   24.1416 H   0  0  0  0  0  0
  -20.5747  -26.2318   23.3620 H   0  0  0  0  0  0
  -21.6637  -26.7498   22.1179 H   0  0  0  0  0  0
  -19.6925  -25.6277   21.1309 H   0  0  0  0  0  0
  -19.6723  -27.3162   20.6740 H   0  0  0  0  0  0
  -17.4206  -26.6714   21.4012 H   0  0  0  0  0  0
  -18.0280  -26.0123   22.9040 H   0  0  0  0  0  0
  -19.7936  -30.7305   24.2238 H   0  0  0  0  0  0
  -17.5018  -31.6295   24.5156 H   0  0  0  0  0  0
  -15.5350  -30.3009   23.7692 H   0  0  0  0  0  0
  -15.8660  -28.0872   22.7052 H   0  0  0  0  0  0
  -24.5885  -30.7150   25.7757 H   0  0  0  0  0  0
  -24.8944  -32.2979   26.4808 H   0  0  0  0  0  0
  -25.8016  -30.8981   27.0235 H   0  0  0  0  0  0
  -26.2982  -29.6745   24.1230 H   0  0  0  0  0  0
  -27.4020  -29.7279   25.4772 H   0  0  0  0  0  0
  -27.8864  -30.4276   23.9510 H   0  0  0  0  0  0
  -27.2602  -33.3674   26.2041 H   0  0  0  0  0  0
  -28.3871  -32.6929   25.0374 H   0  0  0  0  0  0
  -28.0674  -31.8544   26.5485 H   0  0  0  0  0  0
  -28.2561  -38.0112   24.7480 H   0  0  0  0  0  0
  -28.1089  -36.2640   24.6299 H   0  0  0  0  0  0
  -27.2288  -37.1453   25.8853 H   0  0  0  0  0  0
  -20.9382  -29.8843   21.6949 H   0  0  0  0  0  0
  -26.0164  -38.2829   24.1397 H   0  0  0  0  0  0
  -32.0622  -16.8212   21.7798 H   0  0  0  0  0  0
  -32.6867  -19.0523   22.4078 H   0  0  0  0  0  0
  -28.4650  -18.3602   19.9800 H   0  0  0  0  0  0
  -26.1210  -24.0059   20.5483 H   0  0  0  0  0  0
  -27.1674  -19.8694   20.4994 H   0  0  0  0  0  0
  -29.5100  -25.1741   21.2737 H   0  0  0  0  0  0
  -27.8908  -25.3366   21.8283 H   0  0  0  0  0  0
  -32.4355  -21.2424   22.3728 H   0  0  0  0  0  0
  -31.2613  -22.0722   21.5251 H   0  0  0  0  0  0
  -28.8297  -15.7377   20.6416 H   0  0  0  0  0  0
  -24.7058  -22.3175   20.1900 H   0  0  0  0  0  0
  1 25  1  0  0  0
  1 30  2  0  0  0
  1 85  1  0  0  0
  2  3  1  0  0  0
  2 25  1  0  0  0
  2 88  1  0  0  0
  2 89  1  0  0  0
  3  4  1  0  0  0
  3 90  1  0  0  0
  3 91  1  0  0  0
  4  5  1  0  0  0
  4 92  1  0  0  0
  4 93  1  0  0  0
  5  6  1  0  0  0
  5 26  1  0  0  0
  5 94  1  0  0  0
  6 25  1  0  0  0
  6 95  1  0  0  0
  6 96  1  0  0  0
  7  8  2  0  0  0
  7 26  1  0  0  0
  7 29  1  0  0  0
  8  9  1  0  0  0
  8 22  1  0  0  0
  9 10  1  0  0  0
  9 27  2  0  0  0
 10 11  2  0  0  0
 10 15  1  0  0  0
 11 12  1  0  0  0
 11 97  1  0  0  0
 12 13  2  0  0  0
 12 98  1  0  0  0
 13 14  1  0  0  0
 13 31  1  0  0  0
 14 15  2  0  0  0
 14 99  1  0  0  0
 15100  1  0  0  0
 16 17  2  0  0  0
 16 21  1  0  0  0
 16 31  1  0  0  0
 17 18  1  0  0  0
 17101  1  0  0  0
 18 19  2  0  0  0
 18102  1  0  0  0
 19 20  1  0  0  0
 19 24  1  0  0  0
 20 21  2  0  0  0
 20103  1  0  0  0
 21 23  1  0  0  0
 22 28  1  0  0  0
 22 32  2  0  0  0
 26 27  1  0  0  0
 28104  1  0  0  0
 28105  1  0  0  0
 29106  1  0  0  0
 29107  1  0  0  0
 33 34  1  0  0  0
 33 66  1  0  0  0
 33 70  2  0  0  0
 34 36  1  0  0  0
 34 59  1  0  0  0
 34108  1  0  0  0
 35 44  2  0  0  0
 35 45  1  0  0  0
 35 68  1  0  0  0
 36 56  1  0  0  0
 36109  1  0  0  0
 37 39  1  0  0  0
 37 47  1  0  0  0
 37 66  1  0  0  0
 37110  1  0  0  0
 38 43  2  0  0  0
 38 46  1  0  0  0
 38 47  1  0  0  0
 39 64  1  0  0  0
 39 67  2  0  0  0
 40 52  1  0  0  0
 40 53  2  0  0  0
 40 58  1  0  0  0
 41111  1  0  0  0
 41112  1  0  0  0
 41113  1  0  0  0
 41 48  1  0  0  0
 42 43  1  0  0  0
 42 66  1  0  0  0
 42114  1  0  0  0
 42115  1  0  0  0
 43 44  1  0  0  0
 44116  1  0  0  0
 45 46  2  0  0  0
 45117  1  0  0  0
 46118  1  0  0  0
 47119  1  0  0  0
 47120  1  0  0  0
 48 56  1  0  0  0
 48 65  1  0  0  0
 48121  1  0  0  0
 49 50  1  0  0  0
 49 53  1  0  0  0
 49 64  1  0  0  0
 49122  1  0  0  0
 50 51  1  0  0  0
 50123  1  0  0  0
 50124  1  0  0  0
 51 52  1  0  0  0
 51125  1  0  0  0
 51126  1  0  0  0
 52127  1  0  0  0
 52128  1  0  0  0
 53 54  1  0  0  0
 54 55  2  0  0  0
 54129  1  0  0  0
 55 57  1  0  0  0
 55130  1  0  0  0
 56 69  2  0  0  0
 57 58  2  0  0  0
 57131  1  0  0  0
 58132  1  0  0  0
 59 60  1  0  0  0
 59 61  1  0  0  0
 59 62  1  0  0  0
 60133  1  0  0  0
 60134  1  0  0  0
 60135  1  0  0  0
 61136  1  0  0  0
 61137  1  0  0  0
 61138  1  0  0  0
 62139  1  0  0  0
 62140  1  0  0  0
 62141  1  0  0  0
 63 65  1  0  0  0
 63142  1  0  0  0
 63143  1  0  0  0
 63144  1  0  0  0
 64145  1  0  0  0
 65146  1  0  0  0
 68 82  1  0  0  0
 71 72  2  0  0  0
 71 75  1  0  0  0
 71147  1  0  0  0
 72 76  1  0  0  0
 72148  1  0  0  0
 73 74  1  0  0  0
 73 75  2  0  0  0
 73149  1  0  0  0
 74 76  2  0  0  0
 74 83  1  0  0  0
 75 85  1  0  0  0
 76 84  1  0  0  0
 77 79  2  0  0  0
 77 80  1  0  0  0
 77150  1  0  0  0
 78 80  2  0  0  0
 78 83  1  0  0  0
 78151  1  0  0  0
 79 81  1  0  0  0
 79 82  1  0  0  0
 80 87  1  0  0  0
 81 83  1  0  0  0
 81 86  2  0  0  0
 82152  1  0  0  0
 82153  1  0  0  0
 84154  1  0  0  0
 84155  1  0  0  0
 85156  1  0  0  0
 87157  1  0  0  0
M  ISO  4   1 100  68 101  82 101  85 100
M  END
> <chiral flag>
0

> <version>
0

> <s_m_source_file>
/data/baiqing/PycharmProjects/Reinvent-master-3.2/result/LINK_invent/BTK/process_docking_weight1_custom_product_contain_oxygen_bond_distance_aromatic_linkinvent_7_9_3/rearranged_h_0085.sdf

> <i_m_source_file_index>
44

> <r_mmod_Potential_Energy-OPLS-2005>
274.775207519531

> <r_mmod_Stretch_Energy-OPLS-2005>
172.280807495117

> <r_mmod_Bend_Energy-OPLS-2005>
196.395843505859

> <r_mmod_Torsional_Energy-OPLS-2005>
280.952484130859

> <r_mmod_Improper_Torsional_Energy-OPLS-2005>
13.1157503128052

> <r_mmod_Van_der_Waal_Energy-OPLS-2005>
174.722564697266

> <r_mmod_Electrostatic_Energy-OPLS-2005>
-416.321807861328

> <r_mmod_Solvation_Energy-OPLS-2005>
-238.210647583008

> <b_mmod_Minimization_Converged-OPLS-2005>
0

> <r_mmod_RMS_Derivative-OPLS-2005>
2.34346747398376

$$$$
45
                    3D
 Structure written by MMmdl.
151159  0  0  1  0            999 V2000
  -30.6145  -14.6628   20.4885 C   0  0  0  0  0  0
  -30.4403  -12.4051   19.4561 C   0  0  0  0  0  0
  -29.5090  -12.5081   18.2272 C   0  0  0  0  0  0
  -28.0323  -12.3430   18.6399 C   0  0  0  0  0  0
  -27.6518  -13.2193   19.8633 C   0  0  2  0  0  0
  -28.6979  -13.0857   20.9933 C   0  0  0  0  0  0
  -25.2545  -13.8168   20.5692 C   0  0  0  0  0  0
  -24.1812  -13.0424   20.9165 C   0  0  0  0  0  0
  -24.6392  -11.6901   20.8724 C   0  0  0  0  0  0
  -23.9065  -10.4285   21.0395 C   0  0  0  0  0  0
  -24.3616   -9.4203   21.9177 C   0  0  0  0  0  0
  -23.6290   -8.2241   22.0751 C   0  0  0  0  0  0
  -22.4271   -8.0280   21.3544 C   0  0  0  0  0  0
  -21.9907   -9.0252   20.4644 C   0  0  0  0  0  0
  -22.7236  -10.2129   20.3049 C   0  0  0  0  0  0
  -21.6853   -6.0734   22.5279 C   0  0  0  0  0  0
  -21.4015   -6.5637   23.8213 C   0  0  0  0  0  0
  -21.3659   -5.6788   24.9174 C   0  0  0  0  0  0
  -21.6046   -4.3052   24.7224 C   0  0  0  0  0  0
  -21.8820   -3.8144   23.4344 C   0  0  0  0  0  0
  -21.9194   -4.6962   22.3401 C   0  0  0  0  0  0
  -22.7837  -13.5219   21.1842 C   0  0  0  0  0  0
  -22.1662   -4.2149   21.0978 F   0  0  0  0  0  0
  -21.5629   -3.4535   25.7736 F   0  0  0  0  0  0
  -30.0115  -13.4318   20.4275 N   0  0  0  0  0  0
  -26.2986  -12.9361   20.3336 N   0  0  0  0  0  0
  -25.9327  -11.6509   20.5759 N   0  0  0  0  0  0
  -22.0487  -12.8211   22.0407 N   0  0  0  0  0  0
  -25.4219  -15.1896   20.4178 N   0  0  0  0  0  0
  -31.7820  -14.8187   20.1193 O   0  0  0  0  0  0
  -21.6636   -6.8877   21.4242 O   0  0  0  0  0  0
  -22.3515  -14.5529   20.6703 O   0  0  0  0  0  0
  -24.6264  -31.8593   23.2020 C   0  0  0  0  0  0
  -25.9111  -32.4776   23.8350 C   0  0  1  0  0  0
  -27.2238  -27.3133   20.1253 C   0  0  0  0  0  0
  -25.5925  -33.8576   24.2278 N   0  0  0  0  0  0
  -23.4208  -30.4823   21.5446 C   0  0  2  0  0  0
  -24.8687  -28.9351   20.1130 C   0  0  0  0  0  0
  -22.7477  -29.4622   22.4937 C   0  0  0  0  0  0
  -18.0286  -28.1387   22.8485 C   0  0  0  0  0  0
  -24.1489  -36.7293   23.2639 C   0  0  0  0  0  0
  -25.9622  -30.7887   21.3742 C   0  0  0  0  0  0
  -26.0375  -29.4145   20.7189 C   0  0  0  0  0  0
  -27.2204  -28.6157   20.7143 C   0  0  0  0  0  0
  -26.0381  -26.8929   19.4845 C   0  0  0  0  0  0
  -24.8710  -27.6797   19.4860 C   0  0  0  0  0  0
  -23.6366  -29.8158   20.1605 C   0  0  0  0  0  0
  -25.4115  -36.3082   24.0328 C   0  0  1  0  0  0
  -20.5887  -28.3691   23.1282 C   0  0  2  0  0  0
  -20.6775  -26.9414   22.5411 C   0  0  0  0  0  0
  -19.5752  -26.6387   21.5212 C   0  0  0  0  0  0
  -18.1932  -26.7929   22.1624 C   0  0  0  0  0  0
  -19.1538  -28.8856   23.2878 C   0  0  0  0  0  0
  -18.9463  -30.1460   23.8893 C   0  0  0  0  0  0
  -17.6462  -30.6587   24.0565 C   0  0  0  0  0  0
  -25.9051  -34.9450   23.5104 C   0  0  0  0  0  0
  -16.5353  -29.9087   23.6330 C   0  0  0  0  0  0
  -16.7274  -28.6506   23.0347 C   0  0  0  0  0  0
  -26.4493  -31.6585   25.0721 C   0  0  0  0  0  0
  -25.3729  -31.3724   26.1451 C   0  0  0  0  0  0
  -27.0336  -30.3008   24.6176 C   0  0  0  0  0  0
  -27.6050  -32.4322   25.7492 C   0  0  0  0  0  0
  -27.5579  -37.1803   24.8466 C   0  0  0  0  0  0
  -21.4191  -29.3043   22.3678 N   0  0  0  0  0  0
  -26.4293  -37.3776   23.9406 N   0  0  0  0  0  0
  -24.6886  -31.0602   22.0971 N   0  0  0  0  0  0
  -23.4196  -28.8162   23.3021 O   0  0  0  0  0  0
  -28.3318  -26.4522   20.1471 O   0  0  0  0  0  0
  -26.5621  -34.8918   22.4672 O   0  0  0  0  0  0
  -23.5427  -32.1393   23.7345 O   0  0  0  0  0  0
  -31.0375  -19.3176   20.1463 C   0  0  0  0  0  0
  -31.0668  -17.9005   20.3317 C   0  0  0  0  0  0
  -28.6711  -19.3620   20.5342 C   0  0  0  0  0  0
  -29.8408  -20.0953   20.2170 C   0  0  0  0  0  0
  -29.8846  -17.1686   20.6114 C   0  0  0  0  0  0
  -28.6952  -17.9444   20.7215 C   0  0  0  0  0  0
  -29.0430  -23.9097   20.0704 C   0  0  0  0  0  0
  -29.8431  -21.6097   19.8896 C   0  0  0  0  0  0
  -28.0990  -25.0544   20.6059 C   0  0  0  0  0  0
  -29.0019  -22.6250   20.3779 N   0  0  0  0  0  0
  -29.7940  -15.7162   20.8067 N   0  0  0  0  0  0
  -30.7452  -21.9313   19.0087 N   0  3  0  0  0  0
  -27.5358  -17.2952   20.9943 F   0  0  0  0  0  0
  -31.4807  -12.5341   19.1524 H   0  0  0  0  0  0
  -30.3805  -11.4119   19.9037 H   0  0  0  0  0  0
  -29.7764  -11.7531   17.4867 H   0  0  0  0  0  0
  -29.6477  -13.4749   17.7407 H   0  0  0  0  0  0
  -27.8738  -11.2904   18.8780 H   0  0  0  0  0  0
  -27.3769  -12.5656   17.7971 H   0  0  0  0  0  0
  -27.6640  -14.2523   19.5151 H   0  0  0  0  0  0
  -28.7131  -12.0669   21.3836 H   0  0  0  0  0  0
  -28.4416  -13.7245   21.8399 H   0  0  0  0  0  0
  -25.2763   -9.5683   22.4747 H   0  0  0  0  0  0
  -24.0002   -7.4634   22.7470 H   0  0  0  0  0  0
  -21.0839   -8.8770   19.8950 H   0  0  0  0  0  0
  -22.3696  -10.9666   19.6156 H   0  0  0  0  0  0
  -21.2006   -7.6144   23.9717 H   0  0  0  0  0  0
  -21.1481   -6.0516   25.9077 H   0  0  0  0  0  0
  -22.0600   -2.7607   23.2843 H   0  0  0  0  0  0
  -22.4102  -11.9869   22.4790 H   0  0  0  0  0  0
  -21.1111  -13.1244   22.2627 H   0  0  0  0  0  0
  -24.6589  -15.8398   20.5673 H   0  0  0  0  0  0
  -26.2940  -15.6583   20.2053 H   0  0  0  0  0  0
  -26.7181  -32.5448   23.1102 H   0  0  0  0  0  0
  -25.0074  -33.9720   25.0424 H   0  0  0  0  0  0
  -22.7151  -31.3030   21.4004 H   0  0  0  0  0  0
  -23.3748  -35.9629   23.3306 H   0  0  0  0  0  0
  -24.3581  -36.8909   22.2053 H   0  0  0  0  0  0
  -23.7246  -37.6498   23.6657 H   0  0  0  0  0  0
  -26.0942  -31.5511   20.6050 H   0  0  0  0  0  0
  -26.8421  -30.8386   22.0039 H   0  0  0  0  0  0
  -28.1173  -28.9788   21.1962 H   0  0  0  0  0  0
  -26.0014  -25.9390   18.9783 H   0  0  0  0  0  0
  -23.9783  -27.3098   19.0004 H   0  0  0  0  0  0
  -23.7570  -30.5913   19.4032 H   0  0  0  0  0  0
  -22.7566  -29.2453   19.8580 H   0  0  0  0  0  0
  -25.1296  -36.1936   25.0821 H   0  0  0  0  0  0
  -20.9978  -28.3268   24.1403 H   0  0  0  0  0  0
  -20.5679  -26.2301   23.3612 H   0  0  0  0  0  0
  -21.6646  -26.7447   22.1205 H   0  0  0  0  0  0
  -19.6915  -25.6298   21.1242 H   0  0  0  0  0  0
  -19.6687  -27.3197   20.6742 H   0  0  0  0  0  0
  -17.4202  -26.6675   21.4027 H   0  0  0  0  0  0
  -18.0333  -26.0072   22.9022 H   0  0  0  0  0  0
  -19.7940  -30.7279   24.2255 H   0  0  0  0  0  0
  -17.5017  -31.6265   24.5174 H   0  0  0  0  0  0
  -15.5354  -30.2989   23.7655 H   0  0  0  0  0  0
  -15.8674  -28.0828   22.7057 H   0  0  0  0  0  0
  -24.5903  -30.7073   25.7783 H   0  0  0  0  0  0
  -24.8922  -32.2892   26.4875 H   0  0  0  0  0  0
  -25.8058  -30.8905   27.0226 H   0  0  0  0  0  0
  -26.2910  -29.6760   24.1201 H   0  0  0  0  0  0
  -27.4034  -29.7262   25.4679 H   0  0  0  0  0  0
  -27.8779  -30.4292   23.9399 H   0  0  0  0  0  0
  -27.2655  -33.3622   26.2067 H   0  0  0  0  0  0
  -28.3860  -32.6887   25.0320 H   0  0  0  0  0  0
  -28.0719  -31.8452   26.5412 H   0  0  0  0  0  0
  -28.2601  -38.0096   24.7508 H   0  0  0  0  0  0
  -28.1071  -36.2628   24.6298 H   0  0  0  0  0  0
  -27.2298  -37.1464   25.8869 H   0  0  0  0  0  0
  -20.9369  -29.8767   21.6888 H   0  0  0  0  0  0
  -26.0175  -38.2854   24.1399 H   0  0  0  0  0  0
  -31.9730  -19.8113   19.9376 H   0  0  0  0  0  0
  -32.0146  -17.3888   20.2520 H   0  0  0  0  0  0
  -27.7343  -19.8899   20.6022 H   0  0  0  0  0  0
  -29.7863  -24.3031   19.3717 H   0  0  0  0  0  0
  -28.1947  -25.0678   21.6917 H   0  0  0  0  0  0
  -27.0773  -24.7273   20.4230 H   0  0  0  0  0  0
  -28.8749  -15.4152   21.0944 H   0  0  0  0  0  0
  -31.3460  -21.2331   18.5747 H   0  0  0  0  0  0
  -30.8949  -22.8724   18.6617 H   0  0  0  0  0  0
  1 25  1  0  0  0
  1 30  2  0  0  0
  1 81  1  0  0  0
  2  3  1  0  0  0
  2 25  1  0  0  0
  2 84  1  0  0  0
  2 85  1  0  0  0
  3  4  1  0  0  0
  3 86  1  0  0  0
  3 87  1  0  0  0
  4  5  1  0  0  0
  4 88  1  0  0  0
  4 89  1  0  0  0
  5  6  1  0  0  0
  5 26  1  0  0  0
  5 90  1  0  0  0
  6 25  1  0  0  0
  6 91  1  0  0  0
  6 92  1  0  0  0
  7  8  2  0  0  0
  7 26  1  0  0  0
  7 29  1  0  0  0
  8  9  1  0  0  0
  8 22  1  0  0  0
  9 10  1  0  0  0
  9 27  2  0  0  0
 10 11  2  0  0  0
 10 15  1  0  0  0
 11 12  1  0  0  0
 11 93  1  0  0  0
 12 13  2  0  0  0
 12 94  1  0  0  0
 13 14  1  0  0  0
 13 31  1  0  0  0
 14 15  2  0  0  0
 14 95  1  0  0  0
 15 96  1  0  0  0
 16 17  2  0  0  0
 16 21  1  0  0  0
 16 31  1  0  0  0
 17 18  1  0  0  0
 17 97  1  0  0  0
 18 19  2  0  0  0
 18 98  1  0  0  0
 19 20  1  0  0  0
 19 24  1  0  0  0
 20 21  2  0  0  0
 20 99  1  0  0  0
 21 23  1  0  0  0
 22 28  1  0  0  0
 22 32  2  0  0  0
 26 27  1  0  0  0
 28100  1  0  0  0
 28101  1  0  0  0
 29102  1  0  0  0
 29103  1  0  0  0
 33 34  1  0  0  0
 33 66  1  0  0  0
 33 70  2  0  0  0
 34 36  1  0  0  0
 34 59  1  0  0  0
 34104  1  0  0  0
 35 44  2  0  0  0
 35 45  1  0  0  0
 35 68  1  0  0  0
 36 56  1  0  0  0
 36105  1  0  0  0
 37 39  1  0  0  0
 37 47  1  0  0  0
 37 66  1  0  0  0
 37106  1  0  0  0
 38 43  2  0  0  0
 38 46  1  0  0  0
 38 47  1  0  0  0
 39 64  1  0  0  0
 39 67  2  0  0  0
 40 52  1  0  0  0
 40 53  2  0  0  0
 40 58  1  0  0  0
 41107  1  0  0  0
 41108  1  0  0  0
 41109  1  0  0  0
 41 48  1  0  0  0
 42 43  1  0  0  0
 42 66  1  0  0  0
 42110  1  0  0  0
 42111  1  0  0  0
 43 44  1  0  0  0
 44112  1  0  0  0
 45 46  2  0  0  0
 45113  1  0  0  0
 46114  1  0  0  0
 47115  1  0  0  0
 47116  1  0  0  0
 48 56  1  0  0  0
 48 65  1  0  0  0
 48117  1  0  0  0
 49 50  1  0  0  0
 49 53  1  0  0  0
 49 64  1  0  0  0
 49118  1  0  0  0
 50 51  1  0  0  0
 50119  1  0  0  0
 50120  1  0  0  0
 51 52  1  0  0  0
 51121  1  0  0  0
 51122  1  0  0  0
 52123  1  0  0  0
 52124  1  0  0  0
 53 54  1  0  0  0
 54 55  2  0  0  0
 54125  1  0  0  0
 55 57  1  0  0  0
 55126  1  0  0  0
 56 69  2  0  0  0
 57 58  2  0  0  0
 57127  1  0  0  0
 58128  1  0  0  0
 59 60  1  0  0  0
 59 61  1  0  0  0
 59 62  1  0  0  0
 60129  1  0  0  0
 60130  1  0  0  0
 60131  1  0  0  0
 61132  1  0  0  0
 61133  1  0  0  0
 61134  1  0  0  0
 62135  1  0  0  0
 62136  1  0  0  0
 62137  1  0  0  0
 63 65  1  0  0  0
 63138  1  0  0  0
 63139  1  0  0  0
 63140  1  0  0  0
 64141  1  0  0  0
 65142  1  0  0  0
 68 79  1  0  0  0
 71 72  2  0  0  0
 71 74  1  0  0  0
 71143  1  0  0  0
 72 75  1  0  0  0
 72144  1  0  0  0
 73 74  2  0  0  0
 73 76  1  0  0  0
 73145  1  0  0  0
 74 78  1  0  0  0
 75 76  2  0  0  0
 75 81  1  0  0  0
 76 83  1  0  0  0
 77 79  1  0  0  0
 77 80  2  0  0  0
 77146  1  0  0  0
 78 80  1  0  0  0
 78 82  2  0  0  0
 79147  1  0  0  0
 79148  1  0  0  0
 81149  1  0  0  0
 82150  1  0  0  0
 82151  1  0  0  0
M  CHG  1  82   1
M  ISO  4   1 100  68 101  79 101  81 100
M  END
> <chiral flag>
0

> <version>
0

> <s_m_source_file>
/data/baiqing/PycharmProjects/Reinvent-master-3.2/result/LINK_invent/BTK/process_docking_weight1_custom_product_contain_oxygen_bond_distance_aromatic_linkinvent_7_9_3/rearranged_h_0085.sdf

> <i_m_source_file_index>
45

> <r_mmod_Potential_Energy-OPLS-2005>
-15.3665800094604

> <r_mmod_Stretch_Energy-OPLS-2005>
98.200439453125

> <r_mmod_Bend_Energy-OPLS-2005>
143.710006713867

> <r_mmod_Torsional_Energy-OPLS-2005>
230.715591430664

> <r_mmod_Improper_Torsional_Energy-OPLS-2005>
4.44493532180786

> <r_mmod_Van_der_Waal_Energy-OPLS-2005>
155.551345825195

> <r_mmod_Electrostatic_Energy-OPLS-2005>
-218.223190307617

> <r_mmod_Solvation_Energy-OPLS-2005>
-483.575317382812

> <b_mmod_Minimization_Converged-OPLS-2005>
0

> <r_mmod_RMS_Derivative-OPLS-2005>
0.338633835315704

$$$$
46
                    3D
 Structure written by MMmdl.
153162  0  0  1  0            999 V2000
  -30.6341  -14.7536   20.4508 C   0  0  0  0  0  0
  -30.4314  -12.4593   19.4884 C   0  0  0  0  0  0
  -29.5174  -12.5278   18.2457 C   0  0  0  0  0  0
  -28.0422  -12.3529   18.6494 C   0  0  0  0  0  0
  -27.6468  -13.2419   19.8584 C   0  0  2  0  0  0
  -28.6890  -13.1850   20.9986 C   0  0  0  0  0  0
  -25.2524  -13.8215   20.5690 C   0  0  0  0  0  0
  -24.1806  -13.0451   20.9174 C   0  0  0  0  0  0
  -24.6400  -11.6925   20.8708 C   0  0  0  0  0  0
  -23.9064  -10.4292   21.0369 C   0  0  0  0  0  0
  -24.3612   -9.4208   21.9159 C   0  0  0  0  0  0
  -23.6275   -8.2250   22.0752 C   0  0  0  0  0  0
  -22.4255   -8.0276   21.3545 C   0  0  0  0  0  0
  -21.9876   -9.0250   20.4654 C   0  0  0  0  0  0
  -22.7217  -10.2126   20.3040 C   0  0  0  0  0  0
  -21.6859   -6.0719   22.5256 C   0  0  0  0  0  0
  -21.4025   -6.5631   23.8189 C   0  0  0  0  0  0
  -21.3668   -5.6783   24.9150 C   0  0  0  0  0  0
  -21.6040   -4.3038   24.7212 C   0  0  0  0  0  0
  -21.8829   -3.8138   23.4332 C   0  0  0  0  0  0
  -21.9203   -4.6946   22.3386 C   0  0  0  0  0  0
  -22.7835  -13.5231   21.1838 C   0  0  0  0  0  0
  -22.1667   -4.2137   21.0964 F   0  0  0  0  0  0
  -21.5633   -3.4529   25.7728 F   0  0  0  0  0  0
  -29.9947  -13.5303   20.4203 N   0  0  0  0  0  0
  -26.2974  -12.9445   20.3303 N   0  0  0  0  0  0
  -25.9348  -11.6577   20.5727 N   0  0  0  0  0  0
  -22.0481  -12.8229   22.0400 N   0  0  0  0  0  0
  -25.4243  -15.1928   20.4119 N   0  0  0  0  0  0
  -31.8217  -14.8105   20.1186 O   0  0  0  0  0  0
  -21.6641   -6.8860   21.4219 O   0  0  0  0  0  0
  -22.3518  -14.5541   20.6684 O   0  0  0  0  0  0
  -24.6355  -31.8535   23.1988 C   0  0  0  0  0  0
  -25.9167  -32.4735   23.8330 C   0  0  1  0  0  0
  -27.2089  -27.2261   20.1167 C   0  0  0  0  0  0
  -25.5963  -33.8542   24.2261 N   0  0  0  0  0  0
  -23.4336  -30.4803   21.5424 C   0  0  2  0  0  0
  -24.8790  -28.9335   20.1019 C   0  0  0  0  0  0
  -22.7532  -29.4587   22.4874 C   0  0  0  0  0  0
  -18.0302  -28.1392   22.8483 C   0  0  0  0  0  0
  -24.1496  -36.7279   23.2636 C   0  0  0  0  0  0
  -25.9845  -30.7513   21.3888 C   0  0  0  0  0  0
  -26.0522  -29.3735   20.7266 C   0  0  0  0  0  0
  -27.2165  -28.5295   20.7331 C   0  0  0  0  0  0
  -26.0184  -26.8923   19.4243 C   0  0  0  0  0  0
  -24.8704  -27.7014   19.4393 C   0  0  0  0  0  0
  -23.6524  -29.8244   20.1550 C   0  0  0  0  0  0
  -25.4111  -36.3056   24.0330 C   0  0  1  0  0  0
  -20.5911  -28.3707   23.1259 C   0  0  2  0  0  0
  -20.6780  -26.9413   22.5414 C   0  0  0  0  0  0
  -19.5753  -26.6383   21.5221 C   0  0  0  0  0  0
  -18.1934  -26.7934   22.1630 C   0  0  0  0  0  0
  -19.1554  -28.8866   23.2871 C   0  0  0  0  0  0
  -18.9474  -30.1463   23.8894 C   0  0  0  0  0  0
  -17.6473  -30.6583   24.0563 C   0  0  0  0  0  0
  -25.9054  -34.9423   23.5089 C   0  0  0  0  0  0
  -16.5364  -29.9081   23.6324 C   0  0  0  0  0  0
  -16.7291  -28.6500   23.0343 C   0  0  0  0  0  0
  -26.4516  -31.6558   25.0725 C   0  0  0  0  0  0
  -25.3741  -31.3744   26.1458 C   0  0  0  0  0  0
  -27.0334  -30.2947   24.6252 C   0  0  0  0  0  0
  -27.6078  -32.4298   25.7490 C   0  0  0  0  0  0
  -27.5582  -37.1789   24.8458 C   0  0  0  0  0  0
  -21.4230  -29.3040   22.3623 N   0  0  0  0  0  0
  -26.4286  -37.3755   23.9412 N   0  0  0  0  0  0
  -24.7039  -31.0475   22.0982 N   0  0  0  0  0  0
  -23.4218  -28.8105   23.2969 O   0  0  0  0  0  0
  -28.2617  -26.2665   20.2129 O   0  0  0  0  0  0
  -26.5620  -34.8908   22.4654 O   0  0  0  0  0  0
  -23.5499  -32.1377   23.7265 O   0  0  0  0  0  0
  -30.9437  -18.5907   18.1780 C   0  0  0  0  0  0
  -30.4722  -19.8022   18.7132 C   0  0  0  0  0  0
  -30.7571  -17.3701   18.8488 C   0  0  0  0  0  0
  -29.3256  -23.2044   21.5457 C   0  0  0  0  0  0
  -29.6204  -18.5711   20.6363 C   0  0  0  0  0  0
  -28.8022  -22.2686   19.6205 C   0  0  0  0  0  0
  -28.7190  -23.5060   20.2832 C   0  0  0  0  0  0
  -29.7947  -19.8558   19.9487 C   0  0  0  0  0  0
  -30.1026  -17.2906   20.1006 C   0  0  0  0  0  0
  -29.7124  -21.8771   21.5761 C   0  0  0  0  0  0
  -27.9730  -24.8389   19.7860 C   0  0  0  0  0  0
  -29.4139  -21.2304   20.3830 N   0  0  0  0  0  0
  -29.9109  -15.9249   20.6896 N   0  0  0  0  0  0
  -30.3355  -21.2014   22.5791 O   0  0  0  0  0  0
  -31.4765  -12.5670   19.1884 H   0  0  0  0  0  0
  -30.3629  -11.4809   19.9666 H   0  0  0  0  0  0
  -29.8029  -11.7655   17.5196 H   0  0  0  0  0  0
  -29.6523  -13.4902   17.7490 H   0  0  0  0  0  0
  -27.8877  -11.3016   18.8948 H   0  0  0  0  0  0
  -27.3954  -12.5700   17.7989 H   0  0  0  0  0  0
  -27.6407  -14.2650   19.4822 H   0  0  0  0  0  0
  -28.7205  -12.1932   21.4517 H   0  0  0  0  0  0
  -28.4234  -13.8779   21.7979 H   0  0  0  0  0  0
  -25.2751   -9.5711   22.4727 H   0  0  0  0  0  0
  -24.0000   -7.4654   22.7477 H   0  0  0  0  0  0
  -21.0810   -8.8771   19.8964 H   0  0  0  0  0  0
  -22.3651  -10.9669   19.6160 H   0  0  0  0  0  0
  -21.2016   -7.6133   23.9684 H   0  0  0  0  0  0
  -21.1485   -6.0512   25.9053 H   0  0  0  0  0  0
  -22.0605   -2.7601   23.2832 H   0  0  0  0  0  0
  -22.4093  -11.9893   22.4796 H   0  0  0  0  0  0
  -21.1112  -13.1296   22.2619 H   0  0  0  0  0  0
  -24.6601  -15.8519   20.5133 H   0  0  0  0  0  0
  -26.2753  -15.6263   20.0771 H   0  0  0  0  0  0
  -26.7225  -32.5378   23.1062 H   0  0  0  0  0  0
  -25.0116  -33.9663   25.0413 H   0  0  0  0  0  0
  -22.7324  -31.3054   21.4010 H   0  0  0  0  0  0
  -23.3755  -35.9614   23.3275 H   0  0  0  0  0  0
  -24.3595  -36.8919   22.2055 H   0  0  0  0  0  0
  -23.7255  -37.6478   23.6670 H   0  0  0  0  0  0
  -26.1340  -31.5114   20.6210 H   0  0  0  0  0  0
  -26.8573  -30.7961   22.0267 H   0  0  0  0  0  0
  -28.1019  -28.8515   21.2620 H   0  0  0  0  0  0
  -25.9188  -25.9752   18.8650 H   0  0  0  0  0  0
  -23.9811  -27.3699   18.9191 H   0  0  0  0  0  0
  -23.7801  -30.6048   19.4041 H   0  0  0  0  0  0
  -22.7686  -29.2644   19.8455 H   0  0  0  0  0  0
  -25.1291  -36.1898   25.0823 H   0  0  0  0  0  0
  -21.0027  -28.3292   24.1374 H   0  0  0  0  0  0
  -20.5675  -26.2315   23.3620 H   0  0  0  0  0  0
  -21.6651  -26.7411   22.1226 H   0  0  0  0  0  0
  -19.6908  -25.6293   21.1250 H   0  0  0  0  0  0
  -19.6692  -27.3189   20.6746 H   0  0  0  0  0  0
  -17.4207  -26.6695   21.4023 H   0  0  0  0  0  0
  -18.0317  -26.0080   22.9029 H   0  0  0  0  0  0
  -19.7938  -30.7283   24.2271 H   0  0  0  0  0  0
  -17.5012  -31.6261   24.5166 H   0  0  0  0  0  0
  -15.5350  -30.2984   23.7629 H   0  0  0  0  0  0
  -15.8694  -28.0819   22.7050 H   0  0  0  0  0  0
  -24.5920  -30.7075   25.7815 H   0  0  0  0  0  0
  -24.8937  -32.2926   26.4850 H   0  0  0  0  0  0
  -25.8075  -30.8964   27.0253 H   0  0  0  0  0  0
  -26.2907  -29.6710   24.1272 H   0  0  0  0  0  0
  -27.3947  -29.7213   25.4797 H   0  0  0  0  0  0
  -27.8835  -30.4157   23.9535 H   0  0  0  0  0  0
  -27.2697  -33.3615   26.2049 H   0  0  0  0  0  0
  -28.3902  -32.6832   25.0316 H   0  0  0  0  0  0
  -28.0741  -31.8437   26.5427 H   0  0  0  0  0  0
  -28.2580  -38.0102   24.7505 H   0  0  0  0  0  0
  -28.1095  -36.2630   24.6268 H   0  0  0  0  0  0
  -27.2314  -37.1432   25.8866 H   0  0  0  0  0  0
  -20.9407  -29.8786   21.6849 H   0  0  0  0  0  0
  -26.0162  -38.2829   24.1410 H   0  0  0  0  0  0
  -31.4637  -18.5952   17.2301 H   0  0  0  0  0  0
  -30.6603  -20.7153   18.1648 H   0  0  0  0  0  0
  -31.1286  -16.4817   18.3603 H   0  0  0  0  0  0
  -29.4443  -23.9008   22.3632 H   0  0  0  0  0  0
  -29.1197  -18.5802   21.5924 H   0  0  0  0  0  0
  -28.4516  -22.0195   18.6274 H   0  0  0  0  0  0
  -26.9488  -24.6028   20.0704 H   0  0  0  0  0  0
  -28.0001  -24.8232   18.6956 H   0  0  0  0  0  0
  -29.0456  -15.7903   21.1915 H   0  0  0  0  0  0
  -30.4796  -21.8102   23.2960 H   0  0  0  0  0  0
  1 25  1  0  0  0
  1 30  2  0  0  0
  1 83  1  0  0  0
  2  3  1  0  0  0
  2 25  1  0  0  0
  2 85  1  0  0  0
  2 86  1  0  0  0
  3  4  1  0  0  0
  3 87  1  0  0  0
  3 88  1  0  0  0
  4  5  1  0  0  0
  4 89  1  0  0  0
  4 90  1  0  0  0
  5  6  1  0  0  0
  5 26  1  0  0  0
  5 91  1  0  0  0
  6 25  1  0  0  0
  6 92  1  0  0  0
  6 93  1  0  0  0
  7  8  2  0  0  0
  7 26  1  0  0  0
  7 29  1  0  0  0
  8  9  1  0  0  0
  8 22  1  0  0  0
  9 10  1  0  0  0
  9 27  2  0  0  0
 10 11  2  0  0  0
 10 15  1  0  0  0
 11 12  1  0  0  0
 11 94  1  0  0  0
 12 13  2  0  0  0
 12 95  1  0  0  0
 13 14  1  0  0  0
 13 31  1  0  0  0
 14 15  2  0  0  0
 14 96  1  0  0  0
 15 97  1  0  0  0
 16 17  2  0  0  0
 16 21  1  0  0  0
 16 31  1  0  0  0
 17 18  1  0  0  0
 17 98  1  0  0  0
 18 19  2  0  0  0
 18 99  1  0  0  0
 19 20  1  0  0  0
 19 24  1  0  0  0
 20 21  2  0  0  0
 20100  1  0  0  0
 21 23  1  0  0  0
 22 28  1  0  0  0
 22 32  2  0  0  0
 26 27  1  0  0  0
 28101  1  0  0  0
 28102  1  0  0  0
 29103  1  0  0  0
 29104  1  0  0  0
 33 34  1  0  0  0
 33 66  1  0  0  0
 33 70  2  0  0  0
 34 36  1  0  0  0
 34 59  1  0  0  0
 34105  1  0  0  0
 35 44  2  0  0  0
 35 45  1  0  0  0
 35 68  1  0  0  0
 36 56  1  0  0  0
 36106  1  0  0  0
 37 39  1  0  0  0
 37 47  1  0  0  0
 37 66  1  0  0  0
 37107  1  0  0  0
 38 43  2  0  0  0
 38 46  1  0  0  0
 38 47  1  0  0  0
 39 64  1  0  0  0
 39 67  2  0  0  0
 40 52  1  0  0  0
 40 53  2  0  0  0
 40 58  1  0  0  0
 41108  1  0  0  0
 41109  1  0  0  0
 41110  1  0  0  0
 41 48  1  0  0  0
 42 43  1  0  0  0
 42 66  1  0  0  0
 42111  1  0  0  0
 42112  1  0  0  0
 43 44  1  0  0  0
 44113  1  0  0  0
 45 46  2  0  0  0
 45114  1  0  0  0
 46115  1  0  0  0
 47116  1  0  0  0
 47117  1  0  0  0
 48 56  1  0  0  0
 48 65  1  0  0  0
 48118  1  0  0  0
 49 50  1  0  0  0
 49 53  1  0  0  0
 49 64  1  0  0  0
 49119  1  0  0  0
 50 51  1  0  0  0
 50120  1  0  0  0
 50121  1  0  0  0
 51 52  1  0  0  0
 51122  1  0  0  0
 51123  1  0  0  0
 52124  1  0  0  0
 52125  1  0  0  0
 53 54  1  0  0  0
 54 55  2  0  0  0
 54126  1  0  0  0
 55 57  1  0  0  0
 55127  1  0  0  0
 56 69  2  0  0  0
 57 58  2  0  0  0
 57128  1  0  0  0
 58129  1  0  0  0
 59 60  1  0  0  0
 59 61  1  0  0  0
 59 62  1  0  0  0
 60130  1  0  0  0
 60131  1  0  0  0
 60132  1  0  0  0
 61133  1  0  0  0
 61134  1  0  0  0
 61135  1  0  0  0
 62136  1  0  0  0
 62137  1  0  0  0
 62138  1  0  0  0
 63 65  1  0  0  0
 63139  1  0  0  0
 63140  1  0  0  0
 63141  1  0  0  0
 64142  1  0  0  0
 65143  1  0  0  0
 68 81  1  0  0  0
 71 72  2  0  0  0
 71 73  1  0  0  0
 71144  1  0  0  0
 72 78  1  0  0  0
 72145  1  0  0  0
 73 79  2  0  0  0
 73146  1  0  0  0
 74 77  1  0  0  0
 74 80  2  0  0  0
 74147  1  0  0  0
 75 78  2  0  0  0
 75 79  1  0  0  0
 75148  1  0  0  0
 76 77  2  0  0  0
 76 82  1  0  0  0
 76149  1  0  0  0
 77 81  1  0  0  0
 78 82  1  0  0  0
 79 83  1  0  0  0
 80 82  1  0  0  0
 80 84  1  0  0  0
 81150  1  0  0  0
 81151  1  0  0  0
 83152  1  0  0  0
 84153  1  0  0  0
M  ISO  4   1 100  68 101  81 101  83 100
M  END
> <chiral flag>
0

> <version>
0

> <s_m_source_file>
/data/baiqing/PycharmProjects/Reinvent-master-3.2/result/LINK_invent/BTK/process_docking_weight1_custom_product_contain_oxygen_bond_distance_aromatic_linkinvent_7_9_3/rearranged_h_0085.sdf

> <i_m_source_file_index>
46

> <r_mmod_Potential_Energy-OPLS-2005>
228.526916503906

> <r_mmod_Stretch_Energy-OPLS-2005>
138.780197143555

> <r_mmod_Bend_Energy-OPLS-2005>
178.79362487793

> <r_mmod_Torsional_Energy-OPLS-2005>
245.555877685547

> <r_mmod_Improper_Torsional_Energy-OPLS-2005>
5.48361301422119

> <r_mmod_Van_der_Waal_Energy-OPLS-2005>
143.777938842773

> <r_mmod_Electrostatic_Energy-OPLS-2005>
-361.053405761719

> <r_mmod_Solvation_Energy-OPLS-2005>
-225.865264892578

> <b_mmod_Minimization_Converged-OPLS-2005>
0

> <r_mmod_RMS_Derivative-OPLS-2005>
2.73777151107788

$$$$
47
                    3D
 Structure written by MMmdl.
154163  0  0  1  0            999 V2000
  -30.6018  -14.6495   20.4794 C   0  0  0  0  0  0
  -30.4427  -12.3982   19.4395 C   0  0  0  0  0  0
  -29.5049  -12.5115   18.2160 C   0  0  0  0  0  0
  -28.0287  -12.3411   18.6309 C   0  0  0  0  0  0
  -27.6502  -13.2099   19.8601 C   0  0  2  0  0  0
  -28.6991  -13.0600   20.9841 C   0  0  0  0  0  0
  -25.2568  -13.8160   20.5753 C   0  0  0  0  0  0
  -24.1822  -13.0421   20.9198 C   0  0  0  0  0  0
  -24.6375  -11.6890   20.8723 C   0  0  0  0  0  0
  -23.9043  -10.4276   21.0394 C   0  0  0  0  0  0
  -24.3599   -9.4197   21.9177 C   0  0  0  0  0  0
  -23.6277   -8.2232   22.0746 C   0  0  0  0  0  0
  -22.4261   -8.0270   21.3540 C   0  0  0  0  0  0
  -21.9889   -9.0235   20.4643 C   0  0  0  0  0  0
  -22.7207  -10.2119   20.3054 C   0  0  0  0  0  0
  -21.6851   -6.0733   22.5287 C   0  0  0  0  0  0
  -21.4016   -6.5634   23.8219 C   0  0  0  0  0  0
  -21.3659   -5.6785   24.9177 C   0  0  0  0  0  0
  -21.6044   -4.3047   24.7227 C   0  0  0  0  0  0
  -21.8820   -3.8144   23.4345 C   0  0  0  0  0  0
  -21.9189   -4.6964   22.3406 C   0  0  0  0  0  0
  -22.7852  -13.5234   21.1852 C   0  0  0  0  0  0
  -22.1660   -4.2153   21.0984 F   0  0  0  0  0  0
  -21.5623   -3.4530   25.7740 F   0  0  0  0  0  0
  -30.0105  -13.4147   20.4163 N   0  0  0  0  0  0
  -26.2974  -12.9323   20.3313 N   0  0  0  0  0  0
  -25.9302  -11.6475   20.5722 N   0  0  0  0  0  0
  -22.0485  -12.8213   22.0392 N   0  0  0  0  0  0
  -25.4223  -15.1910   20.4351 N   0  0  0  0  0  0
  -31.7823  -14.8188   20.1583 O   0  0  0  0  0  0
  -21.6633   -6.8868   21.4245 O   0  0  0  0  0  0
  -22.3530  -14.5543   20.6707 O   0  0  0  0  0  0
  -24.6293  -31.8604   23.2035 C   0  0  0  0  0  0
  -25.9132  -32.4801   23.8349 C   0  0  1  0  0  0
  -27.2097  -27.3014   20.1048 C   0  0  0  0  0  0
  -25.5957  -33.8590   24.2288 N   0  0  0  0  0  0
  -23.4217  -30.4894   21.5479 C   0  0  2  0  0  0
  -24.8641  -28.9545   20.1110 C   0  0  0  0  0  0
  -22.7484  -29.4629   22.4910 C   0  0  0  0  0  0
  -18.0287  -28.1358   22.8478 C   0  0  0  0  0  0
  -24.1500  -36.7279   23.2632 C   0  0  0  0  0  0
  -25.9677  -30.7892   21.3755 C   0  0  0  0  0  0
  -26.0410  -29.4168   20.7146 C   0  0  0  0  0  0
  -27.2183  -28.6047   20.7018 C   0  0  0  0  0  0
  -26.0010  -26.9097   19.4754 C   0  0  0  0  0  0
  -24.8477  -27.7061   19.4838 C   0  0  0  0  0  0
  -23.6363  -29.8373   20.1610 C   0  0  0  0  0  0
  -25.4119  -36.3082   24.0331 C   0  0  1  0  0  0
  -20.5889  -28.3668   23.1269 C   0  0  2  0  0  0
  -20.6779  -26.9392   22.5391 C   0  0  0  0  0  0
  -19.5760  -26.6347   21.5196 C   0  0  0  0  0  0
  -18.1933  -26.7900   22.1604 C   0  0  0  0  0  0
  -19.1540  -28.8824   23.2877 C   0  0  0  0  0  0
  -18.9475  -30.1423   23.8903 C   0  0  0  0  0  0
  -17.6478  -30.6569   24.0557 C   0  0  0  0  0  0
  -25.9052  -34.9465   23.5099 C   0  0  0  0  0  0
  -16.5369  -29.9060   23.6328 C   0  0  0  0  0  0
  -16.7273  -28.6471   23.0355 C   0  0  0  0  0  0
  -26.4498  -31.6592   25.0705 C   0  0  0  0  0  0
  -25.3702  -31.3761   26.1415 C   0  0  0  0  0  0
  -27.0305  -30.3008   24.6120 C   0  0  0  0  0  0
  -27.6087  -32.4277   25.7468 C   0  0  0  0  0  0
  -27.5596  -37.1782   24.8454 C   0  0  0  0  0  0
  -21.4188  -29.3046   22.3675 N   0  0  0  0  0  0
  -26.4286  -37.3785   23.9430 N   0  0  0  0  0  0
  -24.6933  -31.0608   22.1004 N   0  0  0  0  0  0
  -23.4217  -28.8132   23.2951 O   0  0  0  0  0  0
  -28.2992  -26.4013   20.1536 O   0  0  0  0  0  0
  -26.5601  -34.8949   22.4651 O   0  0  0  0  0  0
  -23.5450  -32.1392   23.7351 O   0  0  0  0  0  0
  -30.8317  -19.3761   20.9666 C   0  0  0  0  0  0
  -30.8915  -17.9486   21.0366 C   0  0  0  0  0  0
  -28.7104  -19.2530   19.8565 C   0  0  0  0  0  0
  -29.7382  -20.0924   20.3810 C   0  0  0  0  0  0
  -29.8470  -17.1366   20.5281 C   0  0  0  0  0  0
  -28.7609  -17.8265   19.9277 C   0  0  0  0  0  0
  -30.2873  -23.7756   20.1342 C   0  0  0  0  0  0
  -28.9561  -23.7836   20.1771 C   0  0  0  0  0  0
  -30.7606  -22.4025   20.2060 C   0  0  0  0  0  0
  -28.5555  -22.3707   20.3017 C   0  0  0  0  0  0
  -27.9445  -24.9636   19.9750 C   0  0  0  0  0  0
  -29.6796  -21.5840   20.3065 N   0  0  0  0  0  0
  -27.7242  -17.0797   19.3655 N   0  0  0  0  0  0
  -29.7419  -15.6890   20.6996 N   0  0  0  0  0  0
  -31.9430  -22.0467   20.1459 O   0  0  0  0  0  0
  -27.3943  -21.9555   20.3977 O   0  0  0  0  0  0
  -31.4822  -12.5364   19.1343 H   0  0  0  0  0  0
  -30.3879  -11.3997   19.8763 H   0  0  0  0  0  0
  -29.7703  -11.7634   17.4682 H   0  0  0  0  0  0
  -29.6361  -13.4839   17.7373 H   0  0  0  0  0  0
  -27.8733  -11.2868   18.8607 H   0  0  0  0  0  0
  -27.3697  -12.5679   17.7915 H   0  0  0  0  0  0
  -27.6621  -14.2434   19.5177 H   0  0  0  0  0  0
  -28.7127  -12.0343   21.3539 H   0  0  0  0  0  0
  -28.4493  -13.6833   21.8447 H   0  0  0  0  0  0
  -25.2752   -9.5688   22.4740 H   0  0  0  0  0  0
  -24.0001   -7.4637   22.7472 H   0  0  0  0  0  0
  -21.0817   -8.8744   19.8955 H   0  0  0  0  0  0
  -22.3657  -10.9656   19.6172 H   0  0  0  0  0  0
  -21.2015   -7.6144   23.9738 H   0  0  0  0  0  0
  -21.1476   -6.0506   25.9086 H   0  0  0  0  0  0
  -22.0599   -2.7609   23.2846 H   0  0  0  0  0  0
  -22.4094  -11.9853   22.4738 H   0  0  0  0  0  0
  -21.1119  -13.1243   22.2620 H   0  0  0  0  0  0
  -24.6556  -15.8297   20.6119 H   0  0  0  0  0  0
  -26.2696  -15.6813   20.1531 H   0  0  0  0  0  0
  -26.7205  -32.5491   23.1103 H   0  0  0  0  0  0
  -25.0190  -33.9746   25.0494 H   0  0  0  0  0  0
  -22.7161  -31.3107   21.4080 H   0  0  0  0  0  0
  -23.3796  -35.9571   23.3222 H   0  0  0  0  0  0
  -24.3623  -36.8940   22.2062 H   0  0  0  0  0  0
  -23.7196  -37.6441   23.6686 H   0  0  0  0  0  0
  -26.0911  -31.5539   20.6077 H   0  0  0  0  0  0
  -26.8542  -30.8424   21.9966 H   0  0  0  0  0  0
  -28.1189  -28.9561   21.1856 H   0  0  0  0  0  0
  -25.8858  -25.9645   18.9720 H   0  0  0  0  0  0
  -23.9468  -27.3434   19.0086 H   0  0  0  0  0  0
  -23.7631  -30.6212   19.4128 H   0  0  0  0  0  0
  -22.7546  -29.2729   19.8513 H   0  0  0  0  0  0
  -25.1285  -36.1935   25.0814 H   0  0  0  0  0  0
  -20.9986  -28.3235   24.1394 H   0  0  0  0  0  0
  -20.5649  -26.2283   23.3584 H   0  0  0  0  0  0
  -21.6649  -26.7391   22.1212 H   0  0  0  0  0  0
  -19.6932  -25.6247   21.1242 H   0  0  0  0  0  0
  -19.6732  -27.3147   20.6723 H   0  0  0  0  0  0
  -17.4212  -26.6651   21.4006 H   0  0  0  0  0  0
  -18.0347  -26.0027   22.8983 H   0  0  0  0  0  0
  -19.7960  -30.7221   24.2290 H   0  0  0  0  0  0
  -17.5041  -31.6270   24.5112 H   0  0  0  0  0  0
  -15.5374  -30.2979   23.7629 H   0  0  0  0  0  0
  -15.8667  -28.0791   22.7082 H   0  0  0  0  0  0
  -24.5935  -30.7036   25.7761 H   0  0  0  0  0  0
  -24.8842  -32.2947   26.4719 H   0  0  0  0  0  0
  -25.7993  -30.9051   27.0266 H   0  0  0  0  0  0
  -26.2867  -29.6782   24.1139 H   0  0  0  0  0  0
  -27.4023  -29.7231   25.4593 H   0  0  0  0  0  0
  -27.8731  -30.4302   23.9314 H   0  0  0  0  0  0
  -27.2767  -33.3623   26.2002 H   0  0  0  0  0  0
  -28.3941  -32.6721   25.0299 H   0  0  0  0  0  0
  -28.0693  -31.8390   26.5411 H   0  0  0  0  0  0
  -28.2548  -38.0147   24.7582 H   0  0  0  0  0  0
  -28.1151  -36.2674   24.6159 H   0  0  0  0  0  0
  -27.2332  -37.1279   25.8859 H   0  0  0  0  0  0
  -20.9331  -29.8860   21.6994 H   0  0  0  0  0  0
  -26.0158  -38.2836   24.1510 H   0  0  0  0  0  0
  -31.6586  -19.9191   21.4015 H   0  0  0  0  0  0
  -31.7388  -17.4826   21.5208 H   0  0  0  0  0  0
  -27.8580  -19.7078   19.3727 H   0  0  0  0  0  0
  -30.9151  -24.6405   19.9932 H   0  0  0  0  0  0
  -27.0938  -24.7431   20.6218 H   0  0  0  0  0  0
  -27.6156  -24.8205   18.9459 H   0  0  0  0  0  0
  -27.0829  -17.6158   18.7885 H   0  0  0  0  0  0
  -28.0503  -16.2731   18.8470 H   0  0  0  0  0  0
  -28.7851  -15.3847   20.7980 H   0  0  0  0  0  0
  1 25  1  0  0  0
  1 30  2  0  0  0
  1 84  1  0  0  0
  2  3  1  0  0  0
  2 25  1  0  0  0
  2 87  1  0  0  0
  2 88  1  0  0  0
  3  4  1  0  0  0
  3 89  1  0  0  0
  3 90  1  0  0  0
  4  5  1  0  0  0
  4 91  1  0  0  0
  4 92  1  0  0  0
  5  6  1  0  0  0
  5 26  1  0  0  0
  5 93  1  0  0  0
  6 25  1  0  0  0
  6 94  1  0  0  0
  6 95  1  0  0  0
  7  8  2  0  0  0
  7 26  1  0  0  0
  7 29  1  0  0  0
  8  9  1  0  0  0
  8 22  1  0  0  0
  9 10  1  0  0  0
  9 27  2  0  0  0
 10 11  2  0  0  0
 10 15  1  0  0  0
 11 12  1  0  0  0
 11 96  1  0  0  0
 12 13  2  0  0  0
 12 97  1  0  0  0
 13 14  1  0  0  0
 13 31  1  0  0  0
 14 15  2  0  0  0
 14 98  1  0  0  0
 15 99  1  0  0  0
 16 17  2  0  0  0
 16 21  1  0  0  0
 16 31  1  0  0  0
 17 18  1  0  0  0
 17100  1  0  0  0
 18 19  2  0  0  0
 18101  1  0  0  0
 19 20  1  0  0  0
 19 24  1  0  0  0
 20 21  2  0  0  0
 20102  1  0  0  0
 21 23  1  0  0  0
 22 28  1  0  0  0
 22 32  2  0  0  0
 26 27  1  0  0  0
 28103  1  0  0  0
 28104  1  0  0  0
 29105  1  0  0  0
 29106  1  0  0  0
 33 34  1  0  0  0
 33 66  1  0  0  0
 33 70  2  0  0  0
 34 36  1  0  0  0
 34 59  1  0  0  0
 34107  1  0  0  0
 35 44  2  0  0  0
 35 45  1  0  0  0
 35 68  1  0  0  0
 36 56  1  0  0  0
 36108  1  0  0  0
 37 39  1  0  0  0
 37 47  1  0  0  0
 37 66  1  0  0  0
 37109  1  0  0  0
 38 43  2  0  0  0
 38 46  1  0  0  0
 38 47  1  0  0  0
 39 64  1  0  0  0
 39 67  2  0  0  0
 40 52  1  0  0  0
 40 53  2  0  0  0
 40 58  1  0  0  0
 41110  1  0  0  0
 41111  1  0  0  0
 41112  1  0  0  0
 41 48  1  0  0  0
 42 43  1  0  0  0
 42 66  1  0  0  0
 42113  1  0  0  0
 42114  1  0  0  0
 43 44  1  0  0  0
 44115  1  0  0  0
 45 46  2  0  0  0
 45116  1  0  0  0
 46117  1  0  0  0
 47118  1  0  0  0
 47119  1  0  0  0
 48 56  1  0  0  0
 48 65  1  0  0  0
 48120  1  0  0  0
 49 50  1  0  0  0
 49 53  1  0  0  0
 49 64  1  0  0  0
 49121  1  0  0  0
 50 51  1  0  0  0
 50122  1  0  0  0
 50123  1  0  0  0
 51 52  1  0  0  0
 51124  1  0  0  0
 51125  1  0  0  0
 52126  1  0  0  0
 52127  1  0  0  0
 53 54  1  0  0  0
 54 55  2  0  0  0
 54128  1  0  0  0
 55 57  1  0  0  0
 55129  1  0  0  0
 56 69  2  0  0  0
 57 58  2  0  0  0
 57130  1  0  0  0
 58131  1  0  0  0
 59 60  1  0  0  0
 59 61  1  0  0  0
 59 62  1  0  0  0
 60132  1  0  0  0
 60133  1  0  0  0
 60134  1  0  0  0
 61135  1  0  0  0
 61136  1  0  0  0
 61137  1  0  0  0
 62138  1  0  0  0
 62139  1  0  0  0
 62140  1  0  0  0
 63 65  1  0  0  0
 63141  1  0  0  0
 63142  1  0  0  0
 63143  1  0  0  0
 64144  1  0  0  0
 65145  1  0  0  0
 68 81  1  0  0  0
 71 72  2  0  0  0
 71 74  1  0  0  0
 71146  1  0  0  0
 72 75  1  0  0  0
 72147  1  0  0  0
 73 74  2  0  0  0
 73 76  1  0  0  0
 73148  1  0  0  0
 74 82  1  0  0  0
 75 76  2  0  0  0
 75 84  1  0  0  0
 76 83  1  0  0  0
 77 78  2  0  0  0
 77 79  1  0  0  0
 77149  1  0  0  0
 78 80  1  0  0  0
 78 81  1  0  0  0
 79 82  1  0  0  0
 79 85  2  0  0  0
 80 82  1  0  0  0
 80 86  2  0  0  0
 81150  1  0  0  0
 81151  1  0  0  0
 83152  1  0  0  0
 83153  1  0  0  0
 84154  1  0  0  0
M  ISO  4   1 100  68 101  81 101  84 100
M  END
> <chiral flag>
0

> <version>
0

> <s_m_source_file>
/data/baiqing/PycharmProjects/Reinvent-master-3.2/result/LINK_invent/BTK/process_docking_weight1_custom_product_contain_oxygen_bond_distance_aromatic_linkinvent_7_9_3/rearranged_h_0085.sdf

> <i_m_source_file_index>
47

> <r_mmod_Potential_Energy-OPLS-2005>
4.27423620223999

> <r_mmod_Stretch_Energy-OPLS-2005>
87.2745895385742

> <r_mmod_Bend_Energy-OPLS-2005>
188.670684814453

> <r_mmod_Torsional_Energy-OPLS-2005>
256.870788574219

> <r_mmod_Improper_Torsional_Energy-OPLS-2005>
11.846996307373

> <r_mmod_Van_der_Waal_Energy-OPLS-2005>
155.035400390625

> <r_mmod_Electrostatic_Energy-OPLS-2005>
-518.645629882812

> <r_mmod_Solvation_Energy-OPLS-2005>
-235.068984985352

> <b_mmod_Minimization_Converged-OPLS-2005>
0

> <r_mmod_RMS_Derivative-OPLS-2005>
2.3071711063385

$$$$
48
                    3D
 Structure written by MMmdl.
152161  0  0  1  0            999 V2000
  -30.6262  -14.7859   20.4441 C   0  0  0  0  0  0
  -30.4222  -12.4790   19.4853 C   0  0  0  0  0  0
  -29.5082  -12.5070   18.2418 C   0  0  0  0  0  0
  -28.0363  -12.3275   18.6563 C   0  0  0  0  0  0
  -27.6355  -13.2409   19.8457 C   0  0  2  0  0  0
  -28.6797  -13.2150   20.9833 C   0  0  0  0  0  0
  -25.2479  -13.8217   20.5707 C   0  0  0  0  0  0
  -24.1785  -13.0447   20.9221 C   0  0  0  0  0  0
  -24.6391  -11.6928   20.8757 C   0  0  0  0  0  0
  -23.9075  -10.4297   21.0409 C   0  0  0  0  0  0
  -24.3624   -9.4210   21.9186 C   0  0  0  0  0  0
  -23.6298   -8.2246   22.0755 C   0  0  0  0  0  0
  -22.4280   -8.0284   21.3544 C   0  0  0  0  0  0
  -21.9918   -9.0258   20.4647 C   0  0  0  0  0  0
  -22.7248  -10.2137   20.3057 C   0  0  0  0  0  0
  -21.6854   -6.0737   22.5279 C   0  0  0  0  0  0
  -21.4016   -6.5641   23.8212 C   0  0  0  0  0  0
  -21.3660   -5.6793   24.9174 C   0  0  0  0  0  0
  -21.6043   -4.3056   24.7224 C   0  0  0  0  0  0
  -21.8819   -3.8148   23.4345 C   0  0  0  0  0  0
  -21.9194   -4.6965   22.3402 C   0  0  0  0  0  0
  -22.7805  -13.5218   21.1876 C   0  0  0  0  0  0
  -22.1661   -4.2150   21.0979 F   0  0  0  0  0  0
  -21.5629   -3.4539   25.7738 F   0  0  0  0  0  0
  -29.9744  -13.5680   20.3912 N   0  0  0  0  0  0
  -26.2908  -12.9441   20.3276 N   0  0  0  0  0  0
  -25.9324  -11.6573   20.5759 N   0  0  0  0  0  0
  -22.0454  -12.8204   22.0429 N   0  0  0  0  0  0
  -25.4150  -15.1943   20.4118 N   0  0  0  0  0  0
  -31.8209  -14.8012   20.1401 O   0  0  0  0  0  0
  -21.6642   -6.8881   21.4241 O   0  0  0  0  0  0
  -22.3487  -14.5521   20.6721 O   0  0  0  0  0  0
  -24.6337  -31.8519   23.1952 C   0  0  0  0  0  0
  -25.9152  -32.4734   23.8305 C   0  0  1  0  0  0
  -27.2202  -27.2325   20.1235 C   0  0  0  0  0  0
  -25.5936  -33.8538   24.2228 N   0  0  0  0  0  0
  -23.4316  -30.4738   21.5390 C   0  0  2  0  0  0
  -24.8781  -28.9162   20.1063 C   0  0  0  0  0  0
  -22.7514  -29.4584   22.4895 C   0  0  0  0  0  0
  -18.0292  -28.1388   22.8481 C   0  0  0  0  0  0
  -24.1490  -36.7275   23.2642 C   0  0  0  0  0  0
  -25.9792  -30.7551   21.3789 C   0  0  0  0  0  0
  -26.0497  -29.3754   20.7192 C   0  0  0  0  0  0
  -27.2184  -28.5444   20.7193 C   0  0  0  0  0  0
  -26.0179  -26.8427   19.4910 C   0  0  0  0  0  0
  -24.8690  -27.6594   19.4828 C   0  0  0  0  0  0
  -23.6503  -29.8064   20.1552 C   0  0  0  0  0  0
  -25.4119  -36.3058   24.0322 C   0  0  1  0  0  0
  -20.5898  -28.3701   23.1262 C   0  0  2  0  0  0
  -20.6778  -26.9415   22.5408 C   0  0  0  0  0  0
  -19.5754  -26.6382   21.5211 C   0  0  0  0  0  0
  -18.1934  -26.7929   22.1624 C   0  0  0  0  0  0
  -19.1547  -28.8862   23.2865 C   0  0  0  0  0  0
  -18.9468  -30.1462   23.8886 C   0  0  0  0  0  0
  -17.6467  -30.6588   24.0560 C   0  0  0  0  0  0
  -25.9062  -34.9430   23.5081 C   0  0  0  0  0  0
  -16.5358  -29.9085   23.6334 C   0  0  0  0  0  0
  -16.7278  -28.6503   23.0353 C   0  0  0  0  0  0
  -26.4506  -31.6576   25.0712 C   0  0  0  0  0  0
  -25.3717  -31.3738   26.1426 C   0  0  0  0  0  0
  -27.0359  -30.2987   24.6227 C   0  0  0  0  0  0
  -27.6050  -32.4326   25.7492 C   0  0  0  0  0  0
  -27.5577  -37.1794   24.8466 C   0  0  0  0  0  0
  -21.4217  -29.3041   22.3644 N   0  0  0  0  0  0
  -26.4290  -37.3763   23.9407 N   0  0  0  0  0  0
  -24.7009  -31.0458   22.0939 N   0  0  0  0  0  0
  -23.4203  -28.8129   23.3006 O   0  0  0  0  0  0
  -28.3178  -26.3360   20.2265 O   0  0  0  0  0  0
  -26.5643  -34.8914   22.4656 O   0  0  0  0  0  0
  -23.5482  -32.1357   23.7233 O   0  0  0  0  0  0
  -32.1690  -19.0597   20.4405 C   0  0  0  0  0  0
  -31.2950  -20.1559   20.3863 C   0  0  0  0  0  0
  -31.6948  -17.7403   20.5253 C   0  0  0  0  0  0
  -29.4235  -18.6040   20.5146 C   0  0  0  0  0  0
  -29.8904  -20.0009   20.4263 C   0  0  0  0  0  0
  -30.3134  -17.4277   20.5454 C   0  0  0  0  0  0
  -27.8435  -23.0489   21.1827 C   0  0  0  0  0  0
  -28.5406  -23.5765   20.1685 C   0  0  0  0  0  0
  -28.1877  -21.6364   21.3678 C   0  0  0  0  0  0
  -29.3499  -22.4288   19.6745 C   0  0  0  0  0  0
  -28.4334  -25.0257   19.4786 C   0  0  0  0  0  0
  -29.1021  -21.2929   20.4303 N   0  0  0  0  0  0
  -29.8986  -15.9768   20.6177 N   0  0  0  0  0  0
  -27.7257  -20.8737   22.2240 O   0  0  0  0  0  0
  -30.1159  -22.4609   18.7041 O   0  0  0  0  0  0
  -31.4648  -12.5851   19.1817 H   0  0  0  0  0  0
  -30.3594  -11.5133   19.9895 H   0  0  0  0  0  0
  -29.7978  -11.7236   17.5400 H   0  0  0  0  0  0
  -29.6308  -13.4539   17.7134 H   0  0  0  0  0  0
  -27.9009  -11.2814   18.9334 H   0  0  0  0  0  0
  -27.3780  -12.5029   17.8045 H   0  0  0  0  0  0
  -27.6180  -14.2551   19.4461 H   0  0  0  0  0  0
  -28.7249  -12.2307   21.4517 H   0  0  0  0  0  0
  -28.4095  -13.9196   21.7713 H   0  0  0  0  0  0
  -25.2767   -9.5686   22.4763 H   0  0  0  0  0  0
  -24.0006   -7.4637   22.7474 H   0  0  0  0  0  0
  -21.0850   -8.8778   19.8951 H   0  0  0  0  0  0
  -22.3706  -10.9677   19.6168 H   0  0  0  0  0  0
  -21.2008   -7.6149   23.9716 H   0  0  0  0  0  0
  -21.1481   -6.0523   25.9077 H   0  0  0  0  0  0
  -22.0598   -2.7610   23.2845 H   0  0  0  0  0  0
  -22.4077  -11.9869   22.4819 H   0  0  0  0  0  0
  -21.1069  -13.1220   22.2633 H   0  0  0  0  0  0
  -24.6443  -15.8448   20.5202 H   0  0  0  0  0  0
  -26.2564  -15.6351   20.0637 H   0  0  0  0  0  0
  -26.7213  -32.5371   23.1037 H   0  0  0  0  0  0
  -25.0066  -33.9664   25.0362 H   0  0  0  0  0  0
  -22.7297  -31.2972   21.3914 H   0  0  0  0  0  0
  -23.3754  -35.9606   23.3303 H   0  0  0  0  0  0
  -24.3576  -36.8904   22.2056 H   0  0  0  0  0  0
  -23.7243  -37.6473   23.6673 H   0  0  0  0  0  0
  -26.1229  -31.5148   20.6092 H   0  0  0  0  0  0
  -26.8551  -30.8029   22.0145 H   0  0  0  0  0  0
  -28.1130  -28.8889   21.2190 H   0  0  0  0  0  0
  -25.9110  -25.8721   19.0342 H   0  0  0  0  0  0
  -23.9676  -27.2976   19.0072 H   0  0  0  0  0  0
  -23.7760  -30.5823   19.3992 H   0  0  0  0  0  0
  -22.7675  -29.2414   19.8502 H   0  0  0  0  0  0
  -25.1304  -36.1899   25.0815 H   0  0  0  0  0  0
  -20.9989  -28.3284   24.1383 H   0  0  0  0  0  0
  -20.5677  -26.2310   23.3616 H   0  0  0  0  0  0
  -21.6645  -26.7434   22.1203 H   0  0  0  0  0  0
  -19.6917  -25.6292   21.1245 H   0  0  0  0  0  0
  -19.6693  -27.3189   20.6740 H   0  0  0  0  0  0
  -17.4202  -26.6672   21.4028 H   0  0  0  0  0  0
  -18.0336  -26.0074   22.9026 H   0  0  0  0  0  0
  -19.7946  -30.7276   24.2253 H   0  0  0  0  0  0
  -17.5023  -31.6269   24.5160 H   0  0  0  0  0  0
  -15.5358  -30.2982   23.7666 H   0  0  0  0  0  0
  -15.8678  -28.0818   22.7076 H   0  0  0  0  0  0
  -24.5905  -30.7072   25.7755 H   0  0  0  0  0  0
  -24.8891  -32.2909   26.4814 H   0  0  0  0  0  0
  -25.8023  -30.8945   27.0226 H   0  0  0  0  0  0
  -26.2952  -29.6725   24.1241 H   0  0  0  0  0  0
  -27.4015  -29.7263   25.4763 H   0  0  0  0  0  0
  -27.8840  -30.4249   23.9494 H   0  0  0  0  0  0
  -27.2655  -33.3642   26.2029 H   0  0  0  0  0  0
  -28.3882  -32.6858   25.0334 H   0  0  0  0  0  0
  -28.0692  -31.8475   26.5441 H   0  0  0  0  0  0
  -28.2593  -38.0091   24.7507 H   0  0  0  0  0  0
  -28.1072  -36.2620   24.6300 H   0  0  0  0  0  0
  -27.2290  -37.1451   25.8869 H   0  0  0  0  0  0
  -20.9407  -29.8764   21.6846 H   0  0  0  0  0  0
  -26.0165  -38.2835   24.1408 H   0  0  0  0  0  0
  -33.2358  -19.2353   20.4260 H   0  0  0  0  0  0
  -31.7382  -21.1413   20.3397 H   0  0  0  0  0  0
  -32.4544  -16.9788   20.5843 H   0  0  0  0  0  0
  -28.3571  -18.4323   20.5570 H   0  0  0  0  0  0
  -27.0984  -23.5740   21.7592 H   0  0  0  0  0  0
  -27.7163  -24.9488   18.6652 H   0  0  0  0  0  0
  -29.3797  -25.1378   18.9489 H   0  0  0  0  0  0
  -28.9136  -15.8240   20.7716 H   0  0  0  0  0  0
  1 25  1  0  0  0
  1 30  2  0  0  0
  1 83  1  0  0  0
  2  3  1  0  0  0
  2 25  1  0  0  0
  2 86  1  0  0  0
  2 87  1  0  0  0
  3  4  1  0  0  0
  3 88  1  0  0  0
  3 89  1  0  0  0
  4  5  1  0  0  0
  4 90  1  0  0  0
  4 91  1  0  0  0
  5  6  1  0  0  0
  5 26  1  0  0  0
  5 92  1  0  0  0
  6 25  1  0  0  0
  6 93  1  0  0  0
  6 94  1  0  0  0
  7  8  2  0  0  0
  7 26  1  0  0  0
  7 29  1  0  0  0
  8  9  1  0  0  0
  8 22  1  0  0  0
  9 10  1  0  0  0
  9 27  2  0  0  0
 10 11  2  0  0  0
 10 15  1  0  0  0
 11 12  1  0  0  0
 11 95  1  0  0  0
 12 13  2  0  0  0
 12 96  1  0  0  0
 13 14  1  0  0  0
 13 31  1  0  0  0
 14 15  2  0  0  0
 14 97  1  0  0  0
 15 98  1  0  0  0
 16 17  2  0  0  0
 16 21  1  0  0  0
 16 31  1  0  0  0
 17 18  1  0  0  0
 17 99  1  0  0  0
 18 19  2  0  0  0
 18100  1  0  0  0
 19 20  1  0  0  0
 19 24  1  0  0  0
 20 21  2  0  0  0
 20101  1  0  0  0
 21 23  1  0  0  0
 22 28  1  0  0  0
 22 32  2  0  0  0
 26 27  1  0  0  0
 28102  1  0  0  0
 28103  1  0  0  0
 29104  1  0  0  0
 29105  1  0  0  0
 33 34  1  0  0  0
 33 66  1  0  0  0
 33 70  2  0  0  0
 34 36  1  0  0  0
 34 59  1  0  0  0
 34106  1  0  0  0
 35 44  2  0  0  0
 35 45  1  0  0  0
 35 68  1  0  0  0
 36 56  1  0  0  0
 36107  1  0  0  0
 37 39  1  0  0  0
 37 47  1  0  0  0
 37 66  1  0  0  0
 37108  1  0  0  0
 38 43  2  0  0  0
 38 46  1  0  0  0
 38 47  1  0  0  0
 39 64  1  0  0  0
 39 67  2  0  0  0
 40 52  1  0  0  0
 40 53  2  0  0  0
 40 58  1  0  0  0
 41109  1  0  0  0
 41110  1  0  0  0
 41111  1  0  0  0
 41 48  1  0  0  0
 42 43  1  0  0  0
 42 66  1  0  0  0
 42112  1  0  0  0
 42113  1  0  0  0
 43 44  1  0  0  0
 44114  1  0  0  0
 45 46  2  0  0  0
 45115  1  0  0  0
 46116  1  0  0  0
 47117  1  0  0  0
 47118  1  0  0  0
 48 56  1  0  0  0
 48 65  1  0  0  0
 48119  1  0  0  0
 49 50  1  0  0  0
 49 53  1  0  0  0
 49 64  1  0  0  0
 49120  1  0  0  0
 50 51  1  0  0  0
 50121  1  0  0  0
 50122  1  0  0  0
 51 52  1  0  0  0
 51123  1  0  0  0
 51124  1  0  0  0
 52125  1  0  0  0
 52126  1  0  0  0
 53 54  1  0  0  0
 54 55  2  0  0  0
 54127  1  0  0  0
 55 57  1  0  0  0
 55128  1  0  0  0
 56 69  2  0  0  0
 57 58  2  0  0  0
 57129  1  0  0  0
 58130  1  0  0  0
 59 60  1  0  0  0
 59 61  1  0  0  0
 59 62  1  0  0  0
 60131  1  0  0  0
 60132  1  0  0  0
 60133  1  0  0  0
 61134  1  0  0  0
 61135  1  0  0  0
 61136  1  0  0  0
 62137  1  0  0  0
 62138  1  0  0  0
 62139  1  0  0  0
 63 65  1  0  0  0
 63140  1  0  0  0
 63141  1  0  0  0
 63142  1  0  0  0
 64143  1  0  0  0
 65144  1  0  0  0
 68 81  1  0  0  0
 71 72  2  0  0  0
 71 73  1  0  0  0
 71145  1  0  0  0
 72 75  1  0  0  0
 72146  1  0  0  0
 73 76  2  0  0  0
 73147  1  0  0  0
 74 75  2  0  0  0
 74 76  1  0  0  0
 74148  1  0  0  0
 75 82  1  0  0  0
 76 83  1  0  0  0
 77 78  2  0  0  0
 77 79  1  0  0  0
 77149  1  0  0  0
 78 80  1  0  0  0
 78 81  1  0  0  0
 79 82  1  0  0  0
 79 84  2  0  0  0
 80 82  1  0  0  0
 80 85  2  0  0  0
 81150  1  0  0  0
 81151  1  0  0  0
 83152  1  0  0  0
M  ISO  4   1 100  68 101  81 101  83 100
M  END
> <chiral flag>
0

> <version>
0

> <s_m_source_file>
/data/baiqing/PycharmProjects/Reinvent-master-3.2/result/LINK_invent/BTK/process_docking_weight1_custom_product_contain_oxygen_bond_distance_aromatic_linkinvent_7_9_3/rearranged_h_0085.sdf

> <i_m_source_file_index>
48

> <r_mmod_Potential_Energy-OPLS-2005>
263.750366210938

> <r_mmod_Stretch_Energy-OPLS-2005>
153.43913269043

> <r_mmod_Bend_Energy-OPLS-2005>
235.681442260742

> <r_mmod_Torsional_Energy-OPLS-2005>
243.639572143555

> <r_mmod_Improper_Torsional_Energy-OPLS-2005>
5.71787691116333

> <r_mmod_Van_der_Waal_Energy-OPLS-2005>
143.333236694336

> <r_mmod_Electrostatic_Energy-OPLS-2005>
-383.01611328125

> <r_mmod_Solvation_Energy-OPLS-2005>
-238.981216430664

> <b_mmod_Minimization_Converged-OPLS-2005>
0

> <r_mmod_RMS_Derivative-OPLS-2005>
0.281984508037567

$$$$
49
                    3D
 Structure written by MMmdl.
155164  0  0  1  0            999 V2000
  -30.5961  -14.8139   20.4014 C   0  0  0  0  0  0
  -30.4296  -12.4903   19.4854 C   0  0  0  0  0  0
  -29.5159  -12.4998   18.2396 C   0  0  0  0  0  0
  -28.0416  -12.3202   18.6511 C   0  0  0  0  0  0
  -27.6342  -13.2390   19.8351 C   0  0  2  0  0  0
  -28.6771  -13.2264   20.9731 C   0  0  0  0  0  0
  -25.2508  -13.8206   20.5689 C   0  0  0  0  0  0
  -24.1813  -13.0440   20.9210 C   0  0  0  0  0  0
  -24.6407  -11.6922   20.8730 C   0  0  0  0  0  0
  -23.9080  -10.4295   21.0389 C   0  0  0  0  0  0
  -24.3632   -9.4213   21.9168 C   0  0  0  0  0  0
  -23.6310   -8.2244   22.0739 C   0  0  0  0  0  0
  -22.4289   -8.0284   21.3539 C   0  0  0  0  0  0
  -21.9929   -9.0253   20.4636 C   0  0  0  0  0  0
  -22.7250  -10.2136   20.3040 C   0  0  0  0  0  0
  -21.6862   -6.0736   22.5274 C   0  0  0  0  0  0
  -21.4018   -6.5633   23.8206 C   0  0  0  0  0  0
  -21.3664   -5.6787   24.9164 C   0  0  0  0  0  0
  -21.6049   -4.3049   24.7216 C   0  0  0  0  0  0
  -21.8821   -3.8144   23.4332 C   0  0  0  0  0  0
  -21.9201   -4.6964   22.3394 C   0  0  0  0  0  0
  -22.7828  -13.5205   21.1865 C   0  0  0  0  0  0
  -22.1667   -4.2150   21.0971 F   0  0  0  0  0  0
  -21.5638   -3.4530   25.7728 F   0  0  0  0  0  0
  -29.9689  -13.5831   20.3792 N   0  0  0  0  0  0
  -26.2915  -12.9420   20.3205 N   0  0  0  0  0  0
  -25.9333  -11.6561   20.5717 N   0  0  0  0  0  0
  -22.0489  -12.8188   22.0422 N   0  0  0  0  0  0
  -25.4199  -15.1933   20.4121 N   0  0  0  0  0  0
  -31.8132  -14.8377   20.1954 O   0  0  0  0  0  0
  -21.6653   -6.8881   21.4242 O   0  0  0  0  0  0
  -22.3510  -14.5509   20.6704 O   0  0  0  0  0  0
  -24.6330  -31.8509   23.1953 C   0  0  0  0  0  0
  -25.9137  -32.4732   23.8306 C   0  0  1  0  0  0
  -27.2225  -27.2256   20.1515 C   0  0  0  0  0  0
  -25.5924  -33.8538   24.2232 N   0  0  0  0  0  0
  -23.4324  -30.4702   21.5375 C   0  0  2  0  0  0
  -24.8826  -28.9000   20.1218 C   0  0  0  0  0  0
  -22.7512  -29.4571   22.4900 C   0  0  0  0  0  0
  -18.0292  -28.1384   22.8481 C   0  0  0  0  0  0
  -24.1491  -36.7278   23.2644 C   0  0  0  0  0  0
  -25.9796  -30.7514   21.3812 C   0  0  0  0  0  0
  -26.0530  -29.3644   20.7373 C   0  0  0  0  0  0
  -27.2263  -28.5376   20.7439 C   0  0  0  0  0  0
  -26.0313  -26.8298   19.5141 C   0  0  0  0  0  0
  -24.8763  -27.6397   19.5017 C   0  0  0  0  0  0
  -23.6560  -29.7944   20.1578 C   0  0  0  0  0  0
  -25.4118  -36.3054   24.0323 C   0  0  1  0  0  0
  -20.5899  -28.3689   23.1264 C   0  0  2  0  0  0
  -20.6779  -26.9405   22.5408 C   0  0  0  0  0  0
  -19.5752  -26.6382   21.5211 C   0  0  0  0  0  0
  -18.1933  -26.7931   22.1623 C   0  0  0  0  0  0
  -19.1548  -28.8855   23.2870 C   0  0  0  0  0  0
  -18.9469  -30.1464   23.8877 C   0  0  0  0  0  0
  -17.6467  -30.6589   24.0560 C   0  0  0  0  0  0
  -25.9053  -34.9427   23.5081 C   0  0  0  0  0  0
  -16.5357  -29.9081   23.6338 C   0  0  0  0  0  0
  -16.7281  -28.6503   23.0350 C   0  0  0  0  0  0
  -26.4505  -31.6572   25.0711 C   0  0  0  0  0  0
  -25.3736  -31.3736   26.1439 C   0  0  0  0  0  0
  -27.0351  -30.2980   24.6219 C   0  0  0  0  0  0
  -27.6034  -32.4337   25.7493 C   0  0  0  0  0  0
  -27.5576  -37.1797   24.8467 C   0  0  0  0  0  0
  -21.4215  -29.3040   22.3653 N   0  0  0  0  0  0
  -26.4288  -37.3759   23.9409 N   0  0  0  0  0  0
  -24.7005  -31.0438   22.0943 N   0  0  0  0  0  0
  -23.4198  -28.8117   23.3011 O   0  0  0  0  0  0
  -28.3247  -26.3409   20.0702 O   0  0  0  0  0  0
  -26.5634  -34.8907   22.4655 O   0  0  0  0  0  0
  -23.5473  -32.1331   23.7237 O   0  0  0  0  0  0
  -30.5791  -20.0999   18.9561 C   0  0  0  0  0  0
  -31.2394  -18.9744   18.4434 C   0  0  0  0  0  0
  -29.3565  -18.6202   20.4493 C   0  0  0  0  0  0
  -29.5820  -19.9915   19.9478 C   0  0  0  0  0  0
  -30.9880  -17.6709   18.9098 C   0  0  0  0  0  0
  -30.0787  -17.4171   19.9819 C   0  0  0  0  0  0
  -27.5037  -21.4055   20.0825 C   0  0  0  0  0  0
  -29.3379  -22.5694   20.3246 C   0  0  0  0  0  0
  -27.0303  -22.8785   20.0495 C   0  0  0  0  0  0
  -28.3067  -23.7454   19.9931 C   0  0  2  0  0  0
  -28.8344  -21.2784   20.2329 N   0  0  0  0  0  0
  -31.6407  -16.6571   18.2163 N   0  0  0  0  0  0
  -29.8341  -15.9965   20.4619 N   0  0  0  0  0  0
  -28.2156  -25.0123   20.8505 N   0  0  0  0  0  0
  -26.7021  -20.4674   19.9916 O   0  0  0  0  0  0
  -30.5039  -22.8280   20.6459 O   0  0  0  0  0  0
  -31.4724  -12.6106   19.1838 H   0  0  0  0  0  0
  -30.3758  -11.5288   19.9982 H   0  0  0  0  0  0
  -29.8092  -11.7085   17.5485 H   0  0  0  0  0  0
  -29.6388  -13.4404   17.7003 H   0  0  0  0  0  0
  -27.9050  -11.2752   18.9322 H   0  0  0  0  0  0
  -27.3856  -12.4919   17.7971 H   0  0  0  0  0  0
  -27.6119  -14.2486   19.4245 H   0  0  0  0  0  0
  -28.7272  -12.2456   21.4476 H   0  0  0  0  0  0
  -28.4057  -13.9375   21.7554 H   0  0  0  0  0  0
  -25.2787   -9.5693   22.4733 H   0  0  0  0  0  0
  -24.0031   -7.4634   22.7447 H   0  0  0  0  0  0
  -21.0864   -8.8764   19.8938 H   0  0  0  0  0  0
  -22.3707  -10.9668   19.6143 H   0  0  0  0  0  0
  -21.1999   -7.6143   23.9712 H   0  0  0  0  0  0
  -21.1491   -6.0509   25.9071 H   0  0  0  0  0  0
  -22.0601   -2.7607   23.2830 H   0  0  0  0  0  0
  -22.4147  -11.9879   22.4836 H   0  0  0  0  0  0
  -21.1089  -13.1177   22.2591 H   0  0  0  0  0  0
  -24.6501  -15.8436   20.5233 H   0  0  0  0  0  0
  -26.2591  -15.6337   20.0593 H   0  0  0  0  0  0
  -26.7195  -32.5372   23.1035 H   0  0  0  0  0  0
  -25.0063  -33.9667   25.0373 H   0  0  0  0  0  0
  -22.7301  -31.2922   21.3854 H   0  0  0  0  0  0
  -23.3745  -35.9618   23.3301 H   0  0  0  0  0  0
  -24.3576  -36.8905   22.2059 H   0  0  0  0  0  0
  -23.7254  -37.6482   23.6670 H   0  0  0  0  0  0
  -26.1178  -31.5043   20.6041 H   0  0  0  0  0  0
  -26.8575  -30.8085   22.0132 H   0  0  0  0  0  0
  -28.1295  -28.8963   21.2176 H   0  0  0  0  0  0
  -25.9955  -25.8664   19.0258 H   0  0  0  0  0  0
  -23.9814  -27.2782   19.0142 H   0  0  0  0  0  0
  -23.7867  -30.5647   19.3974 H   0  0  0  0  0  0
  -22.7744  -29.2280   19.8520 H   0  0  0  0  0  0
  -25.1304  -36.1887   25.0814 H   0  0  0  0  0  0
  -20.9987  -28.3262   24.1385 H   0  0  0  0  0  0
  -20.5661  -26.2298   23.3612 H   0  0  0  0  0  0
  -21.6646  -26.7416   22.1205 H   0  0  0  0  0  0
  -19.6904  -25.6292   21.1242 H   0  0  0  0  0  0
  -19.6689  -27.3190   20.6739 H   0  0  0  0  0  0
  -17.4201  -26.6672   21.4030 H   0  0  0  0  0  0
  -18.0334  -26.0076   22.9021 H   0  0  0  0  0  0
  -19.7946  -30.7295   24.2221 H   0  0  0  0  0  0
  -17.5019  -31.6264   24.5171 H   0  0  0  0  0  0
  -15.5356  -30.2971   23.7684 H   0  0  0  0  0  0
  -15.8680  -28.0827   22.7055 H   0  0  0  0  0  0
  -24.5905  -30.7080   25.7792 H   0  0  0  0  0  0
  -24.8944  -32.2914   26.4854 H   0  0  0  0  0  0
  -25.8071  -30.8934   27.0220 H   0  0  0  0  0  0
  -26.2936  -29.6724   24.1237 H   0  0  0  0  0  0
  -27.4006  -29.7251   25.4751 H   0  0  0  0  0  0
  -27.8828  -30.4237   23.9481 H   0  0  0  0  0  0
  -27.2600  -33.3634   26.2042 H   0  0  0  0  0  0
  -28.3859  -32.6905   25.0343 H   0  0  0  0  0  0
  -28.0675  -31.8487   26.5441 H   0  0  0  0  0  0
  -28.2597  -38.0094   24.7500 H   0  0  0  0  0  0
  -28.1067  -36.2617   24.6303 H   0  0  0  0  0  0
  -27.2289  -37.1460   25.8873 H   0  0  0  0  0  0
  -20.9397  -29.8763   21.6864 H   0  0  0  0  0  0
  -26.0154  -38.2828   24.1407 H   0  0  0  0  0  0
  -30.8100  -21.0552   18.5057 H   0  0  0  0  0  0
  -31.9388  -19.1302   17.6336 H   0  0  0  0  0  0
  -28.5915  -18.4823   21.2006 H   0  0  0  0  0  0
  -26.4425  -23.0725   20.9467 H   0  0  0  0  0  0
  -26.3948  -23.0466   19.1812 H   0  0  0  0  0  0
  -28.5034  -24.0439   18.9629 H   0  0  0  0  0  0
  -32.4316  -16.9317   17.6443 H   0  0  0  0  0  0
  -31.8703  -15.8524   18.8084 H   0  0  0  0  0  0
  -28.8975  -15.8389   20.7959 H   0  0  0  0  0  0
  -27.3225  -25.0501   21.3291 H   0  0  0  0  0  0
  1 25  1  0  0  0
  1 30  2  0  0  0
  1 83  1  0  0  0
  2  3  1  0  0  0
  2 25  1  0  0  0
  2 87  1  0  0  0
  2 88  1  0  0  0
  3  4  1  0  0  0
  3 89  1  0  0  0
  3 90  1  0  0  0
  4  5  1  0  0  0
  4 91  1  0  0  0
  4 92  1  0  0  0
  5  6  1  0  0  0
  5 26  1  0  0  0
  5 93  1  0  0  0
  6 25  1  0  0  0
  6 94  1  0  0  0
  6 95  1  0  0  0
  7  8  2  0  0  0
  7 26  1  0  0  0
  7 29  1  0  0  0
  8  9  1  0  0  0
  8 22  1  0  0  0
  9 10  1  0  0  0
  9 27  2  0  0  0
 10 11  2  0  0  0
 10 15  1  0  0  0
 11 12  1  0  0  0
 11 96  1  0  0  0
 12 13  2  0  0  0
 12 97  1  0  0  0
 13 14  1  0  0  0
 13 31  1  0  0  0
 14 15  2  0  0  0
 14 98  1  0  0  0
 15 99  1  0  0  0
 16 17  2  0  0  0
 16 21  1  0  0  0
 16 31  1  0  0  0
 17 18  1  0  0  0
 17100  1  0  0  0
 18 19  2  0  0  0
 18101  1  0  0  0
 19 20  1  0  0  0
 19 24  1  0  0  0
 20 21  2  0  0  0
 20102  1  0  0  0
 21 23  1  0  0  0
 22 28  1  0  0  0
 22 32  2  0  0  0
 26 27  1  0  0  0
 28103  1  0  0  0
 28104  1  0  0  0
 29105  1  0  0  0
 29106  1  0  0  0
 33 34  1  0  0  0
 33 66  1  0  0  0
 33 70  2  0  0  0
 34 36  1  0  0  0
 34 59  1  0  0  0
 34107  1  0  0  0
 35 44  2  0  0  0
 35 45  1  0  0  0
 35 68  1  0  0  0
 36 56  1  0  0  0
 36108  1  0  0  0
 37 39  1  0  0  0
 37 47  1  0  0  0
 37 66  1  0  0  0
 37109  1  0  0  0
 38 43  2  0  0  0
 38 46  1  0  0  0
 38 47  1  0  0  0
 39 64  1  0  0  0
 39 67  2  0  0  0
 40 52  1  0  0  0
 40 53  2  0  0  0
 40 58  1  0  0  0
 41110  1  0  0  0
 41111  1  0  0  0
 41112  1  0  0  0
 41 48  1  0  0  0
 42 43  1  0  0  0
 42 66  1  0  0  0
 42113  1  0  0  0
 42114  1  0  0  0
 43 44  1  0  0  0
 44115  1  0  0  0
 45 46  2  0  0  0
 45116  1  0  0  0
 46117  1  0  0  0
 47118  1  0  0  0
 47119  1  0  0  0
 48 56  1  0  0  0
 48 65  1  0  0  0
 48120  1  0  0  0
 49 50  1  0  0  0
 49 53  1  0  0  0
 49 64  1  0  0  0
 49121  1  0  0  0
 50 51  1  0  0  0
 50122  1  0  0  0
 50123  1  0  0  0
 51 52  1  0  0  0
 51124  1  0  0  0
 51125  1  0  0  0
 52126  1  0  0  0
 52127  1  0  0  0
 53 54  1  0  0  0
 54 55  2  0  0  0
 54128  1  0  0  0
 55 57  1  0  0  0
 55129  1  0  0  0
 56 69  2  0  0  0
 57 58  2  0  0  0
 57130  1  0  0  0
 58131  1  0  0  0
 59 60  1  0  0  0
 59 61  1  0  0  0
 59 62  1  0  0  0
 60132  1  0  0  0
 60133  1  0  0  0
 60134  1  0  0  0
 61135  1  0  0  0
 61136  1  0  0  0
 61137  1  0  0  0
 62138  1  0  0  0
 62139  1  0  0  0
 62140  1  0  0  0
 63 65  1  0  0  0
 63141  1  0  0  0
 63142  1  0  0  0
 63143  1  0  0  0
 64144  1  0  0  0
 65145  1  0  0  0
 68 84  1  0  0  0
 71 72  2  0  0  0
 71 74  1  0  0  0
 71146  1  0  0  0
 72 75  1  0  0  0
 72147  1  0  0  0
 73 74  2  0  0  0
 73 76  1  0  0  0
 73148  1  0  0  0
 74 81  1  0  0  0
 75 76  2  0  0  0
 75 82  1  0  0  0
 76 83  1  0  0  0
 77 79  1  0  0  0
 77 81  1  0  0  0
 77 85  2  0  0  0
 78 80  1  0  0  0
 78 81  1  0  0  0
 78 86  2  0  0  0
 79 80  1  0  0  0
 79149  1  0  0  0
 79150  1  0  0  0
 80 84  1  0  0  0
 80151  1  0  0  0
 82152  1  0  0  0
 82153  1  0  0  0
 83154  1  0  0  0
 84155  1  0  0  0
M  ISO  4   1 100  68 101  83 100  84 101
M  END
> <chiral flag>
0

> <version>
0

> <s_m_source_file>
/data/baiqing/PycharmProjects/Reinvent-master-3.2/result/LINK_invent/BTK/process_docking_weight1_custom_product_contain_oxygen_bond_distance_aromatic_linkinvent_7_9_3/rearranged_h_0085.sdf

> <i_m_source_file_index>
49

> <r_mmod_Potential_Energy-OPLS-2005>
240.120376586914

> <r_mmod_Stretch_Energy-OPLS-2005>
163.29328918457

> <r_mmod_Bend_Energy-OPLS-2005>
227.083419799805

> <r_mmod_Torsional_Energy-OPLS-2005>
300.067535400391

> <r_mmod_Improper_Torsional_Energy-OPLS-2005>
10.7183780670166

> <r_mmod_Van_der_Waal_Energy-OPLS-2005>
143.681579589844

> <r_mmod_Electrostatic_Energy-OPLS-2005>
-459.835205078125

> <r_mmod_Solvation_Energy-OPLS-2005>
-256.172058105469

> <b_mmod_Minimization_Converged-OPLS-2005>
0

> <r_mmod_RMS_Derivative-OPLS-2005>
1.63657510280609

$$$$
50
                    3D
 Structure written by MMmdl.
152161  0  0  1  0            999 V2000
  -30.6002  -14.6933   20.4889 C   0  0  0  0  0  0
  -30.4455  -12.4258   19.4556 C   0  0  0  0  0  0
  -29.5099  -12.5105   18.2272 C   0  0  0  0  0  0
  -28.0350  -12.3361   18.6416 C   0  0  0  0  0  0
  -27.6517  -13.2169   19.8601 C   0  0  2  0  0  0
  -28.6996  -13.0942   20.9903 C   0  0  0  0  0  0
  -25.2561  -13.8162   20.5679 C   0  0  0  0  0  0
  -24.1835  -13.0435   20.9209 C   0  0  0  0  0  0
  -24.6402  -11.6904   20.8758 C   0  0  0  0  0  0
  -23.9068  -10.4292   21.0412 C   0  0  0  0  0  0
  -24.3620   -9.4204   21.9182 C   0  0  0  0  0  0
  -23.6296   -8.2240   22.0748 C   0  0  0  0  0  0
  -22.4277   -8.0282   21.3542 C   0  0  0  0  0  0
  -21.9913   -9.0256   20.4644 C   0  0  0  0  0  0
  -22.7243  -10.2136   20.3057 C   0  0  0  0  0  0
  -21.6851   -6.0737   22.5279 C   0  0  0  0  0  0
  -21.4014   -6.5641   23.8213 C   0  0  0  0  0  0
  -21.3658   -5.6791   24.9172 C   0  0  0  0  0  0
  -21.6046   -4.3055   24.7222 C   0  0  0  0  0  0
  -21.8818   -3.8148   23.4343 C   0  0  0  0  0  0
  -21.9194   -4.6966   22.3402 C   0  0  0  0  0  0
  -22.7856  -13.5232   21.1863 C   0  0  0  0  0  0
  -22.1662   -4.2153   21.0981 F   0  0  0  0  0  0
  -21.5628   -3.4540   25.7735 F   0  0  0  0  0  0
  -30.0093  -13.4540   20.4229 N   0  0  0  0  0  0
  -26.2986  -12.9342   20.3310 N   0  0  0  0  0  0
  -25.9331  -11.6500   20.5763 N   0  0  0  0  0  0
  -22.0497  -12.8226   22.0417 N   0  0  0  0  0  0
  -25.4269  -15.1878   20.4045 N   0  0  0  0  0  0
  -31.7708  -14.8601   20.1338 O   0  0  0  0  0  0
  -21.6641   -6.8879   21.4237 O   0  0  0  0  0  0
  -22.3546  -14.5538   20.6703 O   0  0  0  0  0  0
  -24.6300  -31.8589   23.2029 C   0  0  0  0  0  0
  -25.9137  -32.4771   23.8361 C   0  0  1  0  0  0
  -27.2193  -27.2817   20.1064 C   0  0  0  0  0  0
  -25.5939  -33.8572   24.2278 N   0  0  0  0  0  0
  -23.4245  -30.4866   21.5466 C   0  0  2  0  0  0
  -24.8693  -28.9434   20.1121 C   0  0  0  0  0  0
  -22.7495  -29.4636   22.4924 C   0  0  0  0  0  0
  -18.0295  -28.1397   22.8484 C   0  0  0  0  0  0
  -24.1492  -36.7291   23.2632 C   0  0  0  0  0  0
  -25.9722  -30.7752   21.3845 C   0  0  0  0  0  0
  -26.0421  -29.4009   20.7246 C   0  0  0  0  0  0
  -27.2151  -28.5797   20.7198 C   0  0  0  0  0  0
  -26.0172  -26.9033   19.4560 C   0  0  0  0  0  0
  -24.8609  -27.6999   19.4719 C   0  0  0  0  0  0
  -23.6410  -29.8279   20.1610 C   0  0  0  0  0  0
  -25.4114  -36.3076   24.0325 C   0  0  1  0  0  0
  -20.5901  -28.3709   23.1272 C   0  0  2  0  0  0
  -20.6791  -26.9430   22.5407 C   0  0  0  0  0  0
  -19.5761  -26.6392   21.5217 C   0  0  0  0  0  0
  -18.1941  -26.7938   22.1629 C   0  0  0  0  0  0
  -19.1550  -28.8867   23.2873 C   0  0  0  0  0  0
  -18.9470  -30.1470   23.8890 C   0  0  0  0  0  0
  -17.6467  -30.6593   24.0571 C   0  0  0  0  0  0
  -25.9057  -34.9447   23.5100 C   0  0  0  0  0  0
  -16.5359  -29.9090   23.6336 C   0  0  0  0  0  0
  -16.7282  -28.6514   23.0344 C   0  0  0  0  0  0
  -26.4507  -31.6577   25.0733 C   0  0  0  0  0  0
  -25.3735  -31.3726   26.1452 C   0  0  0  0  0  0
  -27.0350  -30.2990   24.6216 C   0  0  0  0  0  0
  -27.6070  -32.4310   25.7501 C   0  0  0  0  0  0
  -27.5587  -37.1791   24.8454 C   0  0  0  0  0  0
  -21.4206  -29.3056   22.3657 N   0  0  0  0  0  0
  -26.4286  -37.3780   23.9420 N   0  0  0  0  0  0
  -24.6946  -31.0571   22.1003 N   0  0  0  0  0  0
  -23.4205  -28.8162   23.3006 O   0  0  0  0  0  0
  -28.3327  -26.4058   20.1523 O   0  0  0  0  0  0
  -26.5625  -34.8917   22.4668 O   0  0  0  0  0  0
  -23.5453  -32.1409   23.7331 O   0  0  0  0  0  0
  -28.5298  -19.3627   20.5690 C   0  0  0  0  0  0
  -28.5905  -17.9365   20.6310 C   0  0  0  0  0  0
  -30.9814  -18.0155   20.6302 C   0  0  0  0  0  0
  -29.6926  -20.1841   20.5612 C   0  0  0  0  0  0
  -29.8115  -17.2070   20.6645 C   0  0  0  0  0  0
  -30.9248  -19.4507   20.5901 C   0  0  0  0  0  0
  -28.9434  -23.9239   20.3485 C   0  0  0  0  0  0
  -30.1370  -23.9347   21.1626 C   0  0  0  0  0  0
  -28.6701  -22.5025   20.0187 C   0  0  0  0  0  0
  -28.1863  -25.0033   19.9303 C   0  0  0  0  0  0
  -30.6428  -22.4950   21.2693 C   0  0  0  0  0  0
  -29.6238  -21.6746   20.5801 N   0  0  0  0  0  0
  -29.7516  -15.7370   20.7855 N   0  0  0  0  0  0
  -30.6942  -24.9057   21.6866 O   0  0  0  0  0  0
  -27.7260  -22.0998   19.3285 O   0  0  0  0  0  0
  -32.1006  -20.1220   20.5736 F   0  0  0  0  0  0
  -31.4831  -12.5688   19.1487 H   0  0  0  0  0  0
  -30.4010  -11.4349   19.9095 H   0  0  0  0  0  0
  -29.7822  -11.7522   17.4922 H   0  0  0  0  0  0
  -29.6377  -13.4746   17.7321 H   0  0  0  0  0  0
  -27.8835  -11.2839   18.8851 H   0  0  0  0  0  0
  -27.3763  -12.5489   17.7982 H   0  0  0  0  0  0
  -27.6604  -14.2467   19.5038 H   0  0  0  0  0  0
  -28.7264  -12.0765   21.3824 H   0  0  0  0  0  0
  -28.4390  -13.7318   21.8369 H   0  0  0  0  0  0
  -25.2764   -9.5682   22.4760 H   0  0  0  0  0  0
  -24.0006   -7.4629   22.7466 H   0  0  0  0  0  0
  -21.0843   -8.8777   19.8951 H   0  0  0  0  0  0
  -22.3699  -10.9678   19.6175 H   0  0  0  0  0  0
  -21.2005   -7.6150   23.9717 H   0  0  0  0  0  0
  -21.1481   -6.0522   25.9076 H   0  0  0  0  0  0
  -22.0600   -2.7612   23.2842 H   0  0  0  0  0  0
  -22.4115  -11.9891   22.4810 H   0  0  0  0  0  0
  -21.1111  -13.1245   22.2614 H   0  0  0  0  0  0
  -24.6511  -15.8351   20.4939 H   0  0  0  0  0  0
  -26.2508  -15.6133   20.0017 H   0  0  0  0  0  0
  -26.7202  -32.5428   23.1106 H   0  0  0  0  0  0
  -25.0085  -33.9720   25.0419 H   0  0  0  0  0  0
  -22.7208  -31.3095   21.4058 H   0  0  0  0  0  0
  -23.3758  -35.9620   23.3275 H   0  0  0  0  0  0
  -24.3592  -36.8928   22.2054 H   0  0  0  0  0  0
  -23.7239  -37.6484   23.6668 H   0  0  0  0  0  0
  -26.1133  -31.5383   20.6178 H   0  0  0  0  0  0
  -26.8495  -30.8207   22.0180 H   0  0  0  0  0  0
  -28.1130  -28.9248   21.2134 H   0  0  0  0  0  0
  -25.9046  -25.9796   18.9168 H   0  0  0  0  0  0
  -23.9654  -27.3476   18.9785 H   0  0  0  0  0  0
  -23.7651  -30.6077   19.4092 H   0  0  0  0  0  0
  -22.7603  -29.2618   19.8530 H   0  0  0  0  0  0
  -25.1291  -36.1921   25.0819 H   0  0  0  0  0  0
  -20.9998  -28.3287   24.1391 H   0  0  0  0  0  0
  -20.5717  -26.2315   23.3612 H   0  0  0  0  0  0
  -21.6657  -26.7471   22.1186 H   0  0  0  0  0  0
  -19.6924  -25.6301   21.1247 H   0  0  0  0  0  0
  -19.6694  -27.3208   20.6756 H   0  0  0  0  0  0
  -17.4213  -26.6686   21.4031 H   0  0  0  0  0  0
  -18.0340  -26.0085   22.9033 H   0  0  0  0  0  0
  -19.7945  -30.7297   24.2247 H   0  0  0  0  0  0
  -17.5019  -31.6274   24.5176 H   0  0  0  0  0  0
  -15.5359  -30.2990   23.7669 H   0  0  0  0  0  0
  -15.8685  -28.0842   22.7044 H   0  0  0  0  0  0
  -24.5919  -30.7067   25.7770 H   0  0  0  0  0  0
  -24.8926  -32.2900   26.4861 H   0  0  0  0  0  0
  -25.8053  -30.8910   27.0235 H   0  0  0  0  0  0
  -26.2935  -29.6730   24.1236 H   0  0  0  0  0  0
  -27.4020  -29.7255   25.4737 H   0  0  0  0  0  0
  -27.8824  -30.4247   23.9473 H   0  0  0  0  0  0
  -27.2683  -33.3611   26.2077 H   0  0  0  0  0  0
  -28.3884  -32.6857   25.0327 H   0  0  0  0  0  0
  -28.0735  -31.8430   26.5415 H   0  0  0  0  0  0
  -28.2565  -38.0127   24.7559 H   0  0  0  0  0  0
  -28.1124  -36.2663   24.6202 H   0  0  0  0  0  0
  -27.2320  -37.1342   25.8857 H   0  0  0  0  0  0
  -20.9388  -29.8770   21.6857 H   0  0  0  0  0  0
  -26.0157  -38.2844   24.1455 H   0  0  0  0  0  0
  -27.5525  -19.8241   20.5620 H   0  0  0  0  0  0
  -27.6551  -17.3958   20.6619 H   0  0  0  0  0  0
  -31.9525  -17.5429   20.6581 H   0  0  0  0  0  0
  -27.3672  -24.7650   19.2805 H   0  0  0  0  0  0
  -30.7457  -22.1995   22.3134 H   0  0  0  0  0  0
  -31.6129  -22.4309   20.7784 H   0  0  0  0  0  0
  -28.8342  -15.3914   21.0214 H   0  0  0  0  0  0
  1 25  1  0  0  0
  1 30  2  0  0  0
  1 83  1  0  0  0
  2  3  1  0  0  0
  2 25  1  0  0  0
  2 87  1  0  0  0
  2 88  1  0  0  0
  3  4  1  0  0  0
  3 89  1  0  0  0
  3 90  1  0  0  0
  4  5  1  0  0  0
  4 91  1  0  0  0
  4 92  1  0  0  0
  5  6  1  0  0  0
  5 26  1  0  0  0
  5 93  1  0  0  0
  6 25  1  0  0  0
  6 94  1  0  0  0
  6 95  1  0  0  0
  7  8  2  0  0  0
  7 26  1  0  0  0
  7 29  1  0  0  0
  8  9  1  0  0  0
  8 22  1  0  0  0
  9 10  1  0  0  0
  9 27  2  0  0  0
 10 11  2  0  0  0
 10 15  1  0  0  0
 11 12  1  0  0  0
 11 96  1  0  0  0
 12 13  2  0  0  0
 12 97  1  0  0  0
 13 14  1  0  0  0
 13 31  1  0  0  0
 14 15  2  0  0  0
 14 98  1  0  0  0
 15 99  1  0  0  0
 16 17  2  0  0  0
 16 21  1  0  0  0
 16 31  1  0  0  0
 17 18  1  0  0  0
 17100  1  0  0  0
 18 19  2  0  0  0
 18101  1  0  0  0
 19 20  1  0  0  0
 19 24  1  0  0  0
 20 21  2  0  0  0
 20102  1  0  0  0
 21 23  1  0  0  0
 22 28  1  0  0  0
 22 32  2  0  0  0
 26 27  1  0  0  0
 28103  1  0  0  0
 28104  1  0  0  0
 29105  1  0  0  0
 29106  1  0  0  0
 33 34  1  0  0  0
 33 66  1  0  0  0
 33 70  2  0  0  0
 34 36  1  0  0  0
 34 59  1  0  0  0
 34107  1  0  0  0
 35 44  2  0  0  0
 35 45  1  0  0  0
 35 68  1  0  0  0
 36 56  1  0  0  0
 36108  1  0  0  0
 37 39  1  0  0  0
 37 47  1  0  0  0
 37 66  1  0  0  0
 37109  1  0  0  0
 38 43  2  0  0  0
 38 46  1  0  0  0
 38 47  1  0  0  0
 39 64  1  0  0  0
 39 67  2  0  0  0
 40 52  1  0  0  0
 40 53  2  0  0  0
 40 58  1  0  0  0
 41110  1  0  0  0
 41111  1  0  0  0
 41112  1  0  0  0
 41 48  1  0  0  0
 42 43  1  0  0  0
 42 66  1  0  0  0
 42113  1  0  0  0
 42114  1  0  0  0
 43 44  1  0  0  0
 44115  1  0  0  0
 45 46  2  0  0  0
 45116  1  0  0  0
 46117  1  0  0  0
 47118  1  0  0  0
 47119  1  0  0  0
 48 56  1  0  0  0
 48 65  1  0  0  0
 48120  1  0  0  0
 49 50  1  0  0  0
 49 53  1  0  0  0
 49 64  1  0  0  0
 49121  1  0  0  0
 50 51  1  0  0  0
 50122  1  0  0  0
 50123  1  0  0  0
 51 52  1  0  0  0
 51124  1  0  0  0
 51125  1  0  0  0
 52126  1  0  0  0
 52127  1  0  0  0
 53 54  1  0  0  0
 54 55  2  0  0  0
 54128  1  0  0  0
 55 57  1  0  0  0
 55129  1  0  0  0
 56 69  2  0  0  0
 57 58  2  0  0  0
 57130  1  0  0  0
 58131  1  0  0  0
 59 60  1  0  0  0
 59 61  1  0  0  0
 59 62  1  0  0  0
 60132  1  0  0  0
 60133  1  0  0  0
 60134  1  0  0  0
 61135  1  0  0  0
 61136  1  0  0  0
 61137  1  0  0  0
 62138  1  0  0  0
 62139  1  0  0  0
 62140  1  0  0  0
 63 65  1  0  0  0
 63141  1  0  0  0
 63142  1  0  0  0
 63143  1  0  0  0
 64144  1  0  0  0
 65145  1  0  0  0
 68 80  1  0  0  0
 71 72  2  0  0  0
 71 74  1  0  0  0
 71146  1  0  0  0
 72 75  1  0  0  0
 72147  1  0  0  0
 73 75  2  0  0  0
 73 76  1  0  0  0
 73148  1  0  0  0
 74 76  2  0  0  0
 74 82  1  0  0  0
 75 83  1  0  0  0
 76 86  1  0  0  0
 77 78  1  0  0  0
 77 79  1  0  0  0
 77 80  2  0  0  0
 78 81  1  0  0  0
 78 84  2  0  0  0
 79 82  1  0  0  0
 79 85  2  0  0  0
 80149  1  0  0  0
 81 82  1  0  0  0
 81150  1  0  0  0
 81151  1  0  0  0
 83152  1  0  0  0
M  ISO  4   1 100  68 101  80 101  83 100
M  END
> <chiral flag>
0

> <version>
0

> <s_m_source_file>
/data/baiqing/PycharmProjects/Reinvent-master-3.2/result/LINK_invent/BTK/process_docking_weight1_custom_product_contain_oxygen_bond_distance_aromatic_linkinvent_7_9_3/rearranged_h_0085.sdf

> <i_m_source_file_index>
50

> <r_mmod_Potential_Energy-OPLS-2005>
161.361877441406

> <r_mmod_Stretch_Energy-OPLS-2005>
97.3271484375

> <r_mmod_Bend_Energy-OPLS-2005>
201.855087280273

> <r_mmod_Torsional_Energy-OPLS-2005>
252.088851928711

> <r_mmod_Improper_Torsional_Energy-OPLS-2005>
5.01189279556274

> <r_mmod_Van_der_Waal_Energy-OPLS-2005>
145.238418579102

> <r_mmod_Electrostatic_Energy-OPLS-2005>
-373.483062744141

> <r_mmod_Solvation_Energy-OPLS-2005>
-233.745376586914

> <b_mmod_Minimization_Converged-OPLS-2005>
0

> <r_mmod_RMS_Derivative-OPLS-2005>
0.948245584964752

$$$$
51
                    3D
 Structure written by MMmdl.
154163  0  0  1  0            999 V2000
  -30.6920  -14.5363   20.5280 C   0  0  0  0  0  0
  -30.4235  -12.3335   19.4378 C   0  0  0  0  0  0
  -29.4983  -12.4945   18.2137 C   0  0  0  0  0  0
  -28.0202  -12.3534   18.6272 C   0  0  0  0  0  0
  -27.6570  -13.2155   19.8665 C   0  0  2  0  0  0
  -28.7014  -13.0453   20.9933 C   0  0  0  0  0  0
  -25.2577  -13.8186   20.5695 C   0  0  0  0  0  0
  -24.1832  -13.0445   20.9163 C   0  0  0  0  0  0
  -24.6400  -11.6916   20.8725 C   0  0  0  0  0  0
  -23.9069  -10.4297   21.0397 C   0  0  0  0  0  0
  -24.3618   -9.4214   21.9179 C   0  0  0  0  0  0
  -23.6295   -8.2248   22.0752 C   0  0  0  0  0  0
  -22.4277   -8.0285   21.3544 C   0  0  0  0  0  0
  -21.9912   -9.0257   20.4646 C   0  0  0  0  0  0
  -22.7240  -10.2136   20.3051 C   0  0  0  0  0  0
  -21.6855   -6.0738   22.5282 C   0  0  0  0  0  0
  -21.4013   -6.5641   23.8213 C   0  0  0  0  0  0
  -21.3661   -5.6794   24.9177 C   0  0  0  0  0  0
  -21.6044   -4.3055   24.7226 C   0  0  0  0  0  0
  -21.8820   -3.8148   23.4346 C   0  0  0  0  0  0
  -21.9194   -4.6966   22.3404 C   0  0  0  0  0  0
  -22.7857  -13.5236   21.1843 C   0  0  0  0  0  0
  -22.1664   -4.2150   21.0981 F   0  0  0  0  0  0
  -21.5628   -3.4541   25.7739 F   0  0  0  0  0  0
  -30.0265  -13.3489   20.4296 N   0  0  0  0  0  0
  -26.3011  -12.9366   20.3352 N   0  0  0  0  0  0
  -25.9330  -11.6515   20.5760 N   0  0  0  0  0  0
  -22.0501  -12.8224   22.0403 N   0  0  0  0  0  0
  -25.4290  -15.1912   20.4184 N   0  0  0  0  0  0
  -31.8486  -14.6586   20.1196 O   0  0  0  0  0  0
  -21.6641   -6.8882   21.4242 O   0  0  0  0  0  0
  -22.3535  -14.5544   20.6708 O   0  0  0  0  0  0
  -24.6191  -31.8655   23.2078 C   0  0  0  0  0  0
  -25.9070  -32.4812   23.8389 C   0  0  1  0  0  0
  -27.2292  -27.3945   20.1078 C   0  0  0  0  0  0
  -25.5904  -33.8610   24.2314 N   0  0  0  0  0  0
  -23.4106  -30.4894   21.5489 C   0  0  2  0  0  0
  -24.8599  -28.9552   20.1104 C   0  0  0  0  0  0
  -22.7441  -29.4656   22.4969 C   0  0  0  0  0  0
  -18.0280  -28.1391   22.8501 C   0  0  0  0  0  0
  -24.1484  -36.7307   23.2638 C   0  0  0  0  0  0
  -25.9448  -30.8190   21.3692 C   0  0  0  0  0  0
  -26.0235  -29.4522   20.7132 C   0  0  0  0  0  0
  -27.2148  -28.6803   20.7072 C   0  0  0  0  0  0
  -26.0545  -26.9359   19.4745 C   0  0  0  0  0  0
  -24.8728  -27.6982   19.4842 C   0  0  0  0  0  0
  -23.6225  -29.8241   20.1632 C   0  0  0  0  0  0
  -25.4110  -36.3106   24.0335 C   0  0  1  0  0  0
  -20.5877  -28.3686   23.1302 C   0  0  2  0  0  0
  -20.6768  -26.9416   22.5418 C   0  0  0  0  0  0
  -19.5743  -26.6401   21.5219 C   0  0  0  0  0  0
  -18.1925  -26.7939   22.1631 C   0  0  0  0  0  0
  -19.1532  -28.8855   23.2895 C   0  0  0  0  0  0
  -18.9455  -30.1460   23.8914 C   0  0  0  0  0  0
  -17.6456  -30.6592   24.0578 C   0  0  0  0  0  0
  -25.9042  -34.9470   23.5124 C   0  0  0  0  0  0
  -16.5349  -29.9101   23.6330 C   0  0  0  0  0  0
  -16.7269  -28.6516   23.0355 C   0  0  0  0  0  0
  -26.4480  -31.6596   25.0729 C   0  0  0  0  0  0
  -25.3745  -31.3702   26.1479 C   0  0  0  0  0  0
  -27.0305  -30.3028   24.6130 C   0  0  0  0  0  0
  -27.6056  -32.4317   25.7486 C   0  0  0  0  0  0
  -27.5581  -37.1808   24.8468 C   0  0  0  0  0  0
  -21.4160  -29.3043   22.3700 N   0  0  0  0  0  0
  -26.4293  -37.3797   23.9413 N   0  0  0  0  0  0
  -24.6764  -31.0729   22.0998 N   0  0  0  0  0  0
  -23.4191  -28.8198   23.3030 O   0  0  0  0  0  0
  -28.3405  -26.5654   20.1489 O   0  0  0  0  0  0
  -26.5609  -34.8921   22.4689 O   0  0  0  0  0  0
  -23.5373  -32.1422   23.7446 O   0  0  0  0  0  0
  -31.6701  -18.9892   20.5700 C   0  0  0  0  0  0
  -31.4771  -17.5889   20.5531 C   0  0  0  0  0  0
  -29.3779  -19.3257   21.2580 C   0  0  0  0  0  0
  -30.6355  -19.8887   20.9310 C   0  0  0  0  0  0
  -30.2293  -17.0189   20.9066 C   0  0  0  0  0  0
  -29.1827  -17.9161   21.2513 C   0  0  0  0  0  0
  -30.2576  -23.8182   21.1683 C   0  0  0  0  0  0
  -29.0708  -24.1589   20.6409 C   0  0  0  0  0  0
  -28.8645  -22.7586   20.3783 C   0  0  0  0  0  0
  -30.9840  -21.3609   21.1306 C   0  0  0  0  0  0
  -28.0997  -25.3285   20.8800 C   0  0  0  0  0  0
  -30.1284  -22.4498   20.8752 N   0  0  0  0  0  0
  -27.9396  -17.4018   21.6210 N   0  0  0  0  0  0
  -29.9540  -15.5980   20.9401 N   0  0  0  0  0  0
  -27.9569  -22.0499   19.9323 O   0  0  0  0  0  0
  -32.1231  -21.6183   21.5373 O   0  0  0  0  0  0
  -31.4676  -12.4279   19.1338 H   0  0  0  0  0  0
  -30.3280  -11.3337   19.8640 H   0  0  0  0  0  0
  -29.7449  -11.7509   17.4549 H   0  0  0  0  0  0
  -29.6613  -13.4691   17.7504 H   0  0  0  0  0  0
  -27.8400  -11.3005   18.8465 H   0  0  0  0  0  0
  -27.3686  -12.6041   17.7893 H   0  0  0  0  0  0
  -27.6855  -14.2554   19.5395 H   0  0  0  0  0  0
  -28.6886  -12.0244   21.3777 H   0  0  0  0  0  0
  -28.4632  -13.6845   21.8446 H   0  0  0  0  0  0
  -25.2764   -9.5695   22.4754 H   0  0  0  0  0  0
  -24.0009   -7.4642   22.7473 H   0  0  0  0  0  0
  -21.0841   -8.8774   19.8953 H   0  0  0  0  0  0
  -22.3697  -10.9673   19.6159 H   0  0  0  0  0  0
  -21.2003   -7.6148   23.9719 H   0  0  0  0  0  0
  -21.1483   -6.0522   25.9079 H   0  0  0  0  0  0
  -22.0597   -2.7609   23.2848 H   0  0  0  0  0  0
  -22.4115  -11.9880   22.4778 H   0  0  0  0  0  0
  -21.1124  -13.1256   22.2619 H   0  0  0  0  0  0
  -24.6729  -15.8488   20.5722 H   0  0  0  0  0  0
  -26.3076  -15.6524   20.2094 H   0  0  0  0  0  0
  -26.7143  -32.5518   23.1152 H   0  0  0  0  0  0
  -25.0052  -33.9761   25.0458 H   0  0  0  0  0  0
  -22.7007  -31.3074   21.4086 H   0  0  0  0  0  0
  -23.3743  -35.9644   23.3317 H   0  0  0  0  0  0
  -24.3571  -36.8910   22.2048 H   0  0  0  0  0  0
  -23.7232  -37.6515   23.6646 H   0  0  0  0  0  0
  -26.0656  -31.5842   20.6013 H   0  0  0  0  0  0
  -26.8291  -30.8705   21.9929 H   0  0  0  0  0  0
  -28.1085  -29.0518   21.1888 H   0  0  0  0  0  0
  -26.0444  -25.9732   18.9829 H   0  0  0  0  0  0
  -23.9822  -27.3117   19.0081 H   0  0  0  0  0  0
  -23.7331  -30.6009   19.4060 H   0  0  0  0  0  0
  -22.7459  -29.2468   19.8644 H   0  0  0  0  0  0
  -25.1278  -36.1977   25.0827 H   0  0  0  0  0  0
  -20.9979  -28.3263   24.1417 H   0  0  0  0  0  0
  -20.5678  -26.2289   23.3607 H   0  0  0  0  0  0
  -21.6632  -26.7456   22.1200 H   0  0  0  0  0  0
  -19.6890  -25.6320   21.1227 H   0  0  0  0  0  0
  -19.6673  -27.3223   20.6760 H   0  0  0  0  0  0
  -17.4190  -26.6705   21.4037 H   0  0  0  0  0  0
  -18.0318  -26.0073   22.9015 H   0  0  0  0  0  0
  -19.7930  -30.7281   24.2286 H   0  0  0  0  0  0
  -17.5008  -31.6272   24.5181 H   0  0  0  0  0  0
  -15.5348  -30.3005   23.7647 H   0  0  0  0  0  0
  -15.8669  -28.0837   22.7068 H   0  0  0  0  0  0
  -24.5922  -30.7042   25.7821 H   0  0  0  0  0  0
  -24.8930  -32.2851   26.4938 H   0  0  0  0  0  0
  -25.8101  -30.8868   27.0234 H   0  0  0  0  0  0
  -26.2852  -29.6790   24.1183 H   0  0  0  0  0  0
  -27.4050  -29.7269   25.4602 H   0  0  0  0  0  0
  -27.8703  -30.4319   23.9302 H   0  0  0  0  0  0
  -27.2680  -33.3608   26.2092 H   0  0  0  0  0  0
  -28.3850  -32.6893   25.0304 H   0  0  0  0  0  0
  -28.0750  -31.8430   26.5379 H   0  0  0  0  0  0
  -28.2612  -38.0092   24.7514 H   0  0  0  0  0  0
  -28.1057  -36.2623   24.6295 H   0  0  0  0  0  0
  -27.2297  -37.1475   25.8870 H   0  0  0  0  0  0
  -20.9334  -29.8755   21.6903 H   0  0  0  0  0  0
  -26.0179  -38.2875   24.1415 H   0  0  0  0  0  0
  -32.6540  -19.3741   20.3379 H   0  0  0  0  0  0
  -32.3241  -16.9769   20.2853 H   0  0  0  0  0  0
  -28.5751  -19.9785   21.5689 H   0  0  0  0  0  0
  -31.0942  -24.1785   21.7625 H   0  0  0  0  0  0
  -28.1176  -25.5616   21.9457 H   0  0  0  0  0  0
  -27.1046  -24.9287   20.6877 H   0  0  0  0  0  0
  -27.2664  -18.0767   21.9663 H   0  0  0  0  0  0
  -27.9563  -16.5902   22.2265 H   0  0  0  0  0  0
  -29.0047  -15.3768   21.1933 H   0  0  0  0  0  0
  1 25  1  0  0  0
  1 30  2  0  0  0
  1 84  1  0  0  0
  2  3  1  0  0  0
  2 25  1  0  0  0
  2 87  1  0  0  0
  2 88  1  0  0  0
  3  4  1  0  0  0
  3 89  1  0  0  0
  3 90  1  0  0  0
  4  5  1  0  0  0
  4 91  1  0  0  0
  4 92  1  0  0  0
  5  6  1  0  0  0
  5 26  1  0  0  0
  5 93  1  0  0  0
  6 25  1  0  0  0
  6 94  1  0  0  0
  6 95  1  0  0  0
  7  8  2  0  0  0
  7 26  1  0  0  0
  7 29  1  0  0  0
  8  9  1  0  0  0
  8 22  1  0  0  0
  9 10  1  0  0  0
  9 27  2  0  0  0
 10 11  2  0  0  0
 10 15  1  0  0  0
 11 12  1  0  0  0
 11 96  1  0  0  0
 12 13  2  0  0  0
 12 97  1  0  0  0
 13 14  1  0  0  0
 13 31  1  0  0  0
 14 15  2  0  0  0
 14 98  1  0  0  0
 15 99  1  0  0  0
 16 17  2  0  0  0
 16 21  1  0  0  0
 16 31  1  0  0  0
 17 18  1  0  0  0
 17100  1  0  0  0
 18 19  2  0  0  0
 18101  1  0  0  0
 19 20  1  0  0  0
 19 24  1  0  0  0
 20 21  2  0  0  0
 20102  1  0  0  0
 21 23  1  0  0  0
 22 28  1  0  0  0
 22 32  2  0  0  0
 26 27  1  0  0  0
 28103  1  0  0  0
 28104  1  0  0  0
 29105  1  0  0  0
 29106  1  0  0  0
 33 34  1  0  0  0
 33 66  1  0  0  0
 33 70  2  0  0  0
 34 36  1  0  0  0
 34 59  1  0  0  0
 34107  1  0  0  0
 35 44  2  0  0  0
 35 45  1  0  0  0
 35 68  1  0  0  0
 36 56  1  0  0  0
 36108  1  0  0  0
 37 39  1  0  0  0
 37 47  1  0  0  0
 37 66  1  0  0  0
 37109  1  0  0  0
 38 43  2  0  0  0
 38 46  1  0  0  0
 38 47  1  0  0  0
 39 64  1  0  0  0
 39 67  2  0  0  0
 40 52  1  0  0  0
 40 53  2  0  0  0
 40 58  1  0  0  0
 41110  1  0  0  0
 41111  1  0  0  0
 41112  1  0  0  0
 41 48  1  0  0  0
 42 43  1  0  0  0
 42 66  1  0  0  0
 42113  1  0  0  0
 42114  1  0  0  0
 43 44  1  0  0  0
 44115  1  0  0  0
 45 46  2  0  0  0
 45116  1  0  0  0
 46117  1  0  0  0
 47118  1  0  0  0
 47119  1  0  0  0
 48 56  1  0  0  0
 48 65  1  0  0  0
 48120  1  0  0  0
 49 50  1  0  0  0
 49 53  1  0  0  0
 49 64  1  0  0  0
 49121  1  0  0  0
 50 51  1  0  0  0
 50122  1  0  0  0
 50123  1  0  0  0
 51 52  1  0  0  0
 51124  1  0  0  0
 51125  1  0  0  0
 52126  1  0  0  0
 52127  1  0  0  0
 53 54  1  0  0  0
 54 55  2  0  0  0
 54128  1  0  0  0
 55 57  1  0  0  0
 55129  1  0  0  0
 56 69  2  0  0  0
 57 58  2  0  0  0
 57130  1  0  0  0
 58131  1  0  0  0
 59 60  1  0  0  0
 59 61  1  0  0  0
 59 62  1  0  0  0
 60132  1  0  0  0
 60133  1  0  0  0
 60134  1  0  0  0
 61135  1  0  0  0
 61136  1  0  0  0
 61137  1  0  0  0
 62138  1  0  0  0
 62139  1  0  0  0
 62140  1  0  0  0
 63 65  1  0  0  0
 63141  1  0  0  0
 63142  1  0  0  0
 63143  1  0  0  0
 64144  1  0  0  0
 65145  1  0  0  0
 68 81  1  0  0  0
 71 72  2  0  0  0
 71 74  1  0  0  0
 71146  1  0  0  0
 72 75  1  0  0  0
 72147  1  0  0  0
 73 74  2  0  0  0
 73 76  1  0  0  0
 73148  1  0  0  0
 74 80  1  0  0  0
 75 76  2  0  0  0
 75 84  1  0  0  0
 76 83  1  0  0  0
 77 78  2  0  0  0
 77 82  1  0  0  0
 77149  1  0  0  0
 78 79  1  0  0  0
 78 81  1  0  0  0
 79 82  1  0  0  0
 79 85  2  0  0  0
 80 82  1  0  0  0
 80 86  2  0  0  0
 81150  1  0  0  0
 81151  1  0  0  0
 83152  1  0  0  0
 83153  1  0  0  0
 84154  1  0  0  0
M  ISO  4   1 100  68 101  81 101  84 100
M  END
> <chiral flag>
0

> <version>
0

> <s_m_source_file>
/data/baiqing/PycharmProjects/Reinvent-master-3.2/result/LINK_invent/BTK/process_docking_weight1_custom_product_contain_oxygen_bond_distance_aromatic_linkinvent_7_9_3/rearranged_h_0085.sdf

> <i_m_source_file_index>
51

> <r_mmod_Potential_Energy-OPLS-2005>
-114.266334533691

> <r_mmod_Stretch_Energy-OPLS-2005>
49.5578575134277

> <r_mmod_Bend_Energy-OPLS-2005>
193.1630859375

> <r_mmod_Torsional_Energy-OPLS-2005>
246.684524536133

> <r_mmod_Improper_Torsional_Energy-OPLS-2005>
13.3634576797485

> <r_mmod_Van_der_Waal_Energy-OPLS-2005>
151.532516479492

> <r_mmod_Electrostatic_Energy-OPLS-2005>
-562.497863769531

> <r_mmod_Solvation_Energy-OPLS-2005>
-231.097183227539

> <b_mmod_Minimization_Converged-OPLS-2005>
0

> <r_mmod_RMS_Derivative-OPLS-2005>
1.07814884185791

$$$$
52
                    3D
 Structure written by MMmdl.
152161  0  0  1  0            999 V2000
  -30.5731  -14.8822   20.4392 C   0  0  0  0  0  0
  -30.4370  -12.5474   19.4825 C   0  0  0  0  0  0
  -29.5143  -12.5176   18.2436 C   0  0  0  0  0  0
  -28.0459  -12.3160   18.6644 C   0  0  0  0  0  0
  -27.6313  -13.2421   19.8381 C   0  0  2  0  0  0
  -28.6776  -13.2482   20.9725 C   0  0  0  0  0  0
  -25.2470  -13.8208   20.5708 C   0  0  0  0  0  0
  -24.1784  -13.0435   20.9230 C   0  0  0  0  0  0
  -24.6392  -11.6920   20.8758 C   0  0  0  0  0  0
  -23.9074  -10.4292   21.0411 C   0  0  0  0  0  0
  -24.3624   -9.4205   21.9187 C   0  0  0  0  0  0
  -23.6297   -8.2241   22.0754 C   0  0  0  0  0  0
  -22.4279   -8.0281   21.3544 C   0  0  0  0  0  0
  -21.9917   -9.0255   20.4646 C   0  0  0  0  0  0
  -22.7247  -10.2133   20.3058 C   0  0  0  0  0  0
  -21.6854   -6.0736   22.5279 C   0  0  0  0  0  0
  -21.4015   -6.5640   23.8213 C   0  0  0  0  0  0
  -21.3660   -5.6792   24.9175 C   0  0  0  0  0  0
  -21.6044   -4.3055   24.7225 C   0  0  0  0  0  0
  -21.8819   -3.8146   23.4346 C   0  0  0  0  0  0
  -21.9193   -4.6964   22.3402 C   0  0  0  0  0  0
  -22.7803  -13.5210   21.1881 C   0  0  0  0  0  0
  -22.1662   -4.2149   21.0981 F   0  0  0  0  0  0
  -21.5628   -3.4539   25.7738 F   0  0  0  0  0  0
  -29.9567  -13.6402   20.3693 N   0  0  0  0  0  0
  -26.2893  -12.9430   20.3249 N   0  0  0  0  0  0
  -25.9323  -11.6564   20.5747 N   0  0  0  0  0  0
  -22.0453  -12.8197   22.0438 N   0  0  0  0  0  0
  -25.4124  -15.1937   20.4121 N   0  0  0  0  0  0
  -31.7826  -14.9328   20.1922 O   0  0  0  0  0  0
  -21.6641   -6.8879   21.4240 O   0  0  0  0  0  0
  -22.3486  -14.5513   20.6725 O   0  0  0  0  0  0
  -24.6397  -31.8477   23.1916 C   0  0  0  0  0  0
  -25.9185  -32.4714   23.8293 C   0  0  1  0  0  0
  -27.2166  -27.1764   20.1505 C   0  0  0  0  0  0
  -25.5946  -33.8519   24.2211 N   0  0  0  0  0  0
  -23.4422  -30.4675   21.5362 C   0  0  2  0  0  0
  -24.8926  -28.8998   20.1122 C   0  0  0  0  0  0
  -22.7551  -29.4562   22.4875 C   0  0  0  0  0  0
  -18.0302  -28.1394   22.8479 C   0  0  0  0  0  0
  -24.1492  -36.7266   23.2643 C   0  0  0  0  0  0
  -25.9953  -30.7335   21.3860 C   0  0  0  0  0  0
  -26.0687  -29.3469   20.7307 C   0  0  0  0  0  0
  -27.2357  -28.4994   20.7364 C   0  0  0  0  0  0
  -26.0197  -26.8206   19.4951 C   0  0  0  0  0  0
  -24.8776  -27.6471   19.4806 C   0  0  0  0  0  0
  -23.6675  -29.7979   20.1549 C   0  0  0  0  0  0
  -25.4124  -36.3045   24.0317 C   0  0  1  0  0  0
  -20.5911  -28.3716   23.1243 C   0  0  2  0  0  0
  -20.6786  -26.9422   22.5403 C   0  0  0  0  0  0
  -19.5759  -26.6382   21.5211 C   0  0  0  0  0  0
  -18.1942  -26.7933   22.1625 C   0  0  0  0  0  0
  -19.1557  -28.8872   23.2855 C   0  0  0  0  0  0
  -18.9476  -30.1470   23.8877 C   0  0  0  0  0  0
  -17.6473  -30.6590   24.0560 C   0  0  0  0  0  0
  -25.9069  -34.9417   23.5072 C   0  0  0  0  0  0
  -16.5363  -29.9083   23.6335 C   0  0  0  0  0  0
  -16.7287  -28.6501   23.0356 C   0  0  0  0  0  0
  -26.4520  -31.6570   25.0718 C   0  0  0  0  0  0
  -25.3714  -31.3746   26.1419 C   0  0  0  0  0  0
  -27.0384  -30.2972   24.6276 C   0  0  0  0  0  0
  -27.6053  -32.4331   25.7504 C   0  0  0  0  0  0
  -27.5573  -37.1796   24.8470 C   0  0  0  0  0  0
  -21.4246  -29.3046   22.3621 N   0  0  0  0  0  0
  -26.4293  -37.3749   23.9400 N   0  0  0  0  0  0
  -24.7120  -31.0366   22.0934 N   0  0  0  0  0  0
  -23.4209  -28.8110   23.3014 O   0  0  0  0  0  0
  -28.2523  -26.1871   20.1734 O   0  0  0  0  0  0
  -26.5650  -34.8908   22.4647 O   0  0  0  0  0  0
  -23.5524  -32.1335   23.7156 O   0  0  0  0  0  0
  -31.3664  -17.8184   21.3540 C   0  0  0  0  0  0
  -31.7270  -19.1343   21.6885 C   0  0  0  0  0  0
  -29.3351  -18.7384   20.4017 C   0  0  0  0  0  0
  -29.6758  -20.1602   20.6918 C   0  0  0  0  0  0
  -30.1454  -17.5323   20.7168 C   0  0  0  0  0  0
  -30.9120  -20.2502   21.3981 C   0  0  0  0  0  0
  -28.4393  -23.5397   20.4956 C   0  0  0  0  0  0
  -28.0488  -22.2967   21.1895 C   0  0  0  0  0  0
  -27.9506  -24.8590   20.6783 C   0  0  0  0  0  0
  -29.4794  -22.6748   19.7169 C   0  0  0  0  0  0
  -28.9120  -21.4595   20.4188 N   0  0  0  0  0  0
  -31.3618  -21.4770   21.8854 N   0  0  0  0  0  0
  -29.7939  -16.0639   20.5159 N   0  0  0  0  0  0
  -27.3392  -22.1419   22.1620 O   0  0  0  0  0  0
  -31.4721  -12.6957   19.1706 H   0  0  0  0  0  0
  -30.4168  -11.5907   20.0063 H   0  0  0  0  0  0
  -29.8211  -11.7238   17.5611 H   0  0  0  0  0  0
  -29.6123  -13.4529   17.6902 H   0  0  0  0  0  0
  -27.9319  -11.2731   18.9619 H   0  0  0  0  0  0
  -27.3825  -12.4629   17.8115 H   0  0  0  0  0  0
  -27.6005  -14.2483   19.4196 H   0  0  0  0  0  0
  -28.7518  -12.2684   21.4463 H   0  0  0  0  0  0
  -28.3916  -13.9516   21.7563 H   0  0  0  0  0  0
  -25.2768   -9.5682   22.4765 H   0  0  0  0  0  0
  -24.0005   -7.4632   22.7474 H   0  0  0  0  0  0
  -21.0848   -8.8776   19.8951 H   0  0  0  0  0  0
  -22.3706  -10.9674   19.6169 H   0  0  0  0  0  0
  -21.2008   -7.6148   23.9715 H   0  0  0  0  0  0
  -21.1483   -6.0523   25.9077 H   0  0  0  0  0  0
  -22.0597   -2.7609   23.2847 H   0  0  0  0  0  0
  -22.4078  -11.9864   22.4829 H   0  0  0  0  0  0
  -21.1067  -13.1212   22.2641 H   0  0  0  0  0  0
  -24.6396  -15.8415   20.5223 H   0  0  0  0  0  0
  -26.2491  -15.6369   20.0568 H   0  0  0  0  0  0
  -26.7251  -32.5341   23.1025 H   0  0  0  0  0  0
  -25.0073  -33.9639   25.0346 H   0  0  0  0  0  0
  -22.7428  -31.2924   21.3837 H   0  0  0  0  0  0
  -23.3750  -35.9602   23.3314 H   0  0  0  0  0  0
  -24.3572  -36.8886   22.2055 H   0  0  0  0  0  0
  -23.7257  -37.6470   23.6672 H   0  0  0  0  0  0
  -26.1450  -31.4886   20.6133 H   0  0  0  0  0  0
  -26.8675  -30.7847   22.0260 H   0  0  0  0  0  0
  -28.1339  -28.8344   21.2355 H   0  0  0  0  0  0
  -25.9547  -25.8559   19.0115 H   0  0  0  0  0  0
  -23.9804  -27.2994   18.9876 H   0  0  0  0  0  0
  -23.8013  -30.5727   19.3991 H   0  0  0  0  0  0
  -22.7836  -29.2373   19.8457 H   0  0  0  0  0  0
  -25.1314  -36.1879   25.0809 H   0  0  0  0  0  0
  -21.0005  -28.3304   24.1365 H   0  0  0  0  0  0
  -20.5680  -26.2328   23.3621 H   0  0  0  0  0  0
  -21.6654  -26.7431   22.1202 H   0  0  0  0  0  0
  -19.6920  -25.6288   21.1254 H   0  0  0  0  0  0
  -19.6695  -27.3181   20.6732 H   0  0  0  0  0  0
  -17.4210  -26.6675   21.4031 H   0  0  0  0  0  0
  -18.0344  -26.0079   22.9026 H   0  0  0  0  0  0
  -19.7950  -30.7293   24.2237 H   0  0  0  0  0  0
  -17.5024  -31.6269   24.5165 H   0  0  0  0  0  0
  -15.5361  -30.2978   23.7669 H   0  0  0  0  0  0
  -15.8688  -28.0814   22.7080 H   0  0  0  0  0  0
  -24.5898  -30.7089   25.7740 H   0  0  0  0  0  0
  -24.8897  -32.2924   26.4802 H   0  0  0  0  0  0
  -25.8004  -30.8949   27.0225 H   0  0  0  0  0  0
  -26.2995  -29.6698   24.1276 H   0  0  0  0  0  0
  -27.4003  -29.7263   25.4838 H   0  0  0  0  0  0
  -27.8900  -30.4217   23.9583 H   0  0  0  0  0  0
  -27.2644  -33.3644   26.2040 H   0  0  0  0  0  0
  -28.3887  -32.6873   25.0351 H   0  0  0  0  0  0
  -28.0695  -31.8486   26.5457 H   0  0  0  0  0  0
  -28.2607  -38.0077   24.7483 H   0  0  0  0  0  0
  -28.1054  -36.2604   24.6344 H   0  0  0  0  0  0
  -27.2283  -37.1500   25.8872 H   0  0  0  0  0  0
  -20.9450  -29.8762   21.6806 H   0  0  0  0  0  0
  -26.0166  -38.2824   24.1379 H   0  0  0  0  0  0
  -32.0375  -17.0237   21.6451 H   0  0  0  0  0  0
  -32.6600  -19.2769   22.2158 H   0  0  0  0  0  0
  -28.3874  -18.5682   19.9126 H   0  0  0  0  0  0
  -27.1592  -24.9579   21.4097 H   0  0  0  0  0  0
  -30.5296  -22.8704   19.9285 H   0  0  0  0  0  0
  -29.3486  -22.5963   18.6368 H   0  0  0  0  0  0
  -32.0454  -21.4627   22.6350 H   0  0  0  0  0  0
  -30.6629  -22.1969   22.0177 H   0  0  0  0  0  0
  -28.8041  -15.8784   20.4662 H   0  0  0  0  0  0
  1 25  1  0  0  0
  1 30  2  0  0  0
  1 83  1  0  0  0
  2  3  1  0  0  0
  2 25  1  0  0  0
  2 85  1  0  0  0
  2 86  1  0  0  0
  3  4  1  0  0  0
  3 87  1  0  0  0
  3 88  1  0  0  0
  4  5  1  0  0  0
  4 89  1  0  0  0
  4 90  1  0  0  0
  5  6  1  0  0  0
  5 26  1  0  0  0
  5 91  1  0  0  0
  6 25  1  0  0  0
  6 92  1  0  0  0
  6 93  1  0  0  0
  7  8  2  0  0  0
  7 26  1  0  0  0
  7 29  1  0  0  0
  8  9  1  0  0  0
  8 22  1  0  0  0
  9 10  1  0  0  0
  9 27  2  0  0  0
 10 11  2  0  0  0
 10 15  1  0  0  0
 11 12  1  0  0  0
 11 94  1  0  0  0
 12 13  2  0  0  0
 12 95  1  0  0  0
 13 14  1  0  0  0
 13 31  1  0  0  0
 14 15  2  0  0  0
 14 96  1  0  0  0
 15 97  1  0  0  0
 16 17  2  0  0  0
 16 21  1  0  0  0
 16 31  1  0  0  0
 17 18  1  0  0  0
 17 98  1  0  0  0
 18 19  2  0  0  0
 18 99  1  0  0  0
 19 20  1  0  0  0
 19 24  1  0  0  0
 20 21  2  0  0  0
 20100  1  0  0  0
 21 23  1  0  0  0
 22 28  1  0  0  0
 22 32  2  0  0  0
 26 27  1  0  0  0
 28101  1  0  0  0
 28102  1  0  0  0
 29103  1  0  0  0
 29104  1  0  0  0
 33 34  1  0  0  0
 33 66  1  0  0  0
 33 70  2  0  0  0
 34 36  1  0  0  0
 34 59  1  0  0  0
 34105  1  0  0  0
 35 44  2  0  0  0
 35 45  1  0  0  0
 35 68  1  0  0  0
 36 56  1  0  0  0
 36106  1  0  0  0
 37 39  1  0  0  0
 37 47  1  0  0  0
 37 66  1  0  0  0
 37107  1  0  0  0
 38 43  2  0  0  0
 38 46  1  0  0  0
 38 47  1  0  0  0
 39 64  1  0  0  0
 39 67  2  0  0  0
 40 52  1  0  0  0
 40 53  2  0  0  0
 40 58  1  0  0  0
 41108  1  0  0  0
 41109  1  0  0  0
 41110  1  0  0  0
 41 48  1  0  0  0
 42 43  1  0  0  0
 42 66  1  0  0  0
 42111  1  0  0  0
 42112  1  0  0  0
 43 44  1  0  0  0
 44113  1  0  0  0
 45 46  2  0  0  0
 45114  1  0  0  0
 46115  1  0  0  0
 47116  1  0  0  0
 47117  1  0  0  0
 48 56  1  0  0  0
 48 65  1  0  0  0
 48118  1  0  0  0
 49 50  1  0  0  0
 49 53  1  0  0  0
 49 64  1  0  0  0
 49119  1  0  0  0
 50 51  1  0  0  0
 50120  1  0  0  0
 50121  1  0  0  0
 51 52  1  0  0  0
 51122  1  0  0  0
 51123  1  0  0  0
 52124  1  0  0  0
 52125  1  0  0  0
 53 54  1  0  0  0
 54 55  2  0  0  0
 54126  1  0  0  0
 55 57  1  0  0  0
 55127  1  0  0  0
 56 69  2  0  0  0
 57 58  2  0  0  0
 57128  1  0  0  0
 58129  1  0  0  0
 59 60  1  0  0  0
 59 61  1  0  0  0
 59 62  1  0  0  0
 60130  1  0  0  0
 60131  1  0  0  0
 60132  1  0  0  0
 61133  1  0  0  0
 61134  1  0  0  0
 61135  1  0  0  0
 62136  1  0  0  0
 62137  1  0  0  0
 62138  1  0  0  0
 63 65  1  0  0  0
 63139  1  0  0  0
 63140  1  0  0  0
 63141  1  0  0  0
 64142  1  0  0  0
 65143  1  0  0  0
 68 79  1  0  0  0
 71 72  2  0  0  0
 71 75  1  0  0  0
 71144  1  0  0  0
 72 76  1  0  0  0
 72145  1  0  0  0
 73 74  1  0  0  0
 73 75  2  0  0  0
 73146  1  0  0  0
 74 76  2  0  0  0
 74 81  1  0  0  0
 75 83  1  0  0  0
 76 82  1  0  0  0
 77 78  1  0  0  0
 77 79  2  0  0  0
 77 80  1  0  0  0
 78 81  1  0  0  0
 78 84  2  0  0  0
 79147  1  0  0  0
 80 81  1  0  0  0
 80148  1  0  0  0
 80149  1  0  0  0
 82150  1  0  0  0
 82151  1  0  0  0
 83152  1  0  0  0
M  ISO  4   1 100  68 101  79 101  83 100
M  END
> <chiral flag>
0

> <version>
0

> <s_m_source_file>
/data/baiqing/PycharmProjects/Reinvent-master-3.2/result/LINK_invent/BTK/process_docking_weight1_custom_product_contain_oxygen_bond_distance_aromatic_linkinvent_7_9_3/rearranged_h_0085.sdf

> <i_m_source_file_index>
52

> <r_mmod_Potential_Energy-OPLS-2005>
352.369750976562

> <r_mmod_Stretch_Energy-OPLS-2005>
189.725448608398

> <r_mmod_Bend_Energy-OPLS-2005>
272.638702392578

> <r_mmod_Torsional_Energy-OPLS-2005>
264.428405761719

> <r_mmod_Improper_Torsional_Energy-OPLS-2005>
14.4280624389648

> <r_mmod_Van_der_Waal_Energy-OPLS-2005>
138.35758972168

> <r_mmod_Electrostatic_Energy-OPLS-2005>
-455.203796386719

> <r_mmod_Solvation_Energy-OPLS-2005>
-228.625671386719

> <b_mmod_Minimization_Converged-OPLS-2005>
0

> <r_mmod_RMS_Derivative-OPLS-2005>
0.581003069877625

$$$$
53
                    3D
 Structure written by MMmdl.
152160  0  0  1  0            999 V2000
  -30.7024  -14.5289   20.5407 C   0  0  0  0  0  0
  -30.4190  -12.3323   19.4402 C   0  0  0  0  0  0
  -29.4964  -12.4984   18.2154 C   0  0  0  0  0  0
  -28.0194  -12.3529   18.6285 C   0  0  0  0  0  0
  -27.6562  -13.2145   19.8682 C   0  0  2  0  0  0
  -28.7000  -13.0481   20.9964 C   0  0  0  0  0  0
  -25.2561  -13.8175   20.5679 C   0  0  0  0  0  0
  -24.1828  -13.0443   20.9187 C   0  0  0  0  0  0
  -24.6393  -11.6911   20.8741 C   0  0  0  0  0  0
  -23.9064  -10.4295   21.0404 C   0  0  0  0  0  0
  -24.3614   -9.4209   21.9182 C   0  0  0  0  0  0
  -23.6289   -8.2244   22.0756 C   0  0  0  0  0  0
  -22.4274   -8.0279   21.3544 C   0  0  0  0  0  0
  -21.9906   -9.0253   20.4649 C   0  0  0  0  0  0
  -22.7234  -10.2133   20.3056 C   0  0  0  0  0  0
  -21.6853   -6.0731   22.5277 C   0  0  0  0  0  0
  -21.4017   -6.5636   23.8211 C   0  0  0  0  0  0
  -21.3659   -5.6789   24.9173 C   0  0  0  0  0  0
  -21.6043   -4.3053   24.7225 C   0  0  0  0  0  0
  -21.8819   -3.8144   23.4347 C   0  0  0  0  0  0
  -21.9194   -4.6959   22.3402 C   0  0  0  0  0  0
  -22.7848  -13.5232   21.1846 C   0  0  0  0  0  0
  -22.1659   -4.2140   21.0982 F   0  0  0  0  0  0
  -21.5627   -3.4539   25.7740 F   0  0  0  0  0  0
  -30.0253  -13.3486   20.4334 N   0  0  0  0  0  0
  -26.3000  -12.9355   20.3347 N   0  0  0  0  0  0
  -25.9323  -11.6511   20.5774 N   0  0  0  0  0  0
  -22.0493  -12.8225   22.0406 N   0  0  0  0  0  0
  -25.4278  -15.1894   20.4074 N   0  0  0  0  0  0
  -31.8482  -14.6500   20.1008 O   0  0  0  0  0  0
  -21.6641   -6.8873   21.4240 O   0  0  0  0  0  0
  -22.3530  -14.5537   20.6693 O   0  0  0  0  0  0
  -24.6184  -31.8663   23.2082 C   0  0  0  0  0  0
  -25.9060  -32.4821   23.8393 C   0  0  1  0  0  0
  -27.2242  -27.3961   20.1046 C   0  0  0  0  0  0
  -25.5902  -33.8619   24.2328 N   0  0  0  0  0  0
  -23.4100  -30.4914   21.5483 C   0  0  2  0  0  0
  -24.8584  -28.9609   20.1065 C   0  0  0  0  0  0
  -22.7446  -29.4654   22.4955 C   0  0  0  0  0  0
  -18.0279  -28.1391   22.8491 C   0  0  0  0  0  0
  -24.1487  -36.7307   23.2639 C   0  0  0  0  0  0
  -25.9449  -30.8202   21.3703 C   0  0  0  0  0  0
  -26.0223  -29.4538   20.7133 C   0  0  0  0  0  0
  -27.2118  -28.6784   20.7114 C   0  0  0  0  0  0
  -26.0488  -26.9436   19.4650 C   0  0  0  0  0  0
  -24.8687  -27.7069   19.4755 C   0  0  0  0  0  0
  -23.6214  -29.8304   20.1607 C   0  0  0  0  0  0
  -25.4111  -36.3112   24.0339 C   0  0  1  0  0  0
  -20.5879  -28.3684   23.1303 C   0  0  2  0  0  0
  -20.6774  -26.9417   22.5413 C   0  0  0  0  0  0
  -19.5748  -26.6397   21.5211 C   0  0  0  0  0  0
  -18.1927  -26.7934   22.1626 C   0  0  0  0  0  0
  -19.1532  -28.8854   23.2894 C   0  0  0  0  0  0
  -18.9459  -30.1458   23.8908 C   0  0  0  0  0  0
  -17.6462  -30.6594   24.0570 C   0  0  0  0  0  0
  -25.9038  -34.9476   23.5133 C   0  0  0  0  0  0
  -16.5351  -29.9098   23.6329 C   0  0  0  0  0  0
  -16.7269  -28.6516   23.0348 C   0  0  0  0  0  0
  -26.4475  -31.6605   25.0729 C   0  0  0  0  0  0
  -25.3735  -31.3711   26.1472 C   0  0  0  0  0  0
  -27.0306  -30.3047   24.6113 C   0  0  0  0  0  0
  -27.6053  -32.4324   25.7487 C   0  0  0  0  0  0
  -27.5586  -37.1814   24.8470 C   0  0  0  0  0  0
  -21.4168  -29.3039   22.3699 N   0  0  0  0  0  0
  -26.4300  -37.3796   23.9408 N   0  0  0  0  0  0
  -24.6760  -31.0743   22.0997 N   0  0  0  0  0  0
  -23.4204  -28.8193   23.3008 O   0  0  0  0  0  0
  -28.3141  -26.5398   20.1722 O   0  0  0  0  0  0
  -26.5602  -34.8926   22.4697 O   0  0  0  0  0  0
  -23.5366  -32.1424   23.7456 O   0  0  0  0  0  0
  -32.0539  -18.7795   21.1899 C   0  0  0  0  0  0
  -31.0534  -19.7697   21.1620 C   0  0  0  0  0  0
  -31.7177  -17.4128   21.1334 C   0  0  0  0  0  0
  -29.3680  -18.0135   21.0083 C   0  0  0  0  0  0
  -29.6914  -19.4066   21.0728 C   0  0  0  0  0  0
  -30.3677  -16.9969   21.0269 C   0  0  0  0  0  0
  -28.0140  -25.2760   20.6766 C   0  0  0  0  0  0
  -28.5988  -20.4630   21.1713 C   0  0  0  0  0  0
  -28.6867  -24.1110   20.4715 C   0  0  0  0  0  0
  -28.1351  -22.8615   21.0411 C   0  0  0  0  0  0
  -29.9904  -15.5984   20.9874 N   0  0  0  0  0  0
  -28.8947  -21.7513   20.8372 N   0  0  0  0  0  0
  -27.4797  -20.0870   21.5398 O   0  0  0  0  0  0
  -27.0613  -22.8372   21.6559 O   0  0  0  0  0  0
  -29.8178  -24.0843   19.7506 O   0  0  0  0  0  0
  -31.4641  -12.4190   19.1386 H   0  0  0  0  0  0
  -30.3165  -11.3324   19.8654 H   0  0  0  0  0  0
  -29.7446  -11.7581   17.4535 H   0  0  0  0  0  0
  -29.6578  -13.4759   17.7578 H   0  0  0  0  0  0
  -27.8435  -11.2988   18.8470 H   0  0  0  0  0  0
  -27.3658  -12.6018   17.7914 H   0  0  0  0  0  0
  -27.6851  -14.2541   19.5413 H   0  0  0  0  0  0
  -28.6866  -12.0285   21.3839 H   0  0  0  0  0  0
  -28.4602  -13.6903   21.8449 H   0  0  0  0  0  0
  -25.2762   -9.5680   22.4753 H   0  0  0  0  0  0
  -23.9997   -7.4637   22.7478 H   0  0  0  0  0  0
  -21.0835   -8.8770   19.8958 H   0  0  0  0  0  0
  -22.3693  -10.9667   19.6161 H   0  0  0  0  0  0
  -21.2012   -7.6145   23.9708 H   0  0  0  0  0  0
  -21.1478   -6.0524   25.9073 H   0  0  0  0  0  0
  -22.0599   -2.7606   23.2853 H   0  0  0  0  0  0
  -22.4109  -11.9885   22.4786 H   0  0  0  0  0  0
  -21.1116  -13.1249   22.2619 H   0  0  0  0  0  0
  -24.6600  -15.8443   20.5114 H   0  0  0  0  0  0
  -26.2748  -15.6266   20.0670 H   0  0  0  0  0  0
  -26.7133  -32.5523   23.1157 H   0  0  0  0  0  0
  -25.0053  -33.9774   25.0475 H   0  0  0  0  0  0
  -22.6992  -31.3091   21.4107 H   0  0  0  0  0  0
  -23.3750  -35.9642   23.3315 H   0  0  0  0  0  0
  -24.3576  -36.8902   22.2051 H   0  0  0  0  0  0
  -23.7239  -37.6517   23.6639 H   0  0  0  0  0  0
  -26.0660  -31.5866   20.6032 H   0  0  0  0  0  0
  -26.8297  -30.8707   21.9930 H   0  0  0  0  0  0
  -28.1025  -29.0408   21.2046 H   0  0  0  0  0  0
  -26.0354  -25.9765   18.9825 H   0  0  0  0  0  0
  -23.9777  -27.3236   18.9963 H   0  0  0  0  0  0
  -23.7338  -30.6090   19.4052 H   0  0  0  0  0  0
  -22.7440  -29.2547   19.8600 H   0  0  0  0  0  0
  -25.1293  -36.1978   25.0833 H   0  0  0  0  0  0
  -20.9971  -28.3253   24.1423 H   0  0  0  0  0  0
  -20.5681  -26.2295   23.3606 H   0  0  0  0  0  0
  -21.6646  -26.7461   22.1205 H   0  0  0  0  0  0
  -19.6903  -25.6307   21.1238 H   0  0  0  0  0  0
  -19.6680  -27.3212   20.6744 H   0  0  0  0  0  0
  -17.4199  -26.6685   21.4026 H   0  0  0  0  0  0
  -18.0323  -26.0079   22.9027 H   0  0  0  0  0  0
  -19.7933  -30.7271   24.2283 H   0  0  0  0  0  0
  -17.5015  -31.6266   24.5181 H   0  0  0  0  0  0
  -15.5352  -30.3007   23.7638 H   0  0  0  0  0  0
  -15.8669  -28.0836   22.7057 H   0  0  0  0  0  0
  -24.5907  -30.7060   25.7808 H   0  0  0  0  0  0
  -24.8918  -32.2863   26.4925 H   0  0  0  0  0  0
  -25.8080  -30.8878   27.0230 H   0  0  0  0  0  0
  -26.2853  -29.6811   24.1161 H   0  0  0  0  0  0
  -27.4073  -29.7280   25.4570 H   0  0  0  0  0  0
  -27.8694  -30.4372   23.9274 H   0  0  0  0  0  0
  -27.2679  -33.3620   26.2082 H   0  0  0  0  0  0
  -28.3845  -32.6890   25.0299 H   0  0  0  0  0  0
  -28.0740  -31.8433   26.5379 H   0  0  0  0  0  0
  -28.2625  -38.0093   24.7513 H   0  0  0  0  0  0
  -28.1063  -36.2627   24.6311 H   0  0  0  0  0  0
  -27.2299  -37.1482   25.8872 H   0  0  0  0  0  0
  -20.9331  -29.8778   21.6935 H   0  0  0  0  0  0
  -26.0190  -38.2877   24.1397 H   0  0  0  0  0  0
  -33.0918  -19.0700   21.2776 H   0  0  0  0  0  0
  -31.3477  -20.8068   21.2457 H   0  0  0  0  0  0
  -32.5241  -16.6967   21.1898 H   0  0  0  0  0  0
  -28.3271  -17.7232   20.9594 H   0  0  0  0  0  0
  -27.1150  -25.2975   21.2824 H   0  0  0  0  0  0
  -29.0326  -15.3899   21.2229 H   0  0  0  0  0  0
  -29.7867  -21.9276   20.4028 H   0  0  0  0  0  0
  -29.9863  -24.9777   19.4788 H   0  0  0  0  0  0
  1 25  1  0  0  0
  1 30  2  0  0  0
  1 81  1  0  0  0
  2  3  1  0  0  0
  2 25  1  0  0  0
  2 86  1  0  0  0
  2 87  1  0  0  0
  3  4  1  0  0  0
  3 88  1  0  0  0
  3 89  1  0  0  0
  4  5  1  0  0  0
  4 90  1  0  0  0
  4 91  1  0  0  0
  5  6  1  0  0  0
  5 26  1  0  0  0
  5 92  1  0  0  0
  6 25  1  0  0  0
  6 93  1  0  0  0
  6 94  1  0  0  0
  7  8  2  0  0  0
  7 26  1  0  0  0
  7 29  1  0  0  0
  8  9  1  0  0  0
  8 22  1  0  0  0
  9 10  1  0  0  0
  9 27  2  0  0  0
 10 11  2  0  0  0
 10 15  1  0  0  0
 11 12  1  0  0  0
 11 95  1  0  0  0
 12 13  2  0  0  0
 12 96  1  0  0  0
 13 14  1  0  0  0
 13 31  1  0  0  0
 14 15  2  0  0  0
 14 97  1  0  0  0
 15 98  1  0  0  0
 16 17  2  0  0  0
 16 21  1  0  0  0
 16 31  1  0  0  0
 17 18  1  0  0  0
 17 99  1  0  0  0
 18 19  2  0  0  0
 18100  1  0  0  0
 19 20  1  0  0  0
 19 24  1  0  0  0
 20 21  2  0  0  0
 20101  1  0  0  0
 21 23  1  0  0  0
 22 28  1  0  0  0
 22 32  2  0  0  0
 26 27  1  0  0  0
 28102  1  0  0  0
 28103  1  0  0  0
 29104  1  0  0  0
 29105  1  0  0  0
 33 34  1  0  0  0
 33 66  1  0  0  0
 33 70  2  0  0  0
 34 36  1  0  0  0
 34 59  1  0  0  0
 34106  1  0  0  0
 35 44  2  0  0  0
 35 45  1  0  0  0
 35 68  1  0  0  0
 36 56  1  0  0  0
 36107  1  0  0  0
 37 39  1  0  0  0
 37 47  1  0  0  0
 37 66  1  0  0  0
 37108  1  0  0  0
 38 43  2  0  0  0
 38 46  1  0  0  0
 38 47  1  0  0  0
 39 64  1  0  0  0
 39 67  2  0  0  0
 40 52  1  0  0  0
 40 53  2  0  0  0
 40 58  1  0  0  0
 41109  1  0  0  0
 41110  1  0  0  0
 41111  1  0  0  0
 41 48  1  0  0  0
 42 43  1  0  0  0
 42 66  1  0  0  0
 42112  1  0  0  0
 42113  1  0  0  0
 43 44  1  0  0  0
 44114  1  0  0  0
 45 46  2  0  0  0
 45115  1  0  0  0
 46116  1  0  0  0
 47117  1  0  0  0
 47118  1  0  0  0
 48 56  1  0  0  0
 48 65  1  0  0  0
 48119  1  0  0  0
 49 50  1  0  0  0
 49 53  1  0  0  0
 49 64  1  0  0  0
 49120  1  0  0  0
 50 51  1  0  0  0
 50121  1  0  0  0
 50122  1  0  0  0
 51 52  1  0  0  0
 51123  1  0  0  0
 51124  1  0  0  0
 52125  1  0  0  0
 52126  1  0  0  0
 53 54  1  0  0  0
 54 55  2  0  0  0
 54127  1  0  0  0
 55 57  1  0  0  0
 55128  1  0  0  0
 56 69  2  0  0  0
 57 58  2  0  0  0
 57129  1  0  0  0
 58130  1  0  0  0
 59 60  1  0  0  0
 59 61  1  0  0  0
 59 62  1  0  0  0
 60131  1  0  0  0
 60132  1  0  0  0
 60133  1  0  0  0
 61134  1  0  0  0
 61135  1  0  0  0
 61136  1  0  0  0
 62137  1  0  0  0
 62138  1  0  0  0
 62139  1  0  0  0
 63 65  1  0  0  0
 63140  1  0  0  0
 63141  1  0  0  0
 63142  1  0  0  0
 64143  1  0  0  0
 65144  1  0  0  0
 68 77  1  0  0  0
 71 72  2  0  0  0
 71 73  1  0  0  0
 71145  1  0  0  0
 72 75  1  0  0  0
 72146  1  0  0  0
 73 76  2  0  0  0
 73147  1  0  0  0
 74 75  2  0  0  0
 74 76  1  0  0  0
 74148  1  0  0  0
 75 78  1  0  0  0
 76 81  1  0  0  0
 77 79  2  0  0  0
 77149  1  0  0  0
 78 82  1  0  0  0
 78 83  2  0  0  0
 79 80  1  0  0  0
 79 85  1  0  0  0
 80 82  1  0  0  0
 80 84  2  0  0  0
 81150  1  0  0  0
 82151  1  0  0  0
 85152  1  0  0  0
M  ISO  4   1 100  68 101  77 101  81 100
M  END
> <chiral flag>
0

> <version>
0

> <s_m_source_file>
/data/baiqing/PycharmProjects/Reinvent-master-3.2/result/LINK_invent/BTK/process_docking_weight1_custom_product_contain_oxygen_bond_distance_aromatic_linkinvent_7_9_3/rearranged_h_0085.sdf

> <i_m_source_file_index>
53

> <r_mmod_Potential_Energy-OPLS-2005>
-205.175643920898

> <r_mmod_Stretch_Energy-OPLS-2005>
51.0612640380859

> <r_mmod_Bend_Energy-OPLS-2005>
105.611999511719

> <r_mmod_Torsional_Energy-OPLS-2005>
215.506256103516

> <r_mmod_Improper_Torsional_Energy-OPLS-2005>
4.6236252784729

> <r_mmod_Van_der_Waal_Energy-OPLS-2005>
173.690811157227

> <r_mmod_Electrostatic_Energy-OPLS-2005>
-530.527587890625

> <r_mmod_Solvation_Energy-OPLS-2005>
-251.445129394531

> <b_mmod_Minimization_Converged-OPLS-2005>
0

> <r_mmod_RMS_Derivative-OPLS-2005>
0.895522236824036

$$$$
54
                    3D
 Structure written by MMmdl.
150159  0  0  1  0            999 V2000
  -30.5692  -14.7421   20.4850 C   0  0  0  0  0  0
  -30.4511  -12.4556   19.4667 C   0  0  0  0  0  0
  -29.5167  -12.5196   18.2354 C   0  0  0  0  0  0
  -28.0415  -12.3384   18.6472 C   0  0  0  0  0  0
  -27.6514  -13.2208   19.8618 C   0  0  2  0  0  0
  -28.6968  -13.1055   20.9942 C   0  0  0  0  0  0
  -25.2559  -13.8174   20.5689 C   0  0  0  0  0  0
  -24.1830  -13.0437   20.9196 C   0  0  0  0  0  0
  -24.6401  -11.6907   20.8741 C   0  0  0  0  0  0
  -23.9068  -10.4291   21.0407 C   0  0  0  0  0  0
  -24.3618   -9.4205   21.9186 C   0  0  0  0  0  0
  -23.6292   -8.2241   22.0755 C   0  0  0  0  0  0
  -22.4275   -8.0280   21.3543 C   0  0  0  0  0  0
  -21.9909   -9.0255   20.4647 C   0  0  0  0  0  0
  -22.7237  -10.2136   20.3058 C   0  0  0  0  0  0
  -21.6853   -6.0734   22.5277 C   0  0  0  0  0  0
  -21.4013   -6.5638   23.8211 C   0  0  0  0  0  0
  -21.3661   -5.6792   24.9174 C   0  0  0  0  0  0
  -21.6046   -4.3055   24.7226 C   0  0  0  0  0  0
  -21.8819   -3.8144   23.4347 C   0  0  0  0  0  0
  -21.9194   -4.6961   22.3402 C   0  0  0  0  0  0
  -22.7851  -13.5229   21.1858 C   0  0  0  0  0  0
  -22.1663   -4.2146   21.0980 F   0  0  0  0  0  0
  -21.5630   -3.4539   25.7739 F   0  0  0  0  0  0
  -30.0028  -13.4861   20.4307 N   0  0  0  0  0  0
  -26.2984  -12.9356   20.3309 N   0  0  0  0  0  0
  -25.9333  -11.6509   20.5755 N   0  0  0  0  0  0
  -22.0493  -12.8223   22.0415 N   0  0  0  0  0  0
  -25.4275  -15.1895   20.4100 N   0  0  0  0  0  0
  -31.7264  -14.9244   20.0924 O   0  0  0  0  0  0
  -21.6639   -6.8876   21.4239 O   0  0  0  0  0  0
  -22.3536  -14.5535   20.6704 O   0  0  0  0  0  0
  -24.6314  -31.8549   23.1984 C   0  0  0  0  0  0
  -25.9134  -32.4756   23.8333 C   0  0  1  0  0  0
  -27.2250  -27.2670   20.1294 C   0  0  0  0  0  0
  -25.5927  -33.8558   24.2257 N   0  0  0  0  0  0
  -23.4299  -30.4768   21.5412 C   0  0  2  0  0  0
  -24.8813  -28.9255   20.1089 C   0  0  0  0  0  0
  -22.7508  -29.4598   22.4904 C   0  0  0  0  0  0
  -18.0293  -28.1387   22.8484 C   0  0  0  0  0  0
  -24.1489  -36.7287   23.2640 C   0  0  0  0  0  0
  -25.9762  -30.7685   21.3801 C   0  0  0  0  0  0
  -26.0527  -29.3913   20.7223 C   0  0  0  0  0  0
  -27.2303  -28.5734   20.7248 C   0  0  0  0  0  0
  -26.0356  -26.8726   19.4803 C   0  0  0  0  0  0
  -24.8772  -27.6731   19.4764 C   0  0  0  0  0  0
  -23.6501  -29.8107   20.1576 C   0  0  0  0  0  0
  -25.4115  -36.3072   24.0326 C   0  0  1  0  0  0
  -20.5898  -28.3700   23.1263 C   0  0  2  0  0  0
  -20.6781  -26.9416   22.5405 C   0  0  0  0  0  0
  -19.5756  -26.6381   21.5211 C   0  0  0  0  0  0
  -18.1937  -26.7927   22.1628 C   0  0  0  0  0  0
  -19.1547  -28.8861   23.2868 C   0  0  0  0  0  0
  -18.9469  -30.1460   23.8888 C   0  0  0  0  0  0
  -17.6468  -30.6588   24.0562 C   0  0  0  0  0  0
  -25.9054  -34.9440   23.5096 C   0  0  0  0  0  0
  -16.5358  -29.9085   23.6332 C   0  0  0  0  0  0
  -16.7280  -28.6503   23.0354 C   0  0  0  0  0  0
  -26.4501  -31.6579   25.0723 C   0  0  0  0  0  0
  -25.3721  -31.3735   26.1441 C   0  0  0  0  0  0
  -27.0351  -30.2993   24.6217 C   0  0  0  0  0  0
  -27.6049  -32.4325   25.7499 C   0  0  0  0  0  0
  -27.5577  -37.1802   24.8467 C   0  0  0  0  0  0
  -21.4213  -29.3046   22.3649 N   0  0  0  0  0  0
  -26.4294  -37.3768   23.9402 N   0  0  0  0  0  0
  -24.6980  -31.0509   22.0963 N   0  0  0  0  0  0
  -23.4201  -28.8136   23.3008 O   0  0  0  0  0  0
  -28.2753  -26.3204   20.1787 O   0  0  0  0  0  0
  -26.5632  -34.8914   22.4668 O   0  0  0  0  0  0
  -23.5459  -32.1370   23.7272 O   0  0  0  0  0  0
  -28.4147  -19.3382   21.3791 C   0  0  0  0  0  0
  -28.6190  -17.9253   21.4410 C   0  0  0  0  0  0
  -30.5052  -18.1406   20.0189 C   0  0  0  0  0  0
  -29.2142  -20.2597   20.6377 C   0  0  0  0  0  0
  -29.6714  -17.2542   20.7664 C   0  0  0  0  0  0
  -30.2800  -19.5711   19.9586 C   0  0  0  0  0  0
  -28.4329  -23.7445   20.6059 C   0  0  0  0  0  0
  -27.9293  -22.5503   21.2765 C   0  0  0  0  0  0
  -27.9469  -25.0473   20.7329 C   0  0  0  0  0  0
  -29.4929  -22.8503   19.8929 C   0  0  0  0  0  0
  -28.8819  -21.7191   20.6560 N   0  0  0  0  0  0
  -29.7268  -15.7694   20.8755 N   0  0  0  0  0  0
  -27.0121  -22.4075   22.0586 O   0  0  0  0  0  0
  -31.1316  -20.3109   19.2077 F   0  0  0  0  0  0
  -31.4873  -12.6086   19.1603 H   0  0  0  0  0  0
  -30.4187  -11.4666   19.9261 H   0  0  0  0  0  0
  -29.7977  -11.7565   17.5082 H   0  0  0  0  0  0
  -29.6392  -13.4802   17.7325 H   0  0  0  0  0  0
  -27.8950  -11.2863   18.8949 H   0  0  0  0  0  0
  -27.3838  -12.5451   17.8020 H   0  0  0  0  0  0
  -27.6590  -14.2508   19.5047 H   0  0  0  0  0  0
  -28.7335  -12.0856   21.3802 H   0  0  0  0  0  0
  -28.4237  -13.7328   21.8440 H   0  0  0  0  0  0
  -25.2766   -9.5679   22.4757 H   0  0  0  0  0  0
  -24.0002   -7.4631   22.7474 H   0  0  0  0  0  0
  -21.0839   -8.8773   19.8953 H   0  0  0  0  0  0
  -22.3696  -10.9675   19.6166 H   0  0  0  0  0  0
  -21.2003   -7.6146   23.9713 H   0  0  0  0  0  0
  -21.1484   -6.0523   25.9077 H   0  0  0  0  0  0
  -22.0597   -2.7606   23.2849 H   0  0  0  0  0  0
  -22.4110  -11.9886   22.4805 H   0  0  0  0  0  0
  -21.1109  -13.1249   22.2618 H   0  0  0  0  0  0
  -24.6575  -15.8417   20.5111 H   0  0  0  0  0  0
  -26.2692  -15.6257   20.0557 H   0  0  0  0  0  0
  -26.7202  -32.5412   23.1077 H   0  0  0  0  0  0
  -25.0057  -33.9692   25.0390 H   0  0  0  0  0  0
  -22.7266  -31.2991   21.3942 H   0  0  0  0  0  0
  -23.3747  -35.9625   23.3312 H   0  0  0  0  0  0
  -24.3575  -36.8900   22.2053 H   0  0  0  0  0  0
  -23.7250  -37.6494   23.6659 H   0  0  0  0  0  0
  -26.1149  -31.5293   20.6105 H   0  0  0  0  0  0
  -26.8530  -30.8180   22.0142 H   0  0  0  0  0  0
  -28.1244  -28.9185   21.2249 H   0  0  0  0  0  0
  -25.9906  -25.9060   18.9985 H   0  0  0  0  0  0
  -23.9820  -27.3108   18.9898 H   0  0  0  0  0  0
  -23.7730  -30.5874   19.4019 H   0  0  0  0  0  0
  -22.7692  -29.2432   19.8524 H   0  0  0  0  0  0
  -25.1299  -36.1923   25.0821 H   0  0  0  0  0  0
  -20.9994  -28.3282   24.1382 H   0  0  0  0  0  0
  -20.5678  -26.2313   23.3613 H   0  0  0  0  0  0
  -21.6649  -26.7436   22.1201 H   0  0  0  0  0  0
  -19.6918  -25.6290   21.1246 H   0  0  0  0  0  0
  -19.6690  -27.3187   20.6737 H   0  0  0  0  0  0
  -17.4204  -26.6666   21.4035 H   0  0  0  0  0  0
  -18.0347  -26.0071   22.9028 H   0  0  0  0  0  0
  -19.7944  -30.7279   24.2254 H   0  0  0  0  0  0
  -17.5022  -31.6267   24.5165 H   0  0  0  0  0  0
  -15.5359  -30.2987   23.7655 H   0  0  0  0  0  0
  -15.8680  -28.0818   22.7075 H   0  0  0  0  0  0
  -24.5883  -30.7104   25.7763 H   0  0  0  0  0  0
  -24.8932  -32.2912   26.4868 H   0  0  0  0  0  0
  -25.8030  -30.8900   27.0218 H   0  0  0  0  0  0
  -26.2942  -29.6738   24.1227 H   0  0  0  0  0  0
  -27.4010  -29.7259   25.4744 H   0  0  0  0  0  0
  -27.8829  -30.4260   23.9480 H   0  0  0  0  0  0
  -27.2645  -33.3622   26.2070 H   0  0  0  0  0  0
  -28.3863  -32.6891   25.0335 H   0  0  0  0  0  0
  -28.0714  -31.8458   26.5423 H   0  0  0  0  0  0
  -28.2605  -38.0089   24.7496 H   0  0  0  0  0  0
  -28.1064  -36.2619   24.6320 H   0  0  0  0  0  0
  -27.2292  -37.1482   25.8870 H   0  0  0  0  0  0
  -20.9399  -29.8771   21.6856 H   0  0  0  0  0  0
  -26.0176  -38.2846   24.1388 H   0  0  0  0  0  0
  -27.5767  -19.7268   21.9396 H   0  0  0  0  0  0
  -27.9237  -17.3468   22.0337 H   0  0  0  0  0  0
  -31.3323  -17.7308   19.4585 H   0  0  0  0  0  0
  -27.1165  -25.1720   21.4163 H   0  0  0  0  0  0
  -30.5402  -22.9998   20.1597 H   0  0  0  0  0  0
  -29.3912  -22.7119   18.8152 H   0  0  0  0  0  0
  -28.8841  -15.3800   21.2699 H   0  0  0  0  0  0
  1 25  1  0  0  0
  1 30  2  0  0  0
  1 82  1  0  0  0
  2  3  1  0  0  0
  2 25  1  0  0  0
  2 85  1  0  0  0
  2 86  1  0  0  0
  3  4  1  0  0  0
  3 87  1  0  0  0
  3 88  1  0  0  0
  4  5  1  0  0  0
  4 89  1  0  0  0
  4 90  1  0  0  0
  5  6  1  0  0  0
  5 26  1  0  0  0
  5 91  1  0  0  0
  6 25  1  0  0  0
  6 92  1  0  0  0
  6 93  1  0  0  0
  7  8  2  0  0  0
  7 26  1  0  0  0
  7 29  1  0  0  0
  8  9  1  0  0  0
  8 22  1  0  0  0
  9 10  1  0  0  0
  9 27  2  0  0  0
 10 11  2  0  0  0
 10 15  1  0  0  0
 11 12  1  0  0  0
 11 94  1  0  0  0
 12 13  2  0  0  0
 12 95  1  0  0  0
 13 14  1  0  0  0
 13 31  1  0  0  0
 14 15  2  0  0  0
 14 96  1  0  0  0
 15 97  1  0  0  0
 16 17  2  0  0  0
 16 21  1  0  0  0
 16 31  1  0  0  0
 17 18  1  0  0  0
 17 98  1  0  0  0
 18 19  2  0  0  0
 18 99  1  0  0  0
 19 20  1  0  0  0
 19 24  1  0  0  0
 20 21  2  0  0  0
 20100  1  0  0  0
 21 23  1  0  0  0
 22 28  1  0  0  0
 22 32  2  0  0  0
 26 27  1  0  0  0
 28101  1  0  0  0
 28102  1  0  0  0
 29103  1  0  0  0
 29104  1  0  0  0
 33 34  1  0  0  0
 33 66  1  0  0  0
 33 70  2  0  0  0
 34 36  1  0  0  0
 34 59  1  0  0  0
 34105  1  0  0  0
 35 44  2  0  0  0
 35 45  1  0  0  0
 35 68  1  0  0  0
 36 56  1  0  0  0
 36106  1  0  0  0
 37 39  1  0  0  0
 37 47  1  0  0  0
 37 66  1  0  0  0
 37107  1  0  0  0
 38 43  2  0  0  0
 38 46  1  0  0  0
 38 47  1  0  0  0
 39 64  1  0  0  0
 39 67  2  0  0  0
 40 52  1  0  0  0
 40 53  2  0  0  0
 40 58  1  0  0  0
 41108  1  0  0  0
 41109  1  0  0  0
 41110  1  0  0  0
 41 48  1  0  0  0
 42 43  1  0  0  0
 42 66  1  0  0  0
 42111  1  0  0  0
 42112  1  0  0  0
 43 44  1  0  0  0
 44113  1  0  0  0
 45 46  2  0  0  0
 45114  1  0  0  0
 46115  1  0  0  0
 47116  1  0  0  0
 47117  1  0  0  0
 48 56  1  0  0  0
 48 65  1  0  0  0
 48118  1  0  0  0
 49 50  1  0  0  0
 49 53  1  0  0  0
 49 64  1  0  0  0
 49119  1  0  0  0
 50 51  1  0  0  0
 50120  1  0  0  0
 50121  1  0  0  0
 51 52  1  0  0  0
 51122  1  0  0  0
 51123  1  0  0  0
 52124  1  0  0  0
 52125  1  0  0  0
 53 54  1  0  0  0
 54 55  2  0  0  0
 54126  1  0  0  0
 55 57  1  0  0  0
 55127  1  0  0  0
 56 69  2  0  0  0
 57 58  2  0  0  0
 57128  1  0  0  0
 58129  1  0  0  0
 59 60  1  0  0  0
 59 61  1  0  0  0
 59 62  1  0  0  0
 60130  1  0  0  0
 60131  1  0  0  0
 60132  1  0  0  0
 61133  1  0  0  0
 61134  1  0  0  0
 61135  1  0  0  0
 62136  1  0  0  0
 62137  1  0  0  0
 62138  1  0  0  0
 63 65  1  0  0  0
 63139  1  0  0  0
 63140  1  0  0  0
 63141  1  0  0  0
 64142  1  0  0  0
 65143  1  0  0  0
 68 79  1  0  0  0
 71 72  2  0  0  0
 71 74  1  0  0  0
 71144  1  0  0  0
 72 75  1  0  0  0
 72145  1  0  0  0
 73 75  2  0  0  0
 73 76  1  0  0  0
 73146  1  0  0  0
 74 76  2  0  0  0
 74 81  1  0  0  0
 75 82  1  0  0  0
 76 84  1  0  0  0
 77 78  1  0  0  0
 77 79  2  0  0  0
 77 80  1  0  0  0
 78 81  1  0  0  0
 78 83  2  0  0  0
 79147  1  0  0  0
 80 81  1  0  0  0
 80148  1  0  0  0
 80149  1  0  0  0
 82150  1  0  0  0
M  ISO  4   1 100  68 101  79 101  82 100
M  END
> <chiral flag>
0

> <version>
0

> <s_m_source_file>
/data/baiqing/PycharmProjects/Reinvent-master-3.2/result/LINK_invent/BTK/process_docking_weight1_custom_product_contain_oxygen_bond_distance_aromatic_linkinvent_7_9_3/rearranged_h_0085.sdf

> <i_m_source_file_index>
54

> <r_mmod_Potential_Energy-OPLS-2005>
227.970703125

> <r_mmod_Stretch_Energy-OPLS-2005>
107.681640625

> <r_mmod_Bend_Energy-OPLS-2005>
270.576690673828

> <r_mmod_Torsional_Energy-OPLS-2005>
220.03254699707

> <r_mmod_Improper_Torsional_Energy-OPLS-2005>
3.48363852500916

> <r_mmod_Van_der_Waal_Energy-OPLS-2005>
134.12727355957

> <r_mmod_Electrostatic_Energy-OPLS-2005>
-381.995819091797

> <r_mmod_Solvation_Energy-OPLS-2005>
-213.960922241211

> <b_mmod_Minimization_Converged-OPLS-2005>
0

> <r_mmod_RMS_Derivative-OPLS-2005>
0.390327841043472

$$$$
55
                    3D
 Structure written by MMmdl.
150158  0  0  1  0            999 V2000
  -30.5383  -15.0144   20.4085 C   0  0  0  0  0  0
  -30.4361  -12.6329   19.5072 C   0  0  0  0  0  0
  -29.5221  -12.5366   18.2636 C   0  0  0  0  0  0
  -28.0592  -12.3098   18.6854 C   0  0  0  0  0  0
  -27.6242  -13.2563   19.8344 C   0  0  2  0  0  0
  -28.6660  -13.3257   20.9717 C   0  0  0  0  0  0
  -25.2435  -13.8229   20.5721 C   0  0  0  0  0  0
  -24.1763  -13.0439   20.9236 C   0  0  0  0  0  0
  -24.6395  -11.6928   20.8761 C   0  0  0  0  0  0
  -23.9084  -10.4294   21.0409 C   0  0  0  0  0  0
  -24.3629   -9.4206   21.9185 C   0  0  0  0  0  0
  -23.6297   -8.2245   22.0758 C   0  0  0  0  0  0
  -22.4281   -8.0284   21.3545 C   0  0  0  0  0  0
  -21.9920   -9.0260   20.4649 C   0  0  0  0  0  0
  -22.7255  -10.2136   20.3059 C   0  0  0  0  0  0
  -21.6852   -6.0735   22.5274 C   0  0  0  0  0  0
  -21.4013   -6.5638   23.8206 C   0  0  0  0  0  0
  -21.3657   -5.6791   24.9168 C   0  0  0  0  0  0
  -21.6044   -4.3054   24.7221 C   0  0  0  0  0  0
  -21.8820   -3.8146   23.4342 C   0  0  0  0  0  0
  -21.9194   -4.6963   22.3397 C   0  0  0  0  0  0
  -22.7780  -13.5201   21.1884 C   0  0  0  0  0  0
  -22.1661   -4.2146   21.0975 F   0  0  0  0  0  0
  -21.5629   -3.4540   25.7735 F   0  0  0  0  0  0
  -29.9329  -13.7518   20.3628 N   0  0  0  0  0  0
  -26.2862  -12.9475   20.3244 N   0  0  0  0  0  0
  -25.9329  -11.6596   20.5746 N   0  0  0  0  0  0
  -22.0436  -12.8192   22.0444 N   0  0  0  0  0  0
  -25.4085  -15.1960   20.4137 N   0  0  0  0  0  0
  -31.7495  -15.0256   20.1608 O   0  0  0  0  0  0
  -21.6642   -6.8882   21.4239 O   0  0  0  0  0  0
  -22.3460  -14.5502   20.6725 O   0  0  0  0  0  0
  -24.6491  -31.8387   23.1845 C   0  0  0  0  0  0
  -25.9238  -32.4668   23.8248 C   0  0  1  0  0  0
  -27.2135  -27.0823   20.1594 C   0  0  0  0  0  0
  -25.5960  -33.8475   24.2154 N   0  0  0  0  0  0
  -23.4555  -30.4570   21.5311 C   0  0  2  0  0  0
  -24.9054  -28.8772   20.1093 C   0  0  0  0  0  0
  -22.7596  -29.4518   22.4841 C   0  0  0  0  0  0
  -18.0312  -28.1397   22.8471 C   0  0  0  0  0  0
  -24.1493  -36.7243   23.2645 C   0  0  0  0  0  0
  -26.0160  -30.6957   21.3912 C   0  0  0  0  0  0
  -26.0859  -29.3025   20.7320 C   0  0  0  0  0  0
  -27.2404  -28.4236   20.7370 C   0  0  0  0  0  0
  -26.0061  -26.7750   19.4931 C   0  0  0  0  0  0
  -24.8822  -27.6289   19.4717 C   0  0  0  0  0  0
  -23.6855  -29.7861   20.1510 C   0  0  0  0  0  0
  -25.4128  -36.3015   24.0309 C   0  0  1  0  0  0
  -20.5929  -28.3726   23.1221 C   0  0  2  0  0  0
  -20.6791  -26.9422   22.5402 C   0  0  0  0  0  0
  -19.5763  -26.6376   21.5211 C   0  0  0  0  0  0
  -18.1944  -26.7932   22.1623 C   0  0  0  0  0  0
  -19.1571  -28.8881   23.2833 C   0  0  0  0  0  0
  -18.9487  -30.1476   23.8861 C   0  0  0  0  0  0
  -17.6483  -30.6589   24.0561 C   0  0  0  0  0  0
  -25.9084  -34.9393   23.5041 C   0  0  0  0  0  0
  -16.5372  -29.9080   23.6342 C   0  0  0  0  0  0
  -16.7296  -28.6502   23.0355 C   0  0  0  0  0  0
  -26.4541  -31.6562   25.0715 C   0  0  0  0  0  0
  -25.3709  -31.3757   26.1396 C   0  0  0  0  0  0
  -27.0421  -30.2956   24.6335 C   0  0  0  0  0  0
  -27.6061  -32.4343   25.7505 C   0  0  0  0  0  0
  -27.5568  -37.1776   24.8466 C   0  0  0  0  0  0
  -21.4285  -29.3043   22.3587 N   0  0  0  0  0  0
  -26.4283  -37.3734   23.9406 N   0  0  0  0  0  0
  -24.7272  -31.0194   22.0904 N   0  0  0  0  0  0
  -23.4211  -28.8067   23.3014 O   0  0  0  0  0  0
  -28.2412  -26.0536   20.2350 O   0  0  0  0  0  0
  -26.5686  -34.8899   22.4630 O   0  0  0  0  0  0
  -23.5595  -32.1291   23.7029 O   0  0  0  0  0  0
  -31.4872  -18.1089   20.5109 C   0  0  0  0  0  0
  -31.9285  -19.4460   20.4714 C   0  0  0  0  0  0
  -29.2320  -18.9750   20.4004 C   0  0  0  0  0  0
  -29.6428  -20.4282   20.3544 C   0  0  0  0  0  0
  -30.1224  -17.7586   20.4658 C   0  0  0  0  0  0
  -31.0610  -20.5589   20.3863 C   0  0  0  0  0  0
  -28.7276  -21.7872   20.2497 C   0  0  0  0  0  0
  -28.9225  -23.2160   20.3115 C   0  0  0  0  0  0
  -27.8978  -24.5166   20.1051 C   0  0  0  0  0  0
  -31.6784  -21.8028   20.2997 N   0  0  0  0  0  0
  -29.7779  -16.2375   20.5098 N   0  0  0  0  0  0
  -31.4687  -12.7890   19.1917 H   0  0  0  0  0  0
  -30.4368  -11.6933   20.0620 H   0  0  0  0  0  0
  -29.8542  -11.7289   17.6098 H   0  0  0  0  0  0
  -29.5983  -13.4555   17.6803 H   0  0  0  0  0  0
  -27.9720  -11.2731   19.0123 H   0  0  0  0  0  0
  -27.3931  -12.4159   17.8282 H   0  0  0  0  0  0
  -27.5745  -14.2491   19.3864 H   0  0  0  0  0  0
  -28.7689  -12.3629   21.4746 H   0  0  0  0  0  0
  -28.3537  -14.0422   21.7333 H   0  0  0  0  0  0
  -25.2772   -9.5676   22.4764 H   0  0  0  0  0  0
  -23.9995   -7.4639   22.7485 H   0  0  0  0  0  0
  -21.0846   -8.8785   19.8961 H   0  0  0  0  0  0
  -22.3711  -10.9675   19.6171 H   0  0  0  0  0  0
  -21.2004   -7.6145   23.9705 H   0  0  0  0  0  0
  -21.1476   -6.0523   25.9068 H   0  0  0  0  0  0
  -22.0602   -2.7608   23.2842 H   0  0  0  0  0  0
  -22.4058  -11.9856   22.4834 H   0  0  0  0  0  0
  -21.1052  -13.1209   22.2652 H   0  0  0  0  0  0
  -24.6370  -15.8456   20.5237 H   0  0  0  0  0  0
  -26.2465  -15.6370   20.0585 H   0  0  0  0  0  0
  -26.7299  -32.5254   23.0968 H   0  0  0  0  0  0
  -25.0073  -33.9588   25.0277 H   0  0  0  0  0  0
  -22.7614  -31.2850   21.3732 H   0  0  0  0  0  0
  -23.3760  -35.9570   23.3304 H   0  0  0  0  0  0
  -24.3570  -36.8890   22.2060 H   0  0  0  0  0  0
  -23.7249  -37.6432   23.6700 H   0  0  0  0  0  0
  -26.1786  -31.4477   20.6177 H   0  0  0  0  0  0
  -26.8834  -30.7454   22.0373 H   0  0  0  0  0  0
  -28.1371  -28.7449   21.2483 H   0  0  0  0  0  0
  -25.8896  -25.8236   18.9979 H   0  0  0  0  0  0
  -23.9834  -27.2993   18.9679 H   0  0  0  0  0  0
  -23.8268  -30.5609   19.3963 H   0  0  0  0  0  0
  -22.7989  -29.2319   19.8382 H   0  0  0  0  0  0
  -25.1319  -36.1833   25.0801 H   0  0  0  0  0  0
  -21.0015  -28.3320   24.1346 H   0  0  0  0  0  0
  -20.5681  -26.2342   23.3628 H   0  0  0  0  0  0
  -21.6654  -26.7419   22.1200 H   0  0  0  0  0  0
  -19.6927  -25.6280   21.1258 H   0  0  0  0  0  0
  -19.6703  -27.3173   20.6730 H   0  0  0  0  0  0
  -17.4214  -26.6683   21.4025 H   0  0  0  0  0  0
  -18.0340  -26.0081   22.9027 H   0  0  0  0  0  0
  -19.7967  -30.7297   24.2211 H   0  0  0  0  0  0
  -17.5040  -31.6268   24.5164 H   0  0  0  0  0  0
  -15.5369  -30.2967   23.7688 H   0  0  0  0  0  0
  -15.8703  -28.0809   22.7083 H   0  0  0  0  0  0
  -24.5902  -30.7099   25.7701 H   0  0  0  0  0  0
  -24.8885  -32.2938   26.4759 H   0  0  0  0  0  0
  -25.7972  -30.8962   27.0217 H   0  0  0  0  0  0
  -26.3053  -29.6663   24.1330 H   0  0  0  0  0  0
  -27.4009  -29.7275   25.4928 H   0  0  0  0  0  0
  -27.8971  -30.4189   23.9684 H   0  0  0  0  0  0
  -27.2653  -33.3677   26.1999 H   0  0  0  0  0  0
  -28.3912  -32.6852   25.0360 H   0  0  0  0  0  0
  -28.0686  -31.8526   26.5489 H   0  0  0  0  0  0
  -28.2578  -38.0077   24.7502 H   0  0  0  0  0  0
  -28.1068  -36.2602   24.6308 H   0  0  0  0  0  0
  -27.2281  -37.1439   25.8868 H   0  0  0  0  0  0
  -20.9506  -29.8762   21.6764 H   0  0  0  0  0  0
  -26.0144  -38.2798   24.1416 H   0  0  0  0  0  0
  -32.2510  -17.3500   20.5793 H   0  0  0  0  0  0
  -32.9970  -19.6104   20.4988 H   0  0  0  0  0  0
  -28.1684  -18.7864   20.3726 H   0  0  0  0  0  0
  -27.6966  -21.5279   20.0560 H   0  0  0  0  0  0
  -29.9188  -23.5681   20.5219 H   0  0  0  0  0  0
  -27.0489  -24.3307   20.7641 H   0  0  0  0  0  0
  -27.5119  -24.3785   19.0956 H   0  0  0  0  0  0
  -32.6369  -21.8299   19.9673 H   0  0  0  0  0  0
  -31.1148  -22.5455   19.9027 H   0  0  0  0  0  0
  -28.7919  -16.0513   20.6133 H   0  0  0  0  0  0
  1 25  1  0  0  0
  1 30  2  0  0  0
  1 81  1  0  0  0
  2  3  1  0  0  0
  2 25  1  0  0  0
  2 82  1  0  0  0
  2 83  1  0  0  0
  3  4  1  0  0  0
  3 84  1  0  0  0
  3 85  1  0  0  0
  4  5  1  0  0  0
  4 86  1  0  0  0
  4 87  1  0  0  0
  5  6  1  0  0  0
  5 26  1  0  0  0
  5 88  1  0  0  0
  6 25  1  0  0  0
  6 89  1  0  0  0
  6 90  1  0  0  0
  7  8  2  0  0  0
  7 26  1  0  0  0
  7 29  1  0  0  0
  8  9  1  0  0  0
  8 22  1  0  0  0
  9 10  1  0  0  0
  9 27  2  0  0  0
 10 11  2  0  0  0
 10 15  1  0  0  0
 11 12  1  0  0  0
 11 91  1  0  0  0
 12 13  2  0  0  0
 12 92  1  0  0  0
 13 14  1  0  0  0
 13 31  1  0  0  0
 14 15  2  0  0  0
 14 93  1  0  0  0
 15 94  1  0  0  0
 16 17  2  0  0  0
 16 21  1  0  0  0
 16 31  1  0  0  0
 17 18  1  0  0  0
 17 95  1  0  0  0
 18 19  2  0  0  0
 18 96  1  0  0  0
 19 20  1  0  0  0
 19 24  1  0  0  0
 20 21  2  0  0  0
 20 97  1  0  0  0
 21 23  1  0  0  0
 22 28  1  0  0  0
 22 32  2  0  0  0
 26 27  1  0  0  0
 28 98  1  0  0  0
 28 99  1  0  0  0
 29100  1  0  0  0
 29101  1  0  0  0
 33 34  1  0  0  0
 33 66  1  0  0  0
 33 70  2  0  0  0
 34 36  1  0  0  0
 34 59  1  0  0  0
 34102  1  0  0  0
 35 44  2  0  0  0
 35 45  1  0  0  0
 35 68  1  0  0  0
 36 56  1  0  0  0
 36103  1  0  0  0
 37 39  1  0  0  0
 37 47  1  0  0  0
 37 66  1  0  0  0
 37104  1  0  0  0
 38 43  2  0  0  0
 38 46  1  0  0  0
 38 47  1  0  0  0
 39 64  1  0  0  0
 39 67  2  0  0  0
 40 52  1  0  0  0
 40 53  2  0  0  0
 40 58  1  0  0  0
 41105  1  0  0  0
 41106  1  0  0  0
 41107  1  0  0  0
 41 48  1  0  0  0
 42 43  1  0  0  0
 42 66  1  0  0  0
 42108  1  0  0  0
 42109  1  0  0  0
 43 44  1  0  0  0
 44110  1  0  0  0
 45 46  2  0  0  0
 45111  1  0  0  0
 46112  1  0  0  0
 47113  1  0  0  0
 47114  1  0  0  0
 48 56  1  0  0  0
 48 65  1  0  0  0
 48115  1  0  0  0
 49 50  1  0  0  0
 49 53  1  0  0  0
 49 64  1  0  0  0
 49116  1  0  0  0
 50 51  1  0  0  0
 50117  1  0  0  0
 50118  1  0  0  0
 51 52  1  0  0  0
 51119  1  0  0  0
 51120  1  0  0  0
 52121  1  0  0  0
 52122  1  0  0  0
 53 54  1  0  0  0
 54 55  2  0  0  0
 54123  1  0  0  0
 55 57  1  0  0  0
 55124  1  0  0  0
 56 69  2  0  0  0
 57 58  2  0  0  0
 57125  1  0  0  0
 58126  1  0  0  0
 59 60  1  0  0  0
 59 61  1  0  0  0
 59 62  1  0  0  0
 60127  1  0  0  0
 60128  1  0  0  0
 60129  1  0  0  0
 61130  1  0  0  0
 61131  1  0  0  0
 61132  1  0  0  0
 62133  1  0  0  0
 62134  1  0  0  0
 62135  1  0  0  0
 63 65  1  0  0  0
 63136  1  0  0  0
 63137  1  0  0  0
 63138  1  0  0  0
 64139  1  0  0  0
 65140  1  0  0  0
 68 79  1  0  0  0
 71 72  2  0  0  0
 71 75  1  0  0  0
 71141  1  0  0  0
 72 76  1  0  0  0
 72142  1  0  0  0
 73 74  1  0  0  0
 73 75  2  0  0  0
 73143  1  0  0  0
 74 76  2  0  0  0
 74 77  1  0  0  0
 75 81  1  0  0  0
 76 80  1  0  0  0
 77 78  2  0  0  0
 77144  1  0  0  0
 78 79  1  0  0  0
 78145  1  0  0  0
 79146  1  0  0  0
 79147  1  0  0  0
 80148  1  0  0  0
 80149  1  0  0  0
 81150  1  0  0  0
M  ISO  4   1 100  68 101  79 101  81 100
M  END
> <chiral flag>
0

> <version>
0

> <s_m_source_file>
/data/baiqing/PycharmProjects/Reinvent-master-3.2/result/LINK_invent/BTK/process_docking_weight1_custom_product_contain_oxygen_bond_distance_aromatic_linkinvent_7_9_3/rearranged_h_0085.sdf

> <i_m_source_file_index>
55

> <r_mmod_Potential_Energy-OPLS-2005>
582.022705078125

> <r_mmod_Stretch_Energy-OPLS-2005>
323.131317138672

> <r_mmod_Bend_Energy-OPLS-2005>
256.531646728516

> <r_mmod_Torsional_Energy-OPLS-2005>
222.758422851562

> <r_mmod_Improper_Torsional_Energy-OPLS-2005>
8.78052425384521

> <r_mmod_Van_der_Waal_Energy-OPLS-2005>
142.66584777832

> <r_mmod_Electrostatic_Energy-OPLS-2005>
-396.759399414062

> <r_mmod_Solvation_Energy-OPLS-2005>
-218.277526855469

> <b_mmod_Minimization_Converged-OPLS-2005>
0

> <r_mmod_RMS_Derivative-OPLS-2005>
0.770195662975311

$$$$
56
                    3D
 Structure written by MMmdl.
160169  0  0  1  0            999 V2000
  -30.5540  -14.7913   20.5104 C   0  0  0  0  0  0
  -30.4542  -12.4898   19.4795 C   0  0  0  0  0  0
  -29.5218  -12.5283   18.2437 C   0  0  0  0  0  0
  -28.0489  -12.3372   18.6545 C   0  0  0  0  0  0
  -27.6526  -13.2267   19.8614 C   0  0  2  0  0  0
  -28.6944  -13.1217   20.9988 C   0  0  0  0  0  0
  -25.2533  -13.8174   20.5597 C   0  0  0  0  0  0
  -24.1839  -13.0439   20.9202 C   0  0  0  0  0  0
  -24.6430  -11.6915   20.8770 C   0  0  0  0  0  0
  -23.9100  -10.4295   21.0420 C   0  0  0  0  0  0
  -24.3651   -9.4203   21.9182 C   0  0  0  0  0  0
  -23.6314   -8.2246   22.0759 C   0  0  0  0  0  0
  -22.4292   -8.0295   21.3555 C   0  0  0  0  0  0
  -21.9934   -9.0269   20.4663 C   0  0  0  0  0  0
  -22.7272  -10.2144   20.3071 C   0  0  0  0  0  0
  -21.6859   -6.0744   22.5280 C   0  0  0  0  0  0
  -21.4009   -6.5643   23.8208 C   0  0  0  0  0  0
  -21.3660   -5.6805   24.9172 C   0  0  0  0  0  0
  -21.6047   -4.3070   24.7224 C   0  0  0  0  0  0
  -21.8818   -3.8159   23.4351 C   0  0  0  0  0  0
  -21.9194   -4.6975   22.3411 C   0  0  0  0  0  0
  -22.7869  -13.5232   21.1873 C   0  0  0  0  0  0
  -22.1666   -4.2153   21.0988 F   0  0  0  0  0  0
  -21.5641   -3.4552   25.7743 F   0  0  0  0  0  0
  -30.0014  -13.5220   20.4461 N   0  0  0  0  0  0
  -26.3000  -12.9390   20.3306 N   0  0  0  0  0  0
  -25.9367  -11.6535   20.5788 N   0  0  0  0  0  0
  -22.0528  -12.8214   22.0437 N   0  0  0  0  0  0
  -25.4135  -15.1870   20.3788 N   0  0  0  0  0  0
  -31.6711  -15.0008   20.0251 O   0  0  0  0  0  0
  -21.6653   -6.8893   21.4244 O   0  0  0  0  0  0
  -22.3568  -14.5543   20.6719 O   0  0  0  0  0  0
  -24.6344  -31.8516   23.1969 C   0  0  0  0  0  0
  -25.9144  -32.4738   23.8323 C   0  0  1  0  0  0
  -27.2224  -27.2218   20.1284 C   0  0  0  0  0  0
  -25.5930  -33.8543   24.2241 N   0  0  0  0  0  0
  -23.4338  -30.4743   21.5412 C   0  0  2  0  0  0
  -24.8834  -28.9199   20.1117 C   0  0  0  0  0  0
  -22.7509  -29.4581   22.4897 C   0  0  0  0  0  0
  -18.0289  -28.1370   22.8481 C   0  0  0  0  0  0
  -24.1489  -36.7274   23.2642 C   0  0  0  0  0  0
  -25.9850  -30.7529   21.3840 C   0  0  0  0  0  0
  -26.0590  -29.3722   20.7253 C   0  0  0  0  0  0
  -27.2300  -28.5370   20.7229 C   0  0  0  0  0  0
  -26.0185  -26.8579   19.4788 C   0  0  0  0  0  0
  -24.8710  -27.6713   19.4785 C   0  0  0  0  0  0
  -23.6555  -29.8099   20.1584 C   0  0  0  0  0  0
  -25.4117  -36.3056   24.0324 C   0  0  1  0  0  0
  -20.5895  -28.3689   23.1255 C   0  0  2  0  0  0
  -20.6769  -26.9395   22.5415 C   0  0  0  0  0  0
  -19.5761  -26.6369   21.5200 C   0  0  0  0  0  0
  -18.1939  -26.7913   22.1612 C   0  0  0  0  0  0
  -19.1543  -28.8845   23.2869 C   0  0  0  0  0  0
  -18.9464  -30.1441   23.8899 C   0  0  0  0  0  0
  -17.6466  -30.6581   24.0555 C   0  0  0  0  0  0
  -25.9061  -34.9429   23.5087 C   0  0  0  0  0  0
  -16.5355  -29.9077   23.6327 C   0  0  0  0  0  0
  -16.7276  -28.6483   23.0366 C   0  0  0  0  0  0
  -26.4522  -31.6574   25.0718 C   0  0  0  0  0  0
  -25.3758  -31.3730   26.1453 C   0  0  0  0  0  0
  -27.0352  -30.2978   24.6217 C   0  0  0  0  0  0
  -27.6078  -32.4323   25.7476 C   0  0  0  0  0  0
  -27.5581  -37.1780   24.8463 C   0  0  0  0  0  0
  -21.4212  -29.3037   22.3635 N   0  0  0  0  0  0
  -26.4288  -37.3757   23.9418 N   0  0  0  0  0  0
  -24.7038  -31.0440   22.0972 N   0  0  0  0  0  0
  -23.4188  -28.8121   23.3015 O   0  0  0  0  0  0
  -28.2941  -26.2789   20.1918 O   0  0  0  0  0  0
  -26.5635  -34.8908   22.4661 O   0  0  0  0  0  0
  -23.5481  -32.1356   23.7231 O   0  0  0  0  0  0
  -27.7630  -19.6241   21.2071 C   0  0  0  0  0  0
  -29.8365  -18.4567   20.6127 C   0  0  0  0  0  0
  -27.9520  -17.2018   21.4929 C   0  0  0  0  0  0
  -29.0791  -19.7264   20.7103 C   0  0  0  0  0  0
  -27.2100  -18.3949   21.6120 C   0  0  0  0  0  0
  -29.2736  -17.1539   21.0005 C   0  0  0  0  0  0
  -24.3051  -18.2088   23.7459 C   0  0  0  0  0  0
  -23.7252  -18.4924   22.5789 C   0  0  0  0  0  0
  -25.7251  -18.1233   23.5318 C   0  0  0  0  0  0
  -24.7601  -18.6058   21.5753 C   0  0  0  0  0  0
  -28.9963  -23.5708   20.2504 C   0  0  0  0  0  0
  -29.5992  -21.1841   20.4146 C   0  0  0  0  0  0
  -22.2452  -18.6796   22.3004 C   0  0  0  0  0  0
  -27.9672  -24.8017   19.9977 C   0  0  0  0  0  0
  -28.6592  -22.2838   20.3120 N   0  0  0  0  0  0
  -25.9208  -18.3689   22.2208 N   0  0  0  0  0  0
  -29.8092  -15.7598   21.1695 N   0  0  0  0  0  0
  -26.5982  -17.8831   24.3751 O   0  0  0  0  0  0
  -24.6225  -18.8636   20.3740 O   0  0  0  0  0  0
  -30.8159  -21.3171   20.2815 O   0  0  0  0  0  0
  -31.4885  -12.6493   19.1732 H   0  0  0  0  0  0
  -30.4339  -11.5026   19.9444 H   0  0  0  0  0  0
  -29.8126  -11.7547   17.5295 H   0  0  0  0  0  0
  -29.6380  -13.4813   17.7268 H   0  0  0  0  0  0
  -27.9158  -11.2866   18.9142 H   0  0  0  0  0  0
  -27.3857  -12.5239   17.8081 H   0  0  0  0  0  0
  -27.6605  -14.2567   19.5040 H   0  0  0  0  0  0
  -28.7418  -12.1010   21.3811 H   0  0  0  0  0  0
  -28.3990  -13.7351   21.8490 H   0  0  0  0  0  0
  -25.2803   -9.5672   22.4741 H   0  0  0  0  0  0
  -24.0034   -7.4642   22.7468 H   0  0  0  0  0  0
  -21.0866   -8.8793   19.8968 H   0  0  0  0  0  0
  -22.3730  -10.9690   19.6192 H   0  0  0  0  0  0
  -21.1979   -7.6153   23.9708 H   0  0  0  0  0  0
  -21.1486   -6.0538   25.9074 H   0  0  0  0  0  0
  -22.0590   -2.7621   23.2847 H   0  0  0  0  0  0
  -22.4147  -11.9864   22.4794 H   0  0  0  0  0  0
  -21.1143  -13.1234   22.2644 H   0  0  0  0  0  0
  -24.5838  -15.7606   20.2803 H   0  0  0  0  0  0
  -26.1991  -15.5569   19.8593 H   0  0  0  0  0  0
  -26.7205  -32.5374   23.1056 H   0  0  0  0  0  0
  -25.0059  -33.9685   25.0373 H   0  0  0  0  0  0
  -22.7326  -31.2980   21.3916 H   0  0  0  0  0  0
  -23.3749  -35.9607   23.3296 H   0  0  0  0  0  0
  -24.3579  -36.8908   22.2060 H   0  0  0  0  0  0
  -23.7240  -37.6472   23.6674 H   0  0  0  0  0  0
  -26.1277  -31.5114   20.6131 H   0  0  0  0  0  0
  -26.8605  -30.8031   22.0193 H   0  0  0  0  0  0
  -28.1251  -28.8767   21.2254 H   0  0  0  0  0  0
  -25.9160  -25.9121   18.9710 H   0  0  0  0  0  0
  -23.9738  -27.3170   18.9899 H   0  0  0  0  0  0
  -23.7829  -30.5867   19.4035 H   0  0  0  0  0  0
  -22.7738  -29.2442   19.8506 H   0  0  0  0  0  0
  -25.1300  -36.1900   25.0812 H   0  0  0  0  0  0
  -20.9996  -28.3270   24.1373 H   0  0  0  0  0  0
  -20.5616  -26.2304   23.3627 H   0  0  0  0  0  0
  -21.6642  -26.7383   22.1240 H   0  0  0  0  0  0
  -19.6926  -25.6276   21.1237 H   0  0  0  0  0  0
  -19.6717  -27.3171   20.6722 H   0  0  0  0  0  0
  -17.4208  -26.6652   21.4017 H   0  0  0  0  0  0
  -18.0354  -26.0050   22.9008 H   0  0  0  0  0  0
  -19.7945  -30.7238   24.2291 H   0  0  0  0  0  0
  -17.5026  -31.6266   24.5149 H   0  0  0  0  0  0
  -15.5356  -30.2984   23.7649 H   0  0  0  0  0  0
  -15.8672  -28.0791   22.7112 H   0  0  0  0  0  0
  -24.5942  -30.7060   25.7806 H   0  0  0  0  0  0
  -24.8945  -32.2895   26.4869 H   0  0  0  0  0  0
  -25.8103  -30.8935   27.0236 H   0  0  0  0  0  0
  -26.2925  -29.6731   24.1240 H   0  0  0  0  0  0
  -27.4016  -29.7242   25.4743 H   0  0  0  0  0  0
  -27.8823  -30.4236   23.9470 H   0  0  0  0  0  0
  -27.2685  -33.3629   26.2041 H   0  0  0  0  0  0
  -28.3881  -32.6878   25.0291 H   0  0  0  0  0  0
  -28.0756  -31.8457   26.5397 H   0  0  0  0  0  0
  -28.2594  -38.0080   24.7499 H   0  0  0  0  0  0
  -28.1075  -36.2607   24.6287 H   0  0  0  0  0  0
  -27.2304  -37.1434   25.8867 H   0  0  0  0  0  0
  -20.9387  -29.8772   21.6854 H   0  0  0  0  0  0
  -26.0161  -38.2824   24.1441 H   0  0  0  0  0  0
  -27.1646  -20.5167   21.3339 H   0  0  0  0  0  0
  -30.8645  -18.4958   20.2826 H   0  0  0  0  0  0
  -27.4868  -16.2890   21.8412 H   0  0  0  0  0  0
  -23.8081  -18.0680   24.6929 H   0  0  0  0  0  0
  -30.0376  -23.8937   20.3385 H   0  0  0  0  0  0
  -21.6539  -18.4908   23.1974 H   0  0  0  0  0  0
  -21.9189  -17.9853   21.5254 H   0  0  0  0  0  0
  -22.0447  -19.6968   21.9620 H   0  0  0  0  0  0
  -27.0822  -24.5829   20.5966 H   0  0  0  0  0  0
  -27.6597  -24.6873   18.9584 H   0  0  0  0  0  0
  -29.1524  -15.2301   21.7230 H   0  0  0  0  0  0
  1 25  1  0  0  0
  1 30  2  0  0  0
  1 87  1  0  0  0
  2  3  1  0  0  0
  2 25  1  0  0  0
  2 91  1  0  0  0
  2 92  1  0  0  0
  3  4  1  0  0  0
  3 93  1  0  0  0
  3 94  1  0  0  0
  4  5  1  0  0  0
  4 95  1  0  0  0
  4 96  1  0  0  0
  5  6  1  0  0  0
  5 26  1  0  0  0
  5 97  1  0  0  0
  6 25  1  0  0  0
  6 98  1  0  0  0
  6 99  1  0  0  0
  7  8  2  0  0  0
  7 26  1  0  0  0
  7 29  1  0  0  0
  8  9  1  0  0  0
  8 22  1  0  0  0
  9 10  1  0  0  0
  9 27  2  0  0  0
 10 11  2  0  0  0
 10 15  1  0  0  0
 11 12  1  0  0  0
 11100  1  0  0  0
 12 13  2  0  0  0
 12101  1  0  0  0
 13 14  1  0  0  0
 13 31  1  0  0  0
 14 15  2  0  0  0
 14102  1  0  0  0
 15103  1  0  0  0
 16 17  2  0  0  0
 16 21  1  0  0  0
 16 31  1  0  0  0
 17 18  1  0  0  0
 17104  1  0  0  0
 18 19  2  0  0  0
 18105  1  0  0  0
 19 20  1  0  0  0
 19 24  1  0  0  0
 20 21  2  0  0  0
 20106  1  0  0  0
 21 23  1  0  0  0
 22 28  1  0  0  0
 22 32  2  0  0  0
 26 27  1  0  0  0
 28107  1  0  0  0
 28108  1  0  0  0
 29109  1  0  0  0
 29110  1  0  0  0
 33 34  1  0  0  0
 33 66  1  0  0  0
 33 70  2  0  0  0
 34 36  1  0  0  0
 34 59  1  0  0  0
 34111  1  0  0  0
 35 44  2  0  0  0
 35 45  1  0  0  0
 35 68  1  0  0  0
 36 56  1  0  0  0
 36112  1  0  0  0
 37 39  1  0  0  0
 37 47  1  0  0  0
 37 66  1  0  0  0
 37113  1  0  0  0
 38 43  2  0  0  0
 38 46  1  0  0  0
 38 47  1  0  0  0
 39 64  1  0  0  0
 39 67  2  0  0  0
 40 52  1  0  0  0
 40 53  2  0  0  0
 40 58  1  0  0  0
 41114  1  0  0  0
 41115  1  0  0  0
 41116  1  0  0  0
 41 48  1  0  0  0
 42 43  1  0  0  0
 42 66  1  0  0  0
 42117  1  0  0  0
 42118  1  0  0  0
 43 44  1  0  0  0
 44119  1  0  0  0
 45 46  2  0  0  0
 45120  1  0  0  0
 46121  1  0  0  0
 47122  1  0  0  0
 47123  1  0  0  0
 48 56  1  0  0  0
 48 65  1  0  0  0
 48124  1  0  0  0
 49 50  1  0  0  0
 49 53  1  0  0  0
 49 64  1  0  0  0
 49125  1  0  0  0
 50 51  1  0  0  0
 50126  1  0  0  0
 50127  1  0  0  0
 51 52  1  0  0  0
 51128  1  0  0  0
 51129  1  0  0  0
 52130  1  0  0  0
 52131  1  0  0  0
 53 54  1  0  0  0
 54 55  2  0  0  0
 54132  1  0  0  0
 55 57  1  0  0  0
 55133  1  0  0  0
 56 69  2  0  0  0
 57 58  2  0  0  0
 57134  1  0  0  0
 58135  1  0  0  0
 59 60  1  0  0  0
 59 61  1  0  0  0
 59 62  1  0  0  0
 60136  1  0  0  0
 60137  1  0  0  0
 60138  1  0  0  0
 61139  1  0  0  0
 61140  1  0  0  0
 61141  1  0  0  0
 62142  1  0  0  0
 62143  1  0  0  0
 62144  1  0  0  0
 63 65  1  0  0  0
 63145  1  0  0  0
 63146  1  0  0  0
 63147  1  0  0  0
 64148  1  0  0  0
 65149  1  0  0  0
 68 84  1  0  0  0
 71 74  2  0  0  0
 71 75  1  0  0  0
 71150  1  0  0  0
 72 74  1  0  0  0
 72 76  2  0  0  0
 72151  1  0  0  0
 73 75  2  0  0  0
 73 76  1  0  0  0
 73152  1  0  0  0
 74 82  1  0  0  0
 75 86  1  0  0  0
 76 87  1  0  0  0
 77 78  2  0  0  0
 77 79  1  0  0  0
 77153  1  0  0  0
 78 80  1  0  0  0
 78 83  1  0  0  0
 79 86  1  0  0  0
 79 88  2  0  0  0
 80 86  1  0  0  0
 80 89  2  0  0  0
 81 84  1  0  0  0
 81 85  2  0  0  0
 81154  1  0  0  0
 82 85  1  0  0  0
 82 90  2  0  0  0
 83155  1  0  0  0
 83156  1  0  0  0
 83157  1  0  0  0
 84158  1  0  0  0
 84159  1  0  0  0
 87160  1  0  0  0
M  ISO  4   1 100  68 101  84 101  87 100
M  END
> <chiral flag>
0

> <version>
0

> <s_m_source_file>
/data/baiqing/PycharmProjects/Reinvent-master-3.2/result/LINK_invent/BTK/process_docking_weight1_custom_product_contain_oxygen_bond_distance_aromatic_linkinvent_7_9_3/rearranged_h_0085.sdf

> <i_m_source_file_index>
56

> <r_mmod_Potential_Energy-OPLS-2005>
335.074584960938

> <r_mmod_Stretch_Energy-OPLS-2005>
164.858932495117

> <r_mmod_Bend_Energy-OPLS-2005>
281.856384277344

> <r_mmod_Torsional_Energy-OPLS-2005>
275.527862548828

> <r_mmod_Improper_Torsional_Energy-OPLS-2005>
8.50801372528076

> <r_mmod_Van_der_Waal_Energy-OPLS-2005>
128.510513305664

> <r_mmod_Electrostatic_Energy-OPLS-2005>
-393.241882324219

> <r_mmod_Solvation_Energy-OPLS-2005>
-242.425445556641

> <b_mmod_Minimization_Converged-OPLS-2005>
0

> <r_mmod_RMS_Derivative-OPLS-2005>
2.34224462509155

$$$$
57
                    3D
 Structure written by MMmdl.
152161  0  0  1  0            999 V2000
  -30.6143  -14.8058   20.4449 C   0  0  0  0  0  0
  -30.4303  -12.4917   19.5003 C   0  0  0  0  0  0
  -29.5197  -12.5167   18.2520 C   0  0  0  0  0  0
  -28.0462  -12.3326   18.6609 C   0  0  0  0  0  0
  -27.6388  -13.2416   19.8504 C   0  0  2  0  0  0
  -28.6806  -13.2135   20.9907 C   0  0  0  0  0  0
  -25.2517  -13.8226   20.5713 C   0  0  0  0  0  0
  -24.1805  -13.0458   20.9224 C   0  0  0  0  0  0
  -24.6404  -11.6917   20.8754 C   0  0  0  0  0  0
  -23.9069  -10.4301   21.0414 C   0  0  0  0  0  0
  -24.3613   -9.4220   21.9195 C   0  0  0  0  0  0
  -23.6282   -8.2250   22.0767 C   0  0  0  0  0  0
  -22.4285   -8.0282   21.3535 C   0  0  0  0  0  0
  -21.9904   -9.0266   20.4657 C   0  0  0  0  0  0
  -22.7237  -10.2146   20.3062 C   0  0  0  0  0  0
  -21.6860   -6.0742   22.5280 C   0  0  0  0  0  0
  -21.4024   -6.5641   23.8217 C   0  0  0  0  0  0
  -21.3658   -5.6794   24.9180 C   0  0  0  0  0  0
  -21.6028   -4.3053   24.7233 C   0  0  0  0  0  0
  -21.8821   -3.8146   23.4350 C   0  0  0  0  0  0
  -21.9200   -4.6965   22.3408 C   0  0  0  0  0  0
  -22.7838  -13.5243   21.1869 C   0  0  0  0  0  0
  -22.1656   -4.2159   21.0982 F   0  0  0  0  0  0
  -21.5634   -3.4523   25.7740 F   0  0  0  0  0  0
  -29.9813  -13.5754   20.4121 N   0  0  0  0  0  0
  -26.2927  -12.9442   20.3272 N   0  0  0  0  0  0
  -25.9332  -11.6562   20.5737 N   0  0  0  0  0  0
  -22.0435  -12.8247   22.0419 N   0  0  0  0  0  0
  -25.4194  -15.1954   20.4173 N   0  0  0  0  0  0
  -31.8062  -14.8577   20.1279 O   0  0  0  0  0  0
  -21.6647   -6.8875   21.4236 O   0  0  0  0  0  0
  -22.3500  -14.5543   20.6721 O   0  0  0  0  0  0
  -24.6336  -31.8525   23.1983 C   0  0  0  0  0  0
  -25.9124  -32.4761   23.8354 C   0  0  1  0  0  0
  -27.2039  -27.2081   20.1557 C   0  0  0  0  0  0
  -25.5902  -33.8570   24.2264 N   0  0  0  0  0  0
  -23.4341  -30.4723   21.5434 C   0  0  2  0  0  0
  -24.8803  -28.9237   20.1087 C   0  0  0  0  0  0
  -22.7558  -29.4531   22.4899 C   0  0  0  0  0  0
  -18.0287  -28.1361   22.8535 C   0  0  0  0  0  0
  -24.1488  -36.7257   23.2659 C   0  0  0  0  0  0
  -25.9870  -30.7487   21.3944 C   0  0  0  0  0  0
  -26.0529  -29.3704   20.7300 C   0  0  0  0  0  0
  -27.2148  -28.5242   20.7428 C   0  0  0  0  0  0
  -26.0092  -26.8473   19.4942 C   0  0  0  0  0  0
  -24.8656  -27.6703   19.4781 C   0  0  0  0  0  0
  -23.6540  -29.8169   20.1554 C   0  0  0  0  0  0
  -25.4132  -36.3083   24.0335 C   0  0  1  0  0  0
  -20.5898  -28.3642   23.1297 C   0  0  2  0  0  0
  -20.6760  -26.9360   22.5423 C   0  0  0  0  0  0
  -19.5713  -26.6359   21.5246 C   0  0  0  0  0  0
  -18.1911  -26.7902   22.1674 C   0  0  0  0  0  0
  -19.1545  -28.8839   23.2895 C   0  0  0  0  0  0
  -18.9450  -30.1449   23.8890 C   0  0  0  0  0  0
  -17.6438  -30.6572   24.0550 C   0  0  0  0  0  0
  -25.9039  -34.9440   23.5109 C   0  0  0  0  0  0
  -16.5331  -29.9045   23.6356 C   0  0  0  0  0  0
  -16.7270  -28.6458   23.0410 C   0  0  0  0  0  0
  -26.4451  -31.6612   25.0788 C   0  0  0  0  0  0
  -25.3644  -31.3866   26.1500 C   0  0  0  0  0  0
  -27.0287  -30.2989   24.6406 C   0  0  0  0  0  0
  -27.6016  -32.4366   25.7548 C   0  0  0  0  0  0
  -27.5551  -37.1840   24.8501 C   0  0  0  0  0  0
  -21.4258  -29.2985   22.3674 N   0  0  0  0  0  0
  -26.4322  -37.3749   23.9345 N   0  0  0  0  0  0
  -24.7018  -31.0435   22.0997 N   0  0  0  0  0  0
  -23.4217  -28.8109   23.3035 O   0  0  0  0  0  0
  -28.2634  -26.2636   20.2806 O   0  0  0  0  0  0
  -26.5617  -34.8890   22.4679 O   0  0  0  0  0  0
  -23.5454  -32.1360   23.7224 O   0  0  0  0  0  0
  -29.4571  -18.6333   20.6917 C   0  0  0  0  0  0
  -30.5318  -20.0170   18.9989 C   0  0  0  0  0  0
  -30.9728  -17.6014   19.0986 C   0  0  0  0  0  0
  -29.6496  -19.9769   20.1025 C   0  0  0  0  0  0
  -30.1018  -17.4011   20.1940 C   0  0  0  0  0  0
  -31.1831  -18.8674   18.5207 C   0  0  0  0  0  0
  -28.5712  -23.6690   20.3960 C   0  0  0  0  0  0
  -29.1435  -23.4144   21.7080 C   0  0  0  0  0  0
  -28.5552  -22.3216   19.7377 C   0  0  0  0  0  0
  -28.1672  -24.8910   19.8313 C   0  0  0  0  0  0
  -29.4523  -21.9096   21.8480 C   0  0  0  0  0  0
  -29.1082  -21.3198   20.5393 N   0  0  0  0  0  0
  -29.8789  -15.9822   20.6711 N   0  0  0  0  0  0
  -29.3483  -24.2357   22.6074 O   0  0  0  0  0  0
  -28.0877  -22.0958   18.6155 O   0  0  0  0  0  0
  -32.0328  -18.9780   17.4777 F   0  0  0  0  0  0
  -31.4720  -12.6088   19.2052 H   0  0  0  0  0  0
  -30.3760  -11.5264   20.0032 H   0  0  0  0  0  0
  -29.8194  -11.7388   17.5498 H   0  0  0  0  0  0
  -29.6378  -13.4666   17.7323 H   0  0  0  0  0  0
  -27.9179  -11.2859   18.9410 H   0  0  0  0  0  0
  -27.3900  -12.5062   17.8074 H   0  0  0  0  0  0
  -27.6235  -14.2557   19.4513 H   0  0  0  0  0  0
  -28.7269  -12.2307   21.4610 H   0  0  0  0  0  0
  -28.4042  -13.9139   21.7808 H   0  0  0  0  0  0
  -25.2757   -9.5710   22.4766 H   0  0  0  0  0  0
  -24.0003   -7.4653   22.7491 H   0  0  0  0  0  0
  -21.0825   -8.8788   19.8960 H   0  0  0  0  0  0
  -22.3687  -10.9686   19.6166 H   0  0  0  0  0  0
  -21.2005   -7.6148   23.9723 H   0  0  0  0  0  0
  -21.1476   -6.0519   25.9084 H   0  0  0  0  0  0
  -22.0597   -2.7606   23.2857 H   0  0  0  0  0  0
  -22.4034  -11.9889   22.4794 H   0  0  0  0  0  0
  -21.1067  -13.1306   22.2639 H   0  0  0  0  0  0
  -24.6563  -15.8510   20.5404 H   0  0  0  0  0  0
  -26.2735  -15.6366   20.1018 H   0  0  0  0  0  0
  -26.7239  -32.5381   23.1102 H   0  0  0  0  0  0
  -25.0108  -33.9742   25.0442 H   0  0  0  0  0  0
  -22.7316  -31.2949   21.4047 H   0  0  0  0  0  0
  -23.3715  -35.9628   23.3482 H   0  0  0  0  0  0
  -24.3549  -36.8687   22.2032 H   0  0  0  0  0  0
  -23.7263  -37.6535   23.6547 H   0  0  0  0  0  0
  -26.1517  -31.5209   20.6414 H   0  0  0  0  0  0
  -26.8527  -30.7715   22.0485 H   0  0  0  0  0  0
  -28.1070  -28.8538   21.2579 H   0  0  0  0  0  0
  -25.9100  -25.8885   19.0162 H   0  0  0  0  0  0
  -23.9663  -27.3253   18.9869 H   0  0  0  0  0  0
  -23.7778  -30.6012   19.4056 H   0  0  0  0  0  0
  -22.7703  -29.2531   19.8548 H   0  0  0  0  0  0
  -25.1323  -36.1996   25.0829 H   0  0  0  0  0  0
  -20.9977  -28.3185   24.1407 H   0  0  0  0  0  0
  -20.5713  -26.2218   23.3611 H   0  0  0  0  0  0
  -21.6626  -26.7396   22.1183 H   0  0  0  0  0  0
  -19.6842  -25.6275   21.1272 H   0  0  0  0  0  0
  -19.6647  -27.3188   20.6802 H   0  0  0  0  0  0
  -17.4180  -26.6687   21.4081 H   0  0  0  0  0  0
  -18.0268  -26.0041   22.9071 H   0  0  0  0  0  0
  -19.7916  -30.7300   24.2233 H   0  0  0  0  0  0
  -17.4977  -31.6279   24.5092 H   0  0  0  0  0  0
  -15.5330  -30.2919   23.7679 H   0  0  0  0  0  0
  -15.8682  -28.0756   22.7125 H   0  0  0  0  0  0
  -24.5766  -30.7253   25.7862 H   0  0  0  0  0  0
  -24.8876  -32.3092   26.4861 H   0  0  0  0  0  0
  -25.7892  -30.9102   27.0341 H   0  0  0  0  0  0
  -26.2918  -29.6765   24.1326 H   0  0  0  0  0  0
  -27.3733  -29.7258   25.5029 H   0  0  0  0  0  0
  -27.8908  -30.4191   23.9844 H   0  0  0  0  0  0
  -27.2652  -33.3716   26.2047 H   0  0  0  0  0  0
  -28.3864  -32.6834   25.0387 H   0  0  0  0  0  0
  -28.0634  -31.8536   26.5537 H   0  0  0  0  0  0
  -28.2725  -37.9984   24.7352 H   0  0  0  0  0  0
  -28.0884  -36.2499   24.6615 H   0  0  0  0  0  0
  -27.2238  -37.1869   25.8909 H   0  0  0  0  0  0
  -20.9379  -29.8718   21.6942 H   0  0  0  0  0  0
  -26.0227  -38.2861   24.1203 H   0  0  0  0  0  0
  -28.7971  -18.5386   21.5404 H   0  0  0  0  0  0
  -30.7581  -20.9527   18.5058 H   0  0  0  0  0  0
  -31.4922  -16.7742   18.6475 H   0  0  0  0  0  0
  -27.7832  -24.8642   18.8222 H   0  0  0  0  0  0
  -28.8510  -21.4706   22.6457 H   0  0  0  0  0  0
  -30.5063  -21.7597   22.0789 H   0  0  0  0  0  0
  -28.9762  -15.8216   21.0924 H   0  0  0  0  0  0
  1 25  1  0  0  0
  1 30  2  0  0  0
  1 83  1  0  0  0
  2  3  1  0  0  0
  2 25  1  0  0  0
  2 87  1  0  0  0
  2 88  1  0  0  0
  3  4  1  0  0  0
  3 89  1  0  0  0
  3 90  1  0  0  0
  4  5  1  0  0  0
  4 91  1  0  0  0
  4 92  1  0  0  0
  5  6  1  0  0  0
  5 26  1  0  0  0
  5 93  1  0  0  0
  6 25  1  0  0  0
  6 94  1  0  0  0
  6 95  1  0  0  0
  7  8  2  0  0  0
  7 26  1  0  0  0
  7 29  1  0  0  0
  8  9  1  0  0  0
  8 22  1  0  0  0
  9 10  1  0  0  0
  9 27  2  0  0  0
 10 11  2  0  0  0
 10 15  1  0  0  0
 11 12  1  0  0  0
 11 96  1  0  0  0
 12 13  2  0  0  0
 12 97  1  0  0  0
 13 14  1  0  0  0
 13 31  1  0  0  0
 14 15  2  0  0  0
 14 98  1  0  0  0
 15 99  1  0  0  0
 16 17  2  0  0  0
 16 21  1  0  0  0
 16 31  1  0  0  0
 17 18  1  0  0  0
 17100  1  0  0  0
 18 19  2  0  0  0
 18101  1  0  0  0
 19 20  1  0  0  0
 19 24  1  0  0  0
 20 21  2  0  0  0
 20102  1  0  0  0
 21 23  1  0  0  0
 22 28  1  0  0  0
 22 32  2  0  0  0
 26 27  1  0  0  0
 28103  1  0  0  0
 28104  1  0  0  0
 29105  1  0  0  0
 29106  1  0  0  0
 33 34  1  0  0  0
 33 66  1  0  0  0
 33 70  2  0  0  0
 34 36  1  0  0  0
 34 59  1  0  0  0
 34107  1  0  0  0
 35 44  2  0  0  0
 35 45  1  0  0  0
 35 68  1  0  0  0
 36 56  1  0  0  0
 36108  1  0  0  0
 37 39  1  0  0  0
 37 47  1  0  0  0
 37 66  1  0  0  0
 37109  1  0  0  0
 38 43  2  0  0  0
 38 46  1  0  0  0
 38 47  1  0  0  0
 39 64  1  0  0  0
 39 67  2  0  0  0
 40 52  1  0  0  0
 40 53  2  0  0  0
 40 58  1  0  0  0
 41110  1  0  0  0
 41111  1  0  0  0
 41112  1  0  0  0
 41 48  1  0  0  0
 42 43  1  0  0  0
 42 66  1  0  0  0
 42113  1  0  0  0
 42114  1  0  0  0
 43 44  1  0  0  0
 44115  1  0  0  0
 45 46  2  0  0  0
 45116  1  0  0  0
 46117  1  0  0  0
 47118  1  0  0  0
 47119  1  0  0  0
 48 56  1  0  0  0
 48 65  1  0  0  0
 48120  1  0  0  0
 49 50  1  0  0  0
 49 53  1  0  0  0
 49 64  1  0  0  0
 49121  1  0  0  0
 50 51  1  0  0  0
 50122  1  0  0  0
 50123  1  0  0  0
 51 52  1  0  0  0
 51124  1  0  0  0
 51125  1  0  0  0
 52126  1  0  0  0
 52127  1  0  0  0
 53 54  1  0  0  0
 54 55  2  0  0  0
 54128  1  0  0  0
 55 57  1  0  0  0
 55129  1  0  0  0
 56 69  2  0  0  0
 57 58  2  0  0  0
 57130  1  0  0  0
 58131  1  0  0  0
 59 60  1  0  0  0
 59 61  1  0  0  0
 59 62  1  0  0  0
 60132  1  0  0  0
 60133  1  0  0  0
 60134  1  0  0  0
 61135  1  0  0  0
 61136  1  0  0  0
 61137  1  0  0  0
 62138  1  0  0  0
 62139  1  0  0  0
 62140  1  0  0  0
 63 65  1  0  0  0
 63141  1  0  0  0
 63142  1  0  0  0
 63143  1  0  0  0
 64144  1  0  0  0
 65145  1  0  0  0
 68 80  1  0  0  0
 71 74  2  0  0  0
 71 75  1  0  0  0
 71146  1  0  0  0
 72 74  1  0  0  0
 72 76  2  0  0  0
 72147  1  0  0  0
 73 75  2  0  0  0
 73 76  1  0  0  0
 73148  1  0  0  0
 74 82  1  0  0  0
 75 83  1  0  0  0
 76 86  1  0  0  0
 77 78  1  0  0  0
 77 79  1  0  0  0
 77 80  2  0  0  0
 78 81  1  0  0  0
 78 84  2  0  0  0
 79 82  1  0  0  0
 79 85  2  0  0  0
 80149  1  0  0  0
 81 82  1  0  0  0
 81150  1  0  0  0
 81151  1  0  0  0
 83152  1  0  0  0
M  ISO  4   1 100  68 101  80 101  83 100
M  END
> <chiral flag>
0

> <version>
0

> <s_m_source_file>
/data/baiqing/PycharmProjects/Reinvent-master-3.2/result/LINK_invent/BTK/process_docking_weight1_custom_product_contain_oxygen_bond_distance_aromatic_linkinvent_7_9_3/rearranged_h_0085.sdf

> <i_m_source_file_index>
57

> <r_mmod_Potential_Energy-OPLS-2005>
358.594055175781

> <r_mmod_Stretch_Energy-OPLS-2005>
158.787414550781

> <r_mmod_Bend_Energy-OPLS-2005>
227.170028686523

> <r_mmod_Torsional_Energy-OPLS-2005>
287.471313476562

> <r_mmod_Improper_Torsional_Energy-OPLS-2005>
4.92368030548096

> <r_mmod_Van_der_Waal_Energy-OPLS-2005>
135.228851318359

> <r_mmod_Electrostatic_Energy-OPLS-2005>
-336.830322265625

> <r_mmod_Solvation_Energy-OPLS-2005>
-240.458831787109

> <b_mmod_Minimization_Converged-OPLS-2005>
0

> <r_mmod_RMS_Derivative-OPLS-2005>
5.95416784286499

$$$$
58
                    3D
 Structure written by MMmdl.
152161  0  0  1  0            999 V2000
  -30.5494  -14.8717   20.3974 C   0  0  0  0  0  0
  -30.4403  -12.5297   19.4885 C   0  0  0  0  0  0
  -29.5193  -12.5029   18.2475 C   0  0  0  0  0  0
  -28.0475  -12.3093   18.6633 C   0  0  0  0  0  0
  -27.6362  -13.2336   19.8408 C   0  0  2  0  0  0
  -28.6780  -13.2254   20.9789 C   0  0  0  0  0  0
  -25.2531  -13.8209   20.5754 C   0  0  0  0  0  0
  -24.1816  -13.0462   20.9244 C   0  0  0  0  0  0
  -24.6393  -11.6938   20.8756 C   0  0  0  0  0  0
  -23.9066  -10.4316   21.0413 C   0  0  0  0  0  0
  -24.3629   -9.4227   21.9184 C   0  0  0  0  0  0
  -23.6310   -8.2258   22.0754 C   0  0  0  0  0  0
  -22.4292   -8.0291   21.3548 C   0  0  0  0  0  0
  -21.9921   -9.0264   20.4643 C   0  0  0  0  0  0
  -22.7235  -10.2158   20.3061 C   0  0  0  0  0  0
  -21.6863   -6.0745   22.5284 C   0  0  0  0  0  0
  -21.4008   -6.5646   23.8216 C   0  0  0  0  0  0
  -21.3656   -5.6789   24.9168 C   0  0  0  0  0  0
  -21.6044   -4.3058   24.7220 C   0  0  0  0  0  0
  -21.8816   -3.8162   23.4342 C   0  0  0  0  0  0
  -21.9198   -4.6972   22.3399 C   0  0  0  0  0  0
  -22.7833  -13.5248   21.1878 C   0  0  0  0  0  0
  -22.1669   -4.2156   21.0979 F   0  0  0  0  0  0
  -21.5625   -3.4534   25.7732 F   0  0  0  0  0  0
  -29.9633  -13.6154   20.3863 N   0  0  0  0  0  0
  -26.2922  -12.9404   20.3249 N   0  0  0  0  0  0
  -25.9314  -11.6554   20.5741 N   0  0  0  0  0  0
  -22.0461  -12.8244   22.0416 N   0  0  0  0  0  0
  -25.4240  -15.1928   20.4225 N   0  0  0  0  0  0
  -31.7557  -14.9425   20.1389 O   0  0  0  0  0  0
  -21.6650   -6.8897   21.4256 O   0  0  0  0  0  0
  -22.3525  -14.5546   20.6698 O   0  0  0  0  0  0
  -24.6396  -31.8487   23.1905 C   0  0  0  0  0  0
  -25.9189  -32.4713   23.8286 C   0  0  1  0  0  0
  -27.2126  -27.1698   20.1439 C   0  0  0  0  0  0
  -25.5953  -33.8527   24.2192 N   0  0  0  0  0  0
  -23.4411  -30.4675   21.5370 C   0  0  2  0  0  0
  -24.8909  -28.9004   20.1102 C   0  0  0  0  0  0
  -22.7545  -29.4562   22.4880 C   0  0  0  0  0  0
  -18.0303  -28.1365   22.8484 C   0  0  0  0  0  0
  -24.1498  -36.7261   23.2633 C   0  0  0  0  0  0
  -25.9955  -30.7293   21.3886 C   0  0  0  0  0  0
  -26.0680  -29.3445   20.7277 C   0  0  0  0  0  0
  -27.2341  -28.4937   20.7304 C   0  0  0  0  0  0
  -26.0161  -26.8230   19.4824 C   0  0  0  0  0  0
  -24.8759  -27.6509   19.4725 C   0  0  0  0  0  0
  -23.6654  -29.7990   20.1557 C   0  0  0  0  0  0
  -25.4126  -36.3039   24.0309 C   0  0  1  0  0  0
  -20.5917  -28.3696   23.1238 C   0  0  2  0  0  0
  -20.6782  -26.9402   22.5401 C   0  0  0  0  0  0
  -19.5760  -26.6360   21.5209 C   0  0  0  0  0  0
  -18.1943  -26.7909   22.1624 C   0  0  0  0  0  0
  -19.1562  -28.8848   23.2853 C   0  0  0  0  0  0
  -18.9480  -30.1446   23.8876 C   0  0  0  0  0  0
  -17.6474  -30.6576   24.0552 C   0  0  0  0  0  0
  -25.9076  -34.9417   23.5058 C   0  0  0  0  0  0
  -16.5363  -29.9068   23.6323 C   0  0  0  0  0  0
  -16.7289  -28.6478   23.0366 C   0  0  0  0  0  0
  -26.4515  -31.6561   25.0714 C   0  0  0  0  0  0
  -25.3702  -31.3785   26.1420 C   0  0  0  0  0  0
  -27.0353  -30.2939   24.6284 C   0  0  0  0  0  0
  -27.6052  -32.4322   25.7501 C   0  0  0  0  0  0
  -27.5577  -37.1781   24.8455 C   0  0  0  0  0  0
  -21.4245  -29.3040   22.3623 N   0  0  0  0  0  0
  -26.4288  -37.3742   23.9400 N   0  0  0  0  0  0
  -24.7115  -31.0352   22.0938 N   0  0  0  0  0  0
  -23.4204  -28.8113   23.3021 O   0  0  0  0  0  0
  -28.2459  -26.1754   20.1671 O   0  0  0  0  0  0
  -26.5665  -34.8908   22.4641 O   0  0  0  0  0  0
  -23.5520  -32.1370   23.7124 O   0  0  0  0  0  0
  -29.9079  -19.9320   18.4780 C   0  0  0  0  0  0
  -30.2361  -18.7149   17.8565 C   0  0  0  0  0  0
  -29.3998  -18.7219   20.4738 C   0  0  0  0  0  0
  -29.4277  -20.0549   19.8044 C   0  0  0  0  0  0
  -30.1502  -17.4799   18.5182 C   0  0  0  0  0  0
  -29.8054  -17.4120   19.8933 C   0  0  0  0  0  0
  -28.4564  -23.5191   20.3717 C   0  0  0  0  0  0
  -28.0258  -22.2022   20.9068 C   0  0  0  0  0  0
  -27.9258  -24.8177   20.5875 C   0  0  0  0  0  0
  -29.5562  -22.7504   19.5830 C   0  0  0  0  0  0
  -29.0523  -21.4802   20.2249 N   0  0  0  0  0  0
  -30.3265  -16.3412   17.7347 N   0  0  0  0  0  0
  -29.7489  -16.0310   20.5390 N   0  0  0  0  0  0
  -27.0782  -21.9114   21.6053 O   0  0  0  0  0  0
  -31.4747  -12.6797   19.1719 H   0  0  0  0  0  0
  -30.4218  -11.5696   20.0061 H   0  0  0  0  0  0
  -29.8248  -11.7024   17.5719 H   0  0  0  0  0  0
  -29.6241  -13.4297   17.6836 H   0  0  0  0  0  0
  -27.9265  -11.2652   18.9536 H   0  0  0  0  0  0
  -27.3874  -12.4593   17.8083 H   0  0  0  0  0  0
  -27.6126  -14.2425   19.4305 H   0  0  0  0  0  0
  -28.7507  -12.2387   21.4387 H   0  0  0  0  0  0
  -28.3903  -13.9155   21.7730 H   0  0  0  0  0  0
  -25.2784   -9.5701   22.4744 H   0  0  0  0  0  0
  -24.0021   -7.4654   22.7470 H   0  0  0  0  0  0
  -21.0855   -8.8783   19.8947 H   0  0  0  0  0  0
  -22.3691  -10.9705   19.6179 H   0  0  0  0  0  0
  -21.1992   -7.6156   23.9717 H   0  0  0  0  0  0
  -21.1476   -6.0522   25.9069 H   0  0  0  0  0  0
  -22.0597   -2.7629   23.2829 H   0  0  0  0  0  0
  -22.4092  -11.9951   22.4865 H   0  0  0  0  0  0
  -21.1058  -13.1243   22.2552 H   0  0  0  0  0  0
  -24.6606  -15.8479   20.5539 H   0  0  0  0  0  0
  -26.2658  -15.6348   20.0755 H   0  0  0  0  0  0
  -26.7262  -32.5308   23.1020 H   0  0  0  0  0  0
  -25.0070  -33.9660   25.0310 H   0  0  0  0  0  0
  -22.7413  -31.2921   21.3856 H   0  0  0  0  0  0
  -23.3764  -35.9593   23.3294 H   0  0  0  0  0  0
  -24.3569  -36.8891   22.2045 H   0  0  0  0  0  0
  -23.7263  -37.6457   23.6677 H   0  0  0  0  0  0
  -26.1516  -31.4885   20.6212 H   0  0  0  0  0  0
  -26.8661  -30.7762   22.0310 H   0  0  0  0  0  0
  -28.1337  -28.8302   21.2266 H   0  0  0  0  0  0
  -25.9466  -25.8643   18.9879 H   0  0  0  0  0  0
  -23.9801  -27.3072   18.9735 H   0  0  0  0  0  0
  -23.7911  -30.5756   19.4006 H   0  0  0  0  0  0
  -22.7811  -29.2373   19.8493 H   0  0  0  0  0  0
  -25.1313  -36.1873   25.0802 H   0  0  0  0  0  0
  -21.0007  -28.3287   24.1358 H   0  0  0  0  0  0
  -20.5648  -26.2329   23.3628 H   0  0  0  0  0  0
  -21.6652  -26.7396   22.1218 H   0  0  0  0  0  0
  -19.6928  -25.6268   21.1249 H   0  0  0  0  0  0
  -19.6683  -27.3164   20.6737 H   0  0  0  0  0  0
  -17.4207  -26.6660   21.4030 H   0  0  0  0  0  0
  -18.0343  -26.0039   22.9012 H   0  0  0  0  0  0
  -19.7954  -30.7268   24.2233 H   0  0  0  0  0  0
  -17.5029  -31.6256   24.5159 H   0  0  0  0  0  0
  -15.5360  -30.2971   23.7641 H   0  0  0  0  0  0
  -15.8695  -28.0779   22.7103 H   0  0  0  0  0  0
  -24.5898  -30.7105   25.7753 H   0  0  0  0  0  0
  -24.8883  -32.2993   26.4716 H   0  0  0  0  0  0
  -25.7988  -30.9053   27.0261 H   0  0  0  0  0  0
  -26.2964  -29.6694   24.1249 H   0  0  0  0  0  0
  -27.3907  -29.7201   25.4845 H   0  0  0  0  0  0
  -27.8905  -30.4140   23.9636 H   0  0  0  0  0  0
  -27.2635  -33.3630   26.2036 H   0  0  0  0  0  0
  -28.3887  -32.6868   25.0354 H   0  0  0  0  0  0
  -28.0699  -31.8487   26.5448 H   0  0  0  0  0  0
  -28.2580  -38.0085   24.7490 H   0  0  0  0  0  0
  -28.1094  -36.2616   24.6305 H   0  0  0  0  0  0
  -27.2295  -37.1439   25.8854 H   0  0  0  0  0  0
  -20.9444  -29.8765   21.6817 H   0  0  0  0  0  0
  -26.0163  -38.2817   24.1395 H   0  0  0  0  0  0
  -29.9908  -20.8022   17.8475 H   0  0  0  0  0  0
  -30.5236  -18.7422   16.8137 H   0  0  0  0  0  0
  -29.0478  -18.7052   21.4954 H   0  0  0  0  0  0
  -27.0746  -24.8652   21.2521 H   0  0  0  0  0  0
  -30.5934  -22.9516   19.8522 H   0  0  0  0  0  0
  -29.4457  -22.7688   18.4993 H   0  0  0  0  0  0
  -30.2082  -16.4603   16.7336 H   0  0  0  0  0  0
  -29.8895  -15.4929   18.0683 H   0  0  0  0  0  0
  -28.8729  -15.8441   21.0017 H   0  0  0  0  0  0
  1 25  1  0  0  0
  1 30  2  0  0  0
  1 83  1  0  0  0
  2  3  1  0  0  0
  2 25  1  0  0  0
  2 85  1  0  0  0
  2 86  1  0  0  0
  3  4  1  0  0  0
  3 87  1  0  0  0
  3 88  1  0  0  0
  4  5  1  0  0  0
  4 89  1  0  0  0
  4 90  1  0  0  0
  5  6  1  0  0  0
  5 26  1  0  0  0
  5 91  1  0  0  0
  6 25  1  0  0  0
  6 92  1  0  0  0
  6 93  1  0  0  0
  7  8  2  0  0  0
  7 26  1  0  0  0
  7 29  1  0  0  0
  8  9  1  0  0  0
  8 22  1  0  0  0
  9 10  1  0  0  0
  9 27  2  0  0  0
 10 11  2  0  0  0
 10 15  1  0  0  0
 11 12  1  0  0  0
 11 94  1  0  0  0
 12 13  2  0  0  0
 12 95  1  0  0  0
 13 14  1  0  0  0
 13 31  1  0  0  0
 14 15  2  0  0  0
 14 96  1  0  0  0
 15 97  1  0  0  0
 16 17  2  0  0  0
 16 21  1  0  0  0
 16 31  1  0  0  0
 17 18  1  0  0  0
 17 98  1  0  0  0
 18 19  2  0  0  0
 18 99  1  0  0  0
 19 20  1  0  0  0
 19 24  1  0  0  0
 20 21  2  0  0  0
 20100  1  0  0  0
 21 23  1  0  0  0
 22 28  1  0  0  0
 22 32  2  0  0  0
 26 27  1  0  0  0
 28101  1  0  0  0
 28102  1  0  0  0
 29103  1  0  0  0
 29104  1  0  0  0
 33 34  1  0  0  0
 33 66  1  0  0  0
 33 70  2  0  0  0
 34 36  1  0  0  0
 34 59  1  0  0  0
 34105  1  0  0  0
 35 44  2  0  0  0
 35 45  1  0  0  0
 35 68  1  0  0  0
 36 56  1  0  0  0
 36106  1  0  0  0
 37 39  1  0  0  0
 37 47  1  0  0  0
 37 66  1  0  0  0
 37107  1  0  0  0
 38 43  2  0  0  0
 38 46  1  0  0  0
 38 47  1  0  0  0
 39 64  1  0  0  0
 39 67  2  0  0  0
 40 52  1  0  0  0
 40 53  2  0  0  0
 40 58  1  0  0  0
 41108  1  0  0  0
 41109  1  0  0  0
 41110  1  0  0  0
 41 48  1  0  0  0
 42 43  1  0  0  0
 42 66  1  0  0  0
 42111  1  0  0  0
 42112  1  0  0  0
 43 44  1  0  0  0
 44113  1  0  0  0
 45 46  2  0  0  0
 45114  1  0  0  0
 46115  1  0  0  0
 47116  1  0  0  0
 47117  1  0  0  0
 48 56  1  0  0  0
 48 65  1  0  0  0
 48118  1  0  0  0
 49 50  1  0  0  0
 49 53  1  0  0  0
 49 64  1  0  0  0
 49119  1  0  0  0
 50 51  1  0  0  0
 50120  1  0  0  0
 50121  1  0  0  0
 51 52  1  0  0  0
 51122  1  0  0  0
 51123  1  0  0  0
 52124  1  0  0  0
 52125  1  0  0  0
 53 54  1  0  0  0
 54 55  2  0  0  0
 54126  1  0  0  0
 55 57  1  0  0  0
 55127  1  0  0  0
 56 69  2  0  0  0
 57 58  2  0  0  0
 57128  1  0  0  0
 58129  1  0  0  0
 59 60  1  0  0  0
 59 61  1  0  0  0
 59 62  1  0  0  0
 60130  1  0  0  0
 60131  1  0  0  0
 60132  1  0  0  0
 61133  1  0  0  0
 61134  1  0  0  0
 61135  1  0  0  0
 62136  1  0  0  0
 62137  1  0  0  0
 62138  1  0  0  0
 63 65  1  0  0  0
 63139  1  0  0  0
 63140  1  0  0  0
 63141  1  0  0  0
 64142  1  0  0  0
 65143  1  0  0  0
 68 79  1  0  0  0
 71 72  2  0  0  0
 71 74  1  0  0  0
 71144  1  0  0  0
 72 75  1  0  0  0
 72145  1  0  0  0
 73 74  2  0  0  0
 73 76  1  0  0  0
 73146  1  0  0  0
 74 81  1  0  0  0
 75 76  2  0  0  0
 75 82  1  0  0  0
 76 83  1  0  0  0
 77 78  1  0  0  0
 77 79  2  0  0  0
 77 80  1  0  0  0
 78 81  1  0  0  0
 78 84  2  0  0  0
 79147  1  0  0  0
 80 81  1  0  0  0
 80148  1  0  0  0
 80149  1  0  0  0
 82150  1  0  0  0
 82151  1  0  0  0
 83152  1  0  0  0
M  ISO  4   1 100  68 101  79 101  83 100
M  END
> <chiral flag>
0

> <version>
0

> <s_m_source_file>
/data/baiqing/PycharmProjects/Reinvent-master-3.2/result/LINK_invent/BTK/process_docking_weight1_custom_product_contain_oxygen_bond_distance_aromatic_linkinvent_7_9_3/rearranged_h_0085.sdf

> <i_m_source_file_index>
58

> <r_mmod_Potential_Energy-OPLS-2005>
338.416259765625

> <r_mmod_Stretch_Energy-OPLS-2005>
193.45964050293

> <r_mmod_Bend_Energy-OPLS-2005>
285.576141357422

> <r_mmod_Torsional_Energy-OPLS-2005>
265.911499023438

> <r_mmod_Improper_Torsional_Energy-OPLS-2005>
10.1801748275757

> <r_mmod_Van_der_Waal_Energy-OPLS-2005>
138.153167724609

> <r_mmod_Electrostatic_Energy-OPLS-2005>
-470.778442382812

> <r_mmod_Solvation_Energy-OPLS-2005>
-239.85124206543

> <b_mmod_Minimization_Converged-OPLS-2005>
0

> <r_mmod_RMS_Derivative-OPLS-2005>
2.77005076408386

$$$$
59
                    3D
 Structure written by MMmdl.
153162  0  0  1  0            999 V2000
  -30.5573  -14.7588   20.4802 C   0  0  0  0  0  0
  -30.4522  -12.4665   19.4667 C   0  0  0  0  0  0
  -29.5129  -12.5190   18.2388 C   0  0  0  0  0  0
  -28.0418  -12.3298   18.6564 C   0  0  0  0  0  0
  -27.6493  -13.2219   19.8625 C   0  0  2  0  0  0
  -28.6955  -13.1138   20.9956 C   0  0  0  0  0  0
  -25.2527  -13.8181   20.5678 C   0  0  0  0  0  0
  -24.1814  -13.0437   20.9221 C   0  0  0  0  0  0
  -24.6405  -11.6911   20.8770 C   0  0  0  0  0  0
  -23.9073  -10.4274   21.0409 C   0  0  0  0  0  0
  -24.3618   -9.4190   21.9195 C   0  0  0  0  0  0
  -23.6289   -8.2229   22.0749 C   0  0  0  0  0  0
  -22.4280   -8.0276   21.3529 C   0  0  0  0  0  0
  -21.9915   -9.0252   20.4649 C   0  0  0  0  0  0
  -22.7241  -10.2122   20.3068 C   0  0  0  0  0  0
  -21.6850   -6.0731   22.5279 C   0  0  0  0  0  0
  -21.4005   -6.5637   23.8213 C   0  0  0  0  0  0
  -21.3656   -5.6786   24.9175 C   0  0  0  0  0  0
  -21.6057   -4.3055   24.7223 C   0  0  0  0  0  0
  -21.8821   -3.8140   23.4354 C   0  0  0  0  0  0
  -21.9192   -4.6955   22.3409 C   0  0  0  0  0  0
  -22.7834  -13.5208   21.1883 C   0  0  0  0  0  0
  -22.1661   -4.2144   21.0988 F   0  0  0  0  0  0
  -21.5630   -3.4546   25.7735 F   0  0  0  0  0  0
  -29.9976  -13.4985   20.4290 N   0  0  0  0  0  0
  -26.2966  -12.9363   20.3312 N   0  0  0  0  0  0
  -25.9342  -11.6513   20.5811 N   0  0  0  0  0  0
  -22.0487  -12.8176   22.0432 N   0  0  0  0  0  0
  -25.4246  -15.1903   20.4015 N   0  0  0  0  0  0
  -31.7188  -14.9372   20.0975 O   0  0  0  0  0  0
  -21.6645   -6.8877   21.4237 O   0  0  0  0  0  0
  -22.3526  -14.5520   20.6747 O   0  0  0  0  0  0
  -24.6335  -31.8560   23.1959 C   0  0  0  0  0  0
  -25.9139  -32.4773   23.8340 C   0  0  1  0  0  0
  -27.2187  -27.2477   20.1439 C   0  0  0  0  0  0
  -25.5915  -33.8578   24.2244 N   0  0  0  0  0  0
  -23.4312  -30.4746   21.5400 C   0  0  2  0  0  0
  -24.8799  -28.9134   20.1161 C   0  0  0  0  0  0
  -22.7528  -29.4596   22.4910 C   0  0  0  0  0  0
  -18.0279  -28.1429   22.8496 C   0  0  0  0  0  0
  -24.1457  -36.7277   23.2620 C   0  0  0  0  0  0
  -25.9777  -30.7672   21.3731 C   0  0  0  0  0  0
  -26.0528  -29.3833   20.7238 C   0  0  0  0  0  0
  -27.2284  -28.5630   20.7237 C   0  0  0  0  0  0
  -26.0248  -26.8458   19.5096 C   0  0  0  0  0  0
  -24.8700  -27.6522   19.4974 C   0  0  0  0  0  0
  -23.6512  -29.8043   20.1580 C   0  0  0  0  0  0
  -25.4080  -36.3081   24.0316 C   0  0  1  0  0  0
  -20.5887  -28.3733   23.1265 C   0  0  2  0  0  0
  -20.6750  -26.9444   22.5403 C   0  0  0  0  0  0
  -19.5708  -26.6419   21.5216 C   0  0  0  0  0  0
  -18.1901  -26.7977   22.1641 C   0  0  0  0  0  0
  -19.1543  -28.8891   23.2887 C   0  0  0  0  0  0
  -18.9470  -30.1482   23.8918 C   0  0  0  0  0  0
  -17.6469  -30.6622   24.0571 C   0  0  0  0  0  0
  -25.9064  -34.9459   23.5087 C   0  0  0  0  0  0
  -16.5350  -29.9124   23.6341 C   0  0  0  0  0  0
  -16.7269  -28.6540   23.0369 C   0  0  0  0  0  0
  -26.4488  -31.6593   25.0743 C   0  0  0  0  0  0
  -25.3706  -31.3757   26.1476 C   0  0  0  0  0  0
  -27.0289  -30.2992   24.6205 C   0  0  0  0  0  0
  -27.6065  -32.4313   25.7509 C   0  0  0  0  0  0
  -27.5582  -37.1740   24.8417 C   0  0  0  0  0  0
  -21.4226  -29.3071   22.3667 N   0  0  0  0  0  0
  -26.4230  -37.3806   23.9470 N   0  0  0  0  0  0
  -24.7010  -31.0491   22.0949 N   0  0  0  0  0  0
  -23.4226  -28.8165   23.3024 O   0  0  0  0  0  0
  -28.2924  -26.3259   20.1567 O   0  0  0  0  0  0
  -26.5677  -34.8934   22.4685 O   0  0  0  0  0  0
  -23.5465  -32.1383   23.7228 O   0  0  0  0  0  0
  -28.1388  -19.3144   20.7514 C   0  0  0  0  0  0
  -28.3628  -17.9062   20.9061 C   0  0  0  0  0  0
  -30.6342  -18.1955   20.2959 C   0  0  0  0  0  0
  -29.1313  -20.2687   20.3712 C   0  0  0  0  0  0
  -29.6133  -17.2720   20.6651 C   0  0  0  0  0  0
  -30.4017  -19.6206   20.1732 C   0  0  0  0  0  0
  -28.4945  -23.8117   20.0125 C   0  0  0  0  0  0
  -27.6989  -22.5665   20.2072 C   0  0  0  0  0  0
  -28.0979  -24.9922   20.6493 C   0  0  0  0  0  0
  -29.6839  -22.8611   20.4428 C   0  0  0  0  0  0
  -27.6942  -25.0311   22.1230 C   0  0  0  0  0  0
  -28.8107  -21.7168   20.1497 N   0  0  0  0  0  0
  -29.7005  -15.7902   20.8408 N   0  0  0  0  0  0
  -26.5120  -22.4161   20.4073 O   0  0  0  0  0  0
  -31.4533  -20.3949   19.8128 F   0  0  0  0  0  0
  -31.4865  -12.6213   19.1544 H   0  0  0  0  0  0
  -30.4268  -11.4797   19.9296 H   0  0  0  0  0  0
  -29.7916  -11.7535   17.5140 H   0  0  0  0  0  0
  -29.6249  -13.4796   17.7338 H   0  0  0  0  0  0
  -27.9061  -11.2801   18.9186 H   0  0  0  0  0  0
  -27.3759  -12.5185   17.8140 H   0  0  0  0  0  0
  -27.6542  -14.2492   19.4965 H   0  0  0  0  0  0
  -28.7371  -12.0957   21.3864 H   0  0  0  0  0  0
  -28.4256  -13.7457   21.8430 H   0  0  0  0  0  0
  -25.2765   -9.5663   22.4768 H   0  0  0  0  0  0
  -24.0000   -7.4619   22.7453 H   0  0  0  0  0  0
  -21.0854   -8.8795   19.8938 H   0  0  0  0  0  0
  -22.3731  -10.9682   19.6184 H   0  0  0  0  0  0
  -21.1991   -7.6150   23.9717 H   0  0  0  0  0  0
  -21.1477   -6.0521   25.9075 H   0  0  0  0  0  0
  -22.0605   -2.7607   23.2869 H   0  0  0  0  0  0
  -22.4111  -11.9815   22.4773 H   0  0  0  0  0  0
  -21.1124  -13.1202   22.2669 H   0  0  0  0  0  0
  -24.6450  -15.8346   20.4766 H   0  0  0  0  0  0
  -26.2444  -15.6090   19.9827 H   0  0  0  0  0  0
  -26.7244  -32.5410   23.1113 H   0  0  0  0  0  0
  -24.9938  -33.9706   25.0313 H   0  0  0  0  0  0
  -22.7269  -31.2950   21.3881 H   0  0  0  0  0  0
  -23.3766  -35.9555   23.3200 H   0  0  0  0  0  0
  -24.3551  -36.8993   22.2047 H   0  0  0  0  0  0
  -23.7146  -37.6414   23.6725 H   0  0  0  0  0  0
  -26.0980  -31.5202   20.5926 H   0  0  0  0  0  0
  -26.8643  -30.8373   21.9913 H   0  0  0  0  0  0
  -28.1303  -28.9151   21.2052 H   0  0  0  0  0  0
  -25.9763  -25.8725   19.0407 H   0  0  0  0  0  0
  -23.9697  -27.2849   19.0218 H   0  0  0  0  0  0
  -23.7762  -30.5804   19.4017 H   0  0  0  0  0  0
  -22.7705  -29.2363   19.8513 H   0  0  0  0  0  0
  -25.1232  -36.1906   25.0798 H   0  0  0  0  0  0
  -20.9971  -28.3341   24.1393 H   0  0  0  0  0  0
  -20.5617  -26.2374   23.3632 H   0  0  0  0  0  0
  -21.6623  -26.7435   22.1208 H   0  0  0  0  0  0
  -19.6863  -25.6339   21.1229 H   0  0  0  0  0  0
  -19.6630  -27.3252   20.6762 H   0  0  0  0  0  0
  -17.4148  -26.6719   21.4071 H   0  0  0  0  0  0
  -18.0301  -26.0132   22.9049 H   0  0  0  0  0  0
  -19.7935  -30.7286   24.2331 H   0  0  0  0  0  0
  -17.5009  -31.6289   24.5189 H   0  0  0  0  0  0
  -15.5357  -30.3034   23.7645 H   0  0  0  0  0  0
  -15.8664  -28.0849   22.7109 H   0  0  0  0  0  0
  -24.5895  -30.7082   25.7818 H   0  0  0  0  0  0
  -24.8881  -32.2930   26.4875 H   0  0  0  0  0  0
  -25.8024  -30.8967   27.0280 H   0  0  0  0  0  0
  -26.2843  -29.6794   24.1186 H   0  0  0  0  0  0
  -27.3915  -29.7208   25.4720 H   0  0  0  0  0  0
  -27.8772  -30.4242   23.9461 H   0  0  0  0  0  0
  -27.2698  -33.3629   26.2065 H   0  0  0  0  0  0
  -28.3895  -32.6826   25.0347 H   0  0  0  0  0  0
  -28.0722  -31.8448   26.5433 H   0  0  0  0  0  0
  -28.2467  -38.0173   24.7708 H   0  0  0  0  0  0
  -28.1213  -36.2733   24.5928 H   0  0  0  0  0  0
  -27.2342  -37.0984   25.8810 H   0  0  0  0  0  0
  -20.9457  -29.8788   21.6842 H   0  0  0  0  0  0
  -26.0093  -38.2830   24.1686 H   0  0  0  0  0  0
  -27.1339  -19.6702   20.9284 H   0  0  0  0  0  0
  -27.5185  -17.3018   21.2084 H   0  0  0  0  0  0
  -31.6268  -17.8229   20.0924 H   0  0  0  0  0  0
  -29.9925  -22.8854   21.4917 H   0  0  0  0  0  0
  -30.5689  -22.8568   19.8040 H   0  0  0  0  0  0
  -27.4793  -24.0378   22.5217 H   0  0  0  0  0  0
  -26.8046  -25.6428   22.2808 H   0  0  0  0  0  0
  -28.5063  -25.4540   22.7153 H   0  0  0  0  0  0
  -28.8437  -15.4002   21.2004 H   0  0  0  0  0  0
  1 25  1  0  0  0
  1 30  2  0  0  0
  1 83  1  0  0  0
  2  3  1  0  0  0
  2 25  1  0  0  0
  2 86  1  0  0  0
  2 87  1  0  0  0
  3  4  1  0  0  0
  3 88  1  0  0  0
  3 89  1  0  0  0
  4  5  1  0  0  0
  4 90  1  0  0  0
  4 91  1  0  0  0
  5  6  1  0  0  0
  5 26  1  0  0  0
  5 92  1  0  0  0
  6 25  1  0  0  0
  6 93  1  0  0  0
  6 94  1  0  0  0
  7  8  2  0  0  0
  7 26  1  0  0  0
  7 29  1  0  0  0
  8  9  1  0  0  0
  8 22  1  0  0  0
  9 10  1  0  0  0
  9 27  2  0  0  0
 10 11  2  0  0  0
 10 15  1  0  0  0
 11 12  1  0  0  0
 11 95  1  0  0  0
 12 13  2  0  0  0
 12 96  1  0  0  0
 13 14  1  0  0  0
 13 31  1  0  0  0
 14 15  2  0  0  0
 14 97  1  0  0  0
 15 98  1  0  0  0
 16 17  2  0  0  0
 16 21  1  0  0  0
 16 31  1  0  0  0
 17 18  1  0  0  0
 17 99  1  0  0  0
 18 19  2  0  0  0
 18100  1  0  0  0
 19 20  1  0  0  0
 19 24  1  0  0  0
 20 21  2  0  0  0
 20101  1  0  0  0
 21 23  1  0  0  0
 22 28  1  0  0  0
 22 32  2  0  0  0
 26 27  1  0  0  0
 28102  1  0  0  0
 28103  1  0  0  0
 29104  1  0  0  0
 29105  1  0  0  0
 33 34  1  0  0  0
 33 66  1  0  0  0
 33 70  2  0  0  0
 34 36  1  0  0  0
 34 59  1  0  0  0
 34106  1  0  0  0
 35 44  2  0  0  0
 35 45  1  0  0  0
 35 68  1  0  0  0
 36 56  1  0  0  0
 36107  1  0  0  0
 37 39  1  0  0  0
 37 47  1  0  0  0
 37 66  1  0  0  0
 37108  1  0  0  0
 38 43  2  0  0  0
 38 46  1  0  0  0
 38 47  1  0  0  0
 39 64  1  0  0  0
 39 67  2  0  0  0
 40 52  1  0  0  0
 40 53  2  0  0  0
 40 58  1  0  0  0
 41109  1  0  0  0
 41110  1  0  0  0
 41111  1  0  0  0
 41 48  1  0  0  0
 42 43  1  0  0  0
 42 66  1  0  0  0
 42112  1  0  0  0
 42113  1  0  0  0
 43 44  1  0  0  0
 44114  1  0  0  0
 45 46  2  0  0  0
 45115  1  0  0  0
 46116  1  0  0  0
 47117  1  0  0  0
 47118  1  0  0  0
 48 56  1  0  0  0
 48 65  1  0  0  0
 48119  1  0  0  0
 49 50  1  0  0  0
 49 53  1  0  0  0
 49 64  1  0  0  0
 49120  1  0  0  0
 50 51  1  0  0  0
 50121  1  0  0  0
 50122  1  0  0  0
 51 52  1  0  0  0
 51123  1  0  0  0
 51124  1  0  0  0
 52125  1  0  0  0
 52126  1  0  0  0
 53 54  1  0  0  0
 54 55  2  0  0  0
 54127  1  0  0  0
 55 57  1  0  0  0
 55128  1  0  0  0
 56 69  2  0  0  0
 57 58  2  0  0  0
 57129  1  0  0  0
 58130  1  0  0  0
 59 60  1  0  0  0
 59 61  1  0  0  0
 59 62  1  0  0  0
 60131  1  0  0  0
 60132  1  0  0  0
 60133  1  0  0  0
 61134  1  0  0  0
 61135  1  0  0  0
 61136  1  0  0  0
 62137  1  0  0  0
 62138  1  0  0  0
 62139  1  0  0  0
 63 65  1  0  0  0
 63140  1  0  0  0
 63141  1  0  0  0
 63142  1  0  0  0
 64143  1  0  0  0
 65144  1  0  0  0
 68 79  1  0  0  0
 71 72  2  0  0  0
 71 74  1  0  0  0
 71145  1  0  0  0
 72 75  1  0  0  0
 72146  1  0  0  0
 73 75  2  0  0  0
 73 76  1  0  0  0
 73147  1  0  0  0
 74 76  2  0  0  0
 74 82  1  0  0  0
 75 83  1  0  0  0
 76 85  1  0  0  0
 77 78  1  0  0  0
 77 79  2  0  0  0
 77 80  1  0  0  0
 78 82  1  0  0  0
 78 84  2  0  0  0
 79 81  1  0  0  0
 80 82  1  0  0  0
 80148  1  0  0  0
 80149  1  0  0  0
 81150  1  0  0  0
 81151  1  0  0  0
 81152  1  0  0  0
 83153  1  0  0  0
M  ISO  4   1 100  68 101  79 101  83 100
M  END
> <chiral flag>
0

> <version>
0

> <s_m_source_file>
/data/baiqing/PycharmProjects/Reinvent-master-3.2/result/LINK_invent/BTK/process_docking_weight1_custom_product_contain_oxygen_bond_distance_aromatic_linkinvent_7_9_3/rearranged_h_0085.sdf

> <i_m_source_file_index>
59

> <r_mmod_Potential_Energy-OPLS-2005>
383.338104248047

> <r_mmod_Stretch_Energy-OPLS-2005>
118.717323303223

> <r_mmod_Bend_Energy-OPLS-2005>
216.465072631836

> <r_mmod_Torsional_Energy-OPLS-2005>
377.0615234375

> <r_mmod_Improper_Torsional_Energy-OPLS-2005>
13.5323333740234

> <r_mmod_Van_der_Waal_Energy-OPLS-2005>
130.708755493164

> <r_mmod_Electrostatic_Energy-OPLS-2005>
-356.795074462891

> <r_mmod_Solvation_Energy-OPLS-2005>
-209.974365234375

> <b_mmod_Minimization_Converged-OPLS-2005>
0

> <r_mmod_RMS_Derivative-OPLS-2005>
3.62470602989197

$$$$
60
                    3D
 Structure written by MMmdl.
154163  0  0  1  0            999 V2000
  -30.7245  -14.4963   20.4977 C   0  0  0  0  0  0
  -30.3992  -12.3028   19.4518 C   0  0  0  0  0  0
  -29.4886  -12.4740   18.2195 C   0  0  0  0  0  0
  -28.0090  -12.3460   18.6291 C   0  0  0  0  0  0
  -27.6451  -13.2197   19.8604 C   0  0  2  0  0  0
  -28.6874  -13.0759   20.9945 C   0  0  0  0  0  0
  -25.2487  -13.8187   20.5670 C   0  0  0  0  0  0
  -24.1774  -13.0442   20.9199 C   0  0  0  0  0  0
  -24.6364  -11.6918   20.8776 C   0  0  0  0  0  0
  -23.9053  -10.4294   21.0442 C   0  0  0  0  0  0
  -24.3605   -9.4193   21.9203 C   0  0  0  0  0  0
  -23.6279   -8.2228   22.0761 C   0  0  0  0  0  0
  -22.4265   -8.0269   21.3550 C   0  0  0  0  0  0
  -21.9907   -9.0251   20.4653 C   0  0  0  0  0  0
  -22.7234  -10.2134   20.3077 C   0  0  0  0  0  0
  -21.6849   -6.0717   22.5266 C   0  0  0  0  0  0
  -21.4010   -6.5627   23.8197 C   0  0  0  0  0  0
  -21.3669   -5.6784   24.9164 C   0  0  0  0  0  0
  -21.6043   -4.3046   24.7217 C   0  0  0  0  0  0
  -21.8820   -3.8138   23.4339 C   0  0  0  0  0  0
  -21.9195   -4.6949   22.3394 C   0  0  0  0  0  0
  -22.7789  -13.5216   21.1859 C   0  0  0  0  0  0
  -22.1664   -4.2136   21.0973 F   0  0  0  0  0  0
  -21.5641   -3.4529   25.7732 F   0  0  0  0  0  0
  -30.0135  -13.3385   20.4252 N   0  0  0  0  0  0
  -26.2924  -12.9388   20.3316 N   0  0  0  0  0  0
  -25.9288  -11.6539   20.5796 N   0  0  0  0  0  0
  -22.0443  -12.8213   22.0432 N   0  0  0  0  0  0
  -25.4187  -15.1910   20.4024 N   0  0  0  0  0  0
  -31.9057  -14.5538   20.1353 O   0  0  0  0  0  0
  -21.6633   -6.8861   21.4231 O   0  0  0  0  0  0
  -22.3480  -14.5536   20.6717 O   0  0  0  0  0  0
  -24.6138  -31.8702   23.2100 C   0  0  0  0  0  0
  -25.9028  -32.4836   23.8398 C   0  0  1  0  0  0
  -27.2207  -27.4308   20.0996 C   0  0  0  0  0  0
  -25.5892  -33.8633   24.2330 N   0  0  0  0  0  0
  -23.4017  -30.4931   21.5520 C   0  0  2  0  0  0
  -24.8490  -28.9608   20.1112 C   0  0  0  0  0  0
  -22.7400  -29.4680   22.5004 C   0  0  0  0  0  0
  -18.0275  -28.1360   22.8495 C   0  0  0  0  0  0
  -24.1492  -36.7319   23.2638 C   0  0  0  0  0  0
  -25.9314  -30.8337   21.3641 C   0  0  0  0  0  0
  -26.0105  -29.4699   20.7085 C   0  0  0  0  0  0
  -27.2051  -28.7108   20.7020 C   0  0  0  0  0  0
  -26.0502  -26.9402   19.4889 C   0  0  0  0  0  0
  -24.8628  -27.6951   19.4983 C   0  0  0  0  0  0
  -23.6100  -29.8273   20.1662 C   0  0  0  0  0  0
  -25.4115  -36.3124   24.0341 C   0  0  1  0  0  0
  -20.5859  -28.3659   23.1310 C   0  0  2  0  0  0
  -20.6761  -26.9396   22.5415 C   0  0  0  0  0  0
  -19.5747  -26.6376   21.5205 C   0  0  0  0  0  0
  -18.1929  -26.7906   22.1620 C   0  0  0  0  0  0
  -19.1522  -28.8825   23.2900 C   0  0  0  0  0  0
  -18.9454  -30.1428   23.8914 C   0  0  0  0  0  0
  -17.6460  -30.6573   24.0556 C   0  0  0  0  0  0
  -25.9037  -34.9486   23.5135 C   0  0  0  0  0  0
  -16.5350  -29.9078   23.6314 C   0  0  0  0  0  0
  -16.7265  -28.6484   23.0352 C   0  0  0  0  0  0
  -26.4457  -31.6605   25.0716 C   0  0  0  0  0  0
  -25.3729  -31.3710   26.1466 C   0  0  0  0  0  0
  -27.0269  -30.3045   24.6076 C   0  0  0  0  0  0
  -27.6044  -32.4313   25.7474 C   0  0  0  0  0  0
  -27.5585  -37.1817   24.8466 C   0  0  0  0  0  0
  -21.4129  -29.3041   22.3727 N   0  0  0  0  0  0
  -26.4306  -37.3802   23.9402 N   0  0  0  0  0  0
  -24.6673  -31.0793   22.1009 N   0  0  0  0  0  0
  -23.4178  -28.8227   23.3045 O   0  0  0  0  0  0
  -28.3250  -26.6145   20.1345 O   0  0  0  0  0  0
  -26.5595  -34.8932   22.4695 O   0  0  0  0  0  0
  -23.5328  -32.1468   23.7486 O   0  0  0  0  0  0
  -29.3625  -18.7746   21.7431 C   0  0  0  0  0  0
  -28.8853  -20.1066   21.8487 C   0  0  0  0  0  0
  -29.3721  -19.0160   19.3391 C   0  0  0  0  0  0
  -29.6578  -18.2316   20.4770 C   0  0  0  0  0  0
  -28.6731  -20.9513   20.7226 C   0  0  0  0  0  0
  -28.8842  -20.3331   19.4593 C   0  0  0  0  0  0
  -28.3250  -24.3233   20.9529 C   0  0  0  0  0  0
  -28.2635  -23.2544   21.9147 C   0  0  0  0  0  0
  -28.2759  -25.6632   21.1301 C   0  0  0  0  0  0
  -30.4221  -16.9810   20.3013 C   0  0  0  0  0  0
  -28.4688  -23.3371   19.8129 C   0  0  0  0  0  0
  -28.2801  -22.3276   20.8758 N   0  0  0  0  0  0
  -30.0007  -15.7426   20.7015 N   0  0  0  0  0  0
  -31.5884  -17.1666   19.6688 N   0  3  0  0  0  0
  -28.3114  -23.2495   23.1284 O   0  0  0  0  0  0
  -28.6484  -21.0232   18.3174 F   0  0  0  0  0  0
  -31.4487  -12.3592   19.1554 H   0  0  0  0  0  0
  -30.2713  -11.3118   19.8915 H   0  0  0  0  0  0
  -29.7308  -11.7216   17.4673 H   0  0  0  0  0  0
  -29.6633  -13.4447   17.7521 H   0  0  0  0  0  0
  -27.8225  -11.2956   18.8565 H   0  0  0  0  0  0
  -27.3590  -12.5908   17.7875 H   0  0  0  0  0  0
  -27.6647  -14.2538   19.5164 H   0  0  0  0  0  0
  -28.6587  -12.0692   21.4155 H   0  0  0  0  0  0
  -28.4625  -13.7548   21.8187 H   0  0  0  0  0  0
  -25.2760   -9.5644   22.4770 H   0  0  0  0  0  0
  -23.9982   -7.4607   22.7478 H   0  0  0  0  0  0
  -21.0842   -8.8763   19.8954 H   0  0  0  0  0  0
  -22.3703  -10.9666   19.6178 H   0  0  0  0  0  0
  -21.1995   -7.6136   23.9690 H   0  0  0  0  0  0
  -21.1505   -6.0519   25.9061 H   0  0  0  0  0  0
  -22.0604   -2.7595   23.2833 H   0  0  0  0  0  0
  -22.4060  -11.9880   22.4840 H   0  0  0  0  0  0
  -21.1068  -13.1248   22.2649 H   0  0  0  0  0  0
  -24.6445  -15.8401   20.4936 H   0  0  0  0  0  0
  -26.2498  -15.6262   20.0259 H   0  0  0  0  0  0
  -26.7096  -32.5549   23.1160 H   0  0  0  0  0  0
  -25.0030  -33.9819   25.0461 H   0  0  0  0  0  0
  -22.6894  -31.3090   21.4142 H   0  0  0  0  0  0
  -23.3751  -35.9656   23.3333 H   0  0  0  0  0  0
  -24.3576  -36.8893   22.2042 H   0  0  0  0  0  0
  -23.7250  -37.6540   23.6622 H   0  0  0  0  0  0
  -26.0441  -31.6012   20.5970 H   0  0  0  0  0  0
  -26.8184  -30.8850   21.9842 H   0  0  0  0  0  0
  -28.0990  -29.0920   21.1756 H   0  0  0  0  0  0
  -26.0558  -25.9634   19.0252 H   0  0  0  0  0  0
  -23.9688  -27.2951   19.0408 H   0  0  0  0  0  0
  -23.7157  -30.6028   19.4071 H   0  0  0  0  0  0
  -22.7329  -29.2483   19.8727 H   0  0  0  0  0  0
  -25.1295  -36.1997   25.0836 H   0  0  0  0  0  0
  -20.9958  -28.3217   24.1421 H   0  0  0  0  0  0
  -20.5642  -26.2276   23.3608 H   0  0  0  0  0  0
  -21.6637  -26.7432   22.1221 H   0  0  0  0  0  0
  -19.6914  -25.6293   21.1220 H   0  0  0  0  0  0
  -19.6669  -27.3193   20.6737 H   0  0  0  0  0  0
  -17.4198  -26.6650   21.4024 H   0  0  0  0  0  0
  -18.0334  -26.0037   22.9007 H   0  0  0  0  0  0
  -19.7935  -30.7226   24.2297 H   0  0  0  0  0  0
  -17.5023  -31.6256   24.5152 H   0  0  0  0  0  0
  -15.5353  -30.2991   23.7624 H   0  0  0  0  0  0
  -15.8663  -28.0804   22.7072 H   0  0  0  0  0  0
  -24.5901  -30.7061   25.7796 H   0  0  0  0  0  0
  -24.8925  -32.2867   26.4925 H   0  0  0  0  0  0
  -25.8088  -30.8867   27.0214 H   0  0  0  0  0  0
  -26.2802  -29.6834   24.1114 H   0  0  0  0  0  0
  -27.4017  -29.7252   25.4523 H   0  0  0  0  0  0
  -27.8652  -30.4359   23.9230 H   0  0  0  0  0  0
  -27.2669  -33.3593   26.2102 H   0  0  0  0  0  0
  -28.3826  -32.6909   25.0283 H   0  0  0  0  0  0
  -28.0740  -31.8404   26.5347 H   0  0  0  0  0  0
  -28.2630  -38.0087   24.7495 H   0  0  0  0  0  0
  -28.1059  -36.2625   24.6326 H   0  0  0  0  0  0
  -27.2299  -37.1504   25.8868 H   0  0  0  0  0  0
  -20.9290  -29.8767   21.6957 H   0  0  0  0  0  0
  -26.0205  -38.2891   24.1375 H   0  0  0  0  0  0
  -29.5766  -18.2148   22.6435 H   0  0  0  0  0  0
  -28.7204  -20.5041   22.8402 H   0  0  0  0  0  0
  -29.5773  -18.6319   18.3499 H   0  0  0  0  0  0
  -28.1682  -26.1074   22.1104 H   0  0  0  0  0  0
  -29.4509  -23.2831   19.3394 H   0  0  0  0  0  0
  -27.6757  -23.3002   19.0645 H   0  0  0  0  0  0
  -29.0608  -15.7564   21.0556 H   0  0  0  0  0  0
  -31.9167  -18.0915   19.4413 H   0  0  0  0  0  0
  -32.1983  -16.3639   19.5514 H   0  0  0  0  0  0
  1 25  1  0  0  0
  1 30  2  0  0  0
  1 83  1  0  0  0
  2  3  1  0  0  0
  2 25  1  0  0  0
  2 87  1  0  0  0
  2 88  1  0  0  0
  3  4  1  0  0  0
  3 89  1  0  0  0
  3 90  1  0  0  0
  4  5  1  0  0  0
  4 91  1  0  0  0
  4 92  1  0  0  0
  5  6  1  0  0  0
  5 26  1  0  0  0
  5 93  1  0  0  0
  6 25  1  0  0  0
  6 94  1  0  0  0
  6 95  1  0  0  0
  7  8  2  0  0  0
  7 26  1  0  0  0
  7 29  1  0  0  0
  8  9  1  0  0  0
  8 22  1  0  0  0
  9 10  1  0  0  0
  9 27  2  0  0  0
 10 11  2  0  0  0
 10 15  1  0  0  0
 11 12  1  0  0  0
 11 96  1  0  0  0
 12 13  2  0  0  0
 12 97  1  0  0  0
 13 14  1  0  0  0
 13 31  1  0  0  0
 14 15  2  0  0  0
 14 98  1  0  0  0
 15 99  1  0  0  0
 16 17  2  0  0  0
 16 21  1  0  0  0
 16 31  1  0  0  0
 17 18  1  0  0  0
 17100  1  0  0  0
 18 19  2  0  0  0
 18101  1  0  0  0
 19 20  1  0  0  0
 19 24  1  0  0  0
 20 21  2  0  0  0
 20102  1  0  0  0
 21 23  1  0  0  0
 22 28  1  0  0  0
 22 32  2  0  0  0
 26 27  1  0  0  0
 28103  1  0  0  0
 28104  1  0  0  0
 29105  1  0  0  0
 29106  1  0  0  0
 33 34  1  0  0  0
 33 66  1  0  0  0
 33 70  2  0  0  0
 34 36  1  0  0  0
 34 59  1  0  0  0
 34107  1  0  0  0
 35 44  2  0  0  0
 35 45  1  0  0  0
 35 68  1  0  0  0
 36 56  1  0  0  0
 36108  1  0  0  0
 37 39  1  0  0  0
 37 47  1  0  0  0
 37 66  1  0  0  0
 37109  1  0  0  0
 38 43  2  0  0  0
 38 46  1  0  0  0
 38 47  1  0  0  0
 39 64  1  0  0  0
 39 67  2  0  0  0
 40 52  1  0  0  0
 40 53  2  0  0  0
 40 58  1  0  0  0
 41110  1  0  0  0
 41111  1  0  0  0
 41112  1  0  0  0
 41 48  1  0  0  0
 42 43  1  0  0  0
 42 66  1  0  0  0
 42113  1  0  0  0
 42114  1  0  0  0
 43 44  1  0  0  0
 44115  1  0  0  0
 45 46  2  0  0  0
 45116  1  0  0  0
 46117  1  0  0  0
 47118  1  0  0  0
 47119  1  0  0  0
 48 56  1  0  0  0
 48 65  1  0  0  0
 48120  1  0  0  0
 49 50  1  0  0  0
 49 53  1  0  0  0
 49 64  1  0  0  0
 49121  1  0  0  0
 50 51  1  0  0  0
 50122  1  0  0  0
 50123  1  0  0  0
 51 52  1  0  0  0
 51124  1  0  0  0
 51125  1  0  0  0
 52126  1  0  0  0
 52127  1  0  0  0
 53 54  1  0  0  0
 54 55  2  0  0  0
 54128  1  0  0  0
 55 57  1  0  0  0
 55129  1  0  0  0
 56 69  2  0  0  0
 57 58  2  0  0  0
 57130  1  0  0  0
 58131  1  0  0  0
 59 60  1  0  0  0
 59 61  1  0  0  0
 59 62  1  0  0  0
 60132  1  0  0  0
 60133  1  0  0  0
 60134  1  0  0  0
 61135  1  0  0  0
 61136  1  0  0  0
 61137  1  0  0  0
 62138  1  0  0  0
 62139  1  0  0  0
 62140  1  0  0  0
 63 65  1  0  0  0
 63141  1  0  0  0
 63142  1  0  0  0
 63143  1  0  0  0
 64144  1  0  0  0
 65145  1  0  0  0
 68 79  1  0  0  0
 71 72  2  0  0  0
 71 74  1  0  0  0
 71146  1  0  0  0
 72 75  1  0  0  0
 72147  1  0  0  0
 73 74  2  0  0  0
 73 76  1  0  0  0
 73148  1  0  0  0
 74 80  1  0  0  0
 75 76  2  0  0  0
 75 82  1  0  0  0
 76 86  1  0  0  0
 77 78  1  0  0  0
 77 79  2  0  0  0
 77 81  1  0  0  0
 78 82  1  0  0  0
 78 85  2  0  0  0
 79149  1  0  0  0
 80 83  1  0  0  0
 80 84  2  0  0  0
 81 82  1  0  0  0
 81150  1  0  0  0
 81151  1  0  0  0
 83152  1  0  0  0
 84153  1  0  0  0
 84154  1  0  0  0
M  CHG  1  84   1
M  ISO  4   1 100  68 101  79 101  83 100
M  END
> <chiral flag>
0

> <version>
0

> <s_m_source_file>
/data/baiqing/PycharmProjects/Reinvent-master-3.2/result/LINK_invent/BTK/process_docking_weight1_custom_product_contain_oxygen_bond_distance_aromatic_linkinvent_7_9_3/rearranged_h_0085.sdf

> <i_m_source_file_index>
60

> <r_mmod_Potential_Energy-OPLS-2005>
-222.510711669922

> <r_mmod_Stretch_Energy-OPLS-2005>
40.6266021728516

> <r_mmod_Bend_Energy-OPLS-2005>
177.637237548828

> <r_mmod_Torsional_Energy-OPLS-2005>
249.06640625

> <r_mmod_Improper_Torsional_Energy-OPLS-2005>
12.0882043838501

> <r_mmod_Van_der_Waal_Energy-OPLS-2005>
161.234115600586

> <r_mmod_Electrostatic_Energy-OPLS-2005>
-450.335144042969

> <r_mmod_Solvation_Energy-OPLS-2005>
-436.95263671875

> <b_mmod_Minimization_Converged-OPLS-2005>
0

> <r_mmod_RMS_Derivative-OPLS-2005>
1.87137067317963

$$$$
61
                    3D
 Structure written by MMmdl.
150159  0  0  1  0            999 V2000
  -30.5320  -15.0283   20.4125 C   0  0  0  0  0  0
  -30.4358  -12.6360   19.5331 C   0  0  0  0  0  0
  -29.5300  -12.5444   18.2808 C   0  0  0  0  0  0
  -28.0615  -12.3232   18.6822 C   0  0  0  0  0  0
  -27.6250  -13.2654   19.8355 C   0  0  2  0  0  0
  -28.6615  -13.3218   20.9760 C   0  0  0  0  0  0
  -25.2391  -13.8243   20.5669 C   0  0  0  0  0  0
  -24.1779  -13.0446   20.9297 C   0  0  0  0  0  0
  -24.6443  -11.6942   20.8783 C   0  0  0  0  0  0
  -23.9120  -10.4305   21.0418 C   0  0  0  0  0  0
  -24.3664   -9.4184   21.9177 C   0  0  0  0  0  0
  -23.6342   -8.2204   22.0735 C   0  0  0  0  0  0
  -22.4298   -8.0277   21.3527 C   0  0  0  0  0  0
  -21.9941   -9.0254   20.4596 C   0  0  0  0  0  0
  -22.7304  -10.2139   20.3029 C   0  0  0  0  0  0
  -21.6850   -6.0740   22.5291 C   0  0  0  0  0  0
  -21.4012   -6.5634   23.8234 C   0  0  0  0  0  0
  -21.3661   -5.6773   24.9185 C   0  0  0  0  0  0
  -21.6040   -4.3030   24.7217 C   0  0  0  0  0  0
  -21.8822   -3.8142   23.4325 C   0  0  0  0  0  0
  -21.9199   -4.6968   22.3393 C   0  0  0  0  0  0
  -22.7771  -13.5142   21.1929 C   0  0  0  0  0  0
  -22.1660   -4.2167   21.0959 F   0  0  0  0  0  0
  -21.5638   -3.4516   25.7719 F   0  0  0  0  0  0
  -29.9356  -13.7573   20.3902 N   0  0  0  0  0  0
  -26.2854  -12.9529   20.3221 N   0  0  0  0  0  0
  -25.9381  -11.6633   20.5798 N   0  0  0  0  0  0
  -22.0423  -12.8138   22.0467 N   0  0  0  0  0  0
  -25.3845  -15.1988   20.3988 N   0  0  0  0  0  0
  -31.7404  -15.0235   20.1424 O   0  0  0  0  0  0
  -21.6626   -6.8888   21.4245 O   0  0  0  0  0  0
  -22.3403  -14.5432   20.6764 O   0  0  0  0  0  0
  -24.6507  -31.8410   23.1906 C   0  0  0  0  0  0
  -25.9237  -32.4677   23.8317 C   0  0  1  0  0  0
  -27.2159  -27.0926   20.1863 C   0  0  0  0  0  0
  -25.5957  -33.8485   24.2183 N   0  0  0  0  0  0
  -23.4531  -30.4628   21.5374 C   0  0  2  0  0  0
  -24.9086  -28.8837   20.1138 C   0  0  0  0  0  0
  -22.7589  -29.4534   22.4869 C   0  0  0  0  0  0
  -18.0285  -28.1439   22.8506 C   0  0  0  0  0  0
  -24.1464  -36.7223   23.2653 C   0  0  0  0  0  0
  -26.0122  -30.7031   21.3955 C   0  0  0  0  0  0
  -26.0849  -29.3093   20.7439 C   0  0  0  0  0  0
  -27.2402  -28.4328   20.7612 C   0  0  0  0  0  0
  -26.0159  -26.7870   19.5003 C   0  0  0  0  0  0
  -24.8879  -27.6370   19.4742 C   0  0  0  0  0  0
  -23.6882  -29.7962   20.1565 C   0  0  0  0  0  0
  -25.4103  -36.3024   24.0335 C   0  0  1  0  0  0
  -20.5904  -28.3739   23.1244 C   0  0  2  0  0  0
  -20.6799  -26.9436   22.5428 C   0  0  0  0  0  0
  -19.5749  -26.6399   21.5253 C   0  0  0  0  0  0
  -18.1925  -26.7980   22.1650 C   0  0  0  0  0  0
  -19.1561  -28.8909   23.2855 C   0  0  0  0  0  0
  -18.9472  -30.1523   23.8868 C   0  0  0  0  0  0
  -17.6461  -30.6641   24.0587 C   0  0  0  0  0  0
  -25.9073  -34.9392   23.5062 C   0  0  0  0  0  0
  -16.5344  -29.9131   23.6390 C   0  0  0  0  0  0
  -16.7260  -28.6558   23.0387 C   0  0  0  0  0  0
  -26.4550  -31.6577   25.0768 C   0  0  0  0  0  0
  -25.3725  -31.3745   26.1439 C   0  0  0  0  0  0
  -27.0462  -30.3007   24.6344 C   0  0  0  0  0  0
  -27.6071  -32.4391   25.7512 C   0  0  0  0  0  0
  -27.5559  -37.1754   24.8467 C   0  0  0  0  0  0
  -21.4272  -29.3044   22.3622 N   0  0  0  0  0  0
  -26.4254  -37.3763   23.9448 N   0  0  0  0  0  0
  -24.7246  -31.0216   22.0968 N   0  0  0  0  0  0
  -23.4209  -28.8076   23.3027 O   0  0  0  0  0  0
  -28.2380  -26.0582   20.2717 O   0  0  0  0  0  0
  -26.5658  -34.8928   22.4646 O   0  0  0  0  0  0
  -23.5625  -32.1303   23.7106 O   0  0  0  0  0  0
  -28.5213  -16.9467   20.8125 C   0  0  0  0  0  0
  -28.2628  -18.4046   20.8086 C   0  0  0  0  0  0
  -29.8088  -16.4923   20.5516 C   0  0  0  0  0  0
  -29.3107  -19.2939   20.5683 C   0  0  0  0  0  0
  -30.0858  -22.9697   20.5792 C   0  0  0  0  0  0
  -28.7557  -23.1519   20.4878 C   0  0  0  0  0  0
  -30.4416  -21.5293   20.6004 C   0  0  0  0  0  0
  -28.2683  -21.7023   20.4704 C   0  0  0  0  0  0
  -31.1598  -24.0421   20.7084 C   0  0  0  0  0  0
  -27.8321  -24.5457   20.4946 C   0  0  0  0  0  0
  -29.3200  -20.7649   20.5331 N   0  0  0  0  0  0
  -31.5899  -21.0806   20.6986 O   0  0  0  0  0  0
  -27.0814  -21.3632   20.4058 O   0  0  0  0  0  0
  -30.6993  -18.0891   20.3353 S   0  0  0  0  0  0
  -31.4719  -12.7841   19.2262 H   0  0  0  0  0  0
  -30.4268  -11.6965   20.0838 H   0  0  0  0  0  0
  -29.8631  -11.7398   17.6233 H   0  0  0  0  0  0
  -29.6190  -13.4689   17.7094 H   0  0  0  0  0  0
  -27.9634  -11.2852   18.9970 H   0  0  0  0  0  0
  -27.4074  -12.4451   17.8157 H   0  0  0  0  0  0
  -27.5746  -14.2619   19.3966 H   0  0  0  0  0  0
  -28.7613  -12.3465   21.4570 H   0  0  0  0  0  0
  -28.3429  -14.0115   21.7588 H   0  0  0  0  0  0
  -25.2816   -9.5640   22.4767 H   0  0  0  0  0  0
  -24.0025   -7.4568   22.7471 H   0  0  0  0  0  0
  -21.0857   -8.8790   19.8910 H   0  0  0  0  0  0
  -22.3776  -10.9675   19.6113 H   0  0  0  0  0  0
  -21.1979   -7.6139   23.9746 H   0  0  0  0  0  0
  -21.1487   -6.0490   25.9105 H   0  0  0  0  0  0
  -22.0595   -2.7597   23.2828 H   0  0  0  0  0  0
  -22.4078  -11.9813   22.4870 H   0  0  0  0  0  0
  -21.1025  -13.1114   22.2638 H   0  0  0  0  0  0
  -24.5824  -15.8167   20.4717 H   0  0  0  0  0  0
  -26.1734  -15.6347   19.9399 H   0  0  0  0  0  0
  -26.7243  -32.5298   23.1016 H   0  0  0  0  0  0
  -25.0135  -33.9571   25.0342 H   0  0  0  0  0  0
  -22.7530  -31.2879   21.3836 H   0  0  0  0  0  0
  -23.3783  -35.9496   23.3288 H   0  0  0  0  0  0
  -24.3507  -36.8911   22.2066 H   0  0  0  0  0  0
  -23.7161  -37.6394   23.6702 H   0  0  0  0  0  0
  -26.1735  -31.4534   20.6215 H   0  0  0  0  0  0
  -26.8799  -30.7499   22.0440 H   0  0  0  0  0  0
  -28.1344  -28.7510   21.2823 H   0  0  0  0  0  0
  -25.9096  -25.8473   18.9848 H   0  0  0  0  0  0
  -23.9908  -27.3181   18.9635 H   0  0  0  0  0  0
  -23.8371  -30.5798   19.4089 H   0  0  0  0  0  0
  -22.7974  -29.2522   19.8383 H   0  0  0  0  0  0
  -25.1292  -36.1850   25.0834 H   0  0  0  0  0  0
  -20.9975  -28.3368   24.1373 H   0  0  0  0  0  0
  -20.5776  -26.2344   23.3654 H   0  0  0  0  0  0
  -21.6648  -26.7497   22.1150 H   0  0  0  0  0  0
  -19.6910  -25.6306   21.1302 H   0  0  0  0  0  0
  -19.6716  -27.3222   20.6795 H   0  0  0  0  0  0
  -17.4213  -26.6769   21.4042 H   0  0  0  0  0  0
  -18.0261  -26.0118   22.9048 H   0  0  0  0  0  0
  -19.7938  -30.7379   24.2210 H   0  0  0  0  0  0
  -17.5008  -31.6301   24.5210 H   0  0  0  0  0  0
  -15.5357  -30.3019   23.7727 H   0  0  0  0  0  0
  -15.8672  -28.0879   22.7102 H   0  0  0  0  0  0
  -24.5916  -30.7080   25.7716 H   0  0  0  0  0  0
  -24.8922  -32.2928   26.4845 H   0  0  0  0  0  0
  -25.8023  -30.8920   27.0234 H   0  0  0  0  0  0
  -26.3121  -29.6696   24.1331 H   0  0  0  0  0  0
  -27.4075  -29.7333   25.4932 H   0  0  0  0  0  0
  -27.9011  -30.4292   23.9708 H   0  0  0  0  0  0
  -27.2672  -33.3761   26.1957 H   0  0  0  0  0  0
  -28.3936  -32.6855   25.0346 H   0  0  0  0  0  0
  -28.0681  -31.8630   26.5559 H   0  0  0  0  0  0
  -28.2547  -38.0085   24.7601 H   0  0  0  0  0  0
  -28.1104  -36.2632   24.6202 H   0  0  0  0  0  0
  -27.2281  -37.1293   25.8870 H   0  0  0  0  0  0
  -20.9528  -29.8729   21.6783 H   0  0  0  0  0  0
  -26.0136  -38.2824   24.1559 H   0  0  0  0  0  0
  -27.7075  -16.2691   21.0136 H   0  0  0  0  0  0
  -27.2553  -18.7486   21.0066 H   0  0  0  0  0  0
  -30.7379  -25.0494   20.7119 H   0  0  0  0  0  0
  -31.8701  -23.9620   19.8818 H   0  0  0  0  0  0
  -31.7166  -23.8995   21.6366 H   0  0  0  0  0  0
  -27.3578  -24.5453   21.4795 H   0  0  0  0  0  0
  -27.0287  -24.3041   19.8074 H   0  0  0  0  0  0
  1 25  1  0  0  0
  1 30  2  0  0  0
  1 73  1  0  0  0
  2  3  1  0  0  0
  2 25  1  0  0  0
  2 85  1  0  0  0
  2 86  1  0  0  0
  3  4  1  0  0  0
  3 87  1  0  0  0
  3 88  1  0  0  0
  4  5  1  0  0  0
  4 89  1  0  0  0
  4 90  1  0  0  0
  5  6  1  0  0  0
  5 26  1  0  0  0
  5 91  1  0  0  0
  6 25  1  0  0  0
  6 92  1  0  0  0
  6 93  1  0  0  0
  7  8  2  0  0  0
  7 26  1  0  0  0
  7 29  1  0  0  0
  8  9  1  0  0  0
  8 22  1  0  0  0
  9 10  1  0  0  0
  9 27  2  0  0  0
 10 11  2  0  0  0
 10 15  1  0  0  0
 11 12  1  0  0  0
 11 94  1  0  0  0
 12 13  2  0  0  0
 12 95  1  0  0  0
 13 14  1  0  0  0
 13 31  1  0  0  0
 14 15  2  0  0  0
 14 96  1  0  0  0
 15 97  1  0  0  0
 16 17  2  0  0  0
 16 21  1  0  0  0
 16 31  1  0  0  0
 17 18  1  0  0  0
 17 98  1  0  0  0
 18 19  2  0  0  0
 18 99  1  0  0  0
 19 20  1  0  0  0
 19 24  1  0  0  0
 20 21  2  0  0  0
 20100  1  0  0  0
 21 23  1  0  0  0
 22 28  1  0  0  0
 22 32  2  0  0  0
 26 27  1  0  0  0
 28101  1  0  0  0
 28102  1  0  0  0
 29103  1  0  0  0
 29104  1  0  0  0
 33 34  1  0  0  0
 33 66  1  0  0  0
 33 70  2  0  0  0
 34 36  1  0  0  0
 34 59  1  0  0  0
 34105  1  0  0  0
 35 44  2  0  0  0
 35 45  1  0  0  0
 35 68  1  0  0  0
 36 56  1  0  0  0
 36106  1  0  0  0
 37 39  1  0  0  0
 37 47  1  0  0  0
 37 66  1  0  0  0
 37107  1  0  0  0
 38 43  2  0  0  0
 38 46  1  0  0  0
 38 47  1  0  0  0
 39 64  1  0  0  0
 39 67  2  0  0  0
 40 52  1  0  0  0
 40 53  2  0  0  0
 40 58  1  0  0  0
 41108  1  0  0  0
 41109  1  0  0  0
 41110  1  0  0  0
 41 48  1  0  0  0
 42 43  1  0  0  0
 42 66  1  0  0  0
 42111  1  0  0  0
 42112  1  0  0  0
 43 44  1  0  0  0
 44113  1  0  0  0
 45 46  2  0  0  0
 45114  1  0  0  0
 46115  1  0  0  0
 47116  1  0  0  0
 47117  1  0  0  0
 48 56  1  0  0  0
 48 65  1  0  0  0
 48118  1  0  0  0
 49 50  1  0  0  0
 49 53  1  0  0  0
 49 64  1  0  0  0
 49119  1  0  0  0
 50 51  1  0  0  0
 50120  1  0  0  0
 50121  1  0  0  0
 51 52  1  0  0  0
 51122  1  0  0  0
 51123  1  0  0  0
 52124  1  0  0  0
 52125  1  0  0  0
 53 54  1  0  0  0
 54 55  2  0  0  0
 54126  1  0  0  0
 55 57  1  0  0  0
 55127  1  0  0  0
 56 69  2  0  0  0
 57 58  2  0  0  0
 57128  1  0  0  0
 58129  1  0  0  0
 59 60  1  0  0  0
 59 61  1  0  0  0
 59 62  1  0  0  0
 60130  1  0  0  0
 60131  1  0  0  0
 60132  1  0  0  0
 61133  1  0  0  0
 61134  1  0  0  0
 61135  1  0  0  0
 62136  1  0  0  0
 62137  1  0  0  0
 62138  1  0  0  0
 63 65  1  0  0  0
 63139  1  0  0  0
 63140  1  0  0  0
 63141  1  0  0  0
 64142  1  0  0  0
 65143  1  0  0  0
 68 80  1  0  0  0
 71 72  1  0  0  0
 71 73  2  0  0  0
 71144  1  0  0  0
 72 74  2  0  0  0
 72145  1  0  0  0
 73 84  1  0  0  0
 74 81  1  0  0  0
 74 84  1  0  0  0
 75 76  2  0  0  0
 75 77  1  0  0  0
 75 79  1  0  0  0
 76 78  1  0  0  0
 76 80  1  0  0  0
 77 81  1  0  0  0
 77 82  2  0  0  0
 78 81  1  0  0  0
 78 83  2  0  0  0
 79146  1  0  0  0
 79147  1  0  0  0
 79148  1  0  0  0
 80149  1  0  0  0
 80150  1  0  0  0
M  ISO  4   1 100  68 101  73 100  80 101
M  END
> <chiral flag>
0

> <version>
0

> <s_m_source_file>
/data/baiqing/PycharmProjects/Reinvent-master-3.2/result/LINK_invent/BTK/process_docking_weight1_custom_product_contain_oxygen_bond_distance_aromatic_linkinvent_7_9_3/rearranged_h_0085.sdf

> <i_m_source_file_index>
61

> <r_mmod_Potential_Energy-OPLS-2005>
596.467407226562

> <r_mmod_Stretch_Energy-OPLS-2005>
279.319885253906

> <r_mmod_Bend_Energy-OPLS-2005>
322.231048583984

> <r_mmod_Torsional_Energy-OPLS-2005>
204.096939086914

> <r_mmod_Improper_Torsional_Energy-OPLS-2005>
4.77112293243408

> <r_mmod_Van_der_Waal_Energy-OPLS-2005>
109.153602600098

> <r_mmod_Electrostatic_Energy-OPLS-2005>
-349.362884521484

> <r_mmod_Solvation_Energy-OPLS-2005>
-218.155120849609

> <b_mmod_Minimization_Converged-OPLS-2005>
0

> <r_mmod_RMS_Derivative-OPLS-2005>
6.06907892227173

$$$$
62
                    3D
 Structure written by MMmdl.
152161  0  0  1  0            999 V2000
  -30.6197  -14.6464   20.5049 C   0  0  0  0  0  0
  -30.4423  -12.3999   19.4499 C   0  0  0  0  0  0
  -29.5082  -12.5158   18.2239 C   0  0  0  0  0  0
  -28.0309  -12.3531   18.6343 C   0  0  0  0  0  0
  -27.6549  -13.2185   19.8671 C   0  0  2  0  0  0
  -28.7016  -13.0643   20.9942 C   0  0  0  0  0  0
  -25.2556  -13.8170   20.5692 C   0  0  0  0  0  0
  -24.1816  -13.0434   20.9157 C   0  0  0  0  0  0
  -24.6400  -11.6908   20.8733 C   0  0  0  0  0  0
  -23.9076  -10.4291   21.0402 C   0  0  0  0  0  0
  -24.3629   -9.4209   21.9181 C   0  0  0  0  0  0
  -23.6302   -8.2245   22.0754 C   0  0  0  0  0  0
  -22.4280   -8.0285   21.3548 C   0  0  0  0  0  0
  -21.9917   -9.0258   20.4649 C   0  0  0  0  0  0
  -22.7250  -10.2134   20.3053 C   0  0  0  0  0  0
  -21.6847   -6.0748   22.5289 C   0  0  0  0  0  0
  -21.4012   -6.5650   23.8225 C   0  0  0  0  0  0
  -21.3656   -5.6797   24.9184 C   0  0  0  0  0  0
  -21.6040   -4.3058   24.7226 C   0  0  0  0  0  0
  -21.8817   -3.8157   23.4344 C   0  0  0  0  0  0
  -21.9191   -4.6978   22.3406 C   0  0  0  0  0  0
  -22.7842  -13.5229   21.1825 C   0  0  0  0  0  0
  -22.1657   -4.2170   21.0981 F   0  0  0  0  0  0
  -21.5626   -3.4535   25.7731 F   0  0  0  0  0  0
  -30.0181  -13.4151   20.4345 N   0  0  0  0  0  0
  -26.3003  -12.9362   20.3352 N   0  0  0  0  0  0
  -25.9332  -11.6513   20.5770 N   0  0  0  0  0  0
  -22.0481  -12.8234   22.0395 N   0  0  0  0  0  0
  -25.4243  -15.1900   20.4178 N   0  0  0  0  0  0
  -31.7741  -14.8186   20.1024 O   0  0  0  0  0  0
  -21.6639   -6.8889   21.4250 O   0  0  0  0  0  0
  -22.3528  -14.5537   20.6680 O   0  0  0  0  0  0
  -24.6307  -31.8605   23.2035 C   0  0  0  0  0  0
  -25.9150  -32.4774   23.8362 C   0  0  1  0  0  0
  -27.2168  -27.2969   20.1128 C   0  0  0  0  0  0
  -25.5960  -33.8576   24.2296 N   0  0  0  0  0  0
  -23.4255  -30.4904   21.5447 C   0  0  2  0  0  0
  -24.8708  -28.9516   20.1070 C   0  0  0  0  0  0
  -22.7505  -29.4661   22.4889 C   0  0  0  0  0  0
  -18.0310  -28.1407   22.8499 C   0  0  0  0  0  0
  -24.1489  -36.7281   23.2631 C   0  0  0  0  0  0
  -25.9707  -30.7853   21.3796 C   0  0  0  0  0  0
  -26.0434  -29.4127   20.7187 C   0  0  0  0  0  0
  -27.2192  -28.5973   20.7158 C   0  0  0  0  0  0
  -26.0181  -26.9124   19.4599 C   0  0  0  0  0  0
  -24.8615  -27.7074   19.4677 C   0  0  0  0  0  0
  -23.6432  -29.8364   20.1574 C   0  0  0  0  0  0
  -25.4105  -36.3074   24.0341 C   0  0  1  0  0  0
  -20.5917  -28.3730   23.1254 C   0  0  2  0  0  0
  -20.6811  -26.9453   22.5396 C   0  0  0  0  0  0
  -19.5772  -26.6402   21.5220 C   0  0  0  0  0  0
  -18.1953  -26.7950   22.1634 C   0  0  0  0  0  0
  -19.1564  -28.8880   23.2878 C   0  0  0  0  0  0
  -18.9481  -30.1473   23.8906 C   0  0  0  0  0  0
  -17.6481  -30.6606   24.0578 C   0  0  0  0  0  0
  -25.9055  -34.9448   23.5112 C   0  0  0  0  0  0
  -16.5372  -29.9114   23.6331 C   0  0  0  0  0  0
  -16.7295  -28.6529   23.0358 C   0  0  0  0  0  0
  -26.4517  -31.6567   25.0725 C   0  0  0  0  0  0
  -25.3742  -31.3734   26.1448 C   0  0  0  0  0  0
  -27.0330  -30.2974   24.6177 C   0  0  0  0  0  0
  -27.6092  -32.4274   25.7486 C   0  0  0  0  0  0
  -27.5587  -37.1784   24.8457 C   0  0  0  0  0  0
  -21.4212  -29.3085   22.3633 N   0  0  0  0  0  0
  -26.4270  -37.3782   23.9444 N   0  0  0  0  0  0
  -24.6948  -31.0616   22.0994 N   0  0  0  0  0  0
  -23.4220  -28.8184   23.2967 O   0  0  0  0  0  0
  -28.3021  -26.3926   20.1802 O   0  0  0  0  0  0
  -26.5613  -34.8923   22.4670 O   0  0  0  0  0  0
  -23.5461  -32.1409   23.7348 O   0  0  0  0  0  0
  -30.8347  -19.3356   20.1202 C   0  0  0  0  0  0
  -30.9191  -17.9093   20.2127 C   0  0  0  0  0  0
  -28.6357  -19.2878   21.0783 C   0  0  0  0  0  0
  -29.6957  -20.0841   20.5571 C   0  0  0  0  0  0
  -29.8569  -17.1342   20.7516 C   0  0  0  0  0  0
  -28.7175  -17.8662   21.1736 C   0  0  0  0  0  0
  -30.2145  -23.7694   20.6443 C   0  0  0  0  0  0
  -28.9310  -23.7684   20.2838 C   0  0  0  0  0  0
  -30.6723  -22.3962   20.7906 C   0  0  0  0  0  0
  -28.5455  -22.3464   20.2000 C   0  0  0  0  0  0
  -27.9648  -24.9575   19.9435 C   0  0  0  0  0  0
  -29.6329  -21.5715   20.5048 N   0  0  0  0  0  0
  -29.8139  -15.6772   20.9060 N   0  0  0  0  0  0
  -31.8081  -22.0415   21.1275 O   0  0  0  0  0  0
  -27.4307  -21.9093   19.8914 O   0  0  0  0  0  0
  -27.6692  -17.1801   21.6902 F   0  0  0  0  0  0
  -31.4819  -12.5337   19.1447 H   0  0  0  0  0  0
  -30.3867  -11.4015   19.8859 H   0  0  0  0  0  0
  -29.7730  -11.7679   17.4757 H   0  0  0  0  0  0
  -29.6481  -13.4877   17.7470 H   0  0  0  0  0  0
  -27.8629  -11.2984   18.8557 H   0  0  0  0  0  0
  -27.3782  -12.5922   17.7940 H   0  0  0  0  0  0
  -27.6728  -14.2561   19.5335 H   0  0  0  0  0  0
  -28.7135  -12.0379   21.3638 H   0  0  0  0  0  0
  -28.4438  -13.6843   21.8542 H   0  0  0  0  0  0
  -25.2770   -9.5682   22.4759 H   0  0  0  0  0  0
  -24.0007   -7.4630   22.7467 H   0  0  0  0  0  0
  -21.0848   -8.8784   19.8951 H   0  0  0  0  0  0
  -22.3713  -10.9679   19.6166 H   0  0  0  0  0  0
  -21.2005   -7.6158   23.9737 H   0  0  0  0  0  0
  -21.1478   -6.0521   25.9088 H   0  0  0  0  0  0
  -22.0599   -2.7621   23.2831 H   0  0  0  0  0  0
  -22.4086  -11.9901   22.4791 H   0  0  0  0  0  0
  -21.1105  -13.1288   22.2602 H   0  0  0  0  0  0
  -24.6649  -15.8436   20.5702 H   0  0  0  0  0  0
  -26.3036  -15.6508   20.2210 H   0  0  0  0  0  0
  -26.7223  -32.5444   23.1115 H   0  0  0  0  0  0
  -25.0139  -33.9712   25.0459 H   0  0  0  0  0  0
  -22.7215  -31.3137   21.4040 H   0  0  0  0  0  0
  -23.3771  -35.9588   23.3234 H   0  0  0  0  0  0
  -24.3614  -36.8950   22.2060 H   0  0  0  0  0  0
  -23.7202  -37.6454   23.6676 H   0  0  0  0  0  0
  -26.1068  -31.5497   20.6130 H   0  0  0  0  0  0
  -26.8506  -30.8317   22.0098 H   0  0  0  0  0  0
  -28.1133  -28.9445   21.2158 H   0  0  0  0  0  0
  -25.9226  -25.9736   18.9380 H   0  0  0  0  0  0
  -23.9678  -27.3529   18.9722 H   0  0  0  0  0  0
  -23.7723  -30.6198   19.4093 H   0  0  0  0  0  0
  -22.7613  -29.2748   19.8450 H   0  0  0  0  0  0
  -25.1268  -36.1908   25.0829 H   0  0  0  0  0  0
  -21.0031  -28.3325   24.1365 H   0  0  0  0  0  0
  -20.5745  -26.2351   23.3611 H   0  0  0  0  0  0
  -21.6670  -26.7505   22.1158 H   0  0  0  0  0  0
  -19.6942  -25.6311   21.1257 H   0  0  0  0  0  0
  -19.6699  -27.3208   20.6747 H   0  0  0  0  0  0
  -17.4231  -26.6712   21.4032 H   0  0  0  0  0  0
  -18.0348  -26.0090   22.9024 H   0  0  0  0  0  0
  -19.7956  -30.7289   24.2279 H   0  0  0  0  0  0
  -17.5042  -31.6285   24.5183 H   0  0  0  0  0  0
  -15.5374  -30.3031   23.7638 H   0  0  0  0  0  0
  -15.8700  -28.0848   22.7063 H   0  0  0  0  0  0
  -24.5916  -30.7083   25.7782 H   0  0  0  0  0  0
  -24.8937  -32.2915   26.4845 H   0  0  0  0  0  0
  -25.8055  -30.8931   27.0238 H   0  0  0  0  0  0
  -26.2895  -29.6733   24.1209 H   0  0  0  0  0  0
  -27.4025  -29.7221   25.4674 H   0  0  0  0  0  0
  -27.8778  -30.4235   23.9402 H   0  0  0  0  0  0
  -27.2740  -33.3601   26.2031 H   0  0  0  0  0  0
  -28.3929  -32.6771   25.0321 H   0  0  0  0  0  0
  -28.0723  -31.8398   26.5423 H   0  0  0  0  0  0
  -28.2540  -38.0145   24.7587 H   0  0  0  0  0  0
  -28.1146  -36.2683   24.6152 H   0  0  0  0  0  0
  -27.2340  -37.1272   25.8864 H   0  0  0  0  0  0
  -20.9387  -29.8813   21.6850 H   0  0  0  0  0  0
  -26.0139  -38.2839   24.1501 H   0  0  0  0  0  0
  -31.6841  -19.8574   19.7015 H   0  0  0  0  0  0
  -31.8196  -17.4226   19.8664 H   0  0  0  0  0  0
  -27.7344  -19.7634   21.4367 H   0  0  0  0  0  0
  -30.8288  -24.6444   20.7843 H   0  0  0  0  0  0
  -27.0486  -24.7268   20.4906 H   0  0  0  0  0  0
  -27.7452  -24.8380   18.8822 H   0  0  0  0  0  0
  -28.9330  -15.3541   21.2783 H   0  0  0  0  0  0
  1 25  1  0  0  0
  1 30  2  0  0  0
  1 83  1  0  0  0
  2  3  1  0  0  0
  2 25  1  0  0  0
  2 87  1  0  0  0
  2 88  1  0  0  0
  3  4  1  0  0  0
  3 89  1  0  0  0
  3 90  1  0  0  0
  4  5  1  0  0  0
  4 91  1  0  0  0
  4 92  1  0  0  0
  5  6  1  0  0  0
  5 26  1  0  0  0
  5 93  1  0  0  0
  6 25  1  0  0  0
  6 94  1  0  0  0
  6 95  1  0  0  0
  7  8  2  0  0  0
  7 26  1  0  0  0
  7 29  1  0  0  0
  8  9  1  0  0  0
  8 22  1  0  0  0
  9 10  1  0  0  0
  9 27  2  0  0  0
 10 11  2  0  0  0
 10 15  1  0  0  0
 11 12  1  0  0  0
 11 96  1  0  0  0
 12 13  2  0  0  0
 12 97  1  0  0  0
 13 14  1  0  0  0
 13 31  1  0  0  0
 14 15  2  0  0  0
 14 98  1  0  0  0
 15 99  1  0  0  0
 16 17  2  0  0  0
 16 21  1  0  0  0
 16 31  1  0  0  0
 17 18  1  0  0  0
 17100  1  0  0  0
 18 19  2  0  0  0
 18101  1  0  0  0
 19 20  1  0  0  0
 19 24  1  0  0  0
 20 21  2  0  0  0
 20102  1  0  0  0
 21 23  1  0  0  0
 22 28  1  0  0  0
 22 32  2  0  0  0
 26 27  1  0  0  0
 28103  1  0  0  0
 28104  1  0  0  0
 29105  1  0  0  0
 29106  1  0  0  0
 33 34  1  0  0  0
 33 66  1  0  0  0
 33 70  2  0  0  0
 34 36  1  0  0  0
 34 59  1  0  0  0
 34107  1  0  0  0
 35 44  2  0  0  0
 35 45  1  0  0  0
 35 68  1  0  0  0
 36 56  1  0  0  0
 36108  1  0  0  0
 37 39  1  0  0  0
 37 47  1  0  0  0
 37 66  1  0  0  0
 37109  1  0  0  0
 38 43  2  0  0  0
 38 46  1  0  0  0
 38 47  1  0  0  0
 39 64  1  0  0  0
 39 67  2  0  0  0
 40 52  1  0  0  0
 40 53  2  0  0  0
 40 58  1  0  0  0
 41110  1  0  0  0
 41111  1  0  0  0
 41112  1  0  0  0
 41 48  1  0  0  0
 42 43  1  0  0  0
 42 66  1  0  0  0
 42113  1  0  0  0
 42114  1  0  0  0
 43 44  1  0  0  0
 44115  1  0  0  0
 45 46  2  0  0  0
 45116  1  0  0  0
 46117  1  0  0  0
 47118  1  0  0  0
 47119  1  0  0  0
 48 56  1  0  0  0
 48 65  1  0  0  0
 48120  1  0  0  0
 49 50  1  0  0  0
 49 53  1  0  0  0
 49 64  1  0  0  0
 49121  1  0  0  0
 50 51  1  0  0  0
 50122  1  0  0  0
 50123  1  0  0  0
 51 52  1  0  0  0
 51124  1  0  0  0
 51125  1  0  0  0
 52126  1  0  0  0
 52127  1  0  0  0
 53 54  1  0  0  0
 54 55  2  0  0  0
 54128  1  0  0  0
 55 57  1  0  0  0
 55129  1  0  0  0
 56 69  2  0  0  0
 57 58  2  0  0  0
 57130  1  0  0  0
 58131  1  0  0  0
 59 60  1  0  0  0
 59 61  1  0  0  0
 59 62  1  0  0  0
 60132  1  0  0  0
 60133  1  0  0  0
 60134  1  0  0  0
 61135  1  0  0  0
 61136  1  0  0  0
 61137  1  0  0  0
 62138  1  0  0  0
 62139  1  0  0  0
 62140  1  0  0  0
 63 65  1  0  0  0
 63141  1  0  0  0
 63142  1  0  0  0
 63143  1  0  0  0
 64144  1  0  0  0
 65145  1  0  0  0
 68 81  1  0  0  0
 71 72  2  0  0  0
 71 74  1  0  0  0
 71146  1  0  0  0
 72 75  1  0  0  0
 72147  1  0  0  0
 73 74  2  0  0  0
 73 76  1  0  0  0
 73148  1  0  0  0
 74 82  1  0  0  0
 75 76  2  0  0  0
 75 83  1  0  0  0
 76 86  1  0  0  0
 77 78  2  0  0  0
 77 79  1  0  0  0
 77149  1  0  0  0
 78 80  1  0  0  0
 78 81  1  0  0  0
 79 82  1  0  0  0
 79 84  2  0  0  0
 80 82  1  0  0  0
 80 85  2  0  0  0
 81150  1  0  0  0
 81151  1  0  0  0
 83152  1  0  0  0
M  ISO  4   1 100  68 101  81 101  83 100
M  END
> <chiral flag>
0

> <version>
0

> <s_m_source_file>
/data/baiqing/PycharmProjects/Reinvent-master-3.2/result/LINK_invent/BTK/process_docking_weight1_custom_product_contain_oxygen_bond_distance_aromatic_linkinvent_7_9_3/rearranged_h_0085.sdf

> <i_m_source_file_index>
62

> <r_mmod_Potential_Energy-OPLS-2005>
65.9530868530273

> <r_mmod_Stretch_Energy-OPLS-2005>
87.4591217041016

> <r_mmod_Bend_Energy-OPLS-2005>
191.136459350586

> <r_mmod_Torsional_Energy-OPLS-2005>
234.692810058594

> <r_mmod_Improper_Torsional_Energy-OPLS-2005>
3.64476919174194

> <r_mmod_Van_der_Waal_Energy-OPLS-2005>
149.155960083008

> <r_mmod_Electrostatic_Energy-OPLS-2005>
-432.338836669922

> <r_mmod_Solvation_Energy-OPLS-2005>
-225.600738525391

> <b_mmod_Minimization_Converged-OPLS-2005>
0

> <r_mmod_RMS_Derivative-OPLS-2005>
1.32441449165344

$$$$
63
                    3D
 Structure written by MMmdl.
151159  0  0  1  0            999 V2000
  -30.6995  -14.5285   20.5367 C   0  0  0  0  0  0
  -30.4200  -12.3311   19.4402 C   0  0  0  0  0  0
  -29.4966  -12.4950   18.2152 C   0  0  0  0  0  0
  -28.0192  -12.3507   18.6287 C   0  0  0  0  0  0
  -27.6558  -13.2139   19.8669 C   0  0  2  0  0  0
  -28.6995  -13.0471   20.9953 C   0  0  0  0  0  0
  -25.2567  -13.8172   20.5688 C   0  0  0  0  0  0
  -24.1829  -13.0441   20.9186 C   0  0  0  0  0  0
  -24.6389  -11.6909   20.8737 C   0  0  0  0  0  0
  -23.9058  -10.4292   21.0404 C   0  0  0  0  0  0
  -24.3611   -9.4209   21.9182 C   0  0  0  0  0  0
  -23.6289   -8.2243   22.0753 C   0  0  0  0  0  0
  -22.4274   -8.0277   21.3542 C   0  0  0  0  0  0
  -21.9906   -9.0252   20.4646 C   0  0  0  0  0  0
  -22.7231  -10.2133   20.3056 C   0  0  0  0  0  0
  -21.6853   -6.0734   22.5276 C   0  0  0  0  0  0
  -21.4014   -6.5638   23.8209 C   0  0  0  0  0  0
  -21.3659   -5.6792   24.9172 C   0  0  0  0  0  0
  -21.6043   -4.3055   24.7223 C   0  0  0  0  0  0
  -21.8820   -3.8147   23.4345 C   0  0  0  0  0  0
  -21.9192   -4.6962   22.3401 C   0  0  0  0  0  0
  -22.7853  -13.5233   21.1847 C   0  0  0  0  0  0
  -22.1662   -4.2148   21.0979 F   0  0  0  0  0  0
  -21.5628   -3.4539   25.7736 F   0  0  0  0  0  0
  -30.0244  -13.3478   20.4316 N   0  0  0  0  0  0
  -26.3000  -12.9353   20.3343 N   0  0  0  0  0  0
  -25.9319  -11.6507   20.5772 N   0  0  0  0  0  0
  -22.0495  -12.8226   22.0405 N   0  0  0  0  0  0
  -25.4285  -15.1891   20.4090 N   0  0  0  0  0  0
  -31.8482  -14.6506   20.1056 O   0  0  0  0  0  0
  -21.6638   -6.8877   21.4239 O   0  0  0  0  0  0
  -22.3537  -14.5538   20.6693 O   0  0  0  0  0  0
  -24.6185  -31.8656   23.2092 C   0  0  0  0  0  0
  -25.9067  -32.4811   23.8391 C   0  0  1  0  0  0
  -27.2247  -27.4012   20.1029 C   0  0  0  0  0  0
  -25.5906  -33.8611   24.2317 N   0  0  0  0  0  0
  -23.4085  -30.4904   21.5504 C   0  0  2  0  0  0
  -24.8561  -28.9612   20.1070 C   0  0  0  0  0  0
  -22.7438  -29.4644   22.4972 C   0  0  0  0  0  0
  -18.0269  -28.1383   22.8484 C   0  0  0  0  0  0
  -24.1486  -36.7311   23.2640 C   0  0  0  0  0  0
  -25.9426  -30.8220   21.3689 C   0  0  0  0  0  0
  -26.0206  -29.4574   20.7094 C   0  0  0  0  0  0
  -27.2116  -28.6855   20.7051 C   0  0  0  0  0  0
  -26.0473  -26.9420   19.4716 C   0  0  0  0  0  0
  -24.8664  -27.7042   19.4819 C   0  0  0  0  0  0
  -23.6185  -29.8293   20.1630 C   0  0  0  0  0  0
  -25.4108  -36.3105   24.0337 C   0  0  1  0  0  0
  -20.5866  -28.3674   23.1301 C   0  0  2  0  0  0
  -20.6759  -26.9404   22.5420 C   0  0  0  0  0  0
  -19.5740  -26.6386   21.5214 C   0  0  0  0  0  0
  -18.1917  -26.7926   22.1619 C   0  0  0  0  0  0
  -19.1523  -28.8846   23.2884 C   0  0  0  0  0  0
  -18.9454  -30.1448   23.8900 C   0  0  0  0  0  0
  -17.6460  -30.6586   24.0568 C   0  0  0  0  0  0
  -25.9039  -34.9470   23.5126 C   0  0  0  0  0  0
  -16.5347  -29.9093   23.6330 C   0  0  0  0  0  0
  -16.7260  -28.6511   23.0347 C   0  0  0  0  0  0
  -26.4478  -31.6598   25.0732 C   0  0  0  0  0  0
  -25.3740  -31.3725   26.1482 C   0  0  0  0  0  0
  -27.0309  -30.3030   24.6138 C   0  0  0  0  0  0
  -27.6049  -32.4326   25.7488 C   0  0  0  0  0  0
  -27.5580  -37.1804   24.8467 C   0  0  0  0  0  0
  -21.4161  -29.3037   22.3709 N   0  0  0  0  0  0
  -26.4292  -37.3791   23.9412 N   0  0  0  0  0  0
  -24.6748  -31.0736   22.1006 N   0  0  0  0  0  0
  -23.4191  -28.8172   23.3016 O   0  0  0  0  0  0
  -28.3203  -26.5526   20.1642 O   0  0  0  0  0  0
  -26.5607  -34.8925   22.4692 O   0  0  0  0  0  0
  -23.5367  -32.1428   23.7461 O   0  0  0  0  0  0
  -29.3686  -18.0185   20.9700 C   0  0  0  0  0  0
  -31.0567  -19.7668   21.1760 C   0  0  0  0  0  0
  -31.7121  -17.4103   21.1527 C   0  0  0  0  0  0
  -29.6964  -19.4093   21.0474 C   0  0  0  0  0  0
  -30.3638  -16.9983   21.0122 C   0  0  0  0  0  0
  -32.0520  -18.7748   21.2256 C   0  0  0  0  0  0
  -28.6835  -24.1201   20.4164 C   0  0  0  0  0  0
  -28.0358  -25.2893   20.6748 C   0  0  0  0  0  0
  -28.6078  -20.4688   21.1203 C   0  0  0  0  0  0
  -28.1541  -22.8682   20.9910 C   0  0  0  0  0  0
  -29.9805  -15.6012   20.9639 N   0  0  0  0  0  0
  -28.9184  -21.7573   20.7951 N   0  0  0  0  0  0
  -27.4781  -20.0948   21.4574 O   0  0  0  0  0  0
  -27.0801  -22.8400   21.6059 O   0  0  0  0  0  0
  -33.3494  -19.1369   21.3662 F   0  0  0  0  0  0
  -31.4654  -12.4192   19.1387 H   0  0  0  0  0  0
  -30.3187  -11.3323   19.8675 H   0  0  0  0  0  0
  -29.7446  -11.7532   17.4543 H   0  0  0  0  0  0
  -29.6581  -13.4713   17.7559 H   0  0  0  0  0  0
  -27.8409  -11.2974   18.8487 H   0  0  0  0  0  0
  -27.3664  -12.5990   17.7911 H   0  0  0  0  0  0
  -27.6842  -14.2530   19.5383 H   0  0  0  0  0  0
  -28.6868  -12.0267   21.3808 H   0  0  0  0  0  0
  -28.4614  -13.6876   21.8457 H   0  0  0  0  0  0
  -25.2759   -9.5686   22.4755 H   0  0  0  0  0  0
  -23.9998   -7.4637   22.7474 H   0  0  0  0  0  0
  -21.0835   -8.8766   19.8954 H   0  0  0  0  0  0
  -22.3684  -10.9669   19.6165 H   0  0  0  0  0  0
  -21.2009   -7.6147   23.9711 H   0  0  0  0  0  0
  -21.1481   -6.0524   25.9074 H   0  0  0  0  0  0
  -22.0601   -2.7608   23.2844 H   0  0  0  0  0  0
  -22.4111  -11.9886   22.4791 H   0  0  0  0  0  0
  -21.1115  -13.1256   22.2618 H   0  0  0  0  0  0
  -24.6611  -15.8437   20.5150 H   0  0  0  0  0  0
  -26.2748  -15.6257   20.0669 H   0  0  0  0  0  0
  -26.7136  -32.5510   23.1150 H   0  0  0  0  0  0
  -25.0057  -33.9772   25.0460 H   0  0  0  0  0  0
  -22.6984  -31.3085   21.4130 H   0  0  0  0  0  0
  -23.3742  -35.9650   23.3315 H   0  0  0  0  0  0
  -24.3585  -36.8918   22.2052 H   0  0  0  0  0  0
  -23.7241  -37.6520   23.6649 H   0  0  0  0  0  0
  -26.0650  -31.5901   20.6039 H   0  0  0  0  0  0
  -26.8262  -30.8697   21.9935 H   0  0  0  0  0  0
  -28.1038  -29.0537   21.1921 H   0  0  0  0  0  0
  -26.0338  -25.9716   18.9955 H   0  0  0  0  0  0
  -23.9733  -27.3164   19.0109 H   0  0  0  0  0  0
  -23.7268  -30.6085   19.4075 H   0  0  0  0  0  0
  -22.7410  -29.2529   19.8643 H   0  0  0  0  0  0
  -25.1280  -36.1972   25.0830 H   0  0  0  0  0  0
  -20.9949  -28.3248   24.1425 H   0  0  0  0  0  0
  -20.5663  -26.2286   23.3618 H   0  0  0  0  0  0
  -21.6627  -26.7447   22.1213 H   0  0  0  0  0  0
  -19.6909  -25.6302   21.1235 H   0  0  0  0  0  0
  -19.6677  -27.3202   20.6749 H   0  0  0  0  0  0
  -17.4189  -26.6672   21.4018 H   0  0  0  0  0  0
  -18.0310  -26.0069   22.9015 H   0  0  0  0  0  0
  -19.7936  -30.7253   24.2271 H   0  0  0  0  0  0
  -17.5022  -31.6267   24.5170 H   0  0  0  0  0  0
  -15.5350  -30.3000   23.7656 H   0  0  0  0  0  0
  -15.8656  -28.0837   22.7061 H   0  0  0  0  0  0
  -24.5915  -30.7061   25.7831 H   0  0  0  0  0  0
  -24.8929  -32.2890   26.4909 H   0  0  0  0  0  0
  -25.8093  -30.8917   27.0251 H   0  0  0  0  0  0
  -26.2863  -29.6789   24.1182 H   0  0  0  0  0  0
  -27.4048  -29.7269   25.4612 H   0  0  0  0  0  0
  -27.8713  -30.4328   23.9318 H   0  0  0  0  0  0
  -27.2660  -33.3614   26.2090 H   0  0  0  0  0  0
  -28.3838  -32.6912   25.0302 H   0  0  0  0  0  0
  -28.0745  -31.8446   26.5384 H   0  0  0  0  0  0
  -28.2605  -38.0091   24.7503 H   0  0  0  0  0  0
  -28.1062  -36.2622   24.6296 H   0  0  0  0  0  0
  -27.2306  -37.1471   25.8873 H   0  0  0  0  0  0
  -20.9330  -29.8785   21.6948 H   0  0  0  0  0  0
  -26.0181  -38.2871   24.1406 H   0  0  0  0  0  0
  -28.3282  -17.7328   20.8933 H   0  0  0  0  0  0
  -31.3564  -20.7997   21.2736 H   0  0  0  0  0  0
  -32.5157  -16.6944   21.2260 H   0  0  0  0  0  0
  -29.5541  -24.1127   19.7772 H   0  0  0  0  0  0
  -27.1738  -25.3172   21.3313 H   0  0  0  0  0  0
  -29.0174  -15.3957   21.1815 H   0  0  0  0  0  0
  -29.8257  -21.9001   20.3835 H   0  0  0  0  0  0
  1 25  1  0  0  0
  1 30  2  0  0  0
  1 81  1  0  0  0
  2  3  1  0  0  0
  2 25  1  0  0  0
  2 86  1  0  0  0
  2 87  1  0  0  0
  3  4  1  0  0  0
  3 88  1  0  0  0
  3 89  1  0  0  0
  4  5  1  0  0  0
  4 90  1  0  0  0
  4 91  1  0  0  0
  5  6  1  0  0  0
  5 26  1  0  0  0
  5 92  1  0  0  0
  6 25  1  0  0  0
  6 93  1  0  0  0
  6 94  1  0  0  0
  7  8  2  0  0  0
  7 26  1  0  0  0
  7 29  1  0  0  0
  8  9  1  0  0  0
  8 22  1  0  0  0
  9 10  1  0  0  0
  9 27  2  0  0  0
 10 11  2  0  0  0
 10 15  1  0  0  0
 11 12  1  0  0  0
 11 95  1  0  0  0
 12 13  2  0  0  0
 12 96  1  0  0  0
 13 14  1  0  0  0
 13 31  1  0  0  0
 14 15  2  0  0  0
 14 97  1  0  0  0
 15 98  1  0  0  0
 16 17  2  0  0  0
 16 21  1  0  0  0
 16 31  1  0  0  0
 17 18  1  0  0  0
 17 99  1  0  0  0
 18 19  2  0  0  0
 18100  1  0  0  0
 19 20  1  0  0  0
 19 24  1  0  0  0
 20 21  2  0  0  0
 20101  1  0  0  0
 21 23  1  0  0  0
 22 28  1  0  0  0
 22 32  2  0  0  0
 26 27  1  0  0  0
 28102  1  0  0  0
 28103  1  0  0  0
 29104  1  0  0  0
 29105  1  0  0  0
 33 34  1  0  0  0
 33 66  1  0  0  0
 33 70  2  0  0  0
 34 36  1  0  0  0
 34 59  1  0  0  0
 34106  1  0  0  0
 35 44  2  0  0  0
 35 45  1  0  0  0
 35 68  1  0  0  0
 36 56  1  0  0  0
 36107  1  0  0  0
 37 39  1  0  0  0
 37 47  1  0  0  0
 37 66  1  0  0  0
 37108  1  0  0  0
 38 43  2  0  0  0
 38 46  1  0  0  0
 38 47  1  0  0  0
 39 64  1  0  0  0
 39 67  2  0  0  0
 40 52  1  0  0  0
 40 53  2  0  0  0
 40 58  1  0  0  0
 41109  1  0  0  0
 41110  1  0  0  0
 41111  1  0  0  0
 41 48  1  0  0  0
 42 43  1  0  0  0
 42 66  1  0  0  0
 42112  1  0  0  0
 42113  1  0  0  0
 43 44  1  0  0  0
 44114  1  0  0  0
 45 46  2  0  0  0
 45115  1  0  0  0
 46116  1  0  0  0
 47117  1  0  0  0
 47118  1  0  0  0
 48 56  1  0  0  0
 48 65  1  0  0  0
 48119  1  0  0  0
 49 50  1  0  0  0
 49 53  1  0  0  0
 49 64  1  0  0  0
 49120  1  0  0  0
 50 51  1  0  0  0
 50121  1  0  0  0
 50122  1  0  0  0
 51 52  1  0  0  0
 51123  1  0  0  0
 51124  1  0  0  0
 52125  1  0  0  0
 52126  1  0  0  0
 53 54  1  0  0  0
 54 55  2  0  0  0
 54127  1  0  0  0
 55 57  1  0  0  0
 55128  1  0  0  0
 56 69  2  0  0  0
 57 58  2  0  0  0
 57129  1  0  0  0
 58130  1  0  0  0
 59 60  1  0  0  0
 59 61  1  0  0  0
 59 62  1  0  0  0
 60131  1  0  0  0
 60132  1  0  0  0
 60133  1  0  0  0
 61134  1  0  0  0
 61135  1  0  0  0
 61136  1  0  0  0
 62137  1  0  0  0
 62138  1  0  0  0
 62139  1  0  0  0
 63 65  1  0  0  0
 63140  1  0  0  0
 63141  1  0  0  0
 63142  1  0  0  0
 64143  1  0  0  0
 65144  1  0  0  0
 68 78  1  0  0  0
 71 74  2  0  0  0
 71 75  1  0  0  0
 71145  1  0  0  0
 72 74  1  0  0  0
 72 76  2  0  0  0
 72146  1  0  0  0
 73 75  2  0  0  0
 73 76  1  0  0  0
 73147  1  0  0  0
 74 79  1  0  0  0
 75 81  1  0  0  0
 76 85  1  0  0  0
 77 78  2  0  0  0
 77 80  1  0  0  0
 77148  1  0  0  0
 78149  1  0  0  0
 79 82  1  0  0  0
 79 83  2  0  0  0
 80 82  1  0  0  0
 80 84  2  0  0  0
 81150  1  0  0  0
 82151  1  0  0  0
M  ISO  4   1 100  68 101  78 101  81 100
M  END
> <chiral flag>
0

> <version>
0

> <s_m_source_file>
/data/baiqing/PycharmProjects/Reinvent-master-3.2/result/LINK_invent/BTK/process_docking_weight1_custom_product_contain_oxygen_bond_distance_aromatic_linkinvent_7_9_3/rearranged_h_0085.sdf

> <i_m_source_file_index>
63

> <r_mmod_Potential_Energy-OPLS-2005>
-182.134033203125

> <r_mmod_Stretch_Energy-OPLS-2005>
50.074047088623

> <r_mmod_Bend_Energy-OPLS-2005>
105.144813537598

> <r_mmod_Torsional_Energy-OPLS-2005>
225.586715698242

> <r_mmod_Improper_Torsional_Energy-OPLS-2005>
4.89380979537964

> <r_mmod_Van_der_Waal_Energy-OPLS-2005>
170.690338134766

> <r_mmod_Electrostatic_Energy-OPLS-2005>
-503.866851806641

> <r_mmod_Solvation_Energy-OPLS-2005>
-259.882659912109

> <b_mmod_Minimization_Converged-OPLS-2005>
0

> <r_mmod_RMS_Derivative-OPLS-2005>
0.725567996501923

$$$$
64
                    3D
 Structure written by MMmdl.
155164  0  0  1  0            999 V2000
  -30.7446  -14.5028   20.5998 C   0  0  0  0  0  0
  -30.4102  -12.3401   19.4311 C   0  0  0  0  0  0
  -29.4870  -12.4969   18.2078 C   0  0  0  0  0  0
  -28.0063  -12.3758   18.6166 C   0  0  0  0  0  0
  -27.6537  -13.2223   19.8696 C   0  0  2  0  0  0
  -28.6986  -13.0469   20.9934 C   0  0  0  0  0  0
  -25.2567  -13.8221   20.5720 C   0  0  0  0  0  0
  -24.1838  -13.0473   20.9208 C   0  0  0  0  0  0
  -24.6404  -11.6945   20.8777 C   0  0  0  0  0  0
  -23.9082  -10.4323   21.0444 C   0  0  0  0  0  0
  -24.3632   -9.4239   21.9205 C   0  0  0  0  0  0
  -23.6324   -8.2250   22.0743 C   0  0  0  0  0  0
  -22.4320   -8.0282   21.3526 C   0  0  0  0  0  0
  -21.9956   -9.0265   20.4651 C   0  0  0  0  0  0
  -22.7276  -10.2157   20.3086 C   0  0  0  0  0  0
  -21.6851   -6.0756   22.5286 C   0  0  0  0  0  0
  -21.3971   -6.5634   23.8212 C   0  0  0  0  0  0
  -21.3640   -5.6801   24.9184 C   0  0  0  0  0  0
  -21.6057   -4.3066   24.7238 C   0  0  0  0  0  0
  -21.8821   -3.8173   23.4357 C   0  0  0  0  0  0
  -21.9210   -4.6974   22.3411 C   0  0  0  0  0  0
  -22.7852  -13.5262   21.1845 C   0  0  0  0  0  0
  -22.1685   -4.2163   21.0993 F   0  0  0  0  0  0
  -21.5644   -3.4547   25.7746 F   0  0  0  0  0  0
  -30.0181  -13.3592   20.4270 N   0  0  0  0  0  0
  -26.2997  -12.9403   20.3366 N   0  0  0  0  0  0
  -25.9337  -11.6548   20.5791 N   0  0  0  0  0  0
  -22.0476  -12.8263   22.0388 N   0  0  0  0  0  0
  -25.4305  -15.1943   20.4099 N   0  0  0  0  0  0
  -31.8904  -14.5770   20.1406 O   0  0  0  0  0  0
  -21.6642   -6.8904   21.4250 O   0  0  0  0  0  0
  -22.3567  -14.5579   20.6695 O   0  0  0  0  0  0
  -24.6175  -31.8606   23.2101 C   0  0  0  0  0  0
  -25.9066  -32.4757   23.8403 C   0  0  1  0  0  0
  -27.2282  -27.3952   20.0962 C   0  0  0  0  0  0
  -25.5925  -33.8554   24.2381 N   0  0  0  0  0  0
  -23.4094  -30.4847   21.5443 C   0  0  2  0  0  0
  -24.8639  -28.9545   20.1001 C   0  0  0  0  0  0
  -22.7458  -29.4567   22.4915 C   0  0  0  0  0  0
  -18.0252  -28.1347   22.8468 C   0  0  0  0  0  0
  -24.1442  -36.7217   23.2654 C   0  0  0  0  0  0
  -25.9450  -30.8136   21.3727 C   0  0  0  0  0  0
  -26.0244  -29.4494   20.7094 C   0  0  0  0  0  0
  -27.2135  -28.6796   20.7017 C   0  0  0  0  0  0
  -26.0607  -26.9332   19.4567 C   0  0  0  0  0  0
  -24.8809  -27.7033   19.4596 C   0  0  0  0  0  0
  -23.6219  -29.8196   20.1562 C   0  0  0  0  0  0
  -25.4071  -36.3065   24.0390 C   0  0  1  0  0  0
  -20.5846  -28.3606   23.1272 C   0  0  2  0  0  0
  -20.6695  -26.9331   22.5389 C   0  0  0  0  0  0
  -19.5721  -26.6377   21.5125 C   0  0  0  0  0  0
  -18.1908  -26.7909   22.1564 C   0  0  0  0  0  0
  -19.1508  -28.8796   23.2875 C   0  0  0  0  0  0
  -18.9430  -30.1389   23.8921 C   0  0  0  0  0  0
  -17.6451  -30.6559   24.0516 C   0  0  0  0  0  0
  -25.9011  -34.9415   23.5194 C   0  0  0  0  0  0
  -16.5321  -29.9049   23.6317 C   0  0  0  0  0  0
  -16.7241  -28.6441   23.0401 C   0  0  0  0  0  0
  -26.4531  -31.6543   25.0705 C   0  0  0  0  0  0
  -25.3815  -31.3602   26.1471 C   0  0  0  0  0  0
  -27.0331  -30.2968   24.6104 C   0  0  0  0  0  0
  -27.6190  -32.4206   25.7435 C   0  0  0  0  0  0
  -27.5575  -37.1761   24.8509 C   0  0  0  0  0  0
  -21.4165  -29.2956   22.3672 N   0  0  0  0  0  0
  -26.4251  -37.3761   23.9479 N   0  0  0  0  0  0
  -24.6745  -31.0718   22.0975 N   0  0  0  0  0  0
  -23.4237  -28.8123   23.2955 O   0  0  0  0  0  0
  -28.2737  -26.5013   20.2439 O   0  0  0  0  0  0
  -26.5564  -34.8894   22.4734 O   0  0  0  0  0  0
  -23.5350  -32.1345   23.7495 O   0  0  0  0  0  0
  -30.8051  -19.2076   20.8442 C   0  0  0  0  0  0
  -28.7436  -18.3707   21.7920 C   0  0  0  0  0  0
  -30.3107  -20.5339   20.8676 C   0  0  0  0  0  0
  -28.2537  -19.7059   21.8377 C   0  0  0  0  0  0
  -30.0538  -18.1054   21.3276 C   0  0  0  0  0  0
  -29.0353  -20.8203   21.4068 C   0  0  0  0  0  0
  -28.3356  -24.4664   21.7388 C   0  0  0  0  0  0
  -28.8278  -23.3357   20.9400 C   0  0  0  0  0  0
  -28.1464  -25.7822   21.4224 C   0  0  0  0  0  0
  -30.7493  -16.7561   21.4600 C   0  0  0  0  0  0
  -27.9300  -23.9571   23.0916 C   0  0  0  0  0  0
  -27.8523  -22.4533   22.8868 C   0  0  0  0  0  0
  -28.5993  -22.1869   21.6587 N   0  0  0  0  0  0
  -30.1185  -15.5967   21.1218 N   0  0  0  0  0  0
  -29.3701  -23.3956   19.8315 O   0  0  0  0  0  0
  -31.9260  -16.7860   21.8456 O   0  0  0  0  0  0
  -31.4532  -12.4222   19.1203 H   0  0  0  0  0  0
  -30.3133  -11.3417   19.8571 H   0  0  0  0  0  0
  -29.7204  -11.7389   17.4596 H   0  0  0  0  0  0
  -29.6667  -13.4610   17.7327 H   0  0  0  0  0  0
  -27.8069  -11.3231   18.8092 H   0  0  0  0  0  0
  -27.3634  -12.6591   17.7822 H   0  0  0  0  0  0
  -27.6895  -14.2634   19.5529 H   0  0  0  0  0  0
  -28.6890  -12.0203   21.3651 H   0  0  0  0  0  0
  -28.4606  -13.6791   21.8501 H   0  0  0  0  0  0
  -25.2779   -9.5701   22.4777 H   0  0  0  0  0  0
  -24.0037   -7.4638   22.7465 H   0  0  0  0  0  0
  -21.0882   -8.8821   19.8979 H   0  0  0  0  0  0
  -22.3748  -10.9690   19.6186 H   0  0  0  0  0  0
  -21.1892   -7.6136   23.9708 H   0  0  0  0  0  0
  -21.1451   -6.0524   25.9079 H   0  0  0  0  0  0
  -22.0609   -2.7634   23.2858 H   0  0  0  0  0  0
  -22.4068  -11.9935   22.4830 H   0  0  0  0  0  0
  -21.1085  -13.1286   22.2543 H   0  0  0  0  0  0
  -24.6596  -15.8486   20.4889 H   0  0  0  0  0  0
  -26.2785  -15.6262   20.0645 H   0  0  0  0  0  0
  -26.7104  -32.5441   23.1123 H   0  0  0  0  0  0
  -25.0189  -33.9675   25.0621 H   0  0  0  0  0  0
  -22.6915  -31.2956   21.4031 H   0  0  0  0  0  0
  -23.3739  -35.9506   23.3304 H   0  0  0  0  0  0
  -24.3573  -36.8801   22.2070 H   0  0  0  0  0  0
  -23.7121  -37.6412   23.6618 H   0  0  0  0  0  0
  -26.0804  -31.5840   20.6133 H   0  0  0  0  0  0
  -26.8236  -30.8511   22.0033 H   0  0  0  0  0  0
  -28.1013  -29.0480   21.1985 H   0  0  0  0  0  0
  -26.0569  -25.9548   18.9974 H   0  0  0  0  0  0
  -23.9924  -27.3327   18.9692 H   0  0  0  0  0  0
  -23.7215  -30.5930   19.3927 H   0  0  0  0  0  0
  -22.7488  -29.2342   19.8643 H   0  0  0  0  0  0
  -25.1227  -36.1930   25.0882 H   0  0  0  0  0  0
  -20.9929  -28.3134   24.1395 H   0  0  0  0  0  0
  -20.5414  -26.2231   23.3577 H   0  0  0  0  0  0
  -21.6590  -26.7251   22.1306 H   0  0  0  0  0  0
  -19.6869  -25.6274   21.1196 H   0  0  0  0  0  0
  -19.6731  -27.3125   20.6601 H   0  0  0  0  0  0
  -17.4185  -26.6587   21.3974 H   0  0  0  0  0  0
  -18.0375  -26.0034   22.8954 H   0  0  0  0  0  0
  -19.7910  -30.7133   24.2390 H   0  0  0  0  0  0
  -17.5018  -31.6264   24.5057 H   0  0  0  0  0  0
  -15.5330  -30.2962   23.7645 H   0  0  0  0  0  0
  -15.8634  -28.0714   22.7233 H   0  0  0  0  0  0
  -24.6162  -30.6714   25.7879 H   0  0  0  0  0  0
  -24.8724  -32.2639   26.4794 H   0  0  0  0  0  0
  -25.8242  -30.8987   27.0291 H   0  0  0  0  0  0
  -26.2809  -29.6732   24.1245 H   0  0  0  0  0  0
  -27.4150  -29.7247   25.4570 H   0  0  0  0  0  0
  -27.8668  -30.4253   23.9193 H   0  0  0  0  0  0
  -27.2977  -33.3585   26.1970 H   0  0  0  0  0  0
  -28.4036  -32.6605   25.0240 H   0  0  0  0  0  0
  -28.0799  -31.8282   26.5350 H   0  0  0  0  0  0
  -28.2623  -38.0038   24.7560 H   0  0  0  0  0  0
  -28.1024  -36.2570   24.6287 H   0  0  0  0  0  0
  -27.2325  -37.1388   25.8925 H   0  0  0  0  0  0
  -20.9345  -29.8719   21.6918 H   0  0  0  0  0  0
  -26.0148  -38.2837   24.1497 H   0  0  0  0  0  0
  -31.8164  -19.0342   20.5019 H   0  0  0  0  0  0
  -28.1347  -17.5641   22.1789 H   0  0  0  0  0  0
  -30.9573  -21.3401   20.5495 H   0  0  0  0  0  0
  -27.2719  -19.8659   22.2610 H   0  0  0  0  0  0
  -27.7315  -26.4195   22.1935 H   0  0  0  0  0  0
  -26.9802  -24.3830   23.4153 H   0  0  0  0  0  0
  -28.6974  -24.2107   23.8246 H   0  0  0  0  0  0
  -26.8194  -22.1370   22.7457 H   0  0  0  0  0  0
  -28.2556  -21.9203   23.7493 H   0  0  0  0  0  0
  -29.1148  -15.5867   21.1533 H   0  0  0  0  0  0
  1 25  1  0  0  0
  1 30  2  0  0  0
  1 84  1  0  0  0
  2  3  1  0  0  0
  2 25  1  0  0  0
  2 87  1  0  0  0
  2 88  1  0  0  0
  3  4  1  0  0  0
  3 89  1  0  0  0
  3 90  1  0  0  0
  4  5  1  0  0  0
  4 91  1  0  0  0
  4 92  1  0  0  0
  5  6  1  0  0  0
  5 26  1  0  0  0
  5 93  1  0  0  0
  6 25  1  0  0  0
  6 94  1  0  0  0
  6 95  1  0  0  0
  7  8  2  0  0  0
  7 26  1  0  0  0
  7 29  1  0  0  0
  8  9  1  0  0  0
  8 22  1  0  0  0
  9 10  1  0  0  0
  9 27  2  0  0  0
 10 11  2  0  0  0
 10 15  1  0  0  0
 11 12  1  0  0  0
 11 96  1  0  0  0
 12 13  2  0  0  0
 12 97  1  0  0  0
 13 14  1  0  0  0
 13 31  1  0  0  0
 14 15  2  0  0  0
 14 98  1  0  0  0
 15 99  1  0  0  0
 16 17  2  0  0  0
 16 21  1  0  0  0
 16 31  1  0  0  0
 17 18  1  0  0  0
 17100  1  0  0  0
 18 19  2  0  0  0
 18101  1  0  0  0
 19 20  1  0  0  0
 19 24  1  0  0  0
 20 21  2  0  0  0
 20102  1  0  0  0
 21 23  1  0  0  0
 22 28  1  0  0  0
 22 32  2  0  0  0
 26 27  1  0  0  0
 28103  1  0  0  0
 28104  1  0  0  0
 29105  1  0  0  0
 29106  1  0  0  0
 33 34  1  0  0  0
 33 66  1  0  0  0
 33 70  2  0  0  0
 34 36  1  0  0  0
 34 59  1  0  0  0
 34107  1  0  0  0
 35 44  2  0  0  0
 35 45  1  0  0  0
 35 68  1  0  0  0
 36 56  1  0  0  0
 36108  1  0  0  0
 37 39  1  0  0  0
 37 47  1  0  0  0
 37 66  1  0  0  0
 37109  1  0  0  0
 38 43  2  0  0  0
 38 46  1  0  0  0
 38 47  1  0  0  0
 39 64  1  0  0  0
 39 67  2  0  0  0
 40 52  1  0  0  0
 40 53  2  0  0  0
 40 58  1  0  0  0
 41110  1  0  0  0
 41111  1  0  0  0
 41112  1  0  0  0
 41 48  1  0  0  0
 42 43  1  0  0  0
 42 66  1  0  0  0
 42113  1  0  0  0
 42114  1  0  0  0
 43 44  1  0  0  0
 44115  1  0  0  0
 45 46  2  0  0  0
 45116  1  0  0  0
 46117  1  0  0  0
 47118  1  0  0  0
 47119  1  0  0  0
 48 56  1  0  0  0
 48 65  1  0  0  0
 48120  1  0  0  0
 49 50  1  0  0  0
 49 53  1  0  0  0
 49 64  1  0  0  0
 49121  1  0  0  0
 50 51  1  0  0  0
 50122  1  0  0  0
 50123  1  0  0  0
 51 52  1  0  0  0
 51124  1  0  0  0
 51125  1  0  0  0
 52126  1  0  0  0
 52127  1  0  0  0
 53 54  1  0  0  0
 54 55  2  0  0  0
 54128  1  0  0  0
 55 57  1  0  0  0
 55129  1  0  0  0
 56 69  2  0  0  0
 57 58  2  0  0  0
 57130  1  0  0  0
 58131  1  0  0  0
 59 60  1  0  0  0
 59 61  1  0  0  0
 59 62  1  0  0  0
 60132  1  0  0  0
 60133  1  0  0  0
 60134  1  0  0  0
 61135  1  0  0  0
 61136  1  0  0  0
 61137  1  0  0  0
 62138  1  0  0  0
 62139  1  0  0  0
 62140  1  0  0  0
 63 65  1  0  0  0
 63141  1  0  0  0
 63142  1  0  0  0
 63143  1  0  0  0
 64144  1  0  0  0
 65145  1  0  0  0
 68 79  1  0  0  0
 71 73  2  0  0  0
 71 75  1  0  0  0
 71146  1  0  0  0
 72 74  1  0  0  0
 72 75  2  0  0  0
 72147  1  0  0  0
 73 76  1  0  0  0
 73148  1  0  0  0
 74 76  2  0  0  0
 74149  1  0  0  0
 75 80  1  0  0  0
 76 83  1  0  0  0
 77 78  1  0  0  0
 77 79  2  0  0  0
 77 81  1  0  0  0
 78 83  1  0  0  0
 78 85  2  0  0  0
 79150  1  0  0  0
 80 84  1  0  0  0
 80 86  2  0  0  0
 81 82  1  0  0  0
 81151  1  0  0  0
 81152  1  0  0  0
 82 83  1  0  0  0
 82153  1  0  0  0
 82154  1  0  0  0
 84155  1  0  0  0
M  ISO  4   1 100  68 101  79 101  84 100
M  END
> <chiral flag>
0

> <version>
0

> <s_m_source_file>
/data/baiqing/PycharmProjects/Reinvent-master-3.2/result/LINK_invent/BTK/process_docking_weight1_custom_product_contain_oxygen_bond_distance_aromatic_linkinvent_7_9_3/rearranged_h_0085.sdf

> <i_m_source_file_index>
64

> <r_mmod_Potential_Energy-OPLS-2005>
118.380859375

> <r_mmod_Stretch_Energy-OPLS-2005>
54.3466529846191

> <r_mmod_Bend_Energy-OPLS-2005>
170.079513549805

> <r_mmod_Torsional_Energy-OPLS-2005>
309.057464599609

> <r_mmod_Improper_Torsional_Energy-OPLS-2005>
6.08104038238525

> <r_mmod_Van_der_Waal_Energy-OPLS-2005>
152.764785766602

> <r_mmod_Electrostatic_Energy-OPLS-2005>
-371.204132080078

> <r_mmod_Solvation_Energy-OPLS-2005>
-234.817825317383

> <b_mmod_Minimization_Converged-OPLS-2005>
0

> <r_mmod_RMS_Derivative-OPLS-2005>
4.85243797302246

$$$$
65
                    3D
 Structure written by MMmdl.
151159  0  0  1  0            999 V2000
  -30.6689  -14.5349   20.5259 C   0  0  0  0  0  0
  -30.4284  -12.3294   19.4411 C   0  0  0  0  0  0
  -29.5016  -12.4969   18.2171 C   0  0  0  0  0  0
  -28.0230  -12.3503   18.6286 C   0  0  0  0  0  0
  -27.6589  -13.2084   19.8698 C   0  0  2  0  0  0
  -28.7008  -13.0187   20.9958 C   0  0  0  0  0  0
  -25.2592  -13.8160   20.5698 C   0  0  0  0  0  0
  -24.1842  -13.0437   20.9186 C   0  0  0  0  0  0
  -24.6398  -11.6903   20.8743 C   0  0  0  0  0  0
  -23.9073  -10.4290   21.0417 C   0  0  0  0  0  0
  -24.3619   -9.4198   21.9194 C   0  0  0  0  0  0
  -23.6281   -8.2239   22.0759 C   0  0  0  0  0  0
  -22.4262   -8.0291   21.3550 C   0  0  0  0  0  0
  -21.9910   -9.0272   20.4650 C   0  0  0  0  0  0
  -22.7253  -10.2140   20.3058 C   0  0  0  0  0  0
  -21.6846   -6.0750   22.5289 C   0  0  0  0  0  0
  -21.4010   -6.5655   23.8226 C   0  0  0  0  0  0
  -21.3650   -5.6802   24.9190 C   0  0  0  0  0  0
  -21.6037   -4.3064   24.7233 C   0  0  0  0  0  0
  -21.8815   -3.8158   23.4353 C   0  0  0  0  0  0
  -21.9187   -4.6978   22.3410 C   0  0  0  0  0  0
  -22.7867  -13.5241   21.1844 C   0  0  0  0  0  0
  -22.1654   -4.2166   21.0985 F   0  0  0  0  0  0
  -21.5625   -3.4540   25.7741 F   0  0  0  0  0  0
  -30.0280  -13.3328   20.4420 N   0  0  0  0  0  0
  -26.3015  -12.9328   20.3344 N   0  0  0  0  0  0
  -25.9324  -11.6492   20.5762 N   0  0  0  0  0  0
  -22.0487  -12.8245   22.0390 N   0  0  0  0  0  0
  -25.4348  -15.1880   20.4165 N   0  0  0  0  0  0
  -31.8199  -14.6855   20.1085 O   0  0  0  0  0  0
  -21.6623   -6.8892   21.4249 O   0  0  0  0  0  0
  -22.3565  -14.5559   20.6703 O   0  0  0  0  0  0
  -24.6196  -31.8644   23.2067 C   0  0  0  0  0  0
  -25.9078  -32.4797   23.8376 C   0  0  1  0  0  0
  -27.2334  -27.4043   20.1034 C   0  0  0  0  0  0
  -25.5926  -33.8595   24.2316 N   0  0  0  0  0  0
  -23.4104  -30.4877   21.5466 C   0  0  2  0  0  0
  -24.8598  -28.9498   20.1099 C   0  0  0  0  0  0
  -22.7444  -29.4645   22.4961 C   0  0  0  0  0  0
  -18.0270  -28.1382   22.8483 C   0  0  0  0  0  0
  -24.1489  -36.7302   23.2637 C   0  0  0  0  0  0
  -25.9425  -30.8215   21.3639 C   0  0  0  0  0  0
  -26.0221  -29.4538   20.7103 C   0  0  0  0  0  0
  -27.2158  -28.6881   20.7060 C   0  0  0  0  0  0
  -26.0585  -26.9256   19.4903 C   0  0  0  0  0  0
  -24.8739  -27.6860   19.4951 C   0  0  0  0  0  0
  -23.6217  -29.8191   20.1612 C   0  0  0  0  0  0
  -25.4105  -36.3095   24.0343 C   0  0  1  0  0  0
  -20.5870  -28.3673   23.1305 C   0  0  2  0  0  0
  -20.6760  -26.9403   22.5417 C   0  0  0  0  0  0
  -19.5736  -26.6385   21.5216 C   0  0  0  0  0  0
  -18.1914  -26.7920   22.1622 C   0  0  0  0  0  0
  -19.1523  -28.8842   23.2889 C   0  0  0  0  0  0
  -18.9451  -30.1452   23.8892 C   0  0  0  0  0  0
  -17.6453  -30.6585   24.0563 C   0  0  0  0  0  0
  -25.9046  -34.9467   23.5125 C   0  0  0  0  0  0
  -16.5340  -29.9086   23.6333 C   0  0  0  0  0  0
  -16.7261  -28.6511   23.0335 C   0  0  0  0  0  0
  -26.4487  -31.6570   25.0712 C   0  0  0  0  0  0
  -25.3762  -31.3694   26.1478 C   0  0  0  0  0  0
  -27.0295  -30.2999   24.6094 C   0  0  0  0  0  0
  -27.6074  -32.4275   25.7464 C   0  0  0  0  0  0
  -27.5584  -37.1793   24.8457 C   0  0  0  0  0  0
  -21.4165  -29.3036   22.3707 N   0  0  0  0  0  0
  -26.4275  -37.3797   23.9437 N   0  0  0  0  0  0
  -24.6760  -31.0723   22.0975 N   0  0  0  0  0  0
  -23.4202  -28.8185   23.3015 O   0  0  0  0  0  0
  -28.3283  -26.5623   20.1520 O   0  0  0  0  0  0
  -26.5607  -34.8926   22.4685 O   0  0  0  0  0  0
  -23.5383  -32.1406   23.7445 O   0  0  0  0  0  0
  -31.0743  -18.9923   19.7286 C   0  0  0  0  0  0
  -28.8673  -19.2010   20.6882 C   0  0  0  0  0  0
  -31.1021  -17.6147   20.0547 C   0  0  0  0  0  0
  -28.8927  -17.8172   21.0144 C   0  0  0  0  0  0
  -29.9567  -19.8125   20.0205 C   0  0  0  0  0  0
  -29.9951  -16.9880   20.6819 C   0  0  0  0  0  0
  -28.5811  -24.2691   21.0933 C   0  0  0  0  0  0
  -28.2349  -25.5868   21.1319 C   0  0  0  0  0  0
  -29.9159  -21.2453   19.4966 C   0  0  0  0  0  0
  -29.1644  -23.5324   19.9708 C   0  0  0  0  0  0
  -29.9087  -15.5711   20.9663 N   0  0  0  0  0  0
  -29.3317  -22.2081   20.2543 N   0  0  0  0  0  0
  -30.4657  -21.4678   18.4110 O   0  0  0  0  0  0
  -29.4673  -24.0608   18.8949 O   0  0  0  0  0  0
  -31.4735  -12.4289   19.1435 H   0  0  0  0  0  0
  -30.3348  -11.3262   19.8598 H   0  0  0  0  0  0
  -29.7505  -11.7586   17.4536 H   0  0  0  0  0  0
  -29.6612  -13.4749   17.7604 H   0  0  0  0  0  0
  -27.8487  -11.2966   18.8474 H   0  0  0  0  0  0
  -27.3698  -12.5968   17.7912 H   0  0  0  0  0  0
  -27.6931  -14.2508   19.5521 H   0  0  0  0  0  0
  -28.6855  -11.9877   21.3526 H   0  0  0  0  0  0
  -28.4569  -13.6326   21.8640 H   0  0  0  0  0  0
  -25.2770   -9.5661   22.4770 H   0  0  0  0  0  0
  -23.9984   -7.4625   22.7480 H   0  0  0  0  0  0
  -21.0840   -8.8807   19.8954 H   0  0  0  0  0  0
  -22.3734  -10.9684   19.6158 H   0  0  0  0  0  0
  -21.1999   -7.6163   23.9739 H   0  0  0  0  0  0
  -21.1475   -6.0532   25.9095 H   0  0  0  0  0  0
  -22.0597   -2.7622   23.2851 H   0  0  0  0  0  0
  -22.4066  -11.9885   22.4761 H   0  0  0  0  0  0
  -21.1114  -13.1301   22.2598 H   0  0  0  0  0  0
  -24.6752  -15.8480   20.5400 H   0  0  0  0  0  0
  -26.2931  -15.6258   20.1058 H   0  0  0  0  0  0
  -26.7151  -32.5496   23.1140 H   0  0  0  0  0  0
  -25.0105  -33.9736   25.0482 H   0  0  0  0  0  0
  -22.7014  -31.3065   21.4047 H   0  0  0  0  0  0
  -23.3766  -35.9612   23.3243 H   0  0  0  0  0  0
  -24.3618  -36.8973   22.2064 H   0  0  0  0  0  0
  -23.7206  -37.6479   23.6681 H   0  0  0  0  0  0
  -26.0596  -31.5847   20.5935 H   0  0  0  0  0  0
  -26.8301  -30.8756   21.9821 H   0  0  0  0  0  0
  -28.1085  -29.0617   21.1885 H   0  0  0  0  0  0
  -26.0588  -25.9468   19.0313 H   0  0  0  0  0  0
  -23.9810  -27.2890   19.0319 H   0  0  0  0  0  0
  -23.7324  -30.5942   19.4020 H   0  0  0  0  0  0
  -22.7452  -29.2408   19.8629 H   0  0  0  0  0  0
  -25.1270  -36.1944   25.0830 H   0  0  0  0  0  0
  -20.9956  -28.3229   24.1429 H   0  0  0  0  0  0
  -20.5661  -26.2278   23.3607 H   0  0  0  0  0  0
  -21.6626  -26.7437   22.1207 H   0  0  0  0  0  0
  -19.6898  -25.6304   21.1223 H   0  0  0  0  0  0
  -19.6673  -27.3213   20.6761 H   0  0  0  0  0  0
  -17.4190  -26.6676   21.4015 H   0  0  0  0  0  0
  -18.0304  -26.0058   22.9011 H   0  0  0  0  0  0
  -19.7939  -30.7264   24.2241 H   0  0  0  0  0  0
  -17.5022  -31.6261   24.5168 H   0  0  0  0  0  0
  -15.5347  -30.2990   23.7671 H   0  0  0  0  0  0
  -15.8655  -28.0851   22.7024 H   0  0  0  0  0  0
  -24.5904  -30.7066   25.7838 H   0  0  0  0  0  0
  -24.8991  -32.2852   26.4972 H   0  0  0  0  0  0
  -25.8131  -30.8833   27.0209 H   0  0  0  0  0  0
  -26.2821  -29.6764   24.1170 H   0  0  0  0  0  0
  -27.4077  -29.7235   25.4549 H   0  0  0  0  0  0
  -27.8665  -30.4298   23.9231 H   0  0  0  0  0  0
  -27.2721  -33.3599   26.2014 H   0  0  0  0  0  0
  -28.3900  -32.6779   25.0289 H   0  0  0  0  0  0
  -28.0710  -31.8397   26.5395 H   0  0  0  0  0  0
  -28.2562  -38.0132   24.7574 H   0  0  0  0  0  0
  -28.1119  -36.2672   24.6172 H   0  0  0  0  0  0
  -27.2329  -37.1306   25.8864 H   0  0  0  0  0  0
  -20.9326  -29.8792   21.6954 H   0  0  0  0  0  0
  -26.0154  -38.2863   24.1476 H   0  0  0  0  0  0
  -31.9247  -19.4172   19.2132 H   0  0  0  0  0  0
  -27.9814  -19.7769   20.9163 H   0  0  0  0  0  0
  -31.9854  -17.0576   19.7815 H   0  0  0  0  0  0
  -28.0268  -17.3877   21.4996 H   0  0  0  0  0  0
  -28.3957  -23.7183   22.0040 H   0  0  0  0  0  0
  -27.8091  -25.9957   22.0388 H   0  0  0  0  0  0
  -29.0314  -15.2718   21.3632 H   0  0  0  0  0  0
  -29.0002  -21.8979   21.1530 H   0  0  0  0  0  0
  1 25  1  0  0  0
  1 30  2  0  0  0
  1 81  1  0  0  0
  2  3  1  0  0  0
  2 25  1  0  0  0
  2 85  1  0  0  0
  2 86  1  0  0  0
  3  4  1  0  0  0
  3 87  1  0  0  0
  3 88  1  0  0  0
  4  5  1  0  0  0
  4 89  1  0  0  0
  4 90  1  0  0  0
  5  6  1  0  0  0
  5 26  1  0  0  0
  5 91  1  0  0  0
  6 25  1  0  0  0
  6 92  1  0  0  0
  6 93  1  0  0  0
  7  8  2  0  0  0
  7 26  1  0  0  0
  7 29  1  0  0  0
  8  9  1  0  0  0
  8 22  1  0  0  0
  9 10  1  0  0  0
  9 27  2  0  0  0
 10 11  2  0  0  0
 10 15  1  0  0  0
 11 12  1  0  0  0
 11 94  1  0  0  0
 12 13  2  0  0  0
 12 95  1  0  0  0
 13 14  1  0  0  0
 13 31  1  0  0  0
 14 15  2  0  0  0
 14 96  1  0  0  0
 15 97  1  0  0  0
 16 17  2  0  0  0
 16 21  1  0  0  0
 16 31  1  0  0  0
 17 18  1  0  0  0
 17 98  1  0  0  0
 18 19  2  0  0  0
 18 99  1  0  0  0
 19 20  1  0  0  0
 19 24  1  0  0  0
 20 21  2  0  0  0
 20100  1  0  0  0
 21 23  1  0  0  0
 22 28  1  0  0  0
 22 32  2  0  0  0
 26 27  1  0  0  0
 28101  1  0  0  0
 28102  1  0  0  0
 29103  1  0  0  0
 29104  1  0  0  0
 33 34  1  0  0  0
 33 66  1  0  0  0
 33 70  2  0  0  0
 34 36  1  0  0  0
 34 59  1  0  0  0
 34105  1  0  0  0
 35 44  2  0  0  0
 35 45  1  0  0  0
 35 68  1  0  0  0
 36 56  1  0  0  0
 36106  1  0  0  0
 37 39  1  0  0  0
 37 47  1  0  0  0
 37 66  1  0  0  0
 37107  1  0  0  0
 38 43  2  0  0  0
 38 46  1  0  0  0
 38 47  1  0  0  0
 39 64  1  0  0  0
 39 67  2  0  0  0
 40 52  1  0  0  0
 40 53  2  0  0  0
 40 58  1  0  0  0
 41108  1  0  0  0
 41109  1  0  0  0
 41110  1  0  0  0
 41 48  1  0  0  0
 42 43  1  0  0  0
 42 66  1  0  0  0
 42111  1  0  0  0
 42112  1  0  0  0
 43 44  1  0  0  0
 44113  1  0  0  0
 45 46  2  0  0  0
 45114  1  0  0  0
 46115  1  0  0  0
 47116  1  0  0  0
 47117  1  0  0  0
 48 56  1  0  0  0
 48 65  1  0  0  0
 48118  1  0  0  0
 49 50  1  0  0  0
 49 53  1  0  0  0
 49 64  1  0  0  0
 49119  1  0  0  0
 50 51  1  0  0  0
 50120  1  0  0  0
 50121  1  0  0  0
 51 52  1  0  0  0
 51122  1  0  0  0
 51123  1  0  0  0
 52124  1  0  0  0
 52125  1  0  0  0
 53 54  1  0  0  0
 54 55  2  0  0  0
 54126  1  0  0  0
 55 57  1  0  0  0
 55127  1  0  0  0
 56 69  2  0  0  0
 57 58  2  0  0  0
 57128  1  0  0  0
 58129  1  0  0  0
 59 60  1  0  0  0
 59 61  1  0  0  0
 59 62  1  0  0  0
 60130  1  0  0  0
 60131  1  0  0  0
 60132  1  0  0  0
 61133  1  0  0  0
 61134  1  0  0  0
 61135  1  0  0  0
 62136  1  0  0  0
 62137  1  0  0  0
 62138  1  0  0  0
 63 65  1  0  0  0
 63139  1  0  0  0
 63140  1  0  0  0
 63141  1  0  0  0
 64142  1  0  0  0
 65143  1  0  0  0
 68 78  1  0  0  0
 71 73  2  0  0  0
 71 75  1  0  0  0
 71144  1  0  0  0
 72 74  1  0  0  0
 72 75  2  0  0  0
 72145  1  0  0  0
 73 76  1  0  0  0
 73146  1  0  0  0
 74 76  2  0  0  0
 74147  1  0  0  0
 75 79  1  0  0  0
 76 81  1  0  0  0
 77 78  2  0  0  0
 77 80  1  0  0  0
 77148  1  0  0  0
 78149  1  0  0  0
 79 82  1  0  0  0
 79 83  2  0  0  0
 80 82  1  0  0  0
 80 84  2  0  0  0
 81150  1  0  0  0
 82151  1  0  0  0
M  ISO  4   1 100  68 101  78 101  81 100
M  END
> <chiral flag>
0

> <version>
0

> <s_m_source_file>
/data/baiqing/PycharmProjects/Reinvent-master-3.2/result/LINK_invent/BTK/process_docking_weight1_custom_product_contain_oxygen_bond_distance_aromatic_linkinvent_7_9_3/rearranged_h_0085.sdf

> <i_m_source_file_index>
65

> <r_mmod_Potential_Energy-OPLS-2005>
-126.637298583984

> <r_mmod_Stretch_Energy-OPLS-2005>
47.7020263671875

> <r_mmod_Bend_Energy-OPLS-2005>
122.66480255127

> <r_mmod_Torsional_Energy-OPLS-2005>
235.770004272461

> <r_mmod_Improper_Torsional_Energy-OPLS-2005>
4.65158271789551

> <r_mmod_Van_der_Waal_Energy-OPLS-2005>
154.391845703125

> <r_mmod_Electrostatic_Energy-OPLS-2005>
-436.145172119141

> <r_mmod_Solvation_Energy-OPLS-2005>
-279.576538085938

> <b_mmod_Minimization_Converged-OPLS-2005>
0

> <r_mmod_RMS_Derivative-OPLS-2005>
1.27324020862579

$$$$
66
                    3D
 Structure written by MMmdl.
155164  0  0  1  0            999 V2000
  -30.5599  -14.8810   20.3953 C   0  0  0  0  0  0
  -30.4378  -12.5262   19.5077 C   0  0  0  0  0  0
  -29.5236  -12.4771   18.2615 C   0  0  0  0  0  0
  -28.0478  -12.3142   18.6666 C   0  0  0  0  0  0
  -27.6354  -13.2442   19.8389 C   0  0  2  0  0  0
  -28.6753  -13.2487   20.9796 C   0  0  0  0  0  0
  -25.2486  -13.8227   20.5686 C   0  0  0  0  0  0
  -24.1793  -13.0460   20.9215 C   0  0  0  0  0  0
  -24.6403  -11.6943   20.8748 C   0  0  0  0  0  0
  -23.9080  -10.4307   21.0408 C   0  0  0  0  0  0
  -24.3623   -9.4218   21.9189 C   0  0  0  0  0  0
  -23.6300   -8.2247   22.0748 C   0  0  0  0  0  0
  -22.4280   -8.0291   21.3540 C   0  0  0  0  0  0
  -21.9913   -9.0267   20.4644 C   0  0  0  0  0  0
  -22.7247  -10.2143   20.3064 C   0  0  0  0  0  0
  -21.6858   -6.0744   22.5281 C   0  0  0  0  0  0
  -21.4015   -6.5637   23.8218 C   0  0  0  0  0  0
  -21.3660   -5.6788   24.9181 C   0  0  0  0  0  0
  -21.6039   -4.3048   24.7223 C   0  0  0  0  0  0
  -21.8821   -3.8151   23.4344 C   0  0  0  0  0  0
  -21.9190   -4.6972   22.3403 C   0  0  0  0  0  0
  -22.7807  -13.5220   21.1886 C   0  0  0  0  0  0
  -22.1663   -4.2158   21.0981 F   0  0  0  0  0  0
  -21.5629   -3.4533   25.7734 F   0  0  0  0  0  0
  -29.9635  -13.6277   20.3891 N   0  0  0  0  0  0
  -26.2918  -12.9453   20.3236 N   0  0  0  0  0  0
  -25.9335  -11.6592   20.5745 N   0  0  0  0  0  0
  -22.0447  -12.8209   22.0431 N   0  0  0  0  0  0
  -25.4162  -15.1958   20.4110 N   0  0  0  0  0  0
  -31.7614  -14.9445   20.1165 O   0  0  0  0  0  0
  -21.6641   -6.8886   21.4241 O   0  0  0  0  0  0
  -22.3483  -14.5528   20.6744 O   0  0  0  0  0  0
  -24.6406  -31.8466   23.1922 C   0  0  0  0  0  0
  -25.9203  -32.4698   23.8284 C   0  0  1  0  0  0
  -27.2113  -27.1731   20.1502 C   0  0  0  0  0  0
  -25.5964  -33.8498   24.2208 N   0  0  0  0  0  0
  -23.4406  -30.4689   21.5371 C   0  0  2  0  0  0
  -24.8892  -28.9028   20.1093 C   0  0  0  0  0  0
  -22.7552  -29.4554   22.4865 C   0  0  0  0  0  0
  -18.0312  -28.1385   22.8463 C   0  0  0  0  0  0
  -24.1495  -36.7254   23.2634 C   0  0  0  0  0  0
  -25.9943  -30.7320   21.3861 C   0  0  0  0  0  0
  -26.0650  -29.3455   20.7307 C   0  0  0  0  0  0
  -27.2299  -28.4943   20.7396 C   0  0  0  0  0  0
  -26.0171  -26.8284   19.4813 C   0  0  0  0  0  0
  -24.8750  -27.6544   19.4704 C   0  0  0  0  0  0
  -23.6651  -29.8030   20.1538 C   0  0  0  0  0  0
  -25.4121  -36.3025   24.0311 C   0  0  1  0  0  0
  -20.5916  -28.3699   23.1234 C   0  0  2  0  0  0
  -20.6787  -26.9403   22.5401 C   0  0  0  0  0  0
  -19.5768  -26.6372   21.5197 C   0  0  0  0  0  0
  -18.1951  -26.7926   22.1610 C   0  0  0  0  0  0
  -19.1565  -28.8860   23.2842 C   0  0  0  0  0  0
  -18.9475  -30.1459   23.8868 C   0  0  0  0  0  0
  -17.6470  -30.6574   24.0567 C   0  0  0  0  0  0
  -25.9068  -34.9403   23.5067 C   0  0  0  0  0  0
  -16.5365  -29.9068   23.6335 C   0  0  0  0  0  0
  -16.7299  -28.6494   23.0341 C   0  0  0  0  0  0
  -26.4545  -31.6548   25.0705 C   0  0  0  0  0  0
  -25.3753  -31.3729   26.1419 C   0  0  0  0  0  0
  -27.0400  -30.2940   24.6259 C   0  0  0  0  0  0
  -27.6078  -32.4304   25.7501 C   0  0  0  0  0  0
  -27.5577  -37.1781   24.8460 C   0  0  0  0  0  0
  -21.4248  -29.3039   22.3612 N   0  0  0  0  0  0
  -26.4283  -37.3736   23.9409 N   0  0  0  0  0  0
  -24.7110  -31.0357   22.0942 N   0  0  0  0  0  0
  -23.4224  -28.8105   23.2990 O   0  0  0  0  0  0
  -28.2410  -26.1763   20.1962 O   0  0  0  0  0  0
  -26.5642  -34.8904   22.4639 O   0  0  0  0  0  0
  -23.5532  -32.1332   23.7160 O   0  0  0  0  0  0
  -29.8823  -19.9990   18.5398 C   0  0  0  0  0  0
  -29.4603  -18.7374   20.5191 C   0  0  0  0  0  0
  -30.1363  -17.5390   18.4976 C   0  0  0  0  0  0
  -29.4570  -20.0850   19.8844 C   0  0  0  0  0  0
  -30.1931  -18.8058   17.8618 C   0  0  0  0  0  0
  -29.8335  -17.4399   19.8913 C   0  0  0  0  0  0
  -28.4582  -23.5251   20.4188 C   0  0  0  0  0  0
  -27.9475  -22.1996   20.8406 C   0  0  0  0  0  0
  -27.8855  -24.8131   20.5610 C   0  0  0  0  0  0
  -29.6751  -22.7767   19.8093 C   0  0  0  0  0  0
  -30.3155  -16.2902   17.6329 C   0  0  0  0  0  0
  -29.0942  -21.4942   20.3617 N   0  0  0  0  0  0
  -30.5352  -18.9240   16.5112 N   0  0  0  0  0  0
  -29.7764  -16.0533   20.5400 N   0  0  0  0  0  0
  -26.8713  -21.8890   21.3071 O   0  0  0  0  0  0
  -31.4763  -12.6584   19.2012 H   0  0  0  0  0  0
  -30.4067  -11.5777   20.0455 H   0  0  0  0  0  0
  -29.8217  -11.6535   17.6116 H   0  0  0  0  0  0
  -29.6490  -13.3804   17.6675 H   0  0  0  0  0  0
  -27.9079  -11.2713   18.9573 H   0  0  0  0  0  0
  -27.3984  -12.4807   17.8066 H   0  0  0  0  0  0
  -27.6089  -14.2505   19.4216 H   0  0  0  0  0  0
  -28.7380  -12.2703   21.4586 H   0  0  0  0  0  0
  -28.3880  -13.9570   21.7586 H   0  0  0  0  0  0
  -25.2773   -9.5695   22.4761 H   0  0  0  0  0  0
  -24.0020   -7.4625   22.7460 H   0  0  0  0  0  0
  -21.0849   -8.8803   19.8934 H   0  0  0  0  0  0
  -22.3729  -10.9689   19.6175 H   0  0  0  0  0  0
  -21.2005   -7.6145   23.9729 H   0  0  0  0  0  0
  -21.1481   -6.0515   25.9081 H   0  0  0  0  0  0
  -22.0594   -2.7615   23.2853 H   0  0  0  0  0  0
  -22.4047  -11.9873   22.4834 H   0  0  0  0  0  0
  -21.1067  -13.1237   22.2628 H   0  0  0  0  0  0
  -24.6457  -15.8485   20.5140 H   0  0  0  0  0  0
  -26.2653  -15.6375   20.0808 H   0  0  0  0  0  0
  -26.7267  -32.5337   23.1016 H   0  0  0  0  0  0
  -25.0140  -33.9613   25.0374 H   0  0  0  0  0  0
  -22.7417  -31.2947   21.3877 H   0  0  0  0  0  0
  -23.3753  -35.9587   23.3275 H   0  0  0  0  0  0
  -24.3591  -36.8902   22.2054 H   0  0  0  0  0  0
  -23.7252  -37.6445   23.6691 H   0  0  0  0  0  0
  -26.1456  -31.4885   20.6132 H   0  0  0  0  0  0
  -26.8658  -30.7839   22.0263 H   0  0  0  0  0  0
  -28.1244  -28.8229   21.2501 H   0  0  0  0  0  0
  -25.9465  -25.8699   18.9877 H   0  0  0  0  0  0
  -23.9787  -27.3128   18.9711 H   0  0  0  0  0  0
  -23.8031  -30.5820   19.4021 H   0  0  0  0  0  0
  -22.7801  -29.2470   19.8412 H   0  0  0  0  0  0
  -25.1304  -36.1853   25.0797 H   0  0  0  0  0  0
  -21.0014  -28.3296   24.1350 H   0  0  0  0  0  0
  -20.5642  -26.2318   23.3612 H   0  0  0  0  0  0
  -21.6661  -26.7396   22.1212 H   0  0  0  0  0  0
  -19.6915  -25.6277   21.1237 H   0  0  0  0  0  0
  -19.6696  -27.3180   20.6715 H   0  0  0  0  0  0
  -17.4209  -26.6652   21.4031 H   0  0  0  0  0  0
  -18.0358  -26.0081   22.9011 H   0  0  0  0  0  0
  -19.7956  -30.7289   24.2206 H   0  0  0  0  0  0
  -17.5028  -31.6252   24.5179 H   0  0  0  0  0  0
  -15.5367  -30.2961   23.7659 H   0  0  0  0  0  0
  -15.8704  -28.0813   22.7043 H   0  0  0  0  0  0
  -24.5937  -30.7057   25.7766 H   0  0  0  0  0  0
  -24.8943  -32.2912   26.4797 H   0  0  0  0  0  0
  -25.8057  -30.8953   27.0229 H   0  0  0  0  0  0
  -26.3004  -29.6659   24.1270 H   0  0  0  0  0  0
  -27.4034  -29.7229   25.4813 H   0  0  0  0  0  0
  -27.8914  -30.4166   23.9554 H   0  0  0  0  0  0
  -27.2665  -33.3615   26.2036 H   0  0  0  0  0  0
  -28.3927  -32.6829   25.0361 H   0  0  0  0  0  0
  -28.0713  -31.8458   26.5458 H   0  0  0  0  0  0
  -28.2571  -38.0098   24.7525 H   0  0  0  0  0  0
  -28.1098  -36.2632   24.6267 H   0  0  0  0  0  0
  -27.2308  -37.1410   25.8863 H   0  0  0  0  0  0
  -20.9434  -29.8783   21.6830 H   0  0  0  0  0  0
  -26.0149  -38.2795   24.1424 H   0  0  0  0  0  0
  -29.9287  -20.8986   17.9484 H   0  0  0  0  0  0
  -29.1634  -18.6984   21.5580 H   0  0  0  0  0  0
  -26.9422  -24.8374   21.0887 H   0  0  0  0  0  0
  -30.6551  -22.9843   20.2399 H   0  0  0  0  0  0
  -29.7390  -22.8232   18.7231 H   0  0  0  0  0  0
  -30.1706  -16.4661   16.5683 H   0  0  0  0  0  0
  -29.5653  -15.5509   17.8964 H   0  0  0  0  0  0
  -31.3124  -15.8680   17.7538 H   0  0  0  0  0  0
  -30.2712  -19.7693   16.0146 H   0  0  0  0  0  0
  -30.4919  -18.0976   15.9245 H   0  0  0  0  0  0
  -28.9107  -15.8731   21.0266 H   0  0  0  0  0  0
  1 25  1  0  0  0
  1 30  2  0  0  0
  1 84  1  0  0  0
  2  3  1  0  0  0
  2 25  1  0  0  0
  2 86  1  0  0  0
  2 87  1  0  0  0
  3  4  1  0  0  0
  3 88  1  0  0  0
  3 89  1  0  0  0
  4  5  1  0  0  0
  4 90  1  0  0  0
  4 91  1  0  0  0
  5  6  1  0  0  0
  5 26  1  0  0  0
  5 92  1  0  0  0
  6 25  1  0  0  0
  6 93  1  0  0  0
  6 94  1  0  0  0
  7  8  2  0  0  0
  7 26  1  0  0  0
  7 29  1  0  0  0
  8  9  1  0  0  0
  8 22  1  0  0  0
  9 10  1  0  0  0
  9 27  2  0  0  0
 10 11  2  0  0  0
 10 15  1  0  0  0
 11 12  1  0  0  0
 11 95  1  0  0  0
 12 13  2  0  0  0
 12 96  1  0  0  0
 13 14  1  0  0  0
 13 31  1  0  0  0
 14 15  2  0  0  0
 14 97  1  0  0  0
 15 98  1  0  0  0
 16 17  2  0  0  0
 16 21  1  0  0  0
 16 31  1  0  0  0
 17 18  1  0  0  0
 17 99  1  0  0  0
 18 19  2  0  0  0
 18100  1  0  0  0
 19 20  1  0  0  0
 19 24  1  0  0  0
 20 21  2  0  0  0
 20101  1  0  0  0
 21 23  1  0  0  0
 22 28  1  0  0  0
 22 32  2  0  0  0
 26 27  1  0  0  0
 28102  1  0  0  0
 28103  1  0  0  0
 29104  1  0  0  0
 29105  1  0  0  0
 33 34  1  0  0  0
 33 66  1  0  0  0
 33 70  2  0  0  0
 34 36  1  0  0  0
 34 59  1  0  0  0
 34106  1  0  0  0
 35 44  2  0  0  0
 35 45  1  0  0  0
 35 68  1  0  0  0
 36 56  1  0  0  0
 36107  1  0  0  0
 37 39  1  0  0  0
 37 47  1  0  0  0
 37 66  1  0  0  0
 37108  1  0  0  0
 38 43  2  0  0  0
 38 46  1  0  0  0
 38 47  1  0  0  0
 39 64  1  0  0  0
 39 67  2  0  0  0
 40 52  1  0  0  0
 40 53  2  0  0  0
 40 58  1  0  0  0
 41109  1  0  0  0
 41110  1  0  0  0
 41111  1  0  0  0
 41 48  1  0  0  0
 42 43  1  0  0  0
 42 66  1  0  0  0
 42112  1  0  0  0
 42113  1  0  0  0
 43 44  1  0  0  0
 44114  1  0  0  0
 45 46  2  0  0  0
 45115  1  0  0  0
 46116  1  0  0  0
 47117  1  0  0  0
 47118  1  0  0  0
 48 56  1  0  0  0
 48 65  1  0  0  0
 48119  1  0  0  0
 49 50  1  0  0  0
 49 53  1  0  0  0
 49 64  1  0  0  0
 49120  1  0  0  0
 50 51  1  0  0  0
 50121  1  0  0  0
 50122  1  0  0  0
 51 52  1  0  0  0
 51123  1  0  0  0
 51124  1  0  0  0
 52125  1  0  0  0
 52126  1  0  0  0
 53 54  1  0  0  0
 54 55  2  0  0  0
 54127  1  0  0  0
 55 57  1  0  0  0
 55128  1  0  0  0
 56 69  2  0  0  0
 57 58  2  0  0  0
 57129  1  0  0  0
 58130  1  0  0  0
 59 60  1  0  0  0
 59 61  1  0  0  0
 59 62  1  0  0  0
 60131  1  0  0  0
 60132  1  0  0  0
 60133  1  0  0  0
 61134  1  0  0  0
 61135  1  0  0  0
 61136  1  0  0  0
 62137  1  0  0  0
 62138  1  0  0  0
 62139  1  0  0  0
 63 65  1  0  0  0
 63140  1  0  0  0
 63141  1  0  0  0
 63142  1  0  0  0
 64143  1  0  0  0
 65144  1  0  0  0
 68 79  1  0  0  0
 71 74  2  0  0  0
 71 75  1  0  0  0
 71145  1  0  0  0
 72 74  1  0  0  0
 72 76  2  0  0  0
 72146  1  0  0  0
 73 75  2  0  0  0
 73 76  1  0  0  0
 73 81  1  0  0  0
 74 82  1  0  0  0
 75 83  1  0  0  0
 76 84  1  0  0  0
 77 78  1  0  0  0
 77 79  2  0  0  0
 77 80  1  0  0  0
 78 82  1  0  0  0
 78 85  2  0  0  0
 79147  1  0  0  0
 80 82  1  0  0  0
 80148  1  0  0  0
 80149  1  0  0  0
 81150  1  0  0  0
 81151  1  0  0  0
 81152  1  0  0  0
 83153  1  0  0  0
 83154  1  0  0  0
 84155  1  0  0  0
M  ISO  4   1 100  68 101  79 101  84 100
M  END
> <chiral flag>
0

> <version>
0

> <s_m_source_file>
/data/baiqing/PycharmProjects/Reinvent-master-3.2/result/LINK_invent/BTK/process_docking_weight1_custom_product_contain_oxygen_bond_distance_aromatic_linkinvent_7_9_3/rearranged_h_0085.sdf

> <i_m_source_file_index>
66

> <r_mmod_Potential_Energy-OPLS-2005>
473.480621337891

> <r_mmod_Stretch_Energy-OPLS-2005>
195.459350585938

> <r_mmod_Bend_Energy-OPLS-2005>
280.982208251953

> <r_mmod_Torsional_Energy-OPLS-2005>
270.447570800781

> <r_mmod_Improper_Torsional_Energy-OPLS-2005>
10.9665222167969

> <r_mmod_Van_der_Waal_Energy-OPLS-2005>
145.672592163086

> <r_mmod_Electrostatic_Energy-OPLS-2005>
-356.238159179688

> <r_mmod_Solvation_Energy-OPLS-2005>
-233.365524291992

> <b_mmod_Minimization_Converged-OPLS-2005>
0

> <r_mmod_RMS_Derivative-OPLS-2005>
2.3630747795105

$$$$
67
                    3D
 Structure written by MMmdl.
156165  0  0  1  0            999 V2000
  -30.7622  -14.4273   20.5020 C   0  0  0  0  0  0
  -30.3979  -12.2593   19.4494 C   0  0  0  0  0  0
  -29.4928  -12.4686   18.2183 C   0  0  0  0  0  0
  -28.0122  -12.3555   18.6251 C   0  0  0  0  0  0
  -27.6574  -13.2158   19.8687 C   0  0  2  0  0  0
  -28.6989  -13.0498   21.0024 C   0  0  0  0  0  0
  -25.2563  -13.8184   20.5683 C   0  0  0  0  0  0
  -24.1828  -13.0451   20.9197 C   0  0  0  0  0  0
  -24.6391  -11.6920   20.8747 C   0  0  0  0  0  0
  -23.9062  -10.4299   21.0409 C   0  0  0  0  0  0
  -24.3614   -9.4213   21.9184 C   0  0  0  0  0  0
  -23.6291   -8.2247   22.0754 C   0  0  0  0  0  0
  -22.4273   -8.0284   21.3546 C   0  0  0  0  0  0
  -21.9909   -9.0257   20.4650 C   0  0  0  0  0  0
  -22.7235  -10.2138   20.3060 C   0  0  0  0  0  0
  -21.6853   -6.0735   22.5278 C   0  0  0  0  0  0
  -21.4014   -6.5638   23.8211 C   0  0  0  0  0  0
  -21.3660   -5.6790   24.9172 C   0  0  0  0  0  0
  -21.6043   -4.3053   24.7224 C   0  0  0  0  0  0
  -21.8818   -3.8147   23.4345 C   0  0  0  0  0  0
  -21.9193   -4.6963   22.3402 C   0  0  0  0  0  0
  -22.7847  -13.5244   21.1847 C   0  0  0  0  0  0
  -22.1661   -4.2148   21.0979 F   0  0  0  0  0  0
  -21.5631   -3.4538   25.7739 F   0  0  0  0  0  0
  -30.0355  -13.2826   20.4424 N   0  0  0  0  0  0
  -26.3003  -12.9376   20.3345 N   0  0  0  0  0  0
  -25.9323  -11.6529   20.5782 N   0  0  0  0  0  0
  -22.0478  -12.8240   22.0398 N   0  0  0  0  0  0
  -25.4275  -15.1900   20.4059 N   0  0  0  0  0  0
  -31.9297  -14.5047   20.1077 O   0  0  0  0  0  0
  -21.6641   -6.8878   21.4239 O   0  0  0  0  0  0
  -22.3540  -14.5551   20.6691 O   0  0  0  0  0  0
  -24.6128  -31.8713   23.2150 C   0  0  0  0  0  0
  -25.9037  -32.4838   23.8426 C   0  0  1  0  0  0
  -27.2210  -27.4500   20.0944 C   0  0  0  0  0  0
  -25.5903  -33.8637   24.2352 N   0  0  0  0  0  0
  -23.3987  -30.4986   21.5550 C   0  0  2  0  0  0
  -24.8433  -28.9774   20.1085 C   0  0  0  0  0  0
  -22.7404  -29.4674   22.4996 C   0  0  0  0  0  0
  -18.0271  -28.1372   22.8495 C   0  0  0  0  0  0
  -24.1487  -36.7324   23.2637 C   0  0  0  0  0  0
  -25.9278  -30.8402   21.3697 C   0  0  0  0  0  0
  -26.0024  -29.4779   20.7154 C   0  0  0  0  0  0
  -27.1938  -28.7179   20.7146 C   0  0  0  0  0  0
  -26.0541  -26.9864   19.4407 C   0  0  0  0  0  0
  -24.8627  -27.7289   19.4683 C   0  0  0  0  0  0
  -23.6052  -29.8408   20.1655 C   0  0  0  0  0  0
  -25.4105  -36.3122   24.0340 C   0  0  1  0  0  0
  -20.5863  -28.3658   23.1320 C   0  0  2  0  0  0
  -20.6764  -26.9396   22.5416 C   0  0  0  0  0  0
  -19.5742  -26.6383   21.5212 C   0  0  0  0  0  0
  -18.1919  -26.7920   22.1623 C   0  0  0  0  0  0
  -19.1522  -28.8831   23.2905 C   0  0  0  0  0  0
  -18.9449  -30.1440   23.8912 C   0  0  0  0  0  0
  -17.6452  -30.6580   24.0564 C   0  0  0  0  0  0
  -25.9032  -34.9485   23.5138 C   0  0  0  0  0  0
  -16.5343  -29.9082   23.6323 C   0  0  0  0  0  0
  -16.7262  -28.6499   23.0345 C   0  0  0  0  0  0
  -26.4473  -31.6609   25.0744 C   0  0  0  0  0  0
  -25.3746  -31.3708   26.1498 C   0  0  0  0  0  0
  -27.0303  -30.3057   24.6106 C   0  0  0  0  0  0
  -27.6057  -32.4321   25.7496 C   0  0  0  0  0  0
  -27.5579  -37.1816   24.8463 C   0  0  0  0  0  0
  -21.4136  -29.3032   22.3735 N   0  0  0  0  0  0
  -26.4294  -37.3801   23.9406 N   0  0  0  0  0  0
  -24.6645  -31.0834   22.1049 N   0  0  0  0  0  0
  -23.4190  -28.8204   23.3019 O   0  0  0  0  0  0
  -28.3627  -26.6785   20.1440 O   0  0  0  0  0  0
  -26.5587  -34.8926   22.4694 O   0  0  0  0  0  0
  -23.5327  -32.1462   23.7554 O   0  0  0  0  0  0
  -29.2633  -18.6558   21.1236 C   0  0  0  0  0  0
  -29.2522  -20.0494   21.3728 C   0  0  0  0  0  0
  -31.1703  -18.9725   19.6535 C   0  0  0  0  0  0
  -30.2080  -18.1131   20.2280 C   0  0  0  0  0  0
  -30.1596  -20.9301   20.7209 C   0  0  0  0  0  0
  -31.1422  -20.3569   19.8764 C   0  0  0  0  0  0
  -29.1547  -24.4257   20.6182 C   0  0  0  0  0  0
  -30.5773  -24.6428   20.6926 C   0  0  0  0  0  0
  -28.8658  -23.0162   20.7466 C   0  0  0  0  0  0
  -28.1855  -25.3347   20.4025 C   0  0  0  0  0  0
  -30.2321  -16.7019   19.8138 C   0  0  0  0  0  0
  -31.2063  -23.2781   20.8852 C   0  0  0  0  0  0
  -30.0454  -22.3575   20.8560 N   0  0  0  0  0  0
  -30.0562  -15.6627   20.6684 N   0  0  0  0  0  0
  -30.4603  -16.4944   18.5036 N   0  3  0  0  0  0
  -31.2073  -25.7030   20.6198 O   0  0  0  0  0  0
  -27.7442  -22.4943   20.7284 O   0  0  0  0  0  0
  -32.0401  -21.1140   19.2043 F   0  0  0  0  0  0
  -31.4494  -12.2961   19.1574 H   0  0  0  0  0  0
  -30.2467  -11.2639   19.8705 H   0  0  0  0  0  0
  -29.7241  -11.7271   17.4522 H   0  0  0  0  0  0
  -29.6823  -13.4429   17.7664 H   0  0  0  0  0  0
  -27.8109  -11.3037   18.8324 H   0  0  0  0  0  0
  -27.3698  -12.6248   17.7860 H   0  0  0  0  0  0
  -27.6880  -14.2548   19.5412 H   0  0  0  0  0  0
  -28.6507  -12.0437   21.4216 H   0  0  0  0  0  0
  -28.4863  -13.7303   21.8278 H   0  0  0  0  0  0
  -25.2758   -9.5691   22.4758 H   0  0  0  0  0  0
  -24.0003   -7.4639   22.7472 H   0  0  0  0  0  0
  -21.0842   -8.8776   19.8956 H   0  0  0  0  0  0
  -22.3692  -10.9676   19.6170 H   0  0  0  0  0  0
  -21.2006   -7.6147   23.9713 H   0  0  0  0  0  0
  -21.1483   -6.0522   25.9073 H   0  0  0  0  0  0
  -22.0598   -2.7611   23.2845 H   0  0  0  0  0  0
  -22.4081  -11.9905   22.4803 H   0  0  0  0  0  0
  -21.1096  -13.1276   22.2588 H   0  0  0  0  0  0
  -24.6549  -15.8403   20.5018 H   0  0  0  0  0  0
  -26.2608  -15.6223   20.0298 H   0  0  0  0  0  0
  -26.7109  -32.5559   23.1194 H   0  0  0  0  0  0
  -25.0067  -33.9809   25.0505 H   0  0  0  0  0  0
  -22.6860  -31.3154   21.4221 H   0  0  0  0  0  0
  -23.3740  -35.9667   23.3317 H   0  0  0  0  0  0
  -24.3581  -36.8919   22.2048 H   0  0  0  0  0  0
  -23.7251  -37.6540   23.6637 H   0  0  0  0  0  0
  -26.0401  -31.6075   20.6023 H   0  0  0  0  0  0
  -26.8167  -30.8910   21.9867 H   0  0  0  0  0  0
  -28.0840  -29.0902   21.2019 H   0  0  0  0  0  0
  -26.0501  -26.0443   18.9113 H   0  0  0  0  0  0
  -23.9768  -27.3451   18.9808 H   0  0  0  0  0  0
  -23.7109  -30.6208   19.4107 H   0  0  0  0  0  0
  -22.7294  -29.2616   19.8681 H   0  0  0  0  0  0
  -25.1280  -36.1994   25.0832 H   0  0  0  0  0  0
  -20.9951  -28.3219   24.1441 H   0  0  0  0  0  0
  -20.5668  -26.2262   23.3601 H   0  0  0  0  0  0
  -21.6636  -26.7442   22.1208 H   0  0  0  0  0  0
  -19.6903  -25.6298   21.1229 H   0  0  0  0  0  0
  -19.6681  -27.3204   20.6751 H   0  0  0  0  0  0
  -17.4191  -26.6674   21.4022 H   0  0  0  0  0  0
  -18.0317  -26.0056   22.9012 H   0  0  0  0  0  0
  -19.7926  -30.7252   24.2286 H   0  0  0  0  0  0
  -17.5008  -31.6262   24.5161 H   0  0  0  0  0  0
  -15.5345  -30.2987   23.7640 H   0  0  0  0  0  0
  -15.8663  -28.0825   22.7046 H   0  0  0  0  0  0
  -24.5910  -30.7065   25.7836 H   0  0  0  0  0  0
  -24.8947  -32.2863   26.4970 H   0  0  0  0  0  0
  -25.8106  -30.8860   27.0242 H   0  0  0  0  0  0
  -26.2848  -29.6820   24.1160 H   0  0  0  0  0  0
  -27.4087  -29.7288   25.4555 H   0  0  0  0  0  0
  -27.8676  -30.4387   23.9249 H   0  0  0  0  0  0
  -27.2685  -33.3604   26.2119 H   0  0  0  0  0  0
  -28.3839  -32.6910   25.0304 H   0  0  0  0  0  0
  -28.0759  -31.8419   26.5372 H   0  0  0  0  0  0
  -28.2611  -38.0101   24.7500 H   0  0  0  0  0  0
  -28.1060  -36.2632   24.6301 H   0  0  0  0  0  0
  -27.2296  -37.1484   25.8868 H   0  0  0  0  0  0
  -20.9287  -29.8771   21.6979 H   0  0  0  0  0  0
  -26.0188  -38.2883   24.1399 H   0  0  0  0  0  0
  -28.5198  -18.0279   21.5947 H   0  0  0  0  0  0
  -28.5019  -20.4435   22.0429 H   0  0  0  0  0  0
  -31.9287  -18.5854   18.9879 H   0  0  0  0  0  0
  -27.1545  -25.0145   20.3990 H   0  0  0  0  0  0
  -31.7205  -23.2271   21.8449 H   0  0  0  0  0  0
  -31.9294  -23.1377   20.0876 H   0  0  0  0  0  0
  -29.2544  -15.7531   21.2672 H   0  0  0  0  0  0
  -30.4845  -17.2854   17.8784 H   0  0  0  0  0  0
  -30.6661  -15.5838   18.1276 H   0  0  0  0  0  0
  1 25  1  0  0  0
  1 30  2  0  0  0
  1 84  1  0  0  0
  2  3  1  0  0  0
  2 25  1  0  0  0
  2 89  1  0  0  0
  2 90  1  0  0  0
  3  4  1  0  0  0
  3 91  1  0  0  0
  3 92  1  0  0  0
  4  5  1  0  0  0
  4 93  1  0  0  0
  4 94  1  0  0  0
  5  6  1  0  0  0
  5 26  1  0  0  0
  5 95  1  0  0  0
  6 25  1  0  0  0
  6 96  1  0  0  0
  6 97  1  0  0  0
  7  8  2  0  0  0
  7 26  1  0  0  0
  7 29  1  0  0  0
  8  9  1  0  0  0
  8 22  1  0  0  0
  9 10  1  0  0  0
  9 27  2  0  0  0
 10 11  2  0  0  0
 10 15  1  0  0  0
 11 12  1  0  0  0
 11 98  1  0  0  0
 12 13  2  0  0  0
 12 99  1  0  0  0
 13 14  1  0  0  0
 13 31  1  0  0  0
 14 15  2  0  0  0
 14100  1  0  0  0
 15101  1  0  0  0
 16 17  2  0  0  0
 16 21  1  0  0  0
 16 31  1  0  0  0
 17 18  1  0  0  0
 17102  1  0  0  0
 18 19  2  0  0  0
 18103  1  0  0  0
 19 20  1  0  0  0
 19 24  1  0  0  0
 20 21  2  0  0  0
 20104  1  0  0  0
 21 23  1  0  0  0
 22 28  1  0  0  0
 22 32  2  0  0  0
 26 27  1  0  0  0
 28105  1  0  0  0
 28106  1  0  0  0
 29107  1  0  0  0
 29108  1  0  0  0
 33 34  1  0  0  0
 33 66  1  0  0  0
 33 70  2  0  0  0
 34 36  1  0  0  0
 34 59  1  0  0  0
 34109  1  0  0  0
 35 44  2  0  0  0
 35 45  1  0  0  0
 35 68  1  0  0  0
 36 56  1  0  0  0
 36110  1  0  0  0
 37 39  1  0  0  0
 37 47  1  0  0  0
 37 66  1  0  0  0
 37111  1  0  0  0
 38 43  2  0  0  0
 38 46  1  0  0  0
 38 47  1  0  0  0
 39 64  1  0  0  0
 39 67  2  0  0  0
 40 52  1  0  0  0
 40 53  2  0  0  0
 40 58  1  0  0  0
 41112  1  0  0  0
 41113  1  0  0  0
 41114  1  0  0  0
 41 48  1  0  0  0
 42 43  1  0  0  0
 42 66  1  0  0  0
 42115  1  0  0  0
 42116  1  0  0  0
 43 44  1  0  0  0
 44117  1  0  0  0
 45 46  2  0  0  0
 45118  1  0  0  0
 46119  1  0  0  0
 47120  1  0  0  0
 47121  1  0  0  0
 48 56  1  0  0  0
 48 65  1  0  0  0
 48122  1  0  0  0
 49 50  1  0  0  0
 49 53  1  0  0  0
 49 64  1  0  0  0
 49123  1  0  0  0
 50 51  1  0  0  0
 50124  1  0  0  0
 50125  1  0  0  0
 51 52  1  0  0  0
 51126  1  0  0  0
 51127  1  0  0  0
 52128  1  0  0  0
 52129  1  0  0  0
 53 54  1  0  0  0
 54 55  2  0  0  0
 54130  1  0  0  0
 55 57  1  0  0  0
 55131  1  0  0  0
 56 69  2  0  0  0
 57 58  2  0  0  0
 57132  1  0  0  0
 58133  1  0  0  0
 59 60  1  0  0  0
 59 61  1  0  0  0
 59 62  1  0  0  0
 60134  1  0  0  0
 60135  1  0  0  0
 60136  1  0  0  0
 61137  1  0  0  0
 61138  1  0  0  0
 61139  1  0  0  0
 62140  1  0  0  0
 62141  1  0  0  0
 62142  1  0  0  0
 63 65  1  0  0  0
 63143  1  0  0  0
 63144  1  0  0  0
 63145  1  0  0  0
 64146  1  0  0  0
 65147  1  0  0  0
 68 80  1  0  0  0
 71 72  2  0  0  0
 71 74  1  0  0  0
 71148  1  0  0  0
 72 75  1  0  0  0
 72149  1  0  0  0
 73 74  2  0  0  0
 73 76  1  0  0  0
 73150  1  0  0  0
 74 81  1  0  0  0
 75 76  2  0  0  0
 75 83  1  0  0  0
 76 88  1  0  0  0
 77 78  1  0  0  0
 77 79  1  0  0  0
 77 80  2  0  0  0
 78 82  1  0  0  0
 78 86  2  0  0  0
 79 83  1  0  0  0
 79 87  2  0  0  0
 80151  1  0  0  0
 81 84  1  0  0  0
 81 85  2  0  0  0
 82 83  1  0  0  0
 82152  1  0  0  0
 82153  1  0  0  0
 84154  1  0  0  0
 85155  1  0  0  0
 85156  1  0  0  0
M  CHG  1  85   1
M  ISO  4   1 100  68 101  80 101  84 100
M  END
> <chiral flag>
0

> <version>
0

> <s_m_source_file>
/data/baiqing/PycharmProjects/Reinvent-master-3.2/result/LINK_invent/BTK/process_docking_weight1_custom_product_contain_oxygen_bond_distance_aromatic_linkinvent_7_9_3/rearranged_h_0085.sdf

> <i_m_source_file_index>
67

> <r_mmod_Potential_Energy-OPLS-2005>
-193.88069152832

> <r_mmod_Stretch_Energy-OPLS-2005>
38.3542060852051

> <r_mmod_Bend_Energy-OPLS-2005>
151.722244262695

> <r_mmod_Torsional_Energy-OPLS-2005>
317.742309570312

> <r_mmod_Improper_Torsional_Energy-OPLS-2005>
10.8507699966431

> <r_mmod_Van_der_Waal_Energy-OPLS-2005>
177.980499267578

> <r_mmod_Electrostatic_Energy-OPLS-2005>
-429.183074951172

> <r_mmod_Solvation_Energy-OPLS-2005>
-481.974456787109

> <b_mmod_Minimization_Converged-OPLS-2005>
0

> <r_mmod_RMS_Derivative-OPLS-2005>
0.562224507331848

$$$$
68
                    3D
 Structure written by MMmdl.
159168  0  0  1  0            999 V2000
  -30.4904  -15.1429   20.3649 C   0  0  0  0  0  0
  -30.4287  -12.7146   19.5366 C   0  0  0  0  0  0
  -29.5313  -12.5578   18.2849 C   0  0  0  0  0  0
  -28.0700  -12.3153   18.6998 C   0  0  0  0  0  0
  -27.6168  -13.2731   19.8316 C   0  0  2  0  0  0
  -28.6487  -13.3952   20.9735 C   0  0  0  0  0  0
  -25.2391  -13.8263   20.5734 C   0  0  0  0  0  0
  -24.1738  -13.0448   20.9239 C   0  0  0  0  0  0
  -24.6397  -11.6942   20.8758 C   0  0  0  0  0  0
  -23.9096  -10.4297   21.0404 C   0  0  0  0  0  0
  -24.3642   -9.4210   21.9179 C   0  0  0  0  0  0
  -23.6315   -8.2246   22.0753 C   0  0  0  0  0  0
  -22.4295   -8.0288   21.3543 C   0  0  0  0  0  0
  -21.9929   -9.0262   20.4644 C   0  0  0  0  0  0
  -22.7267  -10.2137   20.3053 C   0  0  0  0  0  0
  -21.6859   -6.0745   22.5274 C   0  0  0  0  0  0
  -21.4023   -6.5644   23.8210 C   0  0  0  0  0  0
  -21.3659   -5.6792   24.9166 C   0  0  0  0  0  0
  -21.6043   -4.3057   24.7217 C   0  0  0  0  0  0
  -21.8818   -3.8150   23.4339 C   0  0  0  0  0  0
  -21.9191   -4.6969   22.3395 C   0  0  0  0  0  0
  -22.7750  -13.5195   21.1879 C   0  0  0  0  0  0
  -22.1656   -4.2153   21.0972 F   0  0  0  0  0  0
  -21.5624   -3.4541   25.7727 F   0  0  0  0  0  0
  -29.9030  -13.8566   20.3647 N   0  0  0  0  0  0
  -26.2824  -12.9536   20.3232 N   0  0  0  0  0  0
  -25.9338  -11.6640   20.5734 N   0  0  0  0  0  0
  -22.0419  -12.8178   22.0448 N   0  0  0  0  0  0
  -25.4045  -15.1998   20.4179 N   0  0  0  0  0  0
  -31.6999  -15.1329   20.0994 O   0  0  0  0  0  0
  -21.6652   -6.8894   21.4241 O   0  0  0  0  0  0
  -22.3419  -14.5494   20.6720 O   0  0  0  0  0  0
  -24.6564  -31.8308   23.1781 C   0  0  0  0  0  0
  -25.9277  -32.4623   23.8218 C   0  0  1  0  0  0
  -27.2144  -26.9973   20.1692 C   0  0  0  0  0  0
  -25.5973  -33.8436   24.2125 N   0  0  0  0  0  0
  -23.4682  -30.4454   21.5248 C   0  0  2  0  0  0
  -24.9206  -28.8497   20.1091 C   0  0  0  0  0  0
  -22.7639  -29.4469   22.4799 C   0  0  0  0  0  0
  -18.0318  -28.1403   22.8472 C   0  0  0  0  0  0
  -24.1491  -36.7219   23.2644 C   0  0  0  0  0  0
  -26.0337  -30.6571   21.4019 C   0  0  0  0  0  0
  -26.1002  -29.2551   20.7445 C   0  0  0  0  0  0
  -27.2411  -28.3453   20.7591 C   0  0  0  0  0  0
  -26.0096  -26.7339   19.4785 C   0  0  0  0  0  0
  -24.8961  -27.6078   19.4578 C   0  0  0  0  0  0
  -23.7050  -29.7691   20.1472 C   0  0  0  0  0  0
  -25.4129  -36.2986   24.0305 C   0  0  1  0  0  0
  -20.5939  -28.3739   23.1206 C   0  0  2  0  0  0
  -20.6795  -26.9427   22.5404 C   0  0  0  0  0  0
  -19.5765  -26.6379   21.5218 C   0  0  0  0  0  0
  -18.1949  -26.7937   22.1629 C   0  0  0  0  0  0
  -19.1578  -28.8892   23.2827 C   0  0  0  0  0  0
  -18.9489  -30.1487   23.8857 C   0  0  0  0  0  0
  -17.6483  -30.6593   24.0557 C   0  0  0  0  0  0
  -25.9096  -34.9367   23.5031 C   0  0  0  0  0  0
  -16.5373  -29.9083   23.6342 C   0  0  0  0  0  0
  -16.7304  -28.6503   23.0360 C   0  0  0  0  0  0
  -26.4547  -31.6544   25.0720 C   0  0  0  0  0  0
  -25.3693  -31.3780   26.1388 C   0  0  0  0  0  0
  -27.0444  -30.2921   24.6420 C   0  0  0  0  0  0
  -27.6050  -32.4343   25.7511 C   0  0  0  0  0  0
  -27.5570  -37.1768   24.8466 C   0  0  0  0  0  0
  -21.4318  -29.3040   22.3561 N   0  0  0  0  0  0
  -26.4280  -37.3716   23.9409 N   0  0  0  0  0  0
  -24.7399  -31.0031   22.0883 N   0  0  0  0  0  0
  -23.4220  -28.8024   23.3006 O   0  0  0  0  0  0
  -28.2330  -25.9319   20.2632 O   0  0  0  0  0  0
  -26.5693  -34.8887   22.4619 O   0  0  0  0  0  0
  -23.5653  -32.1250   23.6915 O   0  0  0  0  0  0
  -29.8464  -17.6601   16.9495 C   0  0  0  0  0  0
  -29.8328  -17.0287   18.1907 C   0  0  0  0  0  0
  -29.5614  -19.7557   18.0737 C   0  0  0  0  0  0
  -29.4408  -19.2202   19.3965 C   0  0  0  0  0  0
  -29.7446  -19.0367   16.8922 C   0  0  0  0  0  0
  -29.7021  -17.6587   19.4680 C   0  0  0  0  0  0
  -28.7252  -23.2201   20.4364 C   0  0  0  0  0  0
  -29.7909  -23.2327   21.4375 C   0  0  0  0  0  0
  -28.4300  -21.7395   19.9279 C   0  0  0  0  0  0
  -29.8840  -24.2240   22.3446 C   0  0  0  0  0  0
  -28.0614  -24.4488   20.0029 C   0  0  0  0  0  0
  -30.7770  -22.0655   21.4907 C   0  0  0  0  0  0
  -30.0729  -20.6830   21.4488 C   0  0  0  0  0  0
  -29.2048  -20.5280   20.2774 N   0  0  0  0  0  0
  -29.8179  -19.6943   15.6664 N   0  0  0  0  0  0
  -29.7720  -16.4270   20.4564 N   0  0  0  0  0  0
  -27.4637  -21.5811   19.1737 O   0  0  0  0  0  0
  -31.4628  -12.8717   19.2261 H   0  0  0  0  0  0
  -30.4405  -11.7910   20.1175 H   0  0  0  0  0  0
  -29.8861  -11.7355   17.6629 H   0  0  0  0  0  0
  -29.5959  -13.4567   17.6707 H   0  0  0  0  0  0
  -27.9944  -11.2832   19.0429 H   0  0  0  0  0  0
  -27.4066  -12.3980   17.8382 H   0  0  0  0  0  0
  -27.5527  -14.2556   19.3617 H   0  0  0  0  0  0
  -28.7769  -12.4457   21.4958 H   0  0  0  0  0  0
  -28.3107  -14.1164   21.7187 H   0  0  0  0  0  0
  -25.2784   -9.5689   22.4748 H   0  0  0  0  0  0
  -24.0017   -7.4645   22.7477 H   0  0  0  0  0  0
  -21.0849   -8.8793   19.8962 H   0  0  0  0  0  0
  -22.3723  -10.9678   19.6159 H   0  0  0  0  0  0
  -21.2035   -7.6153   23.9714 H   0  0  0  0  0  0
  -21.1475   -6.0522   25.9067 H   0  0  0  0  0  0
  -22.0603   -2.7614   23.2830 H   0  0  0  0  0  0
  -22.4061  -11.9859   22.4853 H   0  0  0  0  0  0
  -21.1029  -13.1183   22.2654 H   0  0  0  0  0  0
  -24.6398  -15.8540   20.5432 H   0  0  0  0  0  0
  -26.2516  -15.6409   20.0845 H   0  0  0  0  0  0
  -26.7342  -32.5172   23.0937 H   0  0  0  0  0  0
  -25.0078  -33.9528   25.0244 H   0  0  0  0  0  0
  -22.7785  -31.2756   21.3600 H   0  0  0  0  0  0
  -23.3765  -35.9540   23.3291 H   0  0  0  0  0  0
  -24.3577  -36.8882   22.2065 H   0  0  0  0  0  0
  -23.7247  -37.6403   23.6709 H   0  0  0  0  0  0
  -26.2128  -31.4035   20.6267 H   0  0  0  0  0  0
  -26.8950  -30.7078   22.0561 H   0  0  0  0  0  0
  -28.1326  -28.6474   21.2897 H   0  0  0  0  0  0
  -25.8798  -25.7911   18.9714 H   0  0  0  0  0  0
  -23.9998  -27.2954   18.9395 H   0  0  0  0  0  0
  -23.8586  -30.5406   19.3918 H   0  0  0  0  0  0
  -22.8169  -29.2209   19.8274 H   0  0  0  0  0  0
  -25.1329  -36.1789   25.0799 H   0  0  0  0  0  0
  -21.0036  -28.3335   24.1326 H   0  0  0  0  0  0
  -20.5685  -26.2353   23.3637 H   0  0  0  0  0  0
  -21.6658  -26.7410   22.1207 H   0  0  0  0  0  0
  -19.6922  -25.6283   21.1269 H   0  0  0  0  0  0
  -19.6701  -27.3173   20.6734 H   0  0  0  0  0  0
  -17.4222  -26.6692   21.4030 H   0  0  0  0  0  0
  -18.0334  -26.0084   22.9028 H   0  0  0  0  0  0
  -19.7963  -30.7311   24.2210 H   0  0  0  0  0  0
  -17.5035  -31.6267   24.5170 H   0  0  0  0  0  0
  -15.5372  -30.2971   23.7688 H   0  0  0  0  0  0
  -15.8705  -28.0811   22.7092 H   0  0  0  0  0  0
  -24.5871  -30.7131   25.7703 H   0  0  0  0  0  0
  -24.8879  -32.2976   26.4719 H   0  0  0  0  0  0
  -25.7936  -30.9005   27.0228 H   0  0  0  0  0  0
  -26.3104  -29.6600   24.1408 H   0  0  0  0  0  0
  -27.3981  -29.7274   25.5058 H   0  0  0  0  0  0
  -27.9043  -30.4127   23.9830 H   0  0  0  0  0  0
  -27.2624  -33.3673   26.1992 H   0  0  0  0  0  0
  -28.3901  -32.6860   25.0370 H   0  0  0  0  0  0
  -28.0670  -31.8537   26.5505 H   0  0  0  0  0  0
  -28.2575  -38.0073   24.7507 H   0  0  0  0  0  0
  -28.1077  -36.2603   24.6297 H   0  0  0  0  0  0
  -27.2287  -37.1415   25.8868 H   0  0  0  0  0  0
  -20.9560  -29.8742   21.6708 H   0  0  0  0  0  0
  -26.0132  -38.2778   24.1406 H   0  0  0  0  0  0
  -29.9606  -17.0702   16.0504 H   0  0  0  0  0  0
  -29.9211  -15.9602   18.0836 H   0  0  0  0  0  0
  -29.5326  -20.8194   17.8994 H   0  0  0  0  0  0
  -29.1904  -25.0519   22.3681 H   0  0  0  0  0  0
  -30.6562  -24.2253   23.1012 H   0  0  0  0  0  0
  -27.2954  -24.3104   19.2574 H   0  0  0  0  0  0
  -31.3948  -22.1299   22.3875 H   0  0  0  0  0  0
  -31.4613  -22.1570   20.6454 H   0  0  0  0  0  0
  -29.4724  -20.5406   22.3478 H   0  0  0  0  0  0
  -30.8244  -19.8928   21.4545 H   0  0  0  0  0  0
  -30.1678  -19.1907   14.8567 H   0  0  0  0  0  0
  -30.0465  -20.6839   15.6465 H   0  0  0  0  0  0
  -28.9519  -16.3605   21.0434 H   0  0  0  0  0  0
  1 25  1  0  0  0
  1 30  2  0  0  0
  1 86  1  0  0  0
  2  3  1  0  0  0
  2 25  1  0  0  0
  2 88  1  0  0  0
  2 89  1  0  0  0
  3  4  1  0  0  0
  3 90  1  0  0  0
  3 91  1  0  0  0
  4  5  1  0  0  0
  4 92  1  0  0  0
  4 93  1  0  0  0
  5  6  1  0  0  0
  5 26  1  0  0  0
  5 94  1  0  0  0
  6 25  1  0  0  0
  6 95  1  0  0  0
  6 96  1  0  0  0
  7  8  2  0  0  0
  7 26  1  0  0  0
  7 29  1  0  0  0
  8  9  1  0  0  0
  8 22  1  0  0  0
  9 10  1  0  0  0
  9 27  2  0  0  0
 10 11  2  0  0  0
 10 15  1  0  0  0
 11 12  1  0  0  0
 11 97  1  0  0  0
 12 13  2  0  0  0
 12 98  1  0  0  0
 13 14  1  0  0  0
 13 31  1  0  0  0
 14 15  2  0  0  0
 14 99  1  0  0  0
 15100  1  0  0  0
 16 17  2  0  0  0
 16 21  1  0  0  0
 16 31  1  0  0  0
 17 18  1  0  0  0
 17101  1  0  0  0
 18 19  2  0  0  0
 18102  1  0  0  0
 19 20  1  0  0  0
 19 24  1  0  0  0
 20 21  2  0  0  0
 20103  1  0  0  0
 21 23  1  0  0  0
 22 28  1  0  0  0
 22 32  2  0  0  0
 26 27  1  0  0  0
 28104  1  0  0  0
 28105  1  0  0  0
 29106  1  0  0  0
 29107  1  0  0  0
 33 34  1  0  0  0
 33 66  1  0  0  0
 33 70  2  0  0  0
 34 36  1  0  0  0
 34 59  1  0  0  0
 34108  1  0  0  0
 35 44  2  0  0  0
 35 45  1  0  0  0
 35 68  1  0  0  0
 36 56  1  0  0  0
 36109  1  0  0  0
 37 39  1  0  0  0
 37 47  1  0  0  0
 37 66  1  0  0  0
 37110  1  0  0  0
 38 43  2  0  0  0
 38 46  1  0  0  0
 38 47  1  0  0  0
 39 64  1  0  0  0
 39 67  2  0  0  0
 40 52  1  0  0  0
 40 53  2  0  0  0
 40 58  1  0  0  0
 41111  1  0  0  0
 41112  1  0  0  0
 41113  1  0  0  0
 41 48  1  0  0  0
 42 43  1  0  0  0
 42 66  1  0  0  0
 42114  1  0  0  0
 42115  1  0  0  0
 43 44  1  0  0  0
 44116  1  0  0  0
 45 46  2  0  0  0
 45117  1  0  0  0
 46118  1  0  0  0
 47119  1  0  0  0
 47120  1  0  0  0
 48 56  1  0  0  0
 48 65  1  0  0  0
 48121  1  0  0  0
 49 50  1  0  0  0
 49 53  1  0  0  0
 49 64  1  0  0  0
 49122  1  0  0  0
 50 51  1  0  0  0
 50123  1  0  0  0
 50124  1  0  0  0
 51 52  1  0  0  0
 51125  1  0  0  0
 51126  1  0  0  0
 52127  1  0  0  0
 52128  1  0  0  0
 53 54  1  0  0  0
 54 55  2  0  0  0
 54129  1  0  0  0
 55 57  1  0  0  0
 55130  1  0  0  0
 56 69  2  0  0  0
 57 58  2  0  0  0
 57131  1  0  0  0
 58132  1  0  0  0
 59 60  1  0  0  0
 59 61  1  0  0  0
 59 62  1  0  0  0
 60133  1  0  0  0
 60134  1  0  0  0
 60135  1  0  0  0
 61136  1  0  0  0
 61137  1  0  0  0
 61138  1  0  0  0
 62139  1  0  0  0
 62140  1  0  0  0
 62141  1  0  0  0
 63 65  1  0  0  0
 63142  1  0  0  0
 63143  1  0  0  0
 63144  1  0  0  0
 64145  1  0  0  0
 65146  1  0  0  0
 68 81  1  0  0  0
 71 72  2  0  0  0
 71 75  1  0  0  0
 71147  1  0  0  0
 72 76  1  0  0  0
 72148  1  0  0  0
 73 74  1  0  0  0
 73 75  2  0  0  0
 73149  1  0  0  0
 74 76  2  0  0  0
 74 84  1  0  0  0
 75 85  1  0  0  0
 76 86  1  0  0  0
 77 78  1  0  0  0
 77 79  1  0  0  0
 77 81  2  0  0  0
 78 80  2  0  0  0
 78 82  1  0  0  0
 79 84  1  0  0  0
 79 87  2  0  0  0
 80150  1  0  0  0
 80151  1  0  0  0
 81152  1  0  0  0
 82 83  1  0  0  0
 82153  1  0  0  0
 82154  1  0  0  0
 83 84  1  0  0  0
 83155  1  0  0  0
 83156  1  0  0  0
 85157  1  0  0  0
 85158  1  0  0  0
 86159  1  0  0  0
M  ISO  4   1 100  68 101  81 101  86 100
M  END
> <chiral flag>
0

> <version>
0

> <s_m_source_file>
/data/baiqing/PycharmProjects/Reinvent-master-3.2/result/LINK_invent/BTK/process_docking_weight1_custom_product_contain_oxygen_bond_distance_aromatic_linkinvent_7_9_3/rearranged_h_0085.sdf

> <i_m_source_file_index>
68

> <r_mmod_Potential_Energy-OPLS-2005>
1170.65966796875

> <r_mmod_Stretch_Energy-OPLS-2005>
467.667907714844

> <r_mmod_Bend_Energy-OPLS-2005>
437.786560058594

> <r_mmod_Torsional_Energy-OPLS-2005>
330.910888671875

> <r_mmod_Improper_Torsional_Energy-OPLS-2005>
9.87739181518555

> <r_mmod_Van_der_Waal_Energy-OPLS-2005>
168.514755249023

> <r_mmod_Electrostatic_Energy-OPLS-2005>
-362.275146484375

> <r_mmod_Solvation_Energy-OPLS-2005>
-227.982360839844

> <b_mmod_Minimization_Converged-OPLS-2005>
0

> <r_mmod_RMS_Derivative-OPLS-2005>
1.4300297498703

$$$$
69
                    3D
 Structure written by MMmdl.
154163  0  0  1  0            999 V2000
  -30.5812  -14.6878   20.4841 C   0  0  0  0  0  0
  -30.4475  -12.4214   19.4533 C   0  0  0  0  0  0
  -29.5132  -12.5127   18.2247 C   0  0  0  0  0  0
  -28.0347  -12.3417   18.6348 C   0  0  0  0  0  0
  -27.6505  -13.2146   19.8595 C   0  0  2  0  0  0
  -28.6973  -13.0760   20.9878 C   0  0  0  0  0  0
  -25.2548  -13.8147   20.5669 C   0  0  0  0  0  0
  -24.1823  -13.0424   20.9203 C   0  0  0  0  0  0
  -24.6398  -11.6894   20.8743 C   0  0  0  0  0  0
  -23.9073  -10.4281   21.0408 C   0  0  0  0  0  0
  -24.3625   -9.4208   21.9194 C   0  0  0  0  0  0
  -23.6301   -8.2240   22.0757 C   0  0  0  0  0  0
  -22.4285   -8.0277   21.3542 C   0  0  0  0  0  0
  -21.9918   -9.0252   20.4649 C   0  0  0  0  0  0
  -22.7243  -10.2132   20.3064 C   0  0  0  0  0  0
  -21.6856   -6.0743   22.5282 C   0  0  0  0  0  0
  -21.4013   -6.5638   23.8218 C   0  0  0  0  0  0
  -21.3657   -5.6783   24.9173 C   0  0  0  0  0  0
  -21.6044   -4.3047   24.7221 C   0  0  0  0  0  0
  -21.8815   -3.8150   23.4337 C   0  0  0  0  0  0
  -21.9193   -4.6972   22.3404 C   0  0  0  0  0  0
  -22.7849  -13.5234   21.1859 C   0  0  0  0  0  0
  -22.1660   -4.2166   21.0973 F   0  0  0  0  0  0
  -21.5635   -3.4522   25.7726 F   0  0  0  0  0  0
  -30.0075  -13.4416   20.4261 N   0  0  0  0  0  0
  -26.2973  -12.9325   20.3285 N   0  0  0  0  0  0
  -25.9325  -11.6485   20.5750 N   0  0  0  0  0  0
  -22.0473  -12.8243   22.0402 N   0  0  0  0  0  0
  -25.4243  -15.1860   20.4038 N   0  0  0  0  0  0
  -31.7517  -14.8696   20.1341 O   0  0  0  0  0  0
  -21.6626   -6.8889   21.4251 O   0  0  0  0  0  0
  -22.3550  -14.5546   20.6704 O   0  0  0  0  0  0
  -24.6287  -31.8595   23.2007 C   0  0  0  0  0  0
  -25.9127  -32.4776   23.8362 C   0  0  1  0  0  0
  -27.2334  -27.3036   20.1276 C   0  0  0  0  0  0
  -25.5940  -33.8579   24.2292 N   0  0  0  0  0  0
  -23.4254  -30.4794   21.5428 C   0  0  2  0  0  0
  -24.8755  -28.9278   20.1146 C   0  0  0  0  0  0
  -22.7485  -29.4630   22.4934 C   0  0  0  0  0  0
  -18.0290  -28.1400   22.8507 C   0  0  0  0  0  0
  -24.1495  -36.7280   23.2642 C   0  0  0  0  0  0
  -25.9672  -30.7828   21.3762 C   0  0  0  0  0  0
  -26.0440  -29.4073   20.7222 C   0  0  0  0  0  0
  -27.2277  -28.6065   20.7190 C   0  0  0  0  0  0
  -26.0454  -26.8793   19.4955 C   0  0  0  0  0  0
  -24.8792  -27.6692   19.4904 C   0  0  0  0  0  0
  -23.6432  -29.8096   20.1604 C   0  0  0  0  0  0
  -25.4126  -36.3083   24.0326 C   0  0  1  0  0  0
  -20.5890  -28.3715   23.1275 C   0  0  2  0  0  0
  -20.6767  -26.9437   22.5412 C   0  0  0  0  0  0
  -19.5732  -26.6393   21.5229 C   0  0  0  0  0  0
  -18.1917  -26.7948   22.1640 C   0  0  0  0  0  0
  -19.1544  -28.8874   23.2885 C   0  0  0  0  0  0
  -18.9464  -30.1475   23.8901 C   0  0  0  0  0  0
  -17.6459  -30.6601   24.0568 C   0  0  0  0  0  0
  -25.9061  -34.9450   23.5113 C   0  0  0  0  0  0
  -16.5353  -29.9095   23.6333 C   0  0  0  0  0  0
  -16.7275  -28.6510   23.0370 C   0  0  0  0  0  0
  -26.4495  -31.6584   25.0734 C   0  0  0  0  0  0
  -25.3737  -31.3753   26.1471 C   0  0  0  0  0  0
  -27.0298  -30.2987   24.6217 C   0  0  0  0  0  0
  -27.6085  -32.4296   25.7469 C   0  0  0  0  0  0
  -27.5583  -37.1803   24.8473 C   0  0  0  0  0  0
  -21.4196  -29.3070   22.3672 N   0  0  0  0  0  0
  -26.4296  -37.3782   23.9414 N   0  0  0  0  0  0
  -24.6924  -31.0584   22.0964 N   0  0  0  0  0  0
  -23.4185  -28.8170   23.3033 O   0  0  0  0  0  0
  -28.3307  -26.4234   20.1376 O   0  0  0  0  0  0
  -26.5625  -34.8907   22.4680 O   0  0  0  0  0  0
  -23.5443  -32.1402   23.7315 O   0  0  0  0  0  0
  -28.4775  -17.8721   20.5163 C   0  0  0  0  0  0
  -30.8598  -18.0301   20.5432 C   0  0  0  0  0  0
  -29.4986  -20.1562   20.3529 C   0  0  0  0  0  0
  -29.7203  -17.1846   20.5949 C   0  0  0  0  0  0
  -28.3550  -19.2920   20.3830 C   0  0  0  0  0  0
  -30.7523  -19.4578   20.4341 C   0  0  0  0  0  0
  -28.8204  -23.9304   20.2235 C   0  0  0  0  0  0
  -29.9642  -23.8225   19.3486 C   0  0  0  0  0  0
  -28.5409  -22.5591   20.7178 C   0  0  0  0  0  0
  -28.1164  -25.0799   20.5425 C   0  0  0  0  0  0
  -30.4172  -22.3625   19.3433 C   0  0  0  0  0  0
  -29.4300  -21.6430   20.1773 N   0  0  0  0  0  0
  -27.0629  -19.8020   20.2369 N   0  0  0  0  0  0
  -29.7115  -15.7173   20.7701 N   0  0  0  0  0  0
  -30.5195  -24.7199   18.7057 O   0  0  0  0  0  0
  -27.6413  -22.2702   21.5154 O   0  0  0  0  0  0
  -31.9098  -20.1606   20.4281 F   0  0  0  0  0  0
  -31.4864  -12.5670   19.1508 H   0  0  0  0  0  0
  -30.4038  -11.4277   19.9007 H   0  0  0  0  0  0
  -29.7861  -11.7577   17.4863 H   0  0  0  0  0  0
  -29.6435  -13.4794   17.7348 H   0  0  0  0  0  0
  -27.8783  -11.2878   18.8698 H   0  0  0  0  0  0
  -27.3812  -12.5653   17.7895 H   0  0  0  0  0  0
  -27.6641  -14.2476   19.5132 H   0  0  0  0  0  0
  -28.7191  -12.0516   21.3632 H   0  0  0  0  0  0
  -28.4413  -13.7013   21.8449 H   0  0  0  0  0  0
  -25.2774   -9.5666   22.4768 H   0  0  0  0  0  0
  -24.0004   -7.4624   22.7468 H   0  0  0  0  0  0
  -21.0855   -8.8774   19.8949 H   0  0  0  0  0  0
  -22.3716  -10.9675   19.6167 H   0  0  0  0  0  0
  -21.1997   -7.6144   23.9731 H   0  0  0  0  0  0
  -21.1487   -6.0506   25.9078 H   0  0  0  0  0  0
  -22.0600   -2.7615   23.2825 H   0  0  0  0  0  0
  -22.4071  -11.9908   22.4809 H   0  0  0  0  0  0
  -21.1099  -13.1297   22.2587 H   0  0  0  0  0  0
  -24.6444  -15.8289   20.4912 H   0  0  0  0  0  0
  -26.2387  -15.6090   19.9805 H   0  0  0  0  0  0
  -26.7208  -32.5436   23.1115 H   0  0  0  0  0  0
  -25.0094  -33.9735   25.0441 H   0  0  0  0  0  0
  -22.7207  -31.2999   21.3936 H   0  0  0  0  0  0
  -23.3778  -35.9587   23.3273 H   0  0  0  0  0  0
  -24.3605  -36.8939   22.2065 H   0  0  0  0  0  0
  -23.7195  -37.6446   23.6691 H   0  0  0  0  0  0
  -26.1039  -31.5440   20.6073 H   0  0  0  0  0  0
  -26.8443  -30.8311   22.0099 H   0  0  0  0  0  0
  -28.1251  -28.9726   21.1979 H   0  0  0  0  0  0
  -26.0138  -25.9114   19.0151 H   0  0  0  0  0  0
  -23.9864  -27.2956   19.0080 H   0  0  0  0  0  0
  -23.7648  -30.5855   19.4034 H   0  0  0  0  0  0
  -22.7630  -29.2403   19.8556 H   0  0  0  0  0  0
  -25.1310  -36.1935   25.0813 H   0  0  0  0  0  0
  -20.9989  -28.3295   24.1390 H   0  0  0  0  0  0
  -20.5696  -26.2338   23.3630 H   0  0  0  0  0  0
  -21.6625  -26.7475   22.1171 H   0  0  0  0  0  0
  -19.6888  -25.6298   21.1272 H   0  0  0  0  0  0
  -19.6654  -27.3204   20.6758 H   0  0  0  0  0  0
  -17.4189  -26.6731   21.4033 H   0  0  0  0  0  0
  -18.0305  -26.0080   22.9026 H   0  0  0  0  0  0
  -19.7933  -30.7309   24.2259 H   0  0  0  0  0  0
  -17.5004  -31.6287   24.5164 H   0  0  0  0  0  0
  -15.5351  -30.3003   23.7637 H   0  0  0  0  0  0
  -15.8679  -28.0820   22.7094 H   0  0  0  0  0  0
  -24.5800  -30.7255   25.7764 H   0  0  0  0  0  0
  -24.9079  -32.2949   26.5027 H   0  0  0  0  0  0
  -25.8029  -30.8760   27.0168 H   0  0  0  0  0  0
  -26.2849  -29.6746   24.1263 H   0  0  0  0  0  0
  -27.3972  -29.7250   25.4737 H   0  0  0  0  0  0
  -27.8749  -30.4230   23.9442 H   0  0  0  0  0  0
  -27.2754  -33.3647   26.1983 H   0  0  0  0  0  0
  -28.3906  -32.6763   25.0277 H   0  0  0  0  0  0
  -28.0719  -31.8443   26.5421 H   0  0  0  0  0  0
  -28.2607  -38.0094   24.7518 H   0  0  0  0  0  0
  -28.1072  -36.2627   24.6306 H   0  0  0  0  0  0
  -27.2309  -37.1450   25.8877 H   0  0  0  0  0  0
  -20.9392  -29.8804   21.6882 H   0  0  0  0  0  0
  -26.0178  -38.2857   24.1411 H   0  0  0  0  0  0
  -27.5737  -17.2800   20.5452 H   0  0  0  0  0  0
  -31.8471  -17.5944   20.6071 H   0  0  0  0  0  0
  -27.2764  -25.0166   21.2201 H   0  0  0  0  0  0
  -31.4228  -22.3203   19.7584 H   0  0  0  0  0  0
  -30.4322  -21.9704   18.3266 H   0  0  0  0  0  0
  -26.2890  -19.1913   20.4800 H   0  0  0  0  0  0
  -26.9209  -20.7424   20.6046 H   0  0  0  0  0  0
  -28.8067  -15.3460   21.0171 H   0  0  0  0  0  0
  1 25  1  0  0  0
  1 30  2  0  0  0
  1 84  1  0  0  0
  2  3  1  0  0  0
  2 25  1  0  0  0
  2 88  1  0  0  0
  2 89  1  0  0  0
  3  4  1  0  0  0
  3 90  1  0  0  0
  3 91  1  0  0  0
  4  5  1  0  0  0
  4 92  1  0  0  0
  4 93  1  0  0  0
  5  6  1  0  0  0
  5 26  1  0  0  0
  5 94  1  0  0  0
  6 25  1  0  0  0
  6 95  1  0  0  0
  6 96  1  0  0  0
  7  8  2  0  0  0
  7 26  1  0  0  0
  7 29  1  0  0  0
  8  9  1  0  0  0
  8 22  1  0  0  0
  9 10  1  0  0  0
  9 27  2  0  0  0
 10 11  2  0  0  0
 10 15  1  0  0  0
 11 12  1  0  0  0
 11 97  1  0  0  0
 12 13  2  0  0  0
 12 98  1  0  0  0
 13 14  1  0  0  0
 13 31  1  0  0  0
 14 15  2  0  0  0
 14 99  1  0  0  0
 15100  1  0  0  0
 16 17  2  0  0  0
 16 21  1  0  0  0
 16 31  1  0  0  0
 17 18  1  0  0  0
 17101  1  0  0  0
 18 19  2  0  0  0
 18102  1  0  0  0
 19 20  1  0  0  0
 19 24  1  0  0  0
 20 21  2  0  0  0
 20103  1  0  0  0
 21 23  1  0  0  0
 22 28  1  0  0  0
 22 32  2  0  0  0
 26 27  1  0  0  0
 28104  1  0  0  0
 28105  1  0  0  0
 29106  1  0  0  0
 29107  1  0  0  0
 33 34  1  0  0  0
 33 66  1  0  0  0
 33 70  2  0  0  0
 34 36  1  0  0  0
 34 59  1  0  0  0
 34108  1  0  0  0
 35 44  2  0  0  0
 35 45  1  0  0  0
 35 68  1  0  0  0
 36 56  1  0  0  0
 36109  1  0  0  0
 37 39  1  0  0  0
 37 47  1  0  0  0
 37 66  1  0  0  0
 37110  1  0  0  0
 38 43  2  0  0  0
 38 46  1  0  0  0
 38 47  1  0  0  0
 39 64  1  0  0  0
 39 67  2  0  0  0
 40 52  1  0  0  0
 40 53  2  0  0  0
 40 58  1  0  0  0
 41111  1  0  0  0
 41112  1  0  0  0
 41113  1  0  0  0
 41 48  1  0  0  0
 42 43  1  0  0  0
 42 66  1  0  0  0
 42114  1  0  0  0
 42115  1  0  0  0
 43 44  1  0  0  0
 44116  1  0  0  0
 45 46  2  0  0  0
 45117  1  0  0  0
 46118  1  0  0  0
 47119  1  0  0  0
 47120  1  0  0  0
 48 56  1  0  0  0
 48 65  1  0  0  0
 48121  1  0  0  0
 49 50  1  0  0  0
 49 53  1  0  0  0
 49 64  1  0  0  0
 49122  1  0  0  0
 50 51  1  0  0  0
 50123  1  0  0  0
 50124  1  0  0  0
 51 52  1  0  0  0
 51125  1  0  0  0
 51126  1  0  0  0
 52127  1  0  0  0
 52128  1  0  0  0
 53 54  1  0  0  0
 54 55  2  0  0  0
 54129  1  0  0  0
 55 57  1  0  0  0
 55130  1  0  0  0
 56 69  2  0  0  0
 57 58  2  0  0  0
 57131  1  0  0  0
 58132  1  0  0  0
 59 60  1  0  0  0
 59 61  1  0  0  0
 59 62  1  0  0  0
 60133  1  0  0  0
 60134  1  0  0  0
 60135  1  0  0  0
 61136  1  0  0  0
 61137  1  0  0  0
 61138  1  0  0  0
 62139  1  0  0  0
 62140  1  0  0  0
 62141  1  0  0  0
 63 65  1  0  0  0
 63142  1  0  0  0
 63143  1  0  0  0
 63144  1  0  0  0
 64145  1  0  0  0
 65146  1  0  0  0
 68 80  1  0  0  0
 71 74  2  0  0  0
 71 75  1  0  0  0
 71147  1  0  0  0
 72 74  1  0  0  0
 72 76  2  0  0  0
 72148  1  0  0  0
 73 75  2  0  0  0
 73 76  1  0  0  0
 73 82  1  0  0  0
 74 84  1  0  0  0
 75 83  1  0  0  0
 76 87  1  0  0  0
 77 78  1  0  0  0
 77 79  1  0  0  0
 77 80  2  0  0  0
 78 81  1  0  0  0
 78 85  2  0  0  0
 79 82  1  0  0  0
 79 86  2  0  0  0
 80149  1  0  0  0
 81 82  1  0  0  0
 81150  1  0  0  0
 81151  1  0  0  0
 83152  1  0  0  0
 83153  1  0  0  0
 84154  1  0  0  0
M  ISO  4   1 100  68 101  80 101  84 100
M  END
> <chiral flag>
0

> <version>
0

> <s_m_source_file>
/data/baiqing/PycharmProjects/Reinvent-master-3.2/result/LINK_invent/BTK/process_docking_weight1_custom_product_contain_oxygen_bond_distance_aromatic_linkinvent_7_9_3/rearranged_h_0085.sdf

> <i_m_source_file_index>
69

> <r_mmod_Potential_Energy-OPLS-2005>
160.569595336914

> <r_mmod_Stretch_Energy-OPLS-2005>
97.1005020141602

> <r_mmod_Bend_Energy-OPLS-2005>
196.640625

> <r_mmod_Torsional_Energy-OPLS-2005>
268.050994873047

> <r_mmod_Improper_Torsional_Energy-OPLS-2005>
9.65590572357178

> <r_mmod_Van_der_Waal_Energy-OPLS-2005>
142.80827331543

> <r_mmod_Electrostatic_Energy-OPLS-2005>
-380.125305175781

> <r_mmod_Solvation_Energy-OPLS-2005>
-236.000442504883

> <b_mmod_Minimization_Converged-OPLS-2005>
0

> <r_mmod_RMS_Derivative-OPLS-2005>
1.84584438800812

$$$$
70
                    3D
 Structure written by MMmdl.
155164  0  0  1  0            999 V2000
  -30.6172  -14.7690   20.4757 C   0  0  0  0  0  0
  -30.4395  -12.4717   19.4985 C   0  0  0  0  0  0
  -29.5208  -12.5262   18.2541 C   0  0  0  0  0  0
  -28.0429  -12.3485   18.6521 C   0  0  0  0  0  0
  -27.6472  -13.2338   19.8627 C   0  0  2  0  0  0
  -28.6877  -13.1365   20.9983 C   0  0  0  0  0  0
  -25.2520  -13.8197   20.5712 C   0  0  0  0  0  0
  -24.1804  -13.0441   20.9190 C   0  0  0  0  0  0
  -24.6398  -11.6918   20.8741 C   0  0  0  0  0  0
  -23.9072  -10.4293   21.0399 C   0  0  0  0  0  0
  -24.3620   -9.4208   21.9179 C   0  0  0  0  0  0
  -23.6291   -8.2247   22.0752 C   0  0  0  0  0  0
  -22.4271   -8.0287   21.3545 C   0  0  0  0  0  0
  -21.9912   -9.0258   20.4644 C   0  0  0  0  0  0
  -22.7243  -10.2134   20.3048 C   0  0  0  0  0  0
  -21.6850   -6.0741   22.5277 C   0  0  0  0  0  0
  -21.4021   -6.5646   23.8212 C   0  0  0  0  0  0
  -21.3656   -5.6798   24.9172 C   0  0  0  0  0  0
  -21.6037   -4.3059   24.7219 C   0  0  0  0  0  0
  -21.8820   -3.8152   23.4339 C   0  0  0  0  0  0
  -21.9195   -4.6971   22.3397 C   0  0  0  0  0  0
  -22.7822  -13.5213   21.1861 C   0  0  0  0  0  0
  -22.1664   -4.2159   21.0974 F   0  0  0  0  0  0
  -21.5621   -3.4543   25.7731 F   0  0  0  0  0  0
  -29.9938  -13.5286   20.4458 N   0  0  0  0  0  0
  -26.2963  -12.9412   20.3325 N   0  0  0  0  0  0
  -25.9334  -11.6546   20.5757 N   0  0  0  0  0  0
  -22.0479  -12.8198   22.0421 N   0  0  0  0  0  0
  -25.4215  -15.1923   20.4155 N   0  0  0  0  0  0
  -31.7780  -14.8605   20.0590 O   0  0  0  0  0  0
  -21.6635   -6.8884   21.4237 O   0  0  0  0  0  0
  -22.3497  -14.5522   20.6716 O   0  0  0  0  0  0
  -24.6325  -31.8551   23.2008 C   0  0  0  0  0  0
  -25.9149  -32.4754   23.8354 C   0  0  1  0  0  0
  -27.2156  -27.2378   20.1259 C   0  0  0  0  0  0
  -25.5945  -33.8558   24.2267 N   0  0  0  0  0  0
  -23.4305  -30.4796   21.5434 C   0  0  2  0  0  0
  -24.8792  -28.9305   20.1088 C   0  0  0  0  0  0
  -22.7511  -29.4598   22.4896 C   0  0  0  0  0  0
  -18.0296  -28.1391   22.8479 C   0  0  0  0  0  0
  -24.1490  -36.7280   23.2637 C   0  0  0  0  0  0
  -25.9802  -30.7553   21.3916 C   0  0  0  0  0  0
  -26.0499  -29.3759   20.7356 C   0  0  0  0  0  0
  -27.2154  -28.5371   20.7462 C   0  0  0  0  0  0
  -26.0328  -26.8981   19.4244 C   0  0  0  0  0  0
  -24.8769  -27.6988   19.4434 C   0  0  0  0  0  0
  -23.6515  -29.8195   20.1581 C   0  0  0  0  0  0
  -25.4116  -36.3063   24.0322 C   0  0  1  0  0  0
  -20.5898  -28.3705   23.1259 C   0  0  2  0  0  0
  -20.6784  -26.9419   22.5403 C   0  0  0  0  0  0
  -19.5762  -26.6386   21.5206 C   0  0  0  0  0  0
  -18.1942  -26.7935   22.1619 C   0  0  0  0  0  0
  -19.1548  -28.8865   23.2868 C   0  0  0  0  0  0
  -18.9469  -30.1461   23.8895 C   0  0  0  0  0  0
  -17.6467  -30.6592   24.0554 C   0  0  0  0  0  0
  -25.9059  -34.9434   23.5094 C   0  0  0  0  0  0
  -16.5358  -29.9086   23.6325 C   0  0  0  0  0  0
  -16.7282  -28.6501   23.0355 C   0  0  0  0  0  0
  -26.4516  -31.6581   25.0744 C   0  0  0  0  0  0
  -25.3739  -31.3729   26.1459 C   0  0  0  0  0  0
  -27.0365  -30.2989   24.6254 C   0  0  0  0  0  0
  -27.6064  -32.4323   25.7529 C   0  0  0  0  0  0
  -27.5577  -37.1799   24.8462 C   0  0  0  0  0  0
  -21.4213  -29.3052   22.3644 N   0  0  0  0  0  0
  -26.4288  -37.3762   23.9408 N   0  0  0  0  0  0
  -24.6998  -31.0486   22.1008 N   0  0  0  0  0  0
  -23.4200  -28.8120   23.2989 O   0  0  0  0  0  0
  -28.2885  -26.3022   20.1930 O   0  0  0  0  0  0
  -26.5619  -34.8904   22.4656 O   0  0  0  0  0  0
  -23.5468  -32.1390   23.7282 O   0  0  0  0  0  0
  -29.7548  -19.9235   18.5249 C   0  0  0  0  0  0
  -29.9976  -18.6775   17.9260 C   0  0  0  0  0  0
  -29.6764  -18.8029   20.6752 C   0  0  0  0  0  0
  -29.9065  -17.4706   20.0902 C   0  0  0  0  0  0
  -29.5934  -20.0501   19.9158 C   0  0  0  0  0  0
  -30.0849  -17.4805   18.6690 C   0  0  0  0  0  0
  -28.8384  -23.7603   20.3270 C   0  0  0  0  0  0
  -30.2339  -23.6978   20.7102 C   0  0  0  0  0  0
  -28.4172  -22.3388   20.1402 C   0  0  0  0  0  0
  -28.0334  -24.8845   20.1415 C   0  0  0  0  0  0
  -29.8372  -16.1208   20.9194 C   0  0  0  0  0  0
  -30.6388  -22.2197   20.8249 C   0  0  0  0  0  0
  -29.1628  -16.1337   21.9956 N   0  0  0  0  0  0
  -29.4488  -21.4510   20.4149 N   0  0  0  0  0  0
  -30.3319  -16.3377   17.9056 N   0  0  0  0  0  0
  -31.0003  -24.6410   20.9349 O   0  0  0  0  0  0
  -27.2890  -21.9714   19.7913 O   0  0  0  0  0  0
  -31.4808  -12.5938   19.1962 H   0  0  0  0  0  0
  -30.3914  -11.4892   19.9713 H   0  0  0  0  0  0
  -29.8096  -11.7609   17.5326 H   0  0  0  0  0  0
  -29.6472  -13.4849   17.7489 H   0  0  0  0  0  0
  -27.8903  -11.2972   18.8974 H   0  0  0  0  0  0
  -27.3935  -12.5608   17.8021 H   0  0  0  0  0  0
  -27.6502  -14.2625   19.5014 H   0  0  0  0  0  0
  -28.7345  -12.1178   21.3861 H   0  0  0  0  0  0
  -28.3961  -13.7471   21.8499 H   0  0  0  0  0  0
  -25.2765   -9.5686   22.4754 H   0  0  0  0  0  0
  -24.0002   -7.4634   22.7465 H   0  0  0  0  0  0
  -21.0849   -8.8767   19.8942 H   0  0  0  0  0  0
  -22.3695  -10.9671   19.6159 H   0  0  0  0  0  0
  -21.2025   -7.6156   23.9720 H   0  0  0  0  0  0
  -21.1474   -6.0527   25.9075 H   0  0  0  0  0  0
  -22.0603   -2.7618   23.2831 H   0  0  0  0  0  0
  -22.4109  -11.9859   22.4798 H   0  0  0  0  0  0
  -21.1096  -13.1214   22.2640 H   0  0  0  0  0  0
  -24.6629  -15.8531   20.5437 H   0  0  0  0  0  0
  -26.2923  -15.6347   20.1498 H   0  0  0  0  0  0
  -26.7205  -32.5398   23.1086 H   0  0  0  0  0  0
  -25.0102  -33.9709   25.0418 H   0  0  0  0  0  0
  -22.7278  -31.3027   21.3989 H   0  0  0  0  0  0
  -23.3753  -35.9612   23.3293 H   0  0  0  0  0  0
  -24.3577  -36.8915   22.2052 H   0  0  0  0  0  0
  -23.7247  -37.6480   23.6670 H   0  0  0  0  0  0
  -26.1252  -31.5134   20.6201 H   0  0  0  0  0  0
  -26.8558  -30.8043   22.0269 H   0  0  0  0  0  0
  -28.1037  -28.8656   21.2673 H   0  0  0  0  0  0
  -25.9609  -25.9907   18.8458 H   0  0  0  0  0  0
  -23.9902  -27.3652   18.9216 H   0  0  0  0  0  0
  -23.7806  -30.5996   19.4072 H   0  0  0  0  0  0
  -22.7699  -29.2564   19.8458 H   0  0  0  0  0  0
  -25.1296  -36.1910   25.0813 H   0  0  0  0  0  0
  -20.9994  -28.3291   24.1376 H   0  0  0  0  0  0
  -20.5680  -26.2314   23.3609 H   0  0  0  0  0  0
  -21.6655  -26.7439   22.1202 H   0  0  0  0  0  0
  -19.6922  -25.6291   21.1253 H   0  0  0  0  0  0
  -19.6710  -27.3180   20.6724 H   0  0  0  0  0  0
  -17.4208  -26.6674   21.4024 H   0  0  0  0  0  0
  -18.0347  -26.0081   22.9020 H   0  0  0  0  0  0
  -19.7945  -30.7271   24.2280 H   0  0  0  0  0  0
  -17.5022  -31.6276   24.5151 H   0  0  0  0  0  0
  -15.5358  -30.2986   23.7659 H   0  0  0  0  0  0
  -15.8681  -28.0813   22.7085 H   0  0  0  0  0  0
  -24.5935  -30.7050   25.7792 H   0  0  0  0  0  0
  -24.8908  -32.2894   26.4857 H   0  0  0  0  0  0
  -25.8065  -30.8939   27.0252 H   0  0  0  0  0  0
  -26.2953  -29.6736   24.1261 H   0  0  0  0  0  0
  -27.4003  -29.7254   25.4792 H   0  0  0  0  0  0
  -27.8857  -30.4242   23.9532 H   0  0  0  0  0  0
  -27.2671  -33.3634   26.2080 H   0  0  0  0  0  0
  -28.3903  -32.6867   25.0382 H   0  0  0  0  0  0
  -28.0696  -31.8463   26.5478 H   0  0  0  0  0  0
  -28.2582  -38.0105   24.7506 H   0  0  0  0  0  0
  -28.1089  -36.2637   24.6294 H   0  0  0  0  0  0
  -27.2295  -37.1442   25.8864 H   0  0  0  0  0  0
  -20.9395  -29.8781   21.6856 H   0  0  0  0  0  0
  -26.0165  -38.2834   24.1417 H   0  0  0  0  0  0
  -29.7176  -20.8000   17.8925 H   0  0  0  0  0  0
  -30.1219  -18.6584   16.8519 H   0  0  0  0  0  0
  -29.5525  -18.8704   21.7462 H   0  0  0  0  0  0
  -27.0078  -24.6661   19.9048 H   0  0  0  0  0  0
  -30.9120  -21.9798   21.8519 H   0  0  0  0  0  0
  -31.4862  -22.0092   20.1730 H   0  0  0  0  0  0
  -28.7376  -17.0389   22.1535 H   0  0  0  0  0  0
  -30.5915  -16.4955   16.9375 H   0  0  0  0  0  0
  -30.9599  -15.6575   18.3275 H   0  0  0  0  0  0
  1 25  1  0  0  0
  1 30  2  0  0  0
  1 81  1  0  0  0
  2  3  1  0  0  0
  2 25  1  0  0  0
  2 88  1  0  0  0
  2 89  1  0  0  0
  3  4  1  0  0  0
  3 90  1  0  0  0
  3 91  1  0  0  0
  4  5  1  0  0  0
  4 92  1  0  0  0
  4 93  1  0  0  0
  5  6  1  0  0  0
  5 26  1  0  0  0
  5 94  1  0  0  0
  6 25  1  0  0  0
  6 95  1  0  0  0
  6 96  1  0  0  0
  7  8  2  0  0  0
  7 26  1  0  0  0
  7 29  1  0  0  0
  8  9  1  0  0  0
  8 22  1  0  0  0
  9 10  1  0  0  0
  9 27  2  0  0  0
 10 11  2  0  0  0
 10 15  1  0  0  0
 11 12  1  0  0  0
 11 97  1  0  0  0
 12 13  2  0  0  0
 12 98  1  0  0  0
 13 14  1  0  0  0
 13 31  1  0  0  0
 14 15  2  0  0  0
 14 99  1  0  0  0
 15100  1  0  0  0
 16 17  2  0  0  0
 16 21  1  0  0  0
 16 31  1  0  0  0
 17 18  1  0  0  0
 17101  1  0  0  0
 18 19  2  0  0  0
 18102  1  0  0  0
 19 20  1  0  0  0
 19 24  1  0  0  0
 20 21  2  0  0  0
 20103  1  0  0  0
 21 23  1  0  0  0
 22 28  1  0  0  0
 22 32  2  0  0  0
 26 27  1  0  0  0
 28104  1  0  0  0
 28105  1  0  0  0
 29106  1  0  0  0
 29107  1  0  0  0
 33 34  1  0  0  0
 33 66  1  0  0  0
 33 70  2  0  0  0
 34 36  1  0  0  0
 34 59  1  0  0  0
 34108  1  0  0  0
 35 44  2  0  0  0
 35 45  1  0  0  0
 35 68  1  0  0  0
 36 56  1  0  0  0
 36109  1  0  0  0
 37 39  1  0  0  0
 37 47  1  0  0  0
 37 66  1  0  0  0
 37110  1  0  0  0
 38 43  2  0  0  0
 38 46  1  0  0  0
 38 47  1  0  0  0
 39 64  1  0  0  0
 39 67  2  0  0  0
 40 52  1  0  0  0
 40 53  2  0  0  0
 40 58  1  0  0  0
 41111  1  0  0  0
 41112  1  0  0  0
 41113  1  0  0  0
 41 48  1  0  0  0
 42 43  1  0  0  0
 42 66  1  0  0  0
 42114  1  0  0  0
 42115  1  0  0  0
 43 44  1  0  0  0
 44116  1  0  0  0
 45 46  2  0  0  0
 45117  1  0  0  0
 46118  1  0  0  0
 47119  1  0  0  0
 47120  1  0  0  0
 48 56  1  0  0  0
 48 65  1  0  0  0
 48121  1  0  0  0
 49 50  1  0  0  0
 49 53  1  0  0  0
 49 64  1  0  0  0
 49122  1  0  0  0
 50 51  1  0  0  0
 50123  1  0  0  0
 50124  1  0  0  0
 51 52  1  0  0  0
 51125  1  0  0  0
 51126  1  0  0  0
 52127  1  0  0  0
 52128  1  0  0  0
 53 54  1  0  0  0
 54 55  2  0  0  0
 54129  1  0  0  0
 55 57  1  0  0  0
 55130  1  0  0  0
 56 69  2  0  0  0
 57 58  2  0  0  0
 57131  1  0  0  0
 58132  1  0  0  0
 59 60  1  0  0  0
 59 61  1  0  0  0
 59 62  1  0  0  0
 60133  1  0  0  0
 60134  1  0  0  0
 60135  1  0  0  0
 61136  1  0  0  0
 61137  1  0  0  0
 61138  1  0  0  0
 62139  1  0  0  0
 62140  1  0  0  0
 62141  1  0  0  0
 63 65  1  0  0  0
 63142  1  0  0  0
 63143  1  0  0  0
 63144  1  0  0  0
 64145  1  0  0  0
 65146  1  0  0  0
 68 80  1  0  0  0
 71 72  2  0  0  0
 71 75  1  0  0  0
 71147  1  0  0  0
 72 76  1  0  0  0
 72148  1  0  0  0
 73 74  1  0  0  0
 73 75  2  0  0  0
 73149  1  0  0  0
 74 76  2  0  0  0
 74 81  1  0  0  0
 75 84  1  0  0  0
 76 85  1  0  0  0
 77 78  1  0  0  0
 77 79  1  0  0  0
 77 80  2  0  0  0
 78 82  1  0  0  0
 78 86  2  0  0  0
 79 84  1  0  0  0
 79 87  2  0  0  0
 80150  1  0  0  0
 81 83  2  0  0  0
 82 84  1  0  0  0
 82151  1  0  0  0
 82152  1  0  0  0
 83153  1  0  0  0
 85154  1  0  0  0
 85155  1  0  0  0
M  ISO  4   1 100  68 101  80 101  81 100
M  END
> <chiral flag>
0

> <version>
0

> <s_m_source_file>
/data/baiqing/PycharmProjects/Reinvent-master-3.2/result/LINK_invent/BTK/process_docking_weight1_custom_product_contain_oxygen_bond_distance_aromatic_linkinvent_7_9_3/rearranged_h_0085.sdf

> <i_m_source_file_index>
70

> <r_mmod_Potential_Energy-OPLS-2005>
466.304351806641

> <r_mmod_Stretch_Energy-OPLS-2005>
152.888763427734

> <r_mmod_Bend_Energy-OPLS-2005>
227.967880249023

> <r_mmod_Torsional_Energy-OPLS-2005>
280.859283447266

> <r_mmod_Improper_Torsional_Energy-OPLS-2005>
9.16855812072754

> <r_mmod_Van_der_Waal_Energy-OPLS-2005>
148.327392578125

> <r_mmod_Electrostatic_Energy-OPLS-2005>
-220.023300170898

> <r_mmod_Solvation_Energy-OPLS-2005>
-229.839370727539

> <b_mmod_Minimization_Converged-OPLS-2005>
0

> <r_mmod_RMS_Derivative-OPLS-2005>
1.11316967010498

$$$$
71
                    3D
 Structure written by MMmdl.
154162  0  0  1  0            999 V2000
  -30.6603  -14.5970   20.4919 C   0  0  0  0  0  0
  -30.4262  -12.3368   19.4627 C   0  0  0  0  0  0
  -29.5091  -12.5017   18.2307 C   0  0  0  0  0  0
  -28.0277  -12.3584   18.6326 C   0  0  0  0  0  0
  -27.6530  -13.2228   19.8664 C   0  0  2  0  0  0
  -28.6840  -13.0709   21.0043 C   0  0  0  0  0  0
  -25.2529  -13.8192   20.5672 C   0  0  0  0  0  0
  -24.1790  -13.0451   20.9171 C   0  0  0  0  0  0
  -24.6374  -11.6924   20.8717 C   0  0  0  0  0  0
  -23.9051  -10.4300   21.0392 C   0  0  0  0  0  0
  -24.3610   -9.4218   21.9172 C   0  0  0  0  0  0
  -23.6294   -8.2244   22.0747 C   0  0  0  0  0  0
  -22.4271   -8.0280   21.3544 C   0  0  0  0  0  0
  -21.9905   -9.0249   20.4646 C   0  0  0  0  0  0
  -22.7226  -10.2134   20.3044 C   0  0  0  0  0  0
  -21.6858   -6.0731   22.5272 C   0  0  0  0  0  0
  -21.4021   -6.5636   23.8205 C   0  0  0  0  0  0
  -21.3658   -5.6789   24.9168 C   0  0  0  0  0  0
  -21.6049   -4.3050   24.7220 C   0  0  0  0  0  0
  -21.8818   -3.8143   23.4344 C   0  0  0  0  0  0
  -21.9193   -4.6955   22.3399 C   0  0  0  0  0  0
  -22.7816  -13.5229   21.1851 C   0  0  0  0  0  0
  -22.1658   -4.2139   21.0979 F   0  0  0  0  0  0
  -21.5633   -3.4538   25.7736 F   0  0  0  0  0  0
  -30.0152  -13.3429   20.4560 N   0  0  0  0  0  0
  -26.2965  -12.9390   20.3299 N   0  0  0  0  0  0
  -25.9305  -11.6539   20.5727 N   0  0  0  0  0  0
  -22.0481  -12.8211   22.0426 N   0  0  0  0  0  0
  -25.4242  -15.1923   20.4119 N   0  0  0  0  0  0
  -31.8058  -14.7854   20.0739 O   0  0  0  0  0  0
  -21.6644   -6.8869   21.4232 O   0  0  0  0  0  0
  -22.3503  -14.5539   20.6717 O   0  0  0  0  0  0
  -24.6241  -31.8613   23.2061 C   0  0  0  0  0  0
  -25.9098  -32.4791   23.8376 C   0  0  1  0  0  0
  -27.2229  -27.3555   20.0999 C   0  0  0  0  0  0
  -25.5908  -33.8590   24.2300 N   0  0  0  0  0  0
  -23.4150  -30.4890   21.5484 C   0  0  2  0  0  0
  -24.8592  -28.9499   20.1112 C   0  0  0  0  0  0
  -22.7463  -29.4654   22.4956 C   0  0  0  0  0  0
  -18.0281  -28.1396   22.8490 C   0  0  0  0  0  0
  -24.1484  -36.7303   23.2639 C   0  0  0  0  0  0
  -25.9533  -30.8053   21.3705 C   0  0  0  0  0  0
  -26.0282  -29.4354   20.7118 C   0  0  0  0  0  0
  -27.2125  -28.6459   20.7045 C   0  0  0  0  0  0
  -26.0259  -26.9073   19.4937 C   0  0  0  0  0  0
  -24.8571  -27.6890   19.4959 C   0  0  0  0  0  0
  -23.6264  -29.8260   20.1625 C   0  0  0  0  0  0
  -25.4109  -36.3101   24.0339 C   0  0  1  0  0  0
  -20.5885  -28.3697   23.1299 C   0  0  2  0  0  0
  -20.6773  -26.9434   22.5415 C   0  0  0  0  0  0
  -19.5753  -26.6403   21.5214 C   0  0  0  0  0  0
  -18.1930  -26.7938   22.1625 C   0  0  0  0  0  0
  -19.1533  -28.8866   23.2886 C   0  0  0  0  0  0
  -18.9449  -30.1465   23.8900 C   0  0  0  0  0  0
  -17.6457  -30.6594   24.0583 C   0  0  0  0  0  0
  -25.9043  -34.9463   23.5118 C   0  0  0  0  0  0
  -16.5348  -29.9105   23.6338 C   0  0  0  0  0  0
  -16.7265  -28.6524   23.0346 C   0  0  0  0  0  0
  -26.4488  -31.6591   25.0731 C   0  0  0  0  0  0
  -25.3714  -31.3707   26.1448 C   0  0  0  0  0  0
  -27.0321  -30.3020   24.6157 C   0  0  0  0  0  0
  -27.6065  -32.4310   25.7491 C   0  0  0  0  0  0
  -27.5589  -37.1806   24.8463 C   0  0  0  0  0  0
  -21.4184  -29.3053   22.3693 N   0  0  0  0  0  0
  -26.4286  -37.3802   23.9420 N   0  0  0  0  0  0
  -24.6825  -31.0672   22.0987 N   0  0  0  0  0  0
  -23.4194  -28.8195   23.3034 O   0  0  0  0  0  0
  -28.3308  -26.5058   20.1578 O   0  0  0  0  0  0
  -26.5617  -34.8930   22.4690 O   0  0  0  0  0  0
  -23.5409  -32.1392   23.7418 O   0  0  0  0  0  0
  -29.7313  -19.3396   18.6620 C   0  0  0  0  0  0
  -29.5619  -18.1503   20.7869 C   0  0  0  0  0  0
  -29.9655  -16.9055   18.7360 C   0  0  0  0  0  0
  -29.5315  -19.3967   20.0598 C   0  0  0  0  0  0
  -29.9288  -18.1113   18.0058 C   0  0  0  0  0  0
  -29.7966  -16.8863   20.1421 C   0  0  0  0  0  0
  -28.7115  -24.2006   19.2039 C   0  0  0  0  0  0
  -28.4892  -25.5541   19.1553 C   0  0  0  0  0  0
  -29.3212  -20.7484   20.6990 C   0  0  0  0  0  0
  -28.8656  -23.2821   20.3485 C   0  0  0  0  0  0
  -30.0802  -18.0948   16.6189 N   0  0  0  0  0  0
  -29.0432  -21.8739   19.9568 N   0  0  0  0  0  0
  -29.4469  -20.8394   22.0269 N   0  3  0  0  0  0
  -28.8743  -23.6083   21.5406 O   0  0  0  0  0  0
  -29.7889  -15.6564   20.8285 O   0  0  0  0  0  0
  -31.4753  -12.4418   19.1814 H   0  0  0  0  0  0
  -30.3254  -11.3342   19.8832 H   0  0  0  0  0  0
  -29.7638  -11.7633   17.4703 H   0  0  0  0  0  0
  -29.6718  -13.4789   17.7719 H   0  0  0  0  0  0
  -27.8467  -11.3053   18.8521 H   0  0  0  0  0  0
  -27.3800  -12.6081   17.7907 H   0  0  0  0  0  0
  -27.6795  -14.2608   19.5349 H   0  0  0  0  0  0
  -28.6568  -12.0606   21.4163 H   0  0  0  0  0  0
  -28.4502  -13.7404   21.8333 H   0  0  0  0  0  0
  -25.2753   -9.5699   22.4754 H   0  0  0  0  0  0
  -24.0003   -7.4643   22.7479 H   0  0  0  0  0  0
  -21.0832   -8.8751   19.8973 H   0  0  0  0  0  0
  -22.3661  -10.9660   19.6158 H   0  0  0  0  0  0
  -21.2004   -7.6149   23.9701 H   0  0  0  0  0  0
  -21.1492   -6.0525   25.9071 H   0  0  0  0  0  0
  -22.0601   -2.7603   23.2840 H   0  0  0  0  0  0
  -22.4090  -11.9852   22.4770 H   0  0  0  0  0  0
  -21.1106  -13.1228   22.2667 H   0  0  0  0  0  0
  -24.6620  -15.8497   20.5343 H   0  0  0  0  0  0
  -26.2862  -15.6360   20.1219 H   0  0  0  0  0  0
  -26.7174  -32.5482   23.1140 H   0  0  0  0  0  0
  -25.0029  -33.9737   25.0425 H   0  0  0  0  0  0
  -22.7085  -31.3102   21.4093 H   0  0  0  0  0  0
  -23.3754  -35.9623   23.3282 H   0  0  0  0  0  0
  -24.3595  -36.8932   22.2058 H   0  0  0  0  0  0
  -23.7212  -37.6493   23.6662 H   0  0  0  0  0  0
  -26.0784  -31.5730   20.6049 H   0  0  0  0  0  0
  -26.8363  -30.8549   21.9958 H   0  0  0  0  0  0
  -28.1097  -29.0085   21.1856 H   0  0  0  0  0  0
  -25.9699  -25.9298   19.0362 H   0  0  0  0  0  0
  -23.9588  -27.3079   19.0310 H   0  0  0  0  0  0
  -23.7429  -30.6019   19.4039 H   0  0  0  0  0  0
  -22.7454  -29.2546   19.8640 H   0  0  0  0  0  0
  -25.1293  -36.1952   25.0833 H   0  0  0  0  0  0
  -20.9967  -28.3263   24.1421 H   0  0  0  0  0  0
  -20.5677  -26.2314   23.3609 H   0  0  0  0  0  0
  -21.6646  -26.7480   22.1211 H   0  0  0  0  0  0
  -19.6919  -25.6311   21.1248 H   0  0  0  0  0  0
  -19.6675  -27.3205   20.6739 H   0  0  0  0  0  0
  -17.4204  -26.6680   21.4032 H   0  0  0  0  0  0
  -18.0336  -26.0080   22.9018 H   0  0  0  0  0  0
  -19.7928  -30.7291   24.2266 H   0  0  0  0  0  0
  -17.5009  -31.6270   24.5188 H   0  0  0  0  0  0
  -15.5350  -30.3014   23.7653 H   0  0  0  0  0  0
  -15.8662  -28.0855   22.7053 H   0  0  0  0  0  0
  -24.5911  -30.7039   25.7773 H   0  0  0  0  0  0
  -24.8866  -32.2849   26.4883 H   0  0  0  0  0  0
  -25.8026  -30.8882   27.0225 H   0  0  0  0  0  0
  -26.2885  -29.6775   24.1189 H   0  0  0  0  0  0
  -27.4039  -29.7284   25.4659 H   0  0  0  0  0  0
  -27.8755  -30.4334   23.9371 H   0  0  0  0  0  0
  -27.2707  -33.3622   26.2078 H   0  0  0  0  0  0
  -28.3865  -32.6839   25.0294 H   0  0  0  0  0  0
  -28.0739  -31.8405   26.5382 H   0  0  0  0  0  0
  -28.2598  -38.0118   24.7559 H   0  0  0  0  0  0
  -28.1088  -36.2654   24.6220 H   0  0  0  0  0  0
  -27.2318  -37.1386   25.8867 H   0  0  0  0  0  0
  -20.9354  -29.8761   21.6897 H   0  0  0  0  0  0
  -26.0164  -38.2873   24.1428 H   0  0  0  0  0  0
  -29.7305  -20.2408   18.0671 H   0  0  0  0  0  0
  -29.3990  -18.1521   21.8553 H   0  0  0  0  0  0
  -30.1054  -15.9784   18.1992 H   0  0  0  0  0  0
  -28.7865  -23.7387   18.2310 H   0  0  0  0  0  0
  -28.4119  -26.0342   18.1885 H   0  0  0  0  0  0
  -29.7432  -18.8904   16.0848 H   0  0  0  0  0  0
  -29.9278  -17.2157   16.1332 H   0  0  0  0  0  0
  -28.9839  -21.6262   18.9835 H   0  0  0  0  0  0
  -29.7164  -20.0408   22.5775 H   0  0  0  0  0  0
  -29.3012  -21.7335   22.4770 H   0  0  0  0  0  0
  1 25  1  0  0  0
  1 30  2  0  0  0
  1 85  1  0  0  0
  2  3  1  0  0  0
  2 25  1  0  0  0
  2 86  1  0  0  0
  2 87  1  0  0  0
  3  4  1  0  0  0
  3 88  1  0  0  0
  3 89  1  0  0  0
  4  5  1  0  0  0
  4 90  1  0  0  0
  4 91  1  0  0  0
  5  6  1  0  0  0
  5 26  1  0  0  0
  5 92  1  0  0  0
  6 25  1  0  0  0
  6 93  1  0  0  0
  6 94  1  0  0  0
  7  8  2  0  0  0
  7 26  1  0  0  0
  7 29  1  0  0  0
  8  9  1  0  0  0
  8 22  1  0  0  0
  9 10  1  0  0  0
  9 27  2  0  0  0
 10 11  2  0  0  0
 10 15  1  0  0  0
 11 12  1  0  0  0
 11 95  1  0  0  0
 12 13  2  0  0  0
 12 96  1  0  0  0
 13 14  1  0  0  0
 13 31  1  0  0  0
 14 15  2  0  0  0
 14 97  1  0  0  0
 15 98  1  0  0  0
 16 17  2  0  0  0
 16 21  1  0  0  0
 16 31  1  0  0  0
 17 18  1  0  0  0
 17 99  1  0  0  0
 18 19  2  0  0  0
 18100  1  0  0  0
 19 20  1  0  0  0
 19 24  1  0  0  0
 20 21  2  0  0  0
 20101  1  0  0  0
 21 23  1  0  0  0
 22 28  1  0  0  0
 22 32  2  0  0  0
 26 27  1  0  0  0
 28102  1  0  0  0
 28103  1  0  0  0
 29104  1  0  0  0
 29105  1  0  0  0
 33 34  1  0  0  0
 33 66  1  0  0  0
 33 70  2  0  0  0
 34 36  1  0  0  0
 34 59  1  0  0  0
 34106  1  0  0  0
 35 44  2  0  0  0
 35 45  1  0  0  0
 35 68  1  0  0  0
 36 56  1  0  0  0
 36107  1  0  0  0
 37 39  1  0  0  0
 37 47  1  0  0  0
 37 66  1  0  0  0
 37108  1  0  0  0
 38 43  2  0  0  0
 38 46  1  0  0  0
 38 47  1  0  0  0
 39 64  1  0  0  0
 39 67  2  0  0  0
 40 52  1  0  0  0
 40 53  2  0  0  0
 40 58  1  0  0  0
 41109  1  0  0  0
 41110  1  0  0  0
 41111  1  0  0  0
 41 48  1  0  0  0
 42 43  1  0  0  0
 42 66  1  0  0  0
 42112  1  0  0  0
 42113  1  0  0  0
 43 44  1  0  0  0
 44114  1  0  0  0
 45 46  2  0  0  0
 45115  1  0  0  0
 46116  1  0  0  0
 47117  1  0  0  0
 47118  1  0  0  0
 48 56  1  0  0  0
 48 65  1  0  0  0
 48119  1  0  0  0
 49 50  1  0  0  0
 49 53  1  0  0  0
 49 64  1  0  0  0
 49120  1  0  0  0
 50 51  1  0  0  0
 50121  1  0  0  0
 50122  1  0  0  0
 51 52  1  0  0  0
 51123  1  0  0  0
 51124  1  0  0  0
 52125  1  0  0  0
 52126  1  0  0  0
 53 54  1  0  0  0
 54 55  2  0  0  0
 54127  1  0  0  0
 55 57  1  0  0  0
 55128  1  0  0  0
 56 69  2  0  0  0
 57 58  2  0  0  0
 57129  1  0  0  0
 58130  1  0  0  0
 59 60  1  0  0  0
 59 61  1  0  0  0
 59 62  1  0  0  0
 60131  1  0  0  0
 60132  1  0  0  0
 60133  1  0  0  0
 61134  1  0  0  0
 61135  1  0  0  0
 61136  1  0  0  0
 62137  1  0  0  0
 62138  1  0  0  0
 62139  1  0  0  0
 63 65  1  0  0  0
 63140  1  0  0  0
 63141  1  0  0  0
 63142  1  0  0  0
 64143  1  0  0  0
 65144  1  0  0  0
 68 78  1  0  0  0
 71 74  2  0  0  0
 71 75  1  0  0  0
 71145  1  0  0  0
 72 74  1  0  0  0
 72 76  2  0  0  0
 72146  1  0  0  0
 73 75  2  0  0  0
 73 76  1  0  0  0
 73147  1  0  0  0
 74 79  1  0  0  0
 75 81  1  0  0  0
 76 85  1  0  0  0
 77 78  2  0  0  0
 77 80  1  0  0  0
 77148  1  0  0  0
 78149  1  0  0  0
 79 82  1  0  0  0
 79 83  2  0  0  0
 80 82  1  0  0  0
 80 84  2  0  0  0
 81150  1  0  0  0
 81151  1  0  0  0
 82152  1  0  0  0
 83153  1  0  0  0
 83154  1  0  0  0
M  CHG  1  83   1
M  ISO  4   1 100  68 101  78 101  85 100
M  END
> <chiral flag>
0

> <version>
0

> <s_m_source_file>
/data/baiqing/PycharmProjects/Reinvent-master-3.2/result/LINK_invent/BTK/process_docking_weight1_custom_product_contain_oxygen_bond_distance_aromatic_linkinvent_7_9_3/rearranged_h_0085.sdf

> <i_m_source_file_index>
71

> <r_mmod_Potential_Energy-OPLS-2005>
-239.52555847168

> <r_mmod_Stretch_Energy-OPLS-2005>
68.9353256225586

> <r_mmod_Bend_Energy-OPLS-2005>
144.136245727539

> <r_mmod_Torsional_Energy-OPLS-2005>
185.355743408203

> <r_mmod_Improper_Torsional_Energy-OPLS-2005>
9.00405597686768

> <r_mmod_Van_der_Waal_Energy-OPLS-2005>
154.902770996094

> <r_mmod_Electrostatic_Energy-OPLS-2005>
-374.709777832031

> <r_mmod_Solvation_Energy-OPLS-2005>
-463.422088623047

> <b_mmod_Minimization_Converged-OPLS-2005>
0

> <r_mmod_RMS_Derivative-OPLS-2005>
2.03877758979797

$$$$
72
                    3D
 Structure written by MMmdl.
157166  0  0  1  0            999 V2000
  -30.7277  -14.6313   20.4862 C   0  0  0  0  0  0
  -30.4064  -12.3971   19.4569 C   0  0  0  0  0  0
  -29.4943  -12.5015   18.2202 C   0  0  0  0  0  0
  -28.0192  -12.3531   18.6331 C   0  0  0  0  0  0
  -27.6419  -13.2406   19.8506 C   0  0  2  0  0  0
  -28.6920  -13.1685   20.9821 C   0  0  0  0  0  0
  -25.2506  -13.8225   20.5719 C   0  0  0  0  0  0
  -24.1811  -13.0457   20.9202 C   0  0  0  0  0  0
  -24.6414  -11.6932   20.8746 C   0  0  0  0  0  0
  -23.9089  -10.4302   21.0408 C   0  0  0  0  0  0
  -24.3634   -9.4206   21.9178 C   0  0  0  0  0  0
  -23.6305   -8.2244   22.0754 C   0  0  0  0  0  0
  -22.4281   -8.0289   21.3550 C   0  0  0  0  0  0
  -21.9922   -9.0264   20.4650 C   0  0  0  0  0  0
  -22.7257  -10.2139   20.3060 C   0  0  0  0  0  0
  -21.6854   -6.0744   22.5277 C   0  0  0  0  0  0
  -21.4018   -6.5647   23.8211 C   0  0  0  0  0  0
  -21.3657   -5.6798   24.9172 C   0  0  0  0  0  0
  -21.6045   -4.3061   24.7224 C   0  0  0  0  0  0
  -21.8819   -3.8155   23.4344 C   0  0  0  0  0  0
  -21.9193   -4.6973   22.3401 C   0  0  0  0  0  0
  -22.7825  -13.5217   21.1865 C   0  0  0  0  0  0
  -22.1663   -4.2160   21.0979 F   0  0  0  0  0  0
  -21.5625   -3.4544   25.7736 F   0  0  0  0  0  0
  -29.9992  -13.4717   20.3885 N   0  0  0  0  0  0
  -26.2955  -12.9462   20.3307 N   0  0  0  0  0  0
  -25.9349  -11.6591   20.5755 N   0  0  0  0  0  0
  -22.0487  -12.8194   22.0415 N   0  0  0  0  0  0
  -25.4166  -15.1961   20.4156 N   0  0  0  0  0  0
  -31.9169  -14.6014   20.1637 O   0  0  0  0  0  0
  -21.6645   -6.8889   21.4241 O   0  0  0  0  0  0
  -22.3487  -14.5505   20.6686 O   0  0  0  0  0  0
  -24.6264  -31.8578   23.2083 C   0  0  0  0  0  0
  -25.9100  -32.4770   23.8389 C   0  0  1  0  0  0
  -27.1975  -27.3066   20.0884 C   0  0  0  0  0  0
  -25.5897  -33.8573   24.2283 N   0  0  0  0  0  0
  -23.4220  -30.4896   21.5503 C   0  0  2  0  0  0
  -24.8656  -28.9662   20.0962 C   0  0  0  0  0  0
  -22.7492  -29.4619   22.4926 C   0  0  0  0  0  0
  -18.0288  -28.1391   22.8490 C   0  0  0  0  0  0
  -24.1501  -36.7299   23.2652 C   0  0  0  0  0  0
  -25.9694  -30.7788   21.3927 C   0  0  0  0  0  0
  -26.0384  -29.4144   20.7188 C   0  0  0  0  0  0
  -27.2074  -28.5901   20.7210 C   0  0  0  0  0  0
  -26.0181  -26.9653   19.3763 C   0  0  0  0  0  0
  -24.8583  -27.7468   19.4173 C   0  0  0  0  0  0
  -23.6331  -29.8400   20.1600 C   0  0  0  0  0  0
  -25.4122  -36.3066   24.0327 C   0  0  1  0  0  0
  -20.5889  -28.3699   23.1279 C   0  0  2  0  0  0
  -20.6762  -26.9424   22.5413 C   0  0  0  0  0  0
  -19.5746  -26.6400   21.5208 C   0  0  0  0  0  0
  -18.1928  -26.7933   22.1628 C   0  0  0  0  0  0
  -19.1545  -28.8863   23.2874 C   0  0  0  0  0  0
  -18.9471  -30.1462   23.8902 C   0  0  0  0  0  0
  -17.6470  -30.6597   24.0573 C   0  0  0  0  0  0
  -25.9047  -34.9433   23.5106 C   0  0  0  0  0  0
  -16.5356  -29.9104   23.6334 C   0  0  0  0  0  0
  -16.7273  -28.6514   23.0362 C   0  0  0  0  0  0
  -26.4485  -31.6572   25.0747 C   0  0  0  0  0  0
  -25.3742  -31.3660   26.1484 C   0  0  0  0  0  0
  -27.0339  -30.3002   24.6203 C   0  0  0  0  0  0
  -27.6040  -32.4312   25.7500 C   0  0  0  0  0  0
  -27.5586  -37.1789   24.8476 C   0  0  0  0  0  0
  -21.4200  -29.3051   22.3673 N   0  0  0  0  0  0
  -26.4312  -37.3746   23.9403 N   0  0  0  0  0  0
  -24.6915  -31.0576   22.1059 N   0  0  0  0  0  0
  -23.4207  -28.8110   23.2971 O   0  0  0  0  0  0
  -28.2310  -26.3517   20.2147 O   0  0  0  0  0  0
  -26.5632  -34.8878   22.4682 O   0  0  0  0  0  0
  -23.5421  -32.1405   23.7397 O   0  0  0  0  0  0
  -30.6031  -19.4570   19.9118 C   0  0  0  0  0  0
  -28.7982  -18.7513   21.3348 C   0  0  0  0  0  0
  -30.0667  -20.7768   19.8373 C   0  0  0  0  0  0
  -28.2691  -20.0743   21.2737 C   0  0  0  0  0  0
  -29.9834  -18.4046   20.6471 C   0  0  0  0  0  0
  -28.8707  -21.1267   20.5142 C   0  0  0  0  0  0
  -28.7762  -23.7104   20.3300 C   0  0  0  0  0  0
  -30.7116  -17.0582   20.8147 C   0  0  0  0  0  0
  -26.0151  -23.3360   21.2407 C   0  0  0  0  0  0
  -26.7338  -24.6885   21.3902 C   0  0  0  0  0  0
  -26.7317  -22.3897   20.2553 C   0  0  0  0  0  0
  -27.7574  -24.9289   20.2436 C   0  0  1  0  0  0
  -28.2083  -22.4372   20.3782 N   0  0  0  0  0  0
  -30.0863  -15.8344   20.7006 N   0  0  0  0  0  0
  -29.9936  -23.9214   20.3685 O   0  0  0  0  0  0
  -31.9240  -17.1639   21.0384 O   0  0  0  0  0  0
  -31.4506  -12.4666   19.1469 H   0  0  0  0  0  0
  -30.3064  -11.4206   19.9336 H   0  0  0  0  0  0
  -29.7581  -11.7379   17.4875 H   0  0  0  0  0  0
  -29.6464  -13.4634   17.7280 H   0  0  0  0  0  0
  -27.8496  -11.3026   18.8704 H   0  0  0  0  0  0
  -27.3675  -12.5809   17.7876 H   0  0  0  0  0  0
  -27.6379  -14.2663   19.4820 H   0  0  0  0  0  0
  -28.7026  -12.1779   21.4403 H   0  0  0  0  0  0
  -28.4481  -13.8724   21.7793 H   0  0  0  0  0  0
  -25.2785   -9.5676   22.4742 H   0  0  0  0  0  0
  -24.0016   -7.4640   22.7475 H   0  0  0  0  0  0
  -21.0851   -8.8789   19.8964 H   0  0  0  0  0  0
  -22.3718  -10.9680   19.6171 H   0  0  0  0  0  0
  -21.2016   -7.6159   23.9715 H   0  0  0  0  0  0
  -21.1476   -6.0532   25.9073 H   0  0  0  0  0  0
  -22.0597   -2.7618   23.2840 H   0  0  0  0  0  0
  -22.4138  -11.9877   22.4811 H   0  0  0  0  0  0
  -21.1099  -13.1193   22.2632 H   0  0  0  0  0  0
  -24.6432  -15.8438   20.5233 H   0  0  0  0  0  0
  -26.2621  -15.6415   20.0839 H   0  0  0  0  0  0
  -26.7135  -32.5402   23.1102 H   0  0  0  0  0  0
  -24.9941  -33.9734   25.0345 H   0  0  0  0  0  0
  -22.7196  -31.3143   21.4157 H   0  0  0  0  0  0
  -23.3738  -35.9657   23.3315 H   0  0  0  0  0  0
  -24.3609  -36.8944   22.2073 H   0  0  0  0  0  0
  -23.7258  -37.6501   23.6679 H   0  0  0  0  0  0
  -26.1188  -31.5495   20.6365 H   0  0  0  0  0  0
  -26.8420  -30.8105   22.0317 H   0  0  0  0  0  0
  -28.0937  -28.9060   21.2534 H   0  0  0  0  0  0
  -25.9212  -26.0620   18.7977 H   0  0  0  0  0  0
  -23.9671  -27.4112   18.9041 H   0  0  0  0  0  0
  -23.7401  -30.6188   19.4036 H   0  0  0  0  0  0
  -22.7538  -29.2660   19.8627 H   0  0  0  0  0  0
  -25.1294  -36.1934   25.0818 H   0  0  0  0  0  0
  -20.9950  -28.3255   24.1418 H   0  0  0  0  0  0
  -20.5677  -26.2299   23.3606 H   0  0  0  0  0  0
  -21.6628  -26.7473   22.1219 H   0  0  0  0  0  0
  -19.6913  -25.6316   21.1241 H   0  0  0  0  0  0
  -19.6666  -27.3204   20.6726 H   0  0  0  0  0  0
  -17.4186  -26.6674   21.4037 H   0  0  0  0  0  0
  -18.0352  -26.0086   22.9042 H   0  0  0  0  0  0
  -19.7951  -30.7270   24.2271 H   0  0  0  0  0  0
  -17.5037  -31.6276   24.5187 H   0  0  0  0  0  0
  -15.5361  -30.3012   23.7667 H   0  0  0  0  0  0
  -15.8667  -28.0833   22.7093 H   0  0  0  0  0  0
  -24.5917  -30.7010   25.7808 H   0  0  0  0  0  0
  -24.8932  -32.2803   26.4963 H   0  0  0  0  0  0
  -25.8110  -30.8799   27.0218 H   0  0  0  0  0  0
  -26.2912  -29.6726   24.1265 H   0  0  0  0  0  0
  -27.4082  -29.7272   25.4692 H   0  0  0  0  0  0
  -27.8766  -30.4307   23.9416 H   0  0  0  0  0  0
  -27.2652  -33.3628   26.2046 H   0  0  0  0  0  0
  -28.3851  -32.6847   25.0317 H   0  0  0  0  0  0
  -28.0680  -31.8445   26.5446 H   0  0  0  0  0  0
  -28.2580  -38.0105   24.7520 H   0  0  0  0  0  0
  -28.1105  -36.2623   24.6315 H   0  0  0  0  0  0
  -27.2311  -37.1465   25.8885 H   0  0  0  0  0  0
  -20.9383  -29.8786   21.6891 H   0  0  0  0  0  0
  -26.0198  -38.2821   24.1400 H   0  0  0  0  0  0
  -31.5340  -19.2518   19.4003 H   0  0  0  0  0  0
  -28.3081  -18.0160   21.9579 H   0  0  0  0  0  0
  -30.5812  -21.5136   19.2345 H   0  0  0  0  0  0
  -27.3710  -20.2715   21.8424 H   0  0  0  0  0  0
  -24.9937  -23.4969   20.8919 H   0  0  0  0  0  0
  -25.9214  -22.8627   22.2188 H   0  0  0  0  0  0
  -27.2707  -24.7112   22.3391 H   0  0  0  0  0  0
  -25.9784  -25.4667   21.4794 H   0  0  0  0  0  0
  -26.4747  -22.6718   19.2320 H   0  0  0  0  0  0
  -26.3095  -21.3897   20.3400 H   0  0  0  0  0  0
  -27.3207  -24.7399   19.2670 H   0  0  0  0  0  0
  -29.0806  -15.8360   20.6915 H   0  0  0  0  0  0
  1 25  1  0  0  0
  1 30  2  0  0  0
  1 84  1  0  0  0
  2  3  1  0  0  0
  2 25  1  0  0  0
  2 87  1  0  0  0
  2 88  1  0  0  0
  3  4  1  0  0  0
  3 89  1  0  0  0
  3 90  1  0  0  0
  4  5  1  0  0  0
  4 91  1  0  0  0
  4 92  1  0  0  0
  5  6  1  0  0  0
  5 26  1  0  0  0
  5 93  1  0  0  0
  6 25  1  0  0  0
  6 94  1  0  0  0
  6 95  1  0  0  0
  7  8  2  0  0  0
  7 26  1  0  0  0
  7 29  1  0  0  0
  8  9  1  0  0  0
  8 22  1  0  0  0
  9 10  1  0  0  0
  9 27  2  0  0  0
 10 11  2  0  0  0
 10 15  1  0  0  0
 11 12  1  0  0  0
 11 96  1  0  0  0
 12 13  2  0  0  0
 12 97  1  0  0  0
 13 14  1  0  0  0
 13 31  1  0  0  0
 14 15  2  0  0  0
 14 98  1  0  0  0
 15 99  1  0  0  0
 16 17  2  0  0  0
 16 21  1  0  0  0
 16 31  1  0  0  0
 17 18  1  0  0  0
 17100  1  0  0  0
 18 19  2  0  0  0
 18101  1  0  0  0
 19 20  1  0  0  0
 19 24  1  0  0  0
 20 21  2  0  0  0
 20102  1  0  0  0
 21 23  1  0  0  0
 22 28  1  0  0  0
 22 32  2  0  0  0
 26 27  1  0  0  0
 28103  1  0  0  0
 28104  1  0  0  0
 29105  1  0  0  0
 29106  1  0  0  0
 33 34  1  0  0  0
 33 66  1  0  0  0
 33 70  2  0  0  0
 34 36  1  0  0  0
 34 59  1  0  0  0
 34107  1  0  0  0
 35 44  2  0  0  0
 35 45  1  0  0  0
 35 68  1  0  0  0
 36 56  1  0  0  0
 36108  1  0  0  0
 37 39  1  0  0  0
 37 47  1  0  0  0
 37 66  1  0  0  0
 37109  1  0  0  0
 38 43  2  0  0  0
 38 46  1  0  0  0
 38 47  1  0  0  0
 39 64  1  0  0  0
 39 67  2  0  0  0
 40 52  1  0  0  0
 40 53  2  0  0  0
 40 58  1  0  0  0
 41110  1  0  0  0
 41111  1  0  0  0
 41112  1  0  0  0
 41 48  1  0  0  0
 42 43  1  0  0  0
 42 66  1  0  0  0
 42113  1  0  0  0
 42114  1  0  0  0
 43 44  1  0  0  0
 44115  1  0  0  0
 45 46  2  0  0  0
 45116  1  0  0  0
 46117  1  0  0  0
 47118  1  0  0  0
 47119  1  0  0  0
 48 56  1  0  0  0
 48 65  1  0  0  0
 48120  1  0  0  0
 49 50  1  0  0  0
 49 53  1  0  0  0
 49 64  1  0  0  0
 49121  1  0  0  0
 50 51  1  0  0  0
 50122  1  0  0  0
 50123  1  0  0  0
 51 52  1  0  0  0
 51124  1  0  0  0
 51125  1  0  0  0
 52126  1  0  0  0
 52127  1  0  0  0
 53 54  1  0  0  0
 54 55  2  0  0  0
 54128  1  0  0  0
 55 57  1  0  0  0
 55129  1  0  0  0
 56 69  2  0  0  0
 57 58  2  0  0  0
 57130  1  0  0  0
 58131  1  0  0  0
 59 60  1  0  0  0
 59 61  1  0  0  0
 59 62  1  0  0  0
 60132  1  0  0  0
 60133  1  0  0  0
 60134  1  0  0  0
 61135  1  0  0  0
 61136  1  0  0  0
 61137  1  0  0  0
 62138  1  0  0  0
 62139  1  0  0  0
 62140  1  0  0  0
 63 65  1  0  0  0
 63141  1  0  0  0
 63142  1  0  0  0
 63143  1  0  0  0
 64144  1  0  0  0
 65145  1  0  0  0
 68 82  1  0  0  0
 71 73  2  0  0  0
 71 75  1  0  0  0
 71146  1  0  0  0
 72 74  1  0  0  0
 72 75  2  0  0  0
 72147  1  0  0  0
 73 76  1  0  0  0
 73148  1  0  0  0
 74 76  2  0  0  0
 74149  1  0  0  0
 75 78  1  0  0  0
 76 83  1  0  0  0
 77 82  1  0  0  0
 77 83  1  0  0  0
 77 85  2  0  0  0
 78 84  1  0  0  0
 78 86  2  0  0  0
 79 80  1  0  0  0
 79 81  1  0  0  0
 79150  1  0  0  0
 79151  1  0  0  0
 80 82  1  0  0  0
 80152  1  0  0  0
 80153  1  0  0  0
 81 83  1  0  0  0
 81154  1  0  0  0
 81155  1  0  0  0
 82156  1  0  0  0
 84157  1  0  0  0
M  ISO  4   1 100  68 101  82 101  84 100
M  END
> <chiral flag>
0

> <version>
0

> <s_m_source_file>
/data/baiqing/PycharmProjects/Reinvent-master-3.2/result/LINK_invent/BTK/process_docking_weight1_custom_product_contain_oxygen_bond_distance_aromatic_linkinvent_7_9_3/rearranged_h_0085.sdf

> <i_m_source_file_index>
72

> <r_mmod_Potential_Energy-OPLS-2005>
233.188369750977

> <r_mmod_Stretch_Energy-OPLS-2005>
93.5755310058594

> <r_mmod_Bend_Energy-OPLS-2005>
160.886001586914

> <r_mmod_Torsional_Energy-OPLS-2005>
296.657318115234

> <r_mmod_Improper_Torsional_Energy-OPLS-2005>
6.83029651641846

> <r_mmod_Van_der_Waal_Energy-OPLS-2005>
192.89453125

> <r_mmod_Electrostatic_Energy-OPLS-2005>
-343.012786865234

> <r_mmod_Solvation_Energy-OPLS-2005>
-246.352676391602

> <b_mmod_Minimization_Converged-OPLS-2005>
0

> <r_mmod_RMS_Derivative-OPLS-2005>
2.39241576194763

$$$$
73
                    3D
 Structure written by MMmdl.
149158  0  0  1  0            999 V2000
  -30.5776  -14.8724   20.3889 C   0  0  0  0  0  0
  -30.4324  -12.5300   19.4883 C   0  0  0  0  0  0
  -29.5181  -12.5278   18.2446 C   0  0  0  0  0  0
  -28.0463  -12.3336   18.6534 C   0  0  0  0  0  0
  -27.6337  -13.2468   19.8417 C   0  0  2  0  0  0
  -28.6785  -13.2475   20.9768 C   0  0  0  0  0  0
  -25.2511  -13.8240   20.5736 C   0  0  0  0  0  0
  -24.1822  -13.0457   20.9236 C   0  0  0  0  0  0
  -24.6442  -11.6945   20.8766 C   0  0  0  0  0  0
  -23.9135  -10.4317   21.0425 C   0  0  0  0  0  0
  -24.3679   -9.4201   21.9191 C   0  0  0  0  0  0
  -23.6338   -8.2242   22.0753 C   0  0  0  0  0  0
  -22.4314   -8.0308   21.3560 C   0  0  0  0  0  0
  -21.9982   -9.0297   20.4655 C   0  0  0  0  0  0
  -22.7318  -10.2180   20.3061 C   0  0  0  0  0  0
  -21.6866   -6.0770   22.5279 C   0  0  0  0  0  0
  -21.4019   -6.5653   23.8225 C   0  0  0  0  0  0
  -21.3656   -5.6788   24.9182 C   0  0  0  0  0  0
  -21.6034   -4.3055   24.7217 C   0  0  0  0  0  0
  -21.8822   -3.8173   23.4330 C   0  0  0  0  0  0
  -21.9207   -4.6997   22.3398 C   0  0  0  0  0  0
  -22.7836  -13.5213   21.1877 C   0  0  0  0  0  0
  -22.1659   -4.2176   21.0983 F   0  0  0  0  0  0
  -21.5630   -3.4528   25.7721 F   0  0  0  0  0  0
  -29.9639  -13.6269   20.3788 N   0  0  0  0  0  0
  -26.2928  -12.9466   20.3282 N   0  0  0  0  0  0
  -25.9366  -11.6589   20.5771 N   0  0  0  0  0  0
  -22.0500  -12.8189   22.0434 N   0  0  0  0  0  0
  -25.4192  -15.1972   20.4182 N   0  0  0  0  0  0
  -31.7870  -14.9028   20.1424 O   0  0  0  0  0  0
  -21.6650   -6.8925   21.4256 O   0  0  0  0  0  0
  -22.3511  -14.5523   20.6739 O   0  0  0  0  0  0
  -24.6377  -31.8473   23.1939 C   0  0  0  0  0  0
  -25.9169  -32.4705   23.8315 C   0  0  1  0  0  0
  -27.2061  -27.1798   20.1439 C   0  0  0  0  0  0
  -25.5953  -33.8518   24.2231 N   0  0  0  0  0  0
  -23.4400  -30.4724   21.5348 C   0  0  2  0  0  0
  -24.8906  -28.9084   20.1075 C   0  0  0  0  0  0
  -22.7543  -29.4579   22.4828 C   0  0  0  0  0  0
  -18.0300  -28.1407   22.8464 C   0  0  0  0  0  0
  -24.1495  -36.7273   23.2630 C   0  0  0  0  0  0
  -25.9941  -30.7347   21.3900 C   0  0  0  0  0  0
  -26.0640  -29.3482   20.7342 C   0  0  0  0  0  0
  -27.2278  -28.4958   20.7432 C   0  0  0  0  0  0
  -26.0159  -26.8347   19.4731 C   0  0  0  0  0  0
  -24.8773  -27.6635   19.4625 C   0  0  0  0  0  0
  -23.6689  -29.8110   20.1494 C   0  0  0  0  0  0
  -25.4122  -36.3056   24.0327 C   0  0  1  0  0  0
  -20.5922  -28.3734   23.1223 C   0  0  2  0  0  0
  -20.6796  -26.9443   22.5393 C   0  0  0  0  0  0
  -19.5773  -26.6394   21.5200 C   0  0  0  0  0  0
  -18.1949  -26.7941   22.1623 C   0  0  0  0  0  0
  -19.1551  -28.8883   23.2844 C   0  0  0  0  0  0
  -18.9479  -30.1476   23.8898 C   0  0  0  0  0  0
  -17.6477  -30.6605   24.0572 C   0  0  0  0  0  0
  -25.9060  -34.9417   23.5083 C   0  0  0  0  0  0
  -16.5370  -29.9112   23.6323 C   0  0  0  0  0  0
  -16.7287  -28.6527   23.0337 C   0  0  0  0  0  0
  -26.4534  -31.6530   25.0714 C   0  0  0  0  0  0
  -25.3738  -31.3705   26.1424 C   0  0  0  0  0  0
  -27.0355  -30.2919   24.6228 C   0  0  0  0  0  0
  -27.6090  -32.4248   25.7483 C   0  0  0  0  0  0
  -27.5594  -37.1789   24.8460 C   0  0  0  0  0  0
  -21.4240  -29.3069   22.3586 N   0  0  0  0  0  0
  -26.4294  -37.3763   23.9409 N   0  0  0  0  0  0
  -24.7093  -31.0381   22.0949 N   0  0  0  0  0  0
  -23.4197  -28.8099   23.2938 O   0  0  0  0  0  0
  -28.2361  -26.1883   20.1678 O   0  0  0  0  0  0
  -26.5639  -34.8898   22.4659 O   0  0  0  0  0  0
  -23.5498  -32.1359   23.7156 O   0  0  0  0  0  0
  -31.4315  -18.9397   18.5734 C   0  0  0  0  0  0
  -30.7389  -20.1000   18.9615 C   0  0  0  0  0  0
  -31.1180  -17.6762   19.0916 C   0  0  0  0  0  0
  -29.3609  -18.7554   20.3806 C   0  0  0  0  0  0
  -29.6581  -20.1335   19.8810 C   0  0  0  0  0  0
  -30.0830  -17.4968   20.0328 C   0  0  0  0  0  0
  -28.4188  -23.5395   20.3588 C   0  0  0  0  0  0
  -29.4464  -22.8680   19.5795 C   0  0  0  0  0  0
  -28.0653  -22.1961   20.8602 C   0  0  0  0  0  0
  -27.9085  -24.8390   20.5963 C   0  0  0  0  0  0
  -29.0976  -21.5482   20.0967 N   0  0  0  0  0  0
  -29.8142  -16.0649   20.4935 N   0  0  0  0  0  0
  -30.2550  -23.3313   18.7954 O   0  0  0  0  0  0
  -27.2045  -21.8492   21.6454 O   0  0  0  0  0  0
  -31.4683  -12.6619   19.1787 H   0  0  0  0  0  0
  -30.3959  -11.5705   20.0063 H   0  0  0  0  0  0
  -29.8227  -11.7465   17.5463 H   0  0  0  0  0  0
  -29.6307  -13.4735   17.7108 H   0  0  0  0  0  0
  -27.9133  -11.2858   18.9236 H   0  0  0  0  0  0
  -27.3919  -12.5074   17.7981 H   0  0  0  0  0  0
  -27.6067  -14.2568   19.4368 H   0  0  0  0  0  0
  -28.7414  -12.2654   21.4487 H   0  0  0  0  0  0
  -28.4010  -13.9553   21.7596 H   0  0  0  0  0  0
  -25.2847   -9.5654   22.4760 H   0  0  0  0  0  0
  -24.0041   -7.4628   22.7447 H   0  0  0  0  0  0
  -21.0917   -8.8836   19.8950 H   0  0  0  0  0  0
  -22.3791  -10.9729   19.6165 H   0  0  0  0  0  0
  -21.1990   -7.6170   23.9745 H   0  0  0  0  0  0
  -21.1465   -6.0519   25.9087 H   0  0  0  0  0  0
  -22.0607   -2.7633   23.2828 H   0  0  0  0  0  0
  -22.4128  -11.9836   22.4799 H   0  0  0  0  0  0
  -21.1126  -13.1207   22.2646 H   0  0  0  0  0  0
  -24.6621  -15.8580   20.5445 H   0  0  0  0  0  0
  -26.2706  -15.6354   20.0888 H   0  0  0  0  0  0
  -26.7215  -32.5336   23.1027 H   0  0  0  0  0  0
  -25.0087  -33.9639   25.0370 H   0  0  0  0  0  0
  -22.7414  -31.2971   21.3852 H   0  0  0  0  0  0
  -23.3762  -35.9603   23.3269 H   0  0  0  0  0  0
  -24.3582  -36.8922   22.2054 H   0  0  0  0  0  0
  -23.7243  -37.6461   23.6670 H   0  0  0  0  0  0
  -26.1404  -31.4902   20.6166 H   0  0  0  0  0  0
  -26.8674  -30.7928   22.0277 H   0  0  0  0  0  0
  -28.1213  -28.8200   21.2587 H   0  0  0  0  0  0
  -25.9490  -25.8799   18.9686 H   0  0  0  0  0  0
  -23.9828  -27.3347   18.9503 H   0  0  0  0  0  0
  -23.8112  -30.5932   19.4044 H   0  0  0  0  0  0
  -22.7834  -29.2589   19.8305 H   0  0  0  0  0  0
  -25.1289  -36.1914   25.0819 H   0  0  0  0  0  0
  -21.0003  -28.3343   24.1347 H   0  0  0  0  0  0
  -20.5683  -26.2364   23.3612 H   0  0  0  0  0  0
  -21.6665  -26.7438   22.1208 H   0  0  0  0  0  0
  -19.6947  -25.6287   21.1249 H   0  0  0  0  0  0
  -19.6713  -27.3187   20.6714 H   0  0  0  0  0  0
  -17.4206  -26.6644   21.4048 H   0  0  0  0  0  0
  -18.0392  -26.0099   22.9048 H   0  0  0  0  0  0
  -19.7955  -30.7280   24.2281 H   0  0  0  0  0  0
  -17.5033  -31.6278   24.5188 H   0  0  0  0  0  0
  -15.5365  -30.3026   23.7632 H   0  0  0  0  0  0
  -15.8691  -28.0848   22.7043 H   0  0  0  0  0  0
  -24.5931  -30.7038   25.7729 H   0  0  0  0  0  0
  -24.8921  -32.2888   26.4783 H   0  0  0  0  0  0
  -25.8048  -30.8912   27.0222 H   0  0  0  0  0  0
  -26.2944  -29.6662   24.1248 H   0  0  0  0  0  0
  -27.3993  -29.7185   25.4754 H   0  0  0  0  0  0
  -27.8851  -30.4119   23.9513 H   0  0  0  0  0  0
  -27.2724  -33.3559   26.2045 H   0  0  0  0  0  0
  -28.3936  -32.6770   25.0338 H   0  0  0  0  0  0
  -28.0734  -31.8376   26.5417 H   0  0  0  0  0  0
  -28.2566  -38.0120   24.7520 H   0  0  0  0  0  0
  -28.1132  -36.2649   24.6262 H   0  0  0  0  0  0
  -27.2309  -37.1397   25.8856 H   0  0  0  0  0  0
  -20.9420  -29.8819   21.6819 H   0  0  0  0  0  0
  -26.0173  -38.2833   24.1413 H   0  0  0  0  0  0
  -32.2310  -19.0307   17.8516 H   0  0  0  0  0  0
  -31.0835  -21.0086   18.4919 H   0  0  0  0  0  0
  -31.6953  -16.8444   18.7165 H   0  0  0  0  0  0
  -28.5337  -18.6644   21.0684 H   0  0  0  0  0  0
  -27.0834  -24.8952   21.2906 H   0  0  0  0  0  0
  -28.8792  -15.9030   20.8366 H   0  0  0  0  0  0
  1 25  1  0  0  0
  1 30  2  0  0  0
  1 82  1  0  0  0
  2  3  1  0  0  0
  2 25  1  0  0  0
  2 85  1  0  0  0
  2 86  1  0  0  0
  3  4  1  0  0  0
  3 87  1  0  0  0
  3 88  1  0  0  0
  4  5  1  0  0  0
  4 89  1  0  0  0
  4 90  1  0  0  0
  5  6  1  0  0  0
  5 26  1  0  0  0
  5 91  1  0  0  0
  6 25  1  0  0  0
  6 92  1  0  0  0
  6 93  1  0  0  0
  7  8  2  0  0  0
  7 26  1  0  0  0
  7 29  1  0  0  0
  8  9  1  0  0  0
  8 22  1  0  0  0
  9 10  1  0  0  0
  9 27  2  0  0  0
 10 11  2  0  0  0
 10 15  1  0  0  0
 11 12  1  0  0  0
 11 94  1  0  0  0
 12 13  2  0  0  0
 12 95  1  0  0  0
 13 14  1  0  0  0
 13 31  1  0  0  0
 14 15  2  0  0  0
 14 96  1  0  0  0
 15 97  1  0  0  0
 16 17  2  0  0  0
 16 21  1  0  0  0
 16 31  1  0  0  0
 17 18  1  0  0  0
 17 98  1  0  0  0
 18 19  2  0  0  0
 18 99  1  0  0  0
 19 20  1  0  0  0
 19 24  1  0  0  0
 20 21  2  0  0  0
 20100  1  0  0  0
 21 23  1  0  0  0
 22 28  1  0  0  0
 22 32  2  0  0  0
 26 27  1  0  0  0
 28101  1  0  0  0
 28102  1  0  0  0
 29103  1  0  0  0
 29104  1  0  0  0
 33 34  1  0  0  0
 33 66  1  0  0  0
 33 70  2  0  0  0
 34 36  1  0  0  0
 34 59  1  0  0  0
 34105  1  0  0  0
 35 44  2  0  0  0
 35 45  1  0  0  0
 35 68  1  0  0  0
 36 56  1  0  0  0
 36106  1  0  0  0
 37 39  1  0  0  0
 37 47  1  0  0  0
 37 66  1  0  0  0
 37107  1  0  0  0
 38 43  2  0  0  0
 38 46  1  0  0  0
 38 47  1  0  0  0
 39 64  1  0  0  0
 39 67  2  0  0  0
 40 52  1  0  0  0
 40 53  2  0  0  0
 40 58  1  0  0  0
 41108  1  0  0  0
 41109  1  0  0  0
 41110  1  0  0  0
 41 48  1  0  0  0
 42 43  1  0  0  0
 42 66  1  0  0  0
 42111  1  0  0  0
 42112  1  0  0  0
 43 44  1  0  0  0
 44113  1  0  0  0
 45 46  2  0  0  0
 45114  1  0  0  0
 46115  1  0  0  0
 47116  1  0  0  0
 47117  1  0  0  0
 48 56  1  0  0  0
 48 65  1  0  0  0
 48118  1  0  0  0
 49 50  1  0  0  0
 49 53  1  0  0  0
 49 64  1  0  0  0
 49119  1  0  0  0
 50 51  1  0  0  0
 50120  1  0  0  0
 50121  1  0  0  0
 51 52  1  0  0  0
 51122  1  0  0  0
 51123  1  0  0  0
 52124  1  0  0  0
 52125  1  0  0  0
 53 54  1  0  0  0
 54 55  2  0  0  0
 54126  1  0  0  0
 55 57  1  0  0  0
 55127  1  0  0  0
 56 69  2  0  0  0
 57 58  2  0  0  0
 57128  1  0  0  0
 58129  1  0  0  0
 59 60  1  0  0  0
 59 61  1  0  0  0
 59 62  1  0  0  0
 60130  1  0  0  0
 60131  1  0  0  0
 60132  1  0  0  0
 61133  1  0  0  0
 61134  1  0  0  0
 61135  1  0  0  0
 62136  1  0  0  0
 62137  1  0  0  0
 62138  1  0  0  0
 63 65  1  0  0  0
 63139  1  0  0  0
 63140  1  0  0  0
 63141  1  0  0  0
 64142  1  0  0  0
 65143  1  0  0  0
 68 80  1  0  0  0
 71 72  2  0  0  0
 71 73  1  0  0  0
 71144  1  0  0  0
 72 75  1  0  0  0
 72145  1  0  0  0
 73 76  2  0  0  0
 73146  1  0  0  0
 74 75  2  0  0  0
 74 76  1  0  0  0
 74147  1  0  0  0
 75 81  1  0  0  0
 76 82  1  0  0  0
 77 78  1  0  0  0
 77 79  1  0  0  0
 77 80  2  0  0  0
 78 81  1  0  0  0
 78 83  2  0  0  0
 79 81  1  0  0  0
 79 84  2  0  0  0
 80148  1  0  0  0
 82149  1  0  0  0
M  ISO  4   1 100  68 101  80 101  82 100
M  END
> <chiral flag>
0

> <version>
0

> <s_m_source_file>
/data/baiqing/PycharmProjects/Reinvent-master-3.2/result/LINK_invent/BTK/process_docking_weight1_custom_product_contain_oxygen_bond_distance_aromatic_linkinvent_7_9_3/rearranged_h_0085.sdf

> <i_m_source_file_index>
73

> <r_mmod_Potential_Energy-OPLS-2005>
396.563018798828

> <r_mmod_Stretch_Energy-OPLS-2005>
197.687377929688

> <r_mmod_Bend_Energy-OPLS-2005>
293.702209472656

> <r_mmod_Torsional_Energy-OPLS-2005>
214.117111206055

> <r_mmod_Improper_Torsional_Energy-OPLS-2005>
4.10763216018677

> <r_mmod_Van_der_Waal_Energy-OPLS-2005>
137.703628540039

> <r_mmod_Electrostatic_Energy-OPLS-2005>
-375.018859863281

> <r_mmod_Solvation_Energy-OPLS-2005>
-227.980758666992

> <b_mmod_Minimization_Converged-OPLS-2005>
0

> <r_mmod_RMS_Derivative-OPLS-2005>
4.03958082199097

$$$$
74
                    3D
 Structure written by MMmdl.
157166  0  0  1  0            999 V2000
  -30.5107  -14.8069   20.4503 C   0  0  0  0  0  0
  -30.4691  -12.4939   19.4607 C   0  0  0  0  0  0
  -29.5226  -12.5150   18.2344 C   0  0  0  0  0  0
  -28.0492  -12.3163   18.6519 C   0  0  0  0  0  0
  -27.6466  -13.2117   19.8517 C   0  0  2  0  0  0
  -28.7001  -13.1250   20.9821 C   0  0  0  0  0  0
  -25.2531  -13.8110   20.5697 C   0  0  0  0  0  0
  -24.1806  -13.0379   20.9185 C   0  0  0  0  0  0
  -24.6388  -11.6861   20.8733 C   0  0  0  0  0  0
  -23.9057  -10.4261   21.0406 C   0  0  0  0  0  0
  -24.3611   -9.4184   21.9190 C   0  0  0  0  0  0
  -23.6282   -8.2224   22.0759 C   0  0  0  0  0  0
  -22.4264   -8.0270   21.3546 C   0  0  0  0  0  0
  -21.9898   -9.0243   20.4649 C   0  0  0  0  0  0
  -22.7229  -10.2117   20.3055 C   0  0  0  0  0  0
  -21.6847   -6.0729   22.5281 C   0  0  0  0  0  0
  -21.4009   -6.5634   23.8214 C   0  0  0  0  0  0
  -21.3657   -5.6789   24.9177 C   0  0  0  0  0  0
  -21.6044   -4.3052   24.7226 C   0  0  0  0  0  0
  -21.8822   -3.8141   23.4348 C   0  0  0  0  0  0
  -21.9189   -4.6957   22.3402 C   0  0  0  0  0  0
  -22.7835  -13.5193   21.1857 C   0  0  0  0  0  0
  -22.1661   -4.2144   21.0979 F   0  0  0  0  0  0
  -21.5628   -3.4534   25.7738 F   0  0  0  0  0  0
  -29.9991  -13.5241   20.4121 N   0  0  0  0  0  0
  -26.2962  -12.9294   20.3286 N   0  0  0  0  0  0
  -25.9319  -11.6458   20.5747 N   0  0  0  0  0  0
  -22.0470  -12.8200   22.0416 N   0  0  0  0  0  0
  -25.4147  -15.1847   20.4208 N   0  0  0  0  0  0
  -31.6876  -15.0486   20.1547 O   0  0  0  0  0  0
  -21.6626   -6.8870   21.4245 O   0  0  0  0  0  0
  -22.3533  -14.5509   20.6710 O   0  0  0  0  0  0
  -24.6358  -31.8513   23.1944 C   0  0  0  0  0  0
  -25.9164  -32.4737   23.8309 C   0  0  1  0  0  0
  -27.2352  -27.2300   20.1194 C   0  0  0  0  0  0
  -25.5938  -33.8538   24.2229 N   0  0  0  0  0  0
  -23.4350  -30.4724   21.5388 C   0  0  2  0  0  0
  -24.8835  -28.9139   20.1101 C   0  0  0  0  0  0
  -22.7530  -29.4580   22.4895 C   0  0  0  0  0  0
  -18.0298  -28.1387   22.8481 C   0  0  0  0  0  0
  -24.1489  -36.7275   23.2640 C   0  0  0  0  0  0
  -25.9845  -30.7544   21.3784 C   0  0  0  0  0  0
  -26.0583  -29.3751   20.7165 C   0  0  0  0  0  0
  -27.2322  -28.5476   20.7065 C   0  0  0  0  0  0
  -26.0182  -26.8342   19.5152 C   0  0  0  0  0  0
  -24.8704  -27.6515   19.5000 C   0  0  0  0  0  0
  -23.6557  -29.8045   20.1562 C   0  0  0  0  0  0
  -25.4117  -36.3055   24.0321 C   0  0  1  0  0  0
  -20.5904  -28.3703   23.1256 C   0  0  2  0  0  0
  -20.6780  -26.9414   22.5404 C   0  0  0  0  0  0
  -19.5754  -26.6379   21.5210 C   0  0  0  0  0  0
  -18.1937  -26.7927   22.1624 C   0  0  0  0  0  0
  -19.1553  -28.8862   23.2862 C   0  0  0  0  0  0
  -18.9471  -30.1461   23.8883 C   0  0  0  0  0  0
  -17.6469  -30.6582   24.0561 C   0  0  0  0  0  0
  -25.9062  -34.9430   23.5082 C   0  0  0  0  0  0
  -16.5360  -29.9079   23.6334 C   0  0  0  0  0  0
  -16.7284  -28.6498   23.0352 C   0  0  0  0  0  0
  -26.4511  -31.6578   25.0722 C   0  0  0  0  0  0
  -25.3719  -31.3748   26.1435 C   0  0  0  0  0  0
  -27.0366  -30.2986   24.6248 C   0  0  0  0  0  0
  -27.6052  -32.4334   25.7500 C   0  0  0  0  0  0
  -27.5580  -37.1789   24.8462 C   0  0  0  0  0  0
  -21.4230  -29.3044   22.3644 N   0  0  0  0  0  0
  -26.4287  -37.3761   23.9411 N   0  0  0  0  0  0
  -24.7046  -31.0446   22.0934 N   0  0  0  0  0  0
  -23.4212  -28.8123   23.3011 O   0  0  0  0  0  0
  -28.3461  -26.3344   20.1966 O   0  0  0  0  0  0
  -26.5644  -34.8915   22.4657 O   0  0  0  0  0  0
  -23.5497  -32.1351   23.7214 O   0  0  0  0  0  0
  -31.5677  -20.1296   21.3503 C   0  0  0  0  0  0
  -31.0664  -18.8188   21.1508 C   0  0  0  0  0  0
  -30.8498  -21.2924   20.9683 C   0  0  0  0  0  0
  -29.1120  -19.8485   20.1306 C   0  0  0  0  0  0
  -29.8124  -18.6222   20.5425 C   0  0  0  0  0  0
  -29.5842  -21.2182   20.3368 C   0  0  0  0  0  0
  -28.0945  -24.8000   18.3848 C   0  0  0  0  0  0
  -28.3734  -24.9817   19.6914 C   0  0  0  0  0  0
  -28.9136  -23.7658   20.4546 C   0  0  0  0  0  0
  -29.1419  -17.2288   20.5248 C   0  0  0  0  0  0
  -28.1240  -23.4667   17.6788 C   0  0  0  0  0  0
  -28.0361  -22.3023   18.6752 C   0  0  0  0  0  0
  -28.8876  -22.4773   19.8638 N   0  0  0  0  0  0
  -29.4545  -15.8612   20.5640 N   0  0  0  0  0  0
  -27.8097  -17.3214   20.5153 N   0  3  0  0  0  0
  -29.3819  -23.9033   21.5886 O   0  0  0  0  0  0
  -31.4967  -12.6837   19.1456 H   0  0  0  0  0  0
  -30.4725  -11.5106   19.9335 H   0  0  0  0  0  0
  -29.8147  -11.7429   17.5210 H   0  0  0  0  0  0
  -29.6269  -13.4660   17.7099 H   0  0  0  0  0  0
  -27.9203  -11.2665   18.9182 H   0  0  0  0  0  0
  -27.3877  -12.4969   17.8038 H   0  0  0  0  0  0
  -27.6324  -14.2289   19.4640 H   0  0  0  0  0  0
  -28.7544  -12.1096   21.3780 H   0  0  0  0  0  0
  -28.4235  -13.7585   21.8270 H   0  0  0  0  0  0
  -25.2764   -9.5650   22.4761 H   0  0  0  0  0  0
  -23.9986   -7.4608   22.7477 H   0  0  0  0  0  0
  -21.0829   -8.8759   19.8959 H   0  0  0  0  0  0
  -22.3695  -10.9654   19.6158 H   0  0  0  0  0  0
  -21.2004   -7.6143   23.9716 H   0  0  0  0  0  0
  -21.1477   -6.0519   25.9079 H   0  0  0  0  0  0
  -22.0604   -2.7603   23.2850 H   0  0  0  0  0  0
  -22.4067  -11.9849   22.4797 H   0  0  0  0  0  0
  -21.1100  -13.1255   22.2631 H   0  0  0  0  0  0
  -24.6387  -15.8220   20.5630 H   0  0  0  0  0  0
  -26.2655  -15.6634   20.1635 H   0  0  0  0  0  0
  -26.7233  -32.5371   23.1047 H   0  0  0  0  0  0
  -25.0073  -33.9666   25.0367 H   0  0  0  0  0  0
  -22.7333  -31.2956   21.3896 H   0  0  0  0  0  0
  -23.3755  -35.9603   23.3291 H   0  0  0  0  0  0
  -24.3580  -36.8916   22.2058 H   0  0  0  0  0  0
  -23.7240  -37.6468   23.6680 H   0  0  0  0  0  0
  -26.1306  -31.5163   20.6113 H   0  0  0  0  0  0
  -26.8585  -30.8002   22.0166 H   0  0  0  0  0  0
  -28.1320  -28.8992   21.1919 H   0  0  0  0  0  0
  -25.9080  -25.8552   19.0768 H   0  0  0  0  0  0
  -23.9661  -27.2840   19.0344 H   0  0  0  0  0  0
  -23.7832  -30.5801   19.4000 H   0  0  0  0  0  0
  -22.7733  -29.2393   19.8498 H   0  0  0  0  0  0
  -25.1300  -36.1895   25.0812 H   0  0  0  0  0  0
  -20.9992  -28.3281   24.1379 H   0  0  0  0  0  0
  -20.5671  -26.2314   23.3616 H   0  0  0  0  0  0
  -21.6650  -26.7425   22.1205 H   0  0  0  0  0  0
  -19.6915  -25.6288   21.1246 H   0  0  0  0  0  0
  -19.6688  -27.3185   20.6735 H   0  0  0  0  0  0
  -17.4205  -26.6673   21.4029 H   0  0  0  0  0  0
  -18.0336  -26.0071   22.9022 H   0  0  0  0  0  0
  -19.7945  -30.7282   24.2242 H   0  0  0  0  0  0
  -17.5020  -31.6260   24.5165 H   0  0  0  0  0  0
  -15.5360  -30.2974   23.7660 H   0  0  0  0  0  0
  -15.8685  -28.0811   22.7071 H   0  0  0  0  0  0
  -24.5890  -30.7103   25.7763 H   0  0  0  0  0  0
  -24.8918  -32.2925   26.4840 H   0  0  0  0  0  0
  -25.8019  -30.8936   27.0228 H   0  0  0  0  0  0
  -26.2964  -29.6723   24.1254 H   0  0  0  0  0  0
  -27.4008  -29.7266   25.4792 H   0  0  0  0  0  0
  -27.8858  -30.4250   23.9530 H   0  0  0  0  0  0
  -27.2645  -33.3639   26.2054 H   0  0  0  0  0  0
  -28.3868  -32.6889   25.0333 H   0  0  0  0  0  0
  -28.0714  -31.8481   26.5436 H   0  0  0  0  0  0
  -28.2582  -38.0099   24.7521 H   0  0  0  0  0  0
  -28.1087  -36.2630   24.6267 H   0  0  0  0  0  0
  -27.2302  -37.1414   25.8865 H   0  0  0  0  0  0
  -20.9425  -29.8775   21.6847 H   0  0  0  0  0  0
  -26.0160  -38.2831   24.1418 H   0  0  0  0  0  0
  -32.5302  -20.2525   21.8265 H   0  0  0  0  0  0
  -31.6353  -17.9695   21.5045 H   0  0  0  0  0  0
  -31.3074  -22.2540   21.1483 H   0  0  0  0  0  0
  -28.1408  -19.7397   19.6724 H   0  0  0  0  0  0
  -27.8343  -25.6491   17.7693 H   0  0  0  0  0  0
  -29.0437  -23.4065   17.0954 H   0  0  0  0  0  0
  -27.2954  -23.4144   16.9712 H   0  0  0  0  0  0
  -28.2816  -21.3882   18.1343 H   0  0  0  0  0  0
  -27.0053  -22.1909   19.0165 H   0  0  0  0  0  0
  -28.5585  -15.4629   20.7549 H   0  0  0  0  0  0
  -27.4345  -17.9469   21.2170 H   0  0  0  0  0  0
  -27.4301  -17.5353   19.6021 H   0  0  0  0  0  0
  1 25  1  0  0  0
  1 30  2  0  0  0
  1 84  1  0  0  0
  2  3  1  0  0  0
  2 25  1  0  0  0
  2 87  1  0  0  0
  2 88  1  0  0  0
  3  4  1  0  0  0
  3 89  1  0  0  0
  3 90  1  0  0  0
  4  5  1  0  0  0
  4 91  1  0  0  0
  4 92  1  0  0  0
  5  6  1  0  0  0
  5 26  1  0  0  0
  5 93  1  0  0  0
  6 25  1  0  0  0
  6 94  1  0  0  0
  6 95  1  0  0  0
  7  8  2  0  0  0
  7 26  1  0  0  0
  7 29  1  0  0  0
  8  9  1  0  0  0
  8 22  1  0  0  0
  9 10  1  0  0  0
  9 27  2  0  0  0
 10 11  2  0  0  0
 10 15  1  0  0  0
 11 12  1  0  0  0
 11 96  1  0  0  0
 12 13  2  0  0  0
 12 97  1  0  0  0
 13 14  1  0  0  0
 13 31  1  0  0  0
 14 15  2  0  0  0
 14 98  1  0  0  0
 15 99  1  0  0  0
 16 17  2  0  0  0
 16 21  1  0  0  0
 16 31  1  0  0  0
 17 18  1  0  0  0
 17100  1  0  0  0
 18 19  2  0  0  0
 18101  1  0  0  0
 19 20  1  0  0  0
 19 24  1  0  0  0
 20 21  2  0  0  0
 20102  1  0  0  0
 21 23  1  0  0  0
 22 28  1  0  0  0
 22 32  2  0  0  0
 26 27  1  0  0  0
 28103  1  0  0  0
 28104  1  0  0  0
 29105  1  0  0  0
 29106  1  0  0  0
 33 34  1  0  0  0
 33 66  1  0  0  0
 33 70  2  0  0  0
 34 36  1  0  0  0
 34 59  1  0  0  0
 34107  1  0  0  0
 35 44  2  0  0  0
 35 45  1  0  0  0
 35 68  1  0  0  0
 36 56  1  0  0  0
 36108  1  0  0  0
 37 39  1  0  0  0
 37 47  1  0  0  0
 37 66  1  0  0  0
 37109  1  0  0  0
 38 43  2  0  0  0
 38 46  1  0  0  0
 38 47  1  0  0  0
 39 64  1  0  0  0
 39 67  2  0  0  0
 40 52  1  0  0  0
 40 53  2  0  0  0
 40 58  1  0  0  0
 41110  1  0  0  0
 41111  1  0  0  0
 41112  1  0  0  0
 41 48  1  0  0  0
 42 43  1  0  0  0
 42 66  1  0  0  0
 42113  1  0  0  0
 42114  1  0  0  0
 43 44  1  0  0  0
 44115  1  0  0  0
 45 46  2  0  0  0
 45116  1  0  0  0
 46117  1  0  0  0
 47118  1  0  0  0
 47119  1  0  0  0
 48 56  1  0  0  0
 48 65  1  0  0  0
 48120  1  0  0  0
 49 50  1  0  0  0
 49 53  1  0  0  0
 49 64  1  0  0  0
 49121  1  0  0  0
 50 51  1  0  0  0
 50122  1  0  0  0
 50123  1  0  0  0
 51 52  1  0  0  0
 51124  1  0  0  0
 51125  1  0  0  0
 52126  1  0  0  0
 52127  1  0  0  0
 53 54  1  0  0  0
 54 55  2  0  0  0
 54128  1  0  0  0
 55 57  1  0  0  0
 55129  1  0  0  0
 56 69  2  0  0  0
 57 58  2  0  0  0
 57130  1  0  0  0
 58131  1  0  0  0
 59 60  1  0  0  0
 59 61  1  0  0  0
 59 62  1  0  0  0
 60132  1  0  0  0
 60133  1  0  0  0
 60134  1  0  0  0
 61135  1  0  0  0
 61136  1  0  0  0
 61137  1  0  0  0
 62138  1  0  0  0
 62139  1  0  0  0
 62140  1  0  0  0
 63 65  1  0  0  0
 63141  1  0  0  0
 63142  1  0  0  0
 63143  1  0  0  0
 64144  1  0  0  0
 65145  1  0  0  0
 68 78  1  0  0  0
 71 72  2  0  0  0
 71 73  1  0  0  0
 71146  1  0  0  0
 72 75  1  0  0  0
 72147  1  0  0  0
 73 76  2  0  0  0
 73148  1  0  0  0
 74 75  2  0  0  0
 74 76  1  0  0  0
 74149  1  0  0  0
 75 80  1  0  0  0
 76 83  1  0  0  0
 77 78  2  0  0  0
 77 81  1  0  0  0
 77150  1  0  0  0
 78 79  1  0  0  0
 79 83  1  0  0  0
 79 86  2  0  0  0
 80 84  1  0  0  0
 80 85  2  0  0  0
 81 82  1  0  0  0
 81151  1  0  0  0
 81152  1  0  0  0
 82 83  1  0  0  0
 82153  1  0  0  0
 82154  1  0  0  0
 84155  1  0  0  0
 85156  1  0  0  0
 85157  1  0  0  0
M  CHG  1  85   1
M  ISO  4   1 100  68 101  78 101  84 100
M  END
> <chiral flag>
0

> <version>
0

> <s_m_source_file>
/data/baiqing/PycharmProjects/Reinvent-master-3.2/result/LINK_invent/BTK/process_docking_weight1_custom_product_contain_oxygen_bond_distance_aromatic_linkinvent_7_9_3/rearranged_h_0085.sdf

> <i_m_source_file_index>
74

> <r_mmod_Potential_Energy-OPLS-2005>
202.651611328125

> <r_mmod_Stretch_Energy-OPLS-2005>
158.545440673828

> <r_mmod_Bend_Energy-OPLS-2005>
294.685119628906

> <r_mmod_Torsional_Energy-OPLS-2005>
293.637634277344

> <r_mmod_Improper_Torsional_Energy-OPLS-2005>
13.7829427719116

> <r_mmod_Van_der_Waal_Energy-OPLS-2005>
155.449264526367

> <r_mmod_Electrostatic_Energy-OPLS-2005>
-357.877868652344

> <r_mmod_Solvation_Energy-OPLS-2005>
-471.551513671875

> <b_mmod_Minimization_Converged-OPLS-2005>
0

> <r_mmod_RMS_Derivative-OPLS-2005>
0.784874141216278

$$$$
75
                    3D
 Structure written by MMmdl.
153161  0  0  1  0            999 V2000
  -30.7301  -14.4220   20.6202 C   0  0  0  0  0  0
  -30.4212  -12.2934   19.4100 C   0  0  0  0  0  0
  -29.4905  -12.5128   18.2007 C   0  0  0  0  0  0
  -28.0123  -12.3760   18.6148 C   0  0  0  0  0  0
  -27.6658  -13.2045   19.8808 C   0  0  2  0  0  0
  -28.7062  -12.9573   20.9966 C   0  0  0  0  0  0
  -25.2600  -13.8157   20.5679 C   0  0  0  0  0  0
  -24.1841  -13.0435   20.9154 C   0  0  0  0  0  0
  -24.6393  -11.6902   20.8720 C   0  0  0  0  0  0
  -23.9058  -10.4291   21.0397 C   0  0  0  0  0  0
  -24.3611   -9.4208   21.9178 C   0  0  0  0  0  0
  -23.6286   -8.2243   22.0751 C   0  0  0  0  0  0
  -22.4267   -8.0281   21.3544 C   0  0  0  0  0  0
  -21.9903   -9.0253   20.4645 C   0  0  0  0  0  0
  -22.7230  -10.2132   20.3049 C   0  0  0  0  0  0
  -21.6853   -6.0732   22.5277 C   0  0  0  0  0  0
  -21.4015   -6.5637   23.8210 C   0  0  0  0  0  0
  -21.3660   -5.6790   24.9173 C   0  0  0  0  0  0
  -21.6042   -4.3052   24.7225 C   0  0  0  0  0  0
  -21.8820   -3.8144   23.4346 C   0  0  0  0  0  0
  -21.9192   -4.6959   22.3402 C   0  0  0  0  0  0
  -22.7865  -13.5236   21.1822 C   0  0  0  0  0  0
  -22.1661   -4.2143   21.0979 F   0  0  0  0  0  0
  -21.5628   -3.4538   25.7740 F   0  0  0  0  0  0
  -30.0433  -13.2600   20.4526 N   0  0  0  0  0  0
  -26.3045  -12.9326   20.3394 N   0  0  0  0  0  0
  -25.9323  -11.6484   20.5767 N   0  0  0  0  0  0
  -22.0507  -12.8236   22.0388 N   0  0  0  0  0  0
  -25.4328  -15.1873   20.4114 N   0  0  0  0  0  0
  -31.8156  -14.6340   20.0727 O   0  0  0  0  0  0
  -21.6636   -6.8875   21.4239 O   0  0  0  0  0  0
  -22.3547  -14.5543   20.6676 O   0  0  0  0  0  0
  -24.6099  -31.8704   23.2115 C   0  0  0  0  0  0
  -25.9008  -32.4837   23.8408 C   0  0  1  0  0  0
  -27.2513  -27.4679   20.1024 C   0  0  0  0  0  0
  -25.5874  -33.8632   24.2344 N   0  0  0  0  0  0
  -23.3973  -30.4921   21.5510 C   0  0  2  0  0  0
  -24.8481  -28.9576   20.1198 C   0  0  0  0  0  0
  -22.7391  -29.4669   22.5010 C   0  0  0  0  0  0
  -18.0271  -28.1382   22.8503 C   0  0  0  0  0  0
  -24.1483  -36.7322   23.2641 C   0  0  0  0  0  0
  -25.9201  -30.8499   21.3564 C   0  0  0  0  0  0
  -26.0025  -29.4830   20.7122 C   0  0  0  0  0  0
  -27.2065  -28.7492   20.7016 C   0  0  0  0  0  0
  -26.0822  -26.9526   19.5068 C   0  0  0  0  0  0
  -24.8802  -27.6885   19.5148 C   0  0  0  0  0  0
  -23.6055  -29.8185   20.1673 C   0  0  0  0  0  0
  -25.4104  -36.3126   24.0346 C   0  0  1  0  0  0
  -20.5859  -28.3662   23.1337 C   0  0  2  0  0  0
  -20.6757  -26.9400   22.5430 C   0  0  0  0  0  0
  -19.5735  -26.6394   21.5223 C   0  0  0  0  0  0
  -18.1916  -26.7932   22.1635 C   0  0  0  0  0  0
  -19.1518  -28.8839   23.2919 C   0  0  0  0  0  0
  -18.9446  -30.1448   23.8926 C   0  0  0  0  0  0
  -17.6448  -30.6585   24.0576 C   0  0  0  0  0  0
  -25.9028  -34.9484   23.5144 C   0  0  0  0  0  0
  -16.5340  -29.9093   23.6326 C   0  0  0  0  0  0
  -16.7261  -28.6510   23.0347 C   0  0  0  0  0  0
  -26.4458  -31.6600   25.0712 C   0  0  0  0  0  0
  -25.3738  -31.3680   26.1468 C   0  0  0  0  0  0
  -27.0284  -30.3055   24.6043 C   0  0  0  0  0  0
  -27.6055  -32.4301   25.7460 C   0  0  0  0  0  0
  -27.5583  -37.1816   24.8469 C   0  0  0  0  0  0
  -21.4124  -29.3031   22.3747 N   0  0  0  0  0  0
  -26.4298  -37.3803   23.9410 N   0  0  0  0  0  0
  -24.6604  -31.0844   22.0991 N   0  0  0  0  0  0
  -23.4183  -28.8218   23.3042 O   0  0  0  0  0  0
  -28.3894  -26.6948   20.0384 O   0  0  0  0  0  0
  -26.5593  -34.8925   22.4709 O   0  0  0  0  0  0
  -23.5300  -32.1435   23.7532 O   0  0  0  0  0  0
  -31.8649  -18.6902   21.5722 C   0  0  0  0  0  0
  -31.6710  -17.3106   21.3562 C   0  0  0  0  0  0
  -29.5175  -18.9328   22.1647 C   0  0  0  0  0  0
  -30.7929  -19.5129   21.9827 C   0  0  0  0  0  0
  -30.3919  -16.7297   21.5364 C   0  0  0  0  0  0
  -29.3218  -17.5537   21.9432 C   0  0  0  0  0  0
  -29.7538  -25.4912   21.6282 C   0  0  0  0  0  0
  -29.2039  -26.6227   21.1393 C   0  0  0  0  0  0
  -30.2471  -22.0092   21.5182 C   0  0  0  0  0  0
  -29.5490  -24.1572   21.0785 C   0  0  0  0  0  0
  -31.0461  -20.9834   22.3096 C   0  0  0  0  0  0
  -30.2880  -23.2488   21.8238 N   0  0  0  0  0  0
  -30.1042  -15.3435   21.3706 N   0  0  0  0  0  0
  -28.8240  -23.9074   20.1103 O   0  0  0  0  0  0
  -28.0952  -17.0080   22.1297 F   0  0  0  0  0  0
  -31.4651  -12.3893   19.1056 H   0  0  0  0  0  0
  -30.3193  -11.2764   19.7911 H   0  0  0  0  0  0
  -29.7242  -11.7971   17.4113 H   0  0  0  0  0  0
  -29.6643  -13.5031   17.7763 H   0  0  0  0  0  0
  -27.8175  -11.3190   18.7997 H   0  0  0  0  0  0
  -27.3612  -12.6638   17.7885 H   0  0  0  0  0  0
  -27.7192  -14.2570   19.6002 H   0  0  0  0  0  0
  -28.6755  -11.9140   21.3141 H   0  0  0  0  0  0
  -28.4609  -13.5318   21.8903 H   0  0  0  0  0  0
  -25.2757   -9.5684   22.4751 H   0  0  0  0  0  0
  -23.9994   -7.4637   22.7473 H   0  0  0  0  0  0
  -21.0833   -8.8771   19.8955 H   0  0  0  0  0  0
  -22.3688  -10.9668   19.6155 H   0  0  0  0  0  0
  -21.2010   -7.6146   23.9712 H   0  0  0  0  0  0
  -21.1480   -6.0521   25.9075 H   0  0  0  0  0  0
  -22.0600   -2.7605   23.2849 H   0  0  0  0  0  0
  -22.4120  -11.9897   22.4779 H   0  0  0  0  0  0
  -21.1125  -13.1267   22.2590 H   0  0  0  0  0  0
  -24.6762  -15.8482   20.5478 H   0  0  0  0  0  0
  -26.3073  -15.6336   20.1641 H   0  0  0  0  0  0
  -26.7088  -32.5583   23.1189 H   0  0  0  0  0  0
  -25.0022  -33.9800   25.0485 H   0  0  0  0  0  0
  -22.6840  -31.3073   21.4107 H   0  0  0  0  0  0
  -23.3737  -35.9666   23.3326 H   0  0  0  0  0  0
  -24.3576  -36.8906   22.2051 H   0  0  0  0  0  0
  -23.7240  -37.6538   23.6630 H   0  0  0  0  0  0
  -26.0204  -31.6132   20.5833 H   0  0  0  0  0  0
  -26.8115  -30.9132   21.9683 H   0  0  0  0  0  0
  -28.0904  -29.1840   21.1435 H   0  0  0  0  0  0
  -26.1085  -25.9789   19.0379 H   0  0  0  0  0  0
  -23.9932  -27.2757   19.0545 H   0  0  0  0  0  0
  -23.7084  -30.5904   19.4038 H   0  0  0  0  0  0
  -22.7324  -29.2325   19.8758 H   0  0  0  0  0  0
  -25.1275  -36.2007   25.0841 H   0  0  0  0  0  0
  -20.9963  -28.3226   24.1452 H   0  0  0  0  0  0
  -20.5672  -26.2259   23.3611 H   0  0  0  0  0  0
  -21.6626  -26.7450   22.1214 H   0  0  0  0  0  0
  -19.6890  -25.6314   21.1229 H   0  0  0  0  0  0
  -19.6670  -27.3226   20.6770 H   0  0  0  0  0  0
  -17.4188  -26.6693   21.4037 H   0  0  0  0  0  0
  -18.0305  -26.0067   22.9018 H   0  0  0  0  0  0
  -19.7920  -30.7262   24.2303 H   0  0  0  0  0  0
  -17.4999  -31.6267   24.5174 H   0  0  0  0  0  0
  -15.5341  -30.3002   23.7628 H   0  0  0  0  0  0
  -15.8661  -28.0840   22.7042 H   0  0  0  0  0  0
  -24.5905  -30.7037   25.7797 H   0  0  0  0  0  0
  -24.8927  -32.2824   26.4954 H   0  0  0  0  0  0
  -25.8101  -30.8819   27.0203 H   0  0  0  0  0  0
  -26.2813  -29.6814   24.1122 H   0  0  0  0  0  0
  -27.4108  -29.7285   25.4473 H   0  0  0  0  0  0
  -27.8622  -30.4390   23.9145 H   0  0  0  0  0  0
  -27.2702  -33.3587   26.2088 H   0  0  0  0  0  0
  -28.3836  -32.6879   25.0266 H   0  0  0  0  0  0
  -28.0752  -31.8386   26.5326 H   0  0  0  0  0  0
  -28.2626  -38.0092   24.7507 H   0  0  0  0  0  0
  -28.1053  -36.2623   24.6309 H   0  0  0  0  0  0
  -27.2297  -37.1501   25.8873 H   0  0  0  0  0  0
  -20.9272  -29.8742   21.6966 H   0  0  0  0  0  0
  -26.0193  -38.2887   24.1395 H   0  0  0  0  0  0
  -32.8551  -19.1071   21.4433 H   0  0  0  0  0  0
  -32.5263  -16.7160   21.0721 H   0  0  0  0  0  0
  -28.6845  -19.5361   22.4965 H   0  0  0  0  0  0
  -30.3894  -25.5969   22.4965 H   0  0  0  0  0  0
  -29.3956  -27.5817   21.5955 H   0  0  0  0  0  0
  -29.6596  -21.5979   20.6906 H   0  0  0  0  0  0
  -32.1050  -21.2076   22.1765 H   0  0  0  0  0  0
  -30.8422  -21.1311   23.3706 H   0  0  0  0  0  0
  -29.2037  -15.0580   21.7251 H   0  0  0  0  0  0
  1 25  1  0  0  0
  1 30  2  0  0  0
  1 83  1  0  0  0
  2  3  1  0  0  0
  2 25  1  0  0  0
  2 86  1  0  0  0
  2 87  1  0  0  0
  3  4  1  0  0  0
  3 88  1  0  0  0
  3 89  1  0  0  0
  4  5  1  0  0  0
  4 90  1  0  0  0
  4 91  1  0  0  0
  5  6  1  0  0  0
  5 26  1  0  0  0
  5 92  1  0  0  0
  6 25  1  0  0  0
  6 93  1  0  0  0
  6 94  1  0  0  0
  7  8  2  0  0  0
  7 26  1  0  0  0
  7 29  1  0  0  0
  8  9  1  0  0  0
  8 22  1  0  0  0
  9 10  1  0  0  0
  9 27  2  0  0  0
 10 11  2  0  0  0
 10 15  1  0  0  0
 11 12  1  0  0  0
 11 95  1  0  0  0
 12 13  2  0  0  0
 12 96  1  0  0  0
 13 14  1  0  0  0
 13 31  1  0  0  0
 14 15  2  0  0  0
 14 97  1  0  0  0
 15 98  1  0  0  0
 16 17  2  0  0  0
 16 21  1  0  0  0
 16 31  1  0  0  0
 17 18  1  0  0  0
 17 99  1  0  0  0
 18 19  2  0  0  0
 18100  1  0  0  0
 19 20  1  0  0  0
 19 24  1  0  0  0
 20 21  2  0  0  0
 20101  1  0  0  0
 21 23  1  0  0  0
 22 28  1  0  0  0
 22 32  2  0  0  0
 26 27  1  0  0  0
 28102  1  0  0  0
 28103  1  0  0  0
 29104  1  0  0  0
 29105  1  0  0  0
 33 34  1  0  0  0
 33 66  1  0  0  0
 33 70  2  0  0  0
 34 36  1  0  0  0
 34 59  1  0  0  0
 34106  1  0  0  0
 35 44  2  0  0  0
 35 45  1  0  0  0
 35 68  1  0  0  0
 36 56  1  0  0  0
 36107  1  0  0  0
 37 39  1  0  0  0
 37 47  1  0  0  0
 37 66  1  0  0  0
 37108  1  0  0  0
 38 43  2  0  0  0
 38 46  1  0  0  0
 38 47  1  0  0  0
 39 64  1  0  0  0
 39 67  2  0  0  0
 40 52  1  0  0  0
 40 53  2  0  0  0
 40 58  1  0  0  0
 41109  1  0  0  0
 41110  1  0  0  0
 41111  1  0  0  0
 41 48  1  0  0  0
 42 43  1  0  0  0
 42 66  1  0  0  0
 42112  1  0  0  0
 42113  1  0  0  0
 43 44  1  0  0  0
 44114  1  0  0  0
 45 46  2  0  0  0
 45115  1  0  0  0
 46116  1  0  0  0
 47117  1  0  0  0
 47118  1  0  0  0
 48 56  1  0  0  0
 48 65  1  0  0  0
 48119  1  0  0  0
 49 50  1  0  0  0
 49 53  1  0  0  0
 49 64  1  0  0  0
 49120  1  0  0  0
 50 51  1  0  0  0
 50121  1  0  0  0
 50122  1  0  0  0
 51 52  1  0  0  0
 51123  1  0  0  0
 51124  1  0  0  0
 52125  1  0  0  0
 52126  1  0  0  0
 53 54  1  0  0  0
 54 55  2  0  0  0
 54127  1  0  0  0
 55 57  1  0  0  0
 55128  1  0  0  0
 56 69  2  0  0  0
 57 58  2  0  0  0
 57129  1  0  0  0
 58130  1  0  0  0
 59 60  1  0  0  0
 59 61  1  0  0  0
 59 62  1  0  0  0
 60131  1  0  0  0
 60132  1  0  0  0
 60133  1  0  0  0
 61134  1  0  0  0
 61135  1  0  0  0
 61136  1  0  0  0
 62137  1  0  0  0
 62138  1  0  0  0
 62139  1  0  0  0
 63 65  1  0  0  0
 63140  1  0  0  0
 63141  1  0  0  0
 63142  1  0  0  0
 64143  1  0  0  0
 65144  1  0  0  0
 68 78  1  0  0  0
 71 72  2  0  0  0
 71 74  1  0  0  0
 71145  1  0  0  0
 72 75  1  0  0  0
 72146  1  0  0  0
 73 74  2  0  0  0
 73 76  1  0  0  0
 73147  1  0  0  0
 74 81  1  0  0  0
 75 76  2  0  0  0
 75 83  1  0  0  0
 76 85  1  0  0  0
 77 78  2  0  0  0
 77 80  1  0  0  0
 77148  1  0  0  0
 78149  1  0  0  0
 79 81  1  0  0  0
 79 82  2  0  0  0
 79150  1  0  0  0
 80 82  1  0  0  0
 80 84  2  0  0  0
 81151  1  0  0  0
 81152  1  0  0  0
 83153  1  0  0  0
M  ISO  4   1 100  68 101  78 101  83 100
M  END
> <chiral flag>
0

> <version>
0

> <s_m_source_file>
/data/baiqing/PycharmProjects/Reinvent-master-3.2/result/LINK_invent/BTK/process_docking_weight1_custom_product_contain_oxygen_bond_distance_aromatic_linkinvent_7_9_3/rearranged_h_0085.sdf

> <i_m_source_file_index>
75

> <r_mmod_Potential_Energy-OPLS-2005>
-77.395393371582

> <r_mmod_Stretch_Energy-OPLS-2005>
34.4460983276367

> <r_mmod_Bend_Energy-OPLS-2005>
111.525184631348

> <r_mmod_Torsional_Energy-OPLS-2005>
207.105056762695

> <r_mmod_Improper_Torsional_Energy-OPLS-2005>
2.7177050113678

> <r_mmod_Van_der_Waal_Energy-OPLS-2005>
167.899963378906

> <r_mmod_Electrostatic_Energy-OPLS-2005>
-407.423156738281

> <r_mmod_Solvation_Energy-OPLS-2005>
-200.908248901367

> <b_mmod_Minimization_Converged-OPLS-2005>
0

> <r_mmod_RMS_Derivative-OPLS-2005>
0.845564305782318

$$$$
76
                    3D
 Structure written by MMmdl.
159168  0  0  1  0            999 V2000
  -30.6111  -14.8325   20.5048 C   0  0  0  0  0  0
  -30.4138  -12.5366   19.4955 C   0  0  0  0  0  0
  -29.5043  -12.5452   18.2470 C   0  0  0  0  0  0
  -28.0355  -12.3388   18.6621 C   0  0  0  0  0  0
  -27.6228  -13.2487   19.8506 C   0  0  2  0  0  0
  -28.6615  -13.2409   20.9916 C   0  0  0  0  0  0
  -25.2392  -13.8251   20.5687 C   0  0  0  0  0  0
  -24.1714  -13.0459   20.9183 C   0  0  0  0  0  0
  -24.6339  -11.6926   20.8754 C   0  0  0  0  0  0
  -23.9025  -10.4285   21.0390 C   0  0  0  0  0  0
  -24.3570   -9.4193   21.9166 C   0  0  0  0  0  0
  -23.6245   -8.2231   22.0746 C   0  0  0  0  0  0
  -22.4234   -8.0266   21.3536 C   0  0  0  0  0  0
  -21.9859   -9.0240   20.4640 C   0  0  0  0  0  0
  -22.7187  -10.2127   20.3033 C   0  0  0  0  0  0
  -21.6849   -6.0699   22.5280 C   0  0  0  0  0  0
  -21.4013   -6.5601   23.8212 C   0  0  0  0  0  0
  -21.3664   -5.6769   24.9189 C   0  0  0  0  0  0
  -21.6051   -4.3021   24.7256 C   0  0  0  0  0  0
  -21.8814   -3.8102   23.4376 C   0  0  0  0  0  0
  -21.9188   -4.6919   22.3422 C   0  0  0  0  0  0
  -22.7733  -13.5205   21.1913 C   0  0  0  0  0  0
  -22.1633   -4.2100   21.0997 F   0  0  0  0  0  0
  -21.5660   -3.4505   25.7769 F   0  0  0  0  0  0
  -29.9549  -13.6162   20.4083 N   0  0  0  0  0  0
  -26.2832  -12.9475   20.3299 N   0  0  0  0  0  0
  -25.9285  -11.6587   20.5750 N   0  0  0  0  0  0
  -22.0380  -12.8186   22.0464 N   0  0  0  0  0  0
  -25.4079  -15.1967   20.4172 N   0  0  0  0  0  0
  -31.7754  -14.8977   20.1031 O   0  0  0  0  0  0
  -21.6617   -6.8860   21.4245 O   0  0  0  0  0  0
  -22.3412  -14.5545   20.6837 O   0  0  0  0  0  0
  -24.6313  -31.8521   23.1977 C   0  0  0  0  0  0
  -25.9133  -32.4736   23.8310 C   0  0  1  0  0  0
  -27.2160  -27.2052   20.1773 C   0  0  0  0  0  0
  -25.5926  -33.8551   24.2236 N   0  0  0  0  0  0
  -23.4315  -30.4718   21.5402 C   0  0  2  0  0  0
  -24.8800  -28.8976   20.1345 C   0  0  0  0  0  0
  -22.7521  -29.4545   22.4910 C   0  0  0  0  0  0
  -18.0318  -28.1405   22.8371 C   0  0  0  0  0  0
  -24.1498  -36.7268   23.2648 C   0  0  0  0  0  0
  -25.9809  -30.7481   21.3870 C   0  0  0  0  0  0
  -26.0536  -29.3580   20.7461 C   0  0  0  0  0  0
  -27.2297  -28.5295   20.7500 C   0  0  0  0  0  0
  -26.0214  -26.8163   19.5413 C   0  0  0  0  0  0
  -24.8711  -27.6334   19.5241 C   0  0  0  0  0  0
  -23.6577  -29.7991   20.1618 C   0  0  0  0  0  0
  -25.4127  -36.3073   24.0331 C   0  0  1  0  0  0
  -20.5881  -28.3716   23.1346 C   0  0  2  0  0  0
  -20.6733  -26.9345   22.5685 C   0  0  0  0  0  0
  -19.5896  -26.6293   21.5288 C   0  0  0  0  0  0
  -18.1967  -26.7939   22.1527 C   0  0  0  0  0  0
  -19.1550  -28.8882   23.2848 C   0  0  0  0  0  0
  -18.9454  -30.1471   23.8872 C   0  0  0  0  0  0
  -17.6437  -30.6570   24.0564 C   0  0  0  0  0  0
  -25.9052  -34.9436   23.5079 C   0  0  0  0  0  0
  -16.5325  -29.9046   23.6293 C   0  0  0  0  0  0
  -16.7302  -28.6530   23.0203 C   0  0  0  0  0  0
  -26.4504  -31.6582   25.0708 C   0  0  0  0  0  0
  -25.3715  -31.3741   26.1411 C   0  0  0  0  0  0
  -27.0357  -30.2990   24.6232 C   0  0  0  0  0  0
  -27.6055  -32.4338   25.7475 C   0  0  0  0  0  0
  -27.5582  -37.1795   24.8466 C   0  0  0  0  0  0
  -21.4217  -29.3035   22.3718 N   0  0  0  0  0  0
  -26.4286  -37.3779   23.9411 N   0  0  0  0  0  0
  -24.7002  -31.0435   22.0971 N   0  0  0  0  0  0
  -23.4218  -28.8082   23.2980 O   0  0  0  0  0  0
  -28.3245  -26.3386   20.0111 O   0  0  0  0  0  0
  -26.5639  -34.8899   22.4660 O   0  0  0  0  0  0
  -23.5439  -32.1354   23.7235 O   0  0  0  0  0  0
  -25.6156  -17.9949   17.7883 C   0  0  0  0  0  0
  -27.8793  -19.3813   19.2611 C   0  0  0  0  0  0
  -28.6115  -17.0297   19.2585 C   0  0  0  0  0  0
  -29.4035  -18.5831   20.9657 C   0  0  0  0  0  0
  -27.8008  -18.0688   18.7448 C   0  0  0  0  0  0
  -28.6838  -19.7236   20.3669 C   0  0  0  0  0  0
  -29.3965  -17.2079   20.4177 C   0  0  0  0  0  0
  -27.0185  -23.4925   21.6241 C   0  0  0  0  0  0
  -27.2562  -21.0957   21.7327 C   0  0  0  0  0  0
  -28.1158  -23.6625   20.8593 C   0  0  0  0  0  0
  -26.5568  -22.1947   22.0651 C   0  0  0  0  0  0
  -28.8505  -22.3719   20.4325 C   0  0  0  0  0  0
  -24.3507  -18.2863   17.9894 C   0  0  0  0  0  0
  -28.7250  -25.1558   20.8688 C   0  0  0  0  0  0
  -26.8124  -17.7529   17.8138 N   0  0  0  0  0  0
  -28.4000  -21.1094   20.9108 N   0  0  0  0  0  0
  -30.0066  -15.9795   21.0402 N   0  0  0  0  0  0
  -29.8448  -22.4255   19.7007 O   0  0  0  0  0  0
  -25.4717  -22.0882   22.8359 O   0  0  0  0  0  0
  -31.4575  -12.6597   19.2013 H   0  0  0  0  0  0
  -30.3696  -11.5718   19.9991 H   0  0  0  0  0  0
  -29.8058  -11.7651   17.5500 H   0  0  0  0  0  0
  -29.6122  -13.4929   17.7173 H   0  0  0  0  0  0
  -27.9058  -11.2914   18.9319 H   0  0  0  0  0  0
  -27.3741  -12.5074   17.8118 H   0  0  0  0  0  0
  -27.5828  -14.2572   19.4479 H   0  0  0  0  0  0
  -28.7127  -12.2605   21.4660 H   0  0  0  0  0  0
  -28.3654  -13.9394   21.7789 H   0  0  0  0  0  0
  -25.2737   -9.5677   22.4710 H   0  0  0  0  0  0
  -23.9987   -7.4608   22.7412 H   0  0  0  0  0  0
  -21.0823   -8.8735   19.8910 H   0  0  0  0  0  0
  -22.3645  -10.9661   19.6120 H   0  0  0  0  0  0
  -21.1975   -7.6095   23.9716 H   0  0  0  0  0  0
  -21.1499   -6.0484   25.9104 H   0  0  0  0  0  0
  -22.0587   -2.7550   23.2896 H   0  0  0  0  0  0
  -22.4012  -11.9875   22.4893 H   0  0  0  0  0  0
  -21.0981  -13.1200   22.2667 H   0  0  0  0  0  0
  -24.6335  -15.8448   20.5117 H   0  0  0  0  0  0
  -26.2751  -15.6412   20.1476 H   0  0  0  0  0  0
  -26.7175  -32.5390   23.1018 H   0  0  0  0  0  0
  -25.0061  -33.9676   25.0373 H   0  0  0  0  0  0
  -22.7299  -31.2954   21.3846 H   0  0  0  0  0  0
  -23.3772  -35.9589   23.3301 H   0  0  0  0  0  0
  -24.3585  -36.8888   22.2063 H   0  0  0  0  0  0
  -23.7229  -37.6451   23.6666 H   0  0  0  0  0  0
  -26.1217  -31.4995   20.6100 H   0  0  0  0  0  0
  -26.8559  -30.8067   22.0204 H   0  0  0  0  0  0
  -28.1413  -28.8956   21.2056 H   0  0  0  0  0  0
  -25.9813  -25.8586   19.0448 H   0  0  0  0  0  0
  -23.9716  -27.2769   19.0410 H   0  0  0  0  0  0
  -23.7948  -30.5685   19.4013 H   0  0  0  0  0  0
  -22.7775  -29.2362   19.8501 H   0  0  0  0  0  0
  -25.1317  -36.1907   25.0823 H   0  0  0  0  0  0
  -21.0051  -28.3403   24.1457 H   0  0  0  0  0  0
  -20.5271  -26.2424   23.4002 H   0  0  0  0  0  0
  -21.6670  -26.7175   22.1791 H   0  0  0  0  0  0
  -19.7110  -25.6159   21.1364 H   0  0  0  0  0  0
  -19.7037  -27.3098   20.6815 H   0  0  0  0  0  0
  -18.0179  -26.0141   22.8942 H   0  0  0  0  0  0
  -17.4347  -26.6674   21.3817 H   0  0  0  0  0  0
  -19.7949  -30.7269   24.2255 H   0  0  0  0  0  0
  -17.5011  -31.6216   24.5201 H   0  0  0  0  0  0
  -15.5339  -30.2963   23.7617 H   0  0  0  0  0  0
  -15.8729  -28.0887   22.6853 H   0  0  0  0  0  0
  -24.5909  -30.7075   25.7710 H   0  0  0  0  0  0
  -24.8870  -32.2904   26.4791 H   0  0  0  0  0  0
  -25.8005  -30.8925   27.0209 H   0  0  0  0  0  0
  -26.2934  -29.6730   24.1242 H   0  0  0  0  0  0
  -27.4002  -29.7273   25.4780 H   0  0  0  0  0  0
  -27.8848  -30.4243   23.9514 H   0  0  0  0  0  0
  -27.2672  -33.3668   26.2003 H   0  0  0  0  0  0
  -28.3880  -32.6857   25.0306 H   0  0  0  0  0  0
  -28.0704  -31.8490   26.5411 H   0  0  0  0  0  0
  -28.2603  -38.0095   24.7531 H   0  0  0  0  0  0
  -28.1079  -36.2620   24.6283 H   0  0  0  0  0  0
  -27.2294  -37.1440   25.8870 H   0  0  0  0  0  0
  -20.9446  -29.8839   21.6986 H   0  0  0  0  0  0
  -26.0164  -38.2845   24.1425 H   0  0  0  0  0  0
  -27.2138  -20.1334   18.8558 H   0  0  0  0  0  0
  -28.5396  -16.0538   18.8070 H   0  0  0  0  0  0
  -29.9430  -18.7565   21.8861 H   0  0  0  0  0  0
  -26.5509  -24.3789   22.0328 H   0  0  0  0  0  0
  -26.9560  -20.1095   22.0632 H   0  0  0  0  0  0
  -23.6895  -17.6078   18.5104 H   0  0  0  0  0  0
  -23.9280  -19.2181   17.6485 H   0  0  0  0  0  0
  -29.7865  -25.0249   20.6570 H   0  0  0  0  0  0
  -28.7030  -25.5003   21.9051 H   0  0  0  0  0  0
  -30.5098  -16.2279   21.8764 H   0  0  0  0  0  0
  -25.1238  -22.9654   22.9671 H   0  0  0  0  0  0
  1 25  1  0  0  0
  1 30  2  0  0  0
  1 87  1  0  0  0
  2  3  1  0  0  0
  2 25  1  0  0  0
  2 90  1  0  0  0
  2 91  1  0  0  0
  3  4  1  0  0  0
  3 92  1  0  0  0
  3 93  1  0  0  0
  4  5  1  0  0  0
  4 94  1  0  0  0
  4 95  1  0  0  0
  5  6  1  0  0  0
  5 26  1  0  0  0
  5 96  1  0  0  0
  6 25  1  0  0  0
  6 97  1  0  0  0
  6 98  1  0  0  0
  7  8  2  0  0  0
  7 26  1  0  0  0
  7 29  1  0  0  0
  8  9  1  0  0  0
  8 22  1  0  0  0
  9 10  1  0  0  0
  9 27  2  0  0  0
 10 11  2  0  0  0
 10 15  1  0  0  0
 11 12  1  0  0  0
 11 99  1  0  0  0
 12 13  2  0  0  0
 12100  1  0  0  0
 13 14  1  0  0  0
 13 31  1  0  0  0
 14 15  2  0  0  0
 14101  1  0  0  0
 15102  1  0  0  0
 16 17  2  0  0  0
 16 21  1  0  0  0
 16 31  1  0  0  0
 17 18  1  0  0  0
 17103  1  0  0  0
 18 19  2  0  0  0
 18104  1  0  0  0
 19 20  1  0  0  0
 19 24  1  0  0  0
 20 21  2  0  0  0
 20105  1  0  0  0
 21 23  1  0  0  0
 22 28  1  0  0  0
 22 32  2  0  0  0
 26 27  1  0  0  0
 28106  1  0  0  0
 28107  1  0  0  0
 29108  1  0  0  0
 29109  1  0  0  0
 33 34  1  0  0  0
 33 66  1  0  0  0
 33 70  2  0  0  0
 34 36  1  0  0  0
 34 59  1  0  0  0
 34110  1  0  0  0
 35 44  2  0  0  0
 35 45  1  0  0  0
 35 68  1  0  0  0
 36 56  1  0  0  0
 36111  1  0  0  0
 37 39  1  0  0  0
 37 47  1  0  0  0
 37 66  1  0  0  0
 37112  1  0  0  0
 38 43  2  0  0  0
 38 46  1  0  0  0
 38 47  1  0  0  0
 39 64  1  0  0  0
 39 67  2  0  0  0
 40 52  1  0  0  0
 40 53  2  0  0  0
 40 58  1  0  0  0
 41113  1  0  0  0
 41114  1  0  0  0
 41115  1  0  0  0
 41 48  1  0  0  0
 42 43  1  0  0  0
 42 66  1  0  0  0
 42116  1  0  0  0
 42117  1  0  0  0
 43 44  1  0  0  0
 44118  1  0  0  0
 45 46  2  0  0  0
 45119  1  0  0  0
 46120  1  0  0  0
 47121  1  0  0  0
 47122  1  0  0  0
 48 56  1  0  0  0
 48 65  1  0  0  0
 48123  1  0  0  0
 49 50  1  0  0  0
 49 53  1  0  0  0
 49 64  1  0  0  0
 49124  1  0  0  0
 50 51  1  0  0  0
 50125  1  0  0  0
 50126  1  0  0  0
 51 52  1  0  0  0
 51127  1  0  0  0
 51128  1  0  0  0
 52129  1  0  0  0
 52130  1  0  0  0
 53 54  1  0  0  0
 54 55  2  0  0  0
 54131  1  0  0  0
 55 57  1  0  0  0
 55132  1  0  0  0
 56 69  2  0  0  0
 57 58  2  0  0  0
 57133  1  0  0  0
 58134  1  0  0  0
 59 60  1  0  0  0
 59 61  1  0  0  0
 59 62  1  0  0  0
 60135  1  0  0  0
 60136  1  0  0  0
 60137  1  0  0  0
 61138  1  0  0  0
 61139  1  0  0  0
 61140  1  0  0  0
 62141  1  0  0  0
 62142  1  0  0  0
 62143  1  0  0  0
 63 65  1  0  0  0
 63144  1  0  0  0
 63145  1  0  0  0
 63146  1  0  0  0
 64147  1  0  0  0
 65148  1  0  0  0
 68 84  1  0  0  0
 71 83  2  0  0  0
 71 85  2  0  0  0
 72 75  2  0  0  0
 72 76  1  0  0  0
 72149  1  0  0  0
 73 75  1  0  0  0
 73 77  2  0  0  0
 73150  1  0  0  0
 74 76  2  0  0  0
 74 77  1  0  0  0
 74151  1  0  0  0
 75 85  1  0  0  0
 76 86  1  0  0  0
 77 87  1  0  0  0
 78 80  2  0  0  0
 78 81  1  0  0  0
 78152  1  0  0  0
 79 81  2  0  0  0
 79 86  1  0  0  0
 79153  1  0  0  0
 80 82  1  0  0  0
 80 84  1  0  0  0
 81 89  1  0  0  0
 82 86  1  0  0  0
 82 88  2  0  0  0
 83154  1  0  0  0
 83155  1  0  0  0
 84156  1  0  0  0
 84157  1  0  0  0
 87158  1  0  0  0
 89159  1  0  0  0
M  ISO  4   1 100  68 101  84 101  87 100
M  END
> <chiral flag>
0

> <version>
0

> <s_m_source_file>
/data/baiqing/PycharmProjects/Reinvent-master-3.2/result/LINK_invent/BTK/process_docking_weight1_custom_product_contain_oxygen_bond_distance_aromatic_linkinvent_7_9_3/rearranged_h_0085.sdf

> <i_m_source_file_index>
76

> <r_mmod_Potential_Energy-OPLS-2005>
444.125793457031

> <r_mmod_Stretch_Energy-OPLS-2005>
180.867706298828

> <r_mmod_Bend_Energy-OPLS-2005>
258.117889404297

> <r_mmod_Torsional_Energy-OPLS-2005>
327.093444824219

> <r_mmod_Improper_Torsional_Energy-OPLS-2005>
11.5753440856934

> <r_mmod_Van_der_Waal_Energy-OPLS-2005>
137.151672363281

> <r_mmod_Electrostatic_Energy-OPLS-2005>
-360.355926513672

> <r_mmod_Solvation_Energy-OPLS-2005>
-228.200332641602

> <b_mmod_Minimization_Converged-OPLS-2005>
0

> <r_mmod_RMS_Derivative-OPLS-2005>
6.24887704849243

$$$$
77
                    3D
 Structure written by MMmdl.
151159  0  0  1  0            999 V2000
  -30.5783  -14.7925   20.4433 C   0  0  0  0  0  0
  -30.4337  -12.4910   19.4561 C   0  0  0  0  0  0
  -29.5017  -12.5087   18.2235 C   0  0  0  0  0  0
  -28.0331  -12.3119   18.6476 C   0  0  0  0  0  0
  -27.6334  -13.2234   19.8375 C   0  0  2  0  0  0
  -28.6820  -13.1876   20.9694 C   0  0  0  0  0  0
  -25.2498  -13.8168   20.5665 C   0  0  0  0  0  0
  -24.1789  -13.0425   20.9211 C   0  0  0  0  0  0
  -24.6365  -11.6905   20.8748 C   0  0  0  0  0  0
  -23.9050  -10.4283   21.0403 C   0  0  0  0  0  0
  -24.3612   -9.4206   21.9175 C   0  0  0  0  0  0
  -23.6291   -8.2243   22.0747 C   0  0  0  0  0  0
  -22.4272   -8.0271   21.3535 C   0  0  0  0  0  0
  -21.9906   -9.0243   20.4641 C   0  0  0  0  0  0
  -22.7227  -10.2122   20.3048 C   0  0  0  0  0  0
  -21.6864   -6.0717   22.5271 C   0  0  0  0  0  0
  -21.4014   -6.5629   23.8201 C   0  0  0  0  0  0
  -21.3664   -5.6790   24.9172 C   0  0  0  0  0  0
  -21.6057   -4.3055   24.7231 C   0  0  0  0  0  0
  -21.8821   -3.8135   23.4358 C   0  0  0  0  0  0
  -21.9194   -4.6940   22.3406 C   0  0  0  0  0  0
  -22.7822  -13.5226   21.1899 C   0  0  0  0  0  0
  -22.1663   -4.2109   21.0989 F   0  0  0  0  0  0
  -21.5635   -3.4550   25.7758 F   0  0  0  0  0  0
  -29.9720  -13.5557   20.3718 N   0  0  0  0  0  0
  -26.2894  -12.9345   20.3222 N   0  0  0  0  0  0
  -25.9293  -11.6499   20.5736 N   0  0  0  0  0  0
  -22.0482  -12.8178   22.0445 N   0  0  0  0  0  0
  -25.4157  -15.1897   20.4033 N   0  0  0  0  0  0
  -31.7896  -14.8932   20.2284 O   0  0  0  0  0  0
  -21.6654   -6.8853   21.4228 O   0  0  0  0  0  0
  -22.3503  -14.5539   20.6777 O   0  0  0  0  0  0
  -24.6357  -31.8520   23.1951 C   0  0  0  0  0  0
  -25.9166  -32.4736   23.8317 C   0  0  1  0  0  0
  -27.2231  -27.2224   20.1218 C   0  0  0  0  0  0
  -25.5933  -33.8537   24.2228 N   0  0  0  0  0  0
  -23.4346  -30.4744   21.5385 C   0  0  2  0  0  0
  -24.8816  -28.9172   20.1065 C   0  0  0  0  0  0
  -22.7525  -29.4593   22.4885 C   0  0  0  0  0  0
  -18.0307  -28.1371   22.8471 C   0  0  0  0  0  0
  -24.1489  -36.7282   23.2639 C   0  0  0  0  0  0
  -25.9835  -30.7526   21.3804 C   0  0  0  0  0  0
  -26.0551  -29.3716   20.7187 C   0  0  0  0  0  0
  -27.2241  -28.5379   20.7156 C   0  0  0  0  0  0
  -26.0138  -26.8414   19.4947 C   0  0  0  0  0  0
  -24.8680  -27.6610   19.4862 C   0  0  0  0  0  0
  -23.6556  -29.8097   20.1540 C   0  0  0  0  0  0
  -25.4116  -36.3053   24.0317 C   0  0  1  0  0  0
  -20.5902  -28.3719   23.1262 C   0  0  2  0  0  0
  -20.6795  -26.9422   22.5406 C   0  0  0  0  0  0
  -19.5771  -26.6365   21.5198 C   0  0  0  0  0  0
  -18.1960  -26.7897   22.1628 C   0  0  0  0  0  0
  -19.1544  -28.8868   23.2857 C   0  0  0  0  0  0
  -18.9466  -30.1477   23.8867 C   0  0  0  0  0  0
  -17.6466  -30.6592   24.0551 C   0  0  0  0  0  0
  -25.9063  -34.9431   23.5079 C   0  0  0  0  0  0
  -16.5359  -29.9088   23.6321 C   0  0  0  0  0  0
  -16.7294  -28.6494   23.0344 C   0  0  0  0  0  0
  -26.4520  -31.6580   25.0737 C   0  0  0  0  0  0
  -25.3732  -31.3758   26.1453 C   0  0  0  0  0  0
  -27.0372  -30.2981   24.6273 C   0  0  0  0  0  0
  -27.6047  -32.4344   25.7534 C   0  0  0  0  0  0
  -27.5571  -37.1799   24.8459 C   0  0  0  0  0  0
  -21.4221  -29.3082   22.3647 N   0  0  0  0  0  0
  -26.4282  -37.3756   23.9406 N   0  0  0  0  0  0
  -24.7036  -31.0442   22.0946 N   0  0  0  0  0  0
  -23.4207  -28.8113   23.2986 O   0  0  0  0  0  0
  -28.3167  -26.3136   20.2241 O   0  0  0  0  0  0
  -26.5633  -34.8904   22.4656 O   0  0  0  0  0  0
  -23.5493  -32.1352   23.7226 O   0  0  0  0  0  0
  -30.8975  -19.1465   22.1430 C   0  0  0  0  0  0
  -30.2835  -20.1874   21.4012 C   0  0  0  0  0  0
  -30.7676  -17.7799   21.7863 C   0  0  0  0  0  0
  -29.3429  -18.4747   19.9584 C   0  0  0  0  0  0
  -29.5015  -19.9032   20.2661 C   0  0  0  0  0  0
  -29.9769  -17.3773   20.6866 C   0  0  0  0  0  0
  -28.7038  -23.5348   20.1130 C   0  0  0  0  0  0
  -28.9843  -21.0653   19.3439 C   0  0  0  0  0  0
  -28.4169  -25.0050   19.4636 C   0  0  0  0  0  0
  -28.7244  -22.4639   19.3330 N   0  0  0  0  0  0
  -29.7486  -15.9151   20.4407 N   0  0  0  0  0  0
  -28.7661  -20.6403   18.1437 N   0  3  0  0  0  0
  -31.4691  -12.6414   19.1495 H   0  0  0  0  0  0
  -30.3989  -11.5204   19.9534 H   0  0  0  0  0  0
  -29.7967  -11.7284   17.5209 H   0  0  0  0  0  0
  -29.6014  -13.4546   17.6876 H   0  0  0  0  0  0
  -27.9123  -11.2629   18.9247 H   0  0  0  0  0  0
  -27.3670  -12.4765   17.7987 H   0  0  0  0  0  0
  -27.6149  -14.2347   19.4348 H   0  0  0  0  0  0
  -28.7328  -12.1995   21.4291 H   0  0  0  0  0  0
  -28.4097  -13.8836   21.7643 H   0  0  0  0  0  0
  -25.2746   -9.5697   22.4756 H   0  0  0  0  0  0
  -24.0001   -7.4642   22.7473 H   0  0  0  0  0  0
  -21.0833   -8.8758   19.8955 H   0  0  0  0  0  0
  -22.3668  -10.9659   19.6169 H   0  0  0  0  0  0
  -21.2000   -7.6134   23.9684 H   0  0  0  0  0  0
  -21.1490   -6.0532   25.9068 H   0  0  0  0  0  0
  -22.0595   -2.7587   23.2886 H   0  0  0  0  0  0
  -22.4116  -11.9829   22.4788 H   0  0  0  0  0  0
  -21.1095  -13.1165   22.2687 H   0  0  0  0  0  0
  -24.6383  -15.8338   20.4985 H   0  0  0  0  0  0
  -26.2495  -15.6320   20.0406 H   0  0  0  0  0  0
  -26.7239  -32.5369   23.1059 H   0  0  0  0  0  0
  -25.0065  -33.9676   25.0359 H   0  0  0  0  0  0
  -22.7341  -31.2984   21.3909 H   0  0  0  0  0  0
  -23.3744  -35.9619   23.3297 H   0  0  0  0  0  0
  -24.3576  -36.8931   22.2055 H   0  0  0  0  0  0
  -23.7257  -37.6483   23.6682 H   0  0  0  0  0  0
  -26.1257  -31.5155   20.6123 H   0  0  0  0  0  0
  -26.8576  -30.7986   22.0187 H   0  0  0  0  0  0
  -28.1187  -28.8861   21.2104 H   0  0  0  0  0  0
  -25.8880  -25.8726   19.0421 H   0  0  0  0  0  0
  -23.9621  -27.3039   19.0163 H   0  0  0  0  0  0
  -23.7878  -30.5867   19.3999 H   0  0  0  0  0  0
  -22.7724  -29.2475   19.8444 H   0  0  0  0  0  0
  -25.1306  -36.1889   25.0804 H   0  0  0  0  0  0
  -21.0002  -28.3310   24.1390 H   0  0  0  0  0  0
  -20.5654  -26.2331   23.3616 H   0  0  0  0  0  0
  -21.6662  -26.7420   22.1208 H   0  0  0  0  0  0
  -19.6957  -25.6284   21.1215 H   0  0  0  0  0  0
  -19.6682  -27.3199   20.6744 H   0  0  0  0  0  0
  -17.4199  -26.6609   21.4065 H   0  0  0  0  0  0
  -18.0390  -26.0053   22.9053 H   0  0  0  0  0  0
  -19.7949  -30.7294   24.2215 H   0  0  0  0  0  0
  -17.5013  -31.6273   24.5146 H   0  0  0  0  0  0
  -15.5341  -30.2973   23.7643 H   0  0  0  0  0  0
  -15.8713  -28.0782   22.7079 H   0  0  0  0  0  0
  -24.5906  -30.7105   25.7790 H   0  0  0  0  0  0
  -24.8926  -32.2937   26.4839 H   0  0  0  0  0  0
  -25.8046  -30.8968   27.0251 H   0  0  0  0  0  0
  -26.2970  -29.6730   24.1261 H   0  0  0  0  0  0
  -27.3983  -29.7257   25.4828 H   0  0  0  0  0  0
  -27.8881  -30.4230   23.9576 H   0  0  0  0  0  0
  -27.2622  -33.3638   26.2093 H   0  0  0  0  0  0
  -28.3878  -32.6928   25.0396 H   0  0  0  0  0  0
  -28.0686  -31.8494   26.5484 H   0  0  0  0  0  0
  -28.2579  -38.0099   24.7491 H   0  0  0  0  0  0
  -28.1074  -36.2632   24.6296 H   0  0  0  0  0  0
  -27.2288  -37.1457   25.8859 H   0  0  0  0  0  0
  -20.9432  -29.8849   21.6872 H   0  0  0  0  0  0
  -26.0157  -38.2828   24.1405 H   0  0  0  0  0  0
  -31.4931  -19.4047   23.0065 H   0  0  0  0  0  0
  -30.4471  -21.2156   21.6834 H   0  0  0  0  0  0
  -31.2551  -17.0356   22.4018 H   0  0  0  0  0  0
  -28.7216  -18.2063   19.1199 H   0  0  0  0  0  0
  -28.8662  -23.5011   21.1932 H   0  0  0  0  0  0
  -27.6116  -24.8793   18.7483 H   0  0  0  0  0  0
  -29.2720  -25.1792   18.8103 H   0  0  0  0  0  0
  -28.7839  -15.6648   20.2922 H   0  0  0  0  0  0
  -28.9645  -19.6890   17.8471 H   0  0  0  0  0  0
  -28.4914  -21.2739   17.4002 H   0  0  0  0  0  0
  1 25  1  0  0  0
  1 30  2  0  0  0
  1 81  1  0  0  0
  2  3  1  0  0  0
  2 25  1  0  0  0
  2 83  1  0  0  0
  2 84  1  0  0  0
  3  4  1  0  0  0
  3 85  1  0  0  0
  3 86  1  0  0  0
  4  5  1  0  0  0
  4 87  1  0  0  0
  4 88  1  0  0  0
  5  6  1  0  0  0
  5 26  1  0  0  0
  5 89  1  0  0  0
  6 25  1  0  0  0
  6 90  1  0  0  0
  6 91  1  0  0  0
  7  8  2  0  0  0
  7 26  1  0  0  0
  7 29  1  0  0  0
  8  9  1  0  0  0
  8 22  1  0  0  0
  9 10  1  0  0  0
  9 27  2  0  0  0
 10 11  2  0  0  0
 10 15  1  0  0  0
 11 12  1  0  0  0
 11 92  1  0  0  0
 12 13  2  0  0  0
 12 93  1  0  0  0
 13 14  1  0  0  0
 13 31  1  0  0  0
 14 15  2  0  0  0
 14 94  1  0  0  0
 15 95  1  0  0  0
 16 17  2  0  0  0
 16 21  1  0  0  0
 16 31  1  0  0  0
 17 18  1  0  0  0
 17 96  1  0  0  0
 18 19  2  0  0  0
 18 97  1  0  0  0
 19 20  1  0  0  0
 19 24  1  0  0  0
 20 21  2  0  0  0
 20 98  1  0  0  0
 21 23  1  0  0  0
 22 28  1  0  0  0
 22 32  2  0  0  0
 26 27  1  0  0  0
 28 99  1  0  0  0
 28100  1  0  0  0
 29101  1  0  0  0
 29102  1  0  0  0
 33 34  1  0  0  0
 33 66  1  0  0  0
 33 70  2  0  0  0
 34 36  1  0  0  0
 34 59  1  0  0  0
 34103  1  0  0  0
 35 44  2  0  0  0
 35 45  1  0  0  0
 35 68  1  0  0  0
 36 56  1  0  0  0
 36104  1  0  0  0
 37 39  1  0  0  0
 37 47  1  0  0  0
 37 66  1  0  0  0
 37105  1  0  0  0
 38 43  2  0  0  0
 38 46  1  0  0  0
 38 47  1  0  0  0
 39 64  1  0  0  0
 39 67  2  0  0  0
 40 52  1  0  0  0
 40 53  2  0  0  0
 40 58  1  0  0  0
 41106  1  0  0  0
 41107  1  0  0  0
 41108  1  0  0  0
 41 48  1  0  0  0
 42 43  1  0  0  0
 42 66  1  0  0  0
 42109  1  0  0  0
 42110  1  0  0  0
 43 44  1  0  0  0
 44111  1  0  0  0
 45 46  2  0  0  0
 45112  1  0  0  0
 46113  1  0  0  0
 47114  1  0  0  0
 47115  1  0  0  0
 48 56  1  0  0  0
 48 65  1  0  0  0
 48116  1  0  0  0
 49 50  1  0  0  0
 49 53  1  0  0  0
 49 64  1  0  0  0
 49117  1  0  0  0
 50 51  1  0  0  0
 50118  1  0  0  0
 50119  1  0  0  0
 51 52  1  0  0  0
 51120  1  0  0  0
 51121  1  0  0  0
 52122  1  0  0  0
 52123  1  0  0  0
 53 54  1  0  0  0
 54 55  2  0  0  0
 54124  1  0  0  0
 55 57  1  0  0  0
 55125  1  0  0  0
 56 69  2  0  0  0
 57 58  2  0  0  0
 57126  1  0  0  0
 58127  1  0  0  0
 59 60  1  0  0  0
 59 61  1  0  0  0
 59 62  1  0  0  0
 60128  1  0  0  0
 60129  1  0  0  0
 60130  1  0  0  0
 61131  1  0  0  0
 61132  1  0  0  0
 61133  1  0  0  0
 62134  1  0  0  0
 62135  1  0  0  0
 62136  1  0  0  0
 63 65  1  0  0  0
 63137  1  0  0  0
 63138  1  0  0  0
 63139  1  0  0  0
 64140  1  0  0  0
 65141  1  0  0  0
 68 79  1  0  0  0
 71 72  2  0  0  0
 71 73  1  0  0  0
 71142  1  0  0  0
 72 75  1  0  0  0
 72143  1  0  0  0
 73 76  2  0  0  0
 73144  1  0  0  0
 74 75  2  0  0  0
 74 76  1  0  0  0
 74145  1  0  0  0
 75 78  1  0  0  0
 76 81  1  0  0  0
 77 79  1  0  0  0
 77 80  2  0  0  0
 77146  1  0  0  0
 78 80  1  0  0  0
 78 82  2  0  0  0
 79147  1  0  0  0
 79148  1  0  0  0
 81149  1  0  0  0
 82150  1  0  0  0
 82151  1  0  0  0
M  CHG  1  82   1
M  ISO  4   1 100  68 101  79 101  81 100
M  END
> <chiral flag>
0

> <version>
0

> <s_m_source_file>
/data/baiqing/PycharmProjects/Reinvent-master-3.2/result/LINK_invent/BTK/process_docking_weight1_custom_product_contain_oxygen_bond_distance_aromatic_linkinvent_7_9_3/rearranged_h_0085.sdf

> <i_m_source_file_index>
77

> <r_mmod_Potential_Energy-OPLS-2005>
367.610473632812

> <r_mmod_Stretch_Energy-OPLS-2005>
162.459564208984

> <r_mmod_Bend_Energy-OPLS-2005>
284.572265625

> <r_mmod_Torsional_Energy-OPLS-2005>
234.091201782227

> <r_mmod_Improper_Torsional_Energy-OPLS-2005>
9.6101770401001

> <r_mmod_Van_der_Waal_Energy-OPLS-2005>
136.492462158203

> <r_mmod_Electrostatic_Energy-OPLS-2005>
-90.492057800293

> <r_mmod_Solvation_Energy-OPLS-2005>
-482.077239990234

> <b_mmod_Minimization_Converged-OPLS-2005>
0

> <r_mmod_RMS_Derivative-OPLS-2005>
2.96497678756714

$$$$
78
                    3D
 Structure written by MMmdl.
159168  0  0  1  0            999 V2000
  -30.5056  -14.9817   20.4183 C   0  0  0  0  0  0
  -30.4505  -12.6095   19.4965 C   0  0  0  0  0  0
  -29.5262  -12.5405   18.2571 C   0  0  0  0  0  0
  -28.0595  -12.3184   18.6750 C   0  0  0  0  0  0
  -27.6298  -13.2442   19.8425 C   0  0  2  0  0  0
  -28.6761  -13.2708   20.9774 C   0  0  0  0  0  0
  -25.2388  -13.7957   20.5645 C   0  0  0  0  0  0
  -24.1723  -13.0246   20.9191 C   0  0  0  0  0  0
  -24.6400  -11.6776   20.8753 C   0  0  0  0  0  0
  -23.9079  -10.4190   21.0409 C   0  0  0  0  0  0
  -24.3620   -9.4124   21.9198 C   0  0  0  0  0  0
  -23.6274   -8.2180   22.0765 C   0  0  0  0  0  0
  -22.4257   -8.0243   21.3548 C   0  0  0  0  0  0
  -21.9900   -9.0215   20.4649 C   0  0  0  0  0  0
  -22.7250  -10.2073   20.3055 C   0  0  0  0  0  0
  -21.6834   -6.0718   22.5283 C   0  0  0  0  0  0
  -21.4001   -6.5627   23.8216 C   0  0  0  0  0  0
  -21.3655   -5.6784   24.9179 C   0  0  0  0  0  0
  -21.6044   -4.3047   24.7231 C   0  0  0  0  0  0
  -21.8821   -3.8136   23.4352 C   0  0  0  0  0  0
  -21.9187   -4.6950   22.3406 C   0  0  0  0  0  0
  -22.7767  -13.5093   21.1863 C   0  0  0  0  0  0
  -22.1660   -4.2139   21.0983 F   0  0  0  0  0  0
  -21.5631   -3.4532   25.7744 F   0  0  0  0  0  0
  -29.9491  -13.7006   20.3802 N   0  0  0  0  0  0
  -26.2903  -12.9308   20.3284 N   0  0  0  0  0  0
  -25.9358  -11.6440   20.5783 N   0  0  0  0  0  0
  -22.0408  -12.8127   22.0441 N   0  0  0  0  0  0
  -25.3791  -15.1591   20.4018 N   0  0  0  0  0  0
  -31.7102  -15.0825   20.1573 O   0  0  0  0  0  0
  -21.6608   -6.8856   21.4245 O   0  0  0  0  0  0
  -22.3500  -14.5442   20.6746 O   0  0  0  0  0  0
  -24.6431  -31.8438   23.1867 C   0  0  0  0  0  0
  -25.9199  -32.4696   23.8267 C   0  0  1  0  0  0
  -27.2367  -27.1454   20.1611 C   0  0  0  0  0  0
  -25.5944  -33.8501   24.2186 N   0  0  0  0  0  0
  -23.4483  -30.4596   21.5321 C   0  0  2  0  0  0
  -24.9025  -28.8796   20.1183 C   0  0  0  0  0  0
  -22.7569  -29.4541   22.4866 C   0  0  0  0  0  0
  -18.0305  -28.1396   22.8476 C   0  0  0  0  0  0
  -24.1491  -36.7258   23.2643 C   0  0  0  0  0  0
  -26.0030  -30.7207   21.3840 C   0  0  0  0  0  0
  -26.0794  -29.3294   20.7319 C   0  0  0  0  0  0
  -27.2494  -28.4807   20.7310 C   0  0  0  0  0  0
  -26.0321  -26.7877   19.5193 C   0  0  0  0  0  0
  -24.8904  -27.6203   19.4970 C   0  0  0  0  0  0
  -23.6773  -29.7812   20.1549 C   0  0  0  0  0  0
  -25.4123  -36.3032   24.0315 C   0  0  1  0  0  0
  -20.5917  -28.3721   23.1238 C   0  0  2  0  0  0
  -20.6790  -26.9424   22.5405 C   0  0  0  0  0  0
  -19.5764  -26.6380   21.5214 C   0  0  0  0  0  0
  -18.1944  -26.7934   22.1624 C   0  0  0  0  0  0
  -19.1561  -28.8877   23.2848 C   0  0  0  0  0  0
  -18.9478  -30.1473   23.8875 C   0  0  0  0  0  0
  -17.6473  -30.6591   24.0560 C   0  0  0  0  0  0
  -25.9071  -34.9408   23.5061 C   0  0  0  0  0  0
  -16.5365  -29.9083   23.6336 C   0  0  0  0  0  0
  -16.7290  -28.6502   23.0356 C   0  0  0  0  0  0
  -26.4522  -31.6564   25.0708 C   0  0  0  0  0  0
  -25.3707  -31.3753   26.1404 C   0  0  0  0  0  0
  -27.0388  -30.2961   24.6285 C   0  0  0  0  0  0
  -27.6050  -32.4331   25.7497 C   0  0  0  0  0  0
  -27.5575  -37.1785   24.8465 C   0  0  0  0  0  0
  -21.4261  -29.3045   22.3610 N   0  0  0  0  0  0
  -26.4288  -37.3743   23.9406 N   0  0  0  0  0  0
  -24.7177  -31.0294   22.0898 N   0  0  0  0  0  0
  -23.4207  -28.8099   23.3028 O   0  0  0  0  0  0
  -28.3078  -26.1809   20.1532 O   0  0  0  0  0  0
  -26.5662  -34.8905   22.4642 O   0  0  0  0  0  0
  -23.5548  -32.1309   23.7085 O   0  0  0  0  0  0
  -30.5954  -20.0429   20.5893 C   0  0  0  0  0  0
  -30.7483  -18.5848   20.5556 C   0  0  0  0  0  0
  -28.2769  -19.8309   20.3829 C   0  0  0  0  0  0
  -29.3460  -20.7655   20.5084 C   0  0  0  0  0  0
  -28.4066  -18.3762   20.3858 C   0  0  0  0  0  0
  -29.6541  -17.6528   20.4748 C   0  0  0  0  0  0
  -25.0550  -18.4081   21.0579 C   0  0  0  0  0  0
  -25.0908  -18.4278   19.6042 C   0  0  0  0  0  0
  -24.0025  -18.7973   21.7960 C   0  0  0  0  0  0
  -28.6677  -23.2877   20.1386 C   0  0  0  0  0  0
  -26.3859  -17.8835   21.5467 C   0  0  0  0  0  0
  -26.4343  -17.8839   19.1428 C   0  0  0  0  0  0
  -28.1179  -24.7540   20.7400 C   0  0  0  0  0  0
  -29.1414  -22.2228   20.8237 N   0  0  0  0  0  0
  -27.2233  -17.6185   20.3601 N   0  0  0  0  0  0
  -29.6435  -16.1087   20.5425 N   0  0  0  0  0  0
  -24.2071  -18.8186   18.8368 O   0  0  0  0  0  0
  -31.4803  -12.7872   19.1826 H   0  0  0  0  0  0
  -30.4604  -11.6567   20.0282 H   0  0  0  0  0  0
  -29.8496  -11.7444   17.5853 H   0  0  0  0  0  0
  -29.6069  -13.4700   17.6914 H   0  0  0  0  0  0
  -27.9590  -11.2759   18.9787 H   0  0  0  0  0  0
  -27.3962  -12.4516   17.8197 H   0  0  0  0  0  0
  -27.5847  -14.2481   19.4192 H   0  0  0  0  0  0
  -28.7720  -12.2909   21.4472 H   0  0  0  0  0  0
  -28.3704  -13.9612   21.7652 H   0  0  0  0  0  0
  -25.2764   -9.5593   22.4776 H   0  0  0  0  0  0
  -23.9967   -7.4566   22.7487 H   0  0  0  0  0  0
  -21.0827   -8.8748   19.8956 H   0  0  0  0  0  0
  -22.3729  -10.9621   19.6165 H   0  0  0  0  0  0
  -21.1989   -7.6136   23.9716 H   0  0  0  0  0  0
  -21.1478   -6.0514   25.9083 H   0  0  0  0  0  0
  -22.0606   -2.7599   23.2855 H   0  0  0  0  0  0
  -22.3993  -11.9766   22.4811 H   0  0  0  0  0  0
  -21.1052  -13.1208   22.2676 H   0  0  0  0  0  0
  -24.5879  -15.7660   20.5747 H   0  0  0  0  0  0
  -26.2441  -15.6653   20.2401 H   0  0  0  0  0  0
  -26.7269  -32.5314   23.1003 H   0  0  0  0  0  0
  -25.0065  -33.9614   25.0316 H   0  0  0  0  0  0
  -22.7507  -31.2845   21.3729 H   0  0  0  0  0  0
  -23.3755  -35.9588   23.3297 H   0  0  0  0  0  0
  -24.3575  -36.8899   22.2059 H   0  0  0  0  0  0
  -23.7246  -37.6451   23.6688 H   0  0  0  0  0  0
  -26.1545  -31.4727   20.6084 H   0  0  0  0  0  0
  -26.8742  -30.7763   22.0249 H   0  0  0  0  0  0
  -28.1515  -28.8279   21.2149 H   0  0  0  0  0  0
  -25.9641  -25.8221   19.0382 H   0  0  0  0  0  0
  -23.9928  -27.2692   19.0067 H   0  0  0  0  0  0
  -23.8140  -30.5518   19.3953 H   0  0  0  0  0  0
  -22.7934  -29.2203   19.8460 H   0  0  0  0  0  0
  -25.1312  -36.1862   25.0808 H   0  0  0  0  0  0
  -21.0007  -28.3312   24.1360 H   0  0  0  0  0  0
  -20.5682  -26.2335   23.3625 H   0  0  0  0  0  0
  -21.6657  -26.7427   22.1206 H   0  0  0  0  0  0
  -19.6925  -25.6284   21.1260 H   0  0  0  0  0  0
  -19.6701  -27.3177   20.6733 H   0  0  0  0  0  0
  -17.4213  -26.6676   21.4028 H   0  0  0  0  0  0
  -18.0343  -26.0082   22.9027 H   0  0  0  0  0  0
  -19.7953  -30.7296   24.2233 H   0  0  0  0  0  0
  -17.5026  -31.6269   24.5164 H   0  0  0  0  0  0
  -15.5364  -30.2977   23.7671 H   0  0  0  0  0  0
  -15.8691  -28.0812   22.7084 H   0  0  0  0  0  0
  -24.5888  -30.7100   25.7723 H   0  0  0  0  0  0
  -24.8895  -32.2936   26.4778 H   0  0  0  0  0  0
  -25.7989  -30.8958   27.0215 H   0  0  0  0  0  0
  -26.3005  -29.6682   24.1285 H   0  0  0  0  0  0
  -27.3997  -29.7261   25.4857 H   0  0  0  0  0  0
  -27.8913  -30.4199   23.9603 H   0  0  0  0  0  0
  -27.2639  -33.3649   26.2021 H   0  0  0  0  0  0
  -28.3890  -32.6864   25.0347 H   0  0  0  0  0  0
  -28.0686  -31.8493   26.5459 H   0  0  0  0  0  0
  -28.2588  -38.0086   24.7504 H   0  0  0  0  0  0
  -28.1076  -36.2613   24.6302 H   0  0  0  0  0  0
  -27.2292  -37.1444   25.8868 H   0  0  0  0  0  0
  -20.9476  -29.8748   21.6778 H   0  0  0  0  0  0
  -26.0156  -38.2813   24.1403 H   0  0  0  0  0  0
  -31.4954  -20.6249   20.7306 H   0  0  0  0  0  0
  -31.7471  -18.1829   20.6464 H   0  0  0  0  0  0
  -27.2842  -20.2550   20.3677 H   0  0  0  0  0  0
  -23.0938  -19.1572   21.3347 H   0  0  0  0  0  0
  -24.0358  -18.7591   22.8746 H   0  0  0  0  0  0
  -28.5194  -23.2089   19.0585 H   0  0  0  0  0  0
  -26.2361  -16.9669   22.1180 H   0  0  0  0  0  0
  -26.8216  -18.6012   22.2458 H   0  0  0  0  0  0
  -26.9107  -18.6007   18.4721 H   0  0  0  0  0  0
  -26.2810  -16.9643   18.5779 H   0  0  0  0  0  0
  -28.5135  -24.8231   21.7533 H   0  0  0  0  0  0
  -27.0472  -24.6177   20.8906 H   0  0  0  0  0  0
  -28.6904  -15.7934   20.6457 H   0  0  0  0  0  0
  1 25  1  0  0  0
  1 30  2  0  0  0
  1 86  1  0  0  0
  2  3  1  0  0  0
  2 25  1  0  0  0
  2 88  1  0  0  0
  2 89  1  0  0  0
  3  4  1  0  0  0
  3 90  1  0  0  0
  3 91  1  0  0  0
  4  5  1  0  0  0
  4 92  1  0  0  0
  4 93  1  0  0  0
  5  6  1  0  0  0
  5 26  1  0  0  0
  5 94  1  0  0  0
  6 25  1  0  0  0
  6 95  1  0  0  0
  6 96  1  0  0  0
  7  8  2  0  0  0
  7 26  1  0  0  0
  7 29  1  0  0  0
  8  9  1  0  0  0
  8 22  1  0  0  0
  9 10  1  0  0  0
  9 27  2  0  0  0
 10 11  2  0  0  0
 10 15  1  0  0  0
 11 12  1  0  0  0
 11 97  1  0  0  0
 12 13  2  0  0  0
 12 98  1  0  0  0
 13 14  1  0  0  0
 13 31  1  0  0  0
 14 15  2  0  0  0
 14 99  1  0  0  0
 15100  1  0  0  0
 16 17  2  0  0  0
 16 21  1  0  0  0
 16 31  1  0  0  0
 17 18  1  0  0  0
 17101  1  0  0  0
 18 19  2  0  0  0
 18102  1  0  0  0
 19 20  1  0  0  0
 19 24  1  0  0  0
 20 21  2  0  0  0
 20103  1  0  0  0
 21 23  1  0  0  0
 22 28  1  0  0  0
 22 32  2  0  0  0
 26 27  1  0  0  0
 28104  1  0  0  0
 28105  1  0  0  0
 29106  1  0  0  0
 29107  1  0  0  0
 33 34  1  0  0  0
 33 66  1  0  0  0
 33 70  2  0  0  0
 34 36  1  0  0  0
 34 59  1  0  0  0
 34108  1  0  0  0
 35 44  2  0  0  0
 35 45  1  0  0  0
 35 68  1  0  0  0
 36 56  1  0  0  0
 36109  1  0  0  0
 37 39  1  0  0  0
 37 47  1  0  0  0
 37 66  1  0  0  0
 37110  1  0  0  0
 38 43  2  0  0  0
 38 46  1  0  0  0
 38 47  1  0  0  0
 39 64  1  0  0  0
 39 67  2  0  0  0
 40 52  1  0  0  0
 40 53  2  0  0  0
 40 58  1  0  0  0
 41111  1  0  0  0
 41112  1  0  0  0
 41113  1  0  0  0
 41 48  1  0  0  0
 42 43  1  0  0  0
 42 66  1  0  0  0
 42114  1  0  0  0
 42115  1  0  0  0
 43 44  1  0  0  0
 44116  1  0  0  0
 45 46  2  0  0  0
 45117  1  0  0  0
 46118  1  0  0  0
 47119  1  0  0  0
 47120  1  0  0  0
 48 56  1  0  0  0
 48 65  1  0  0  0
 48121  1  0  0  0
 49 50  1  0  0  0
 49 53  1  0  0  0
 49 64  1  0  0  0
 49122  1  0  0  0
 50 51  1  0  0  0
 50123  1  0  0  0
 50124  1  0  0  0
 51 52  1  0  0  0
 51125  1  0  0  0
 51126  1  0  0  0
 52127  1  0  0  0
 52128  1  0  0  0
 53 54  1  0  0  0
 54 55  2  0  0  0
 54129  1  0  0  0
 55 57  1  0  0  0
 55130  1  0  0  0
 56 69  2  0  0  0
 57 58  2  0  0  0
 57131  1  0  0  0
 58132  1  0  0  0
 59 60  1  0  0  0
 59 61  1  0  0  0
 59 62  1  0  0  0
 60133  1  0  0  0
 60134  1  0  0  0
 60135  1  0  0  0
 61136  1  0  0  0
 61137  1  0  0  0
 61138  1  0  0  0
 62139  1  0  0  0
 62140  1  0  0  0
 62141  1  0  0  0
 63 65  1  0  0  0
 63142  1  0  0  0
 63143  1  0  0  0
 63144  1  0  0  0
 64145  1  0  0  0
 65146  1  0  0  0
 68 83  1  0  0  0
 71 72  2  0  0  0
 71 74  1  0  0  0
 71147  1  0  0  0
 72 76  1  0  0  0
 72148  1  0  0  0
 73 74  2  0  0  0
 73 75  1  0  0  0
 73149  1  0  0  0
 74 84  1  0  0  0
 75 76  2  0  0  0
 75 85  1  0  0  0
 76 86  1  0  0  0
 77 78  1  0  0  0
 77 79  2  0  0  0
 77 81  1  0  0  0
 78 82  1  0  0  0
 78 87  2  0  0  0
 79150  1  0  0  0
 79151  1  0  0  0
 80 83  1  0  0  0
 80 84  2  0  0  0
 80152  1  0  0  0
 81 85  1  0  0  0
 81153  1  0  0  0
 81154  1  0  0  0
 82 85  1  0  0  0
 82155  1  0  0  0
 82156  1  0  0  0
 83157  1  0  0  0
 83158  1  0  0  0
 86159  1  0  0  0
M  ISO  4   1 100  68 101  83 101  86 100
M  END
> <chiral flag>
0

> <version>
0

> <s_m_source_file>
/data/baiqing/PycharmProjects/Reinvent-master-3.2/result/LINK_invent/BTK/process_docking_weight1_custom_product_contain_oxygen_bond_distance_aromatic_linkinvent_7_9_3/rearranged_h_0085.sdf

> <i_m_source_file_index>
78

> <r_mmod_Potential_Energy-OPLS-2005>
547.394653320312

> <r_mmod_Stretch_Energy-OPLS-2005>
241.03727722168

> <r_mmod_Bend_Energy-OPLS-2005>
309.045654296875

> <r_mmod_Torsional_Energy-OPLS-2005>
285.585815429688

> <r_mmod_Improper_Torsional_Energy-OPLS-2005>
13.9030790328979

> <r_mmod_Van_der_Waal_Energy-OPLS-2005>
130.945693969727

> <r_mmod_Electrostatic_Energy-OPLS-2005>
-412.119201660156

> <r_mmod_Solvation_Energy-OPLS-2005>
-220.591339111328

> <b_mmod_Minimization_Converged-OPLS-2005>
0

> <r_mmod_RMS_Derivative-OPLS-2005>
0.2575404047966

$$$$
79
                    3D
 Structure written by MMmdl.
155164  0  0  1  0            999 V2000
  -30.6188  -14.6064   20.5145 C   0  0  0  0  0  0
  -30.4430  -12.3740   19.4398 C   0  0  0  0  0  0
  -29.5068  -12.5049   18.2165 C   0  0  0  0  0  0
  -28.0274  -12.3471   18.6263 C   0  0  0  0  0  0
  -27.6547  -13.2072   19.8631 C   0  0  2  0  0  0
  -28.7005  -13.0343   20.9890 C   0  0  0  0  0  0
  -25.2573  -13.8151   20.5678 C   0  0  0  0  0  0
  -24.1829  -13.0429   20.9177 C   0  0  0  0  0  0
  -24.6386  -11.6895   20.8733 C   0  0  0  0  0  0
  -23.9054  -10.4284   21.0413 C   0  0  0  0  0  0
  -24.3613   -9.4199   21.9188 C   0  0  0  0  0  0
  -23.6287   -8.2235   22.0757 C   0  0  0  0  0  0
  -22.4269   -8.0276   21.3546 C   0  0  0  0  0  0
  -21.9899   -9.0251   20.4656 C   0  0  0  0  0  0
  -22.7222  -10.2133   20.3067 C   0  0  0  0  0  0
  -21.6853   -6.0725   22.5276 C   0  0  0  0  0  0
  -21.4007   -6.5629   23.8207 C   0  0  0  0  0  0
  -21.3666   -5.6785   24.9170 C   0  0  0  0  0  0
  -21.6052   -4.3047   24.7225 C   0  0  0  0  0  0
  -21.8820   -3.8134   23.4348 C   0  0  0  0  0  0
  -21.9195   -4.6949   22.3402 C   0  0  0  0  0  0
  -22.7857  -13.5237   21.1849 C   0  0  0  0  0  0
  -22.1669   -4.2133   21.0982 F   0  0  0  0  0  0
  -21.5636   -3.4536   25.7742 F   0  0  0  0  0  0
  -30.0200  -13.3793   20.4312 N   0  0  0  0  0  0
  -26.2990  -12.9311   20.3299 N   0  0  0  0  0  0
  -25.9311  -11.6475   20.5739 N   0  0  0  0  0  0
  -22.0491  -12.8251   22.0416 N   0  0  0  0  0  0
  -25.4287  -15.1878   20.4118 N   0  0  0  0  0  0
  -31.7832  -14.7966   20.1456 O   0  0  0  0  0  0
  -21.6638   -6.8871   21.4239 O   0  0  0  0  0  0
  -22.3546  -14.5543   20.6692 O   0  0  0  0  0  0
  -24.6211  -31.8626   23.2050 C   0  0  0  0  0  0
  -25.9075  -32.4794   23.8373 C   0  0  1  0  0  0
  -27.2344  -27.3623   20.1164 C   0  0  0  0  0  0
  -25.5913  -33.8595   24.2302 N   0  0  0  0  0  0
  -23.4155  -30.4836   21.5461 C   0  0  2  0  0  0
  -24.8666  -28.9382   20.1179 C   0  0  0  0  0  0
  -22.7452  -29.4623   22.4950 C   0  0  0  0  0  0
  -18.0285  -28.1370   22.8482 C   0  0  0  0  0  0
  -24.1494  -36.7304   23.2630 C   0  0  0  0  0  0
  -25.9525  -30.8034   21.3737 C   0  0  0  0  0  0
  -26.0312  -29.4309   20.7234 C   0  0  0  0  0  0
  -27.2214  -28.6504   20.7212 C   0  0  0  0  0  0
  -26.0542  -26.9036   19.5001 C   0  0  0  0  0  0
  -24.8757  -27.6748   19.5023 C   0  0  0  0  0  0
  -23.6314  -29.8144   20.1627 C   0  0  0  0  0  0
  -25.4108  -36.3094   24.0333 C   0  0  1  0  0  0
  -20.5880  -28.3670   23.1289 C   0  0  2  0  0  0
  -20.6767  -26.9391   22.5421 C   0  0  0  0  0  0
  -19.5754  -26.6365   21.5209 C   0  0  0  0  0  0
  -18.1930  -26.7915   22.1616 C   0  0  0  0  0  0
  -19.1537  -28.8836   23.2884 C   0  0  0  0  0  0
  -18.9462  -30.1438   23.8900 C   0  0  0  0  0  0
  -17.6464  -30.6575   24.0560 C   0  0  0  0  0  0
  -25.9046  -34.9461   23.5116 C   0  0  0  0  0  0
  -16.5355  -29.9076   23.6322 C   0  0  0  0  0  0
  -16.7274  -28.6492   23.0348 C   0  0  0  0  0  0
  -26.4473  -31.6593   25.0730 C   0  0  0  0  0  0
  -25.3723  -31.3768   26.1480 C   0  0  0  0  0  0
  -27.0271  -30.3005   24.6164 C   0  0  0  0  0  0
  -27.6071  -32.4300   25.7461 C   0  0  0  0  0  0
  -27.5601  -37.1775   24.8443 C   0  0  0  0  0  0
  -21.4173  -29.3028   22.3685 N   0  0  0  0  0  0
  -26.4286  -37.3792   23.9429 N   0  0  0  0  0  0
  -24.6811  -31.0659   22.0988 N   0  0  0  0  0  0
  -23.4185  -28.8165   23.3026 O   0  0  0  0  0  0
  -28.3429  -26.5245   20.0738 O   0  0  0  0  0  0
  -26.5618  -34.8921   22.4686 O   0  0  0  0  0  0
  -23.5381  -32.1410   23.7394 O   0  0  0  0  0  0
  -30.7268  -19.3016   21.2667 C   0  0  0  0  0  0
  -28.7317  -19.1515   19.9307 C   0  0  0  0  0  0
  -30.8249  -17.8785   21.3005 C   0  0  0  0  0  0
  -28.8077  -17.7323   19.9911 C   0  0  0  0  0  0
  -29.6726  -19.9808   20.5923 C   0  0  0  0  0  0
  -29.8511  -17.0602   20.6763 C   0  0  0  0  0  0
  -28.7755  -24.3909   20.9900 C   0  0  0  0  0  0
  -28.9993  -23.4091   22.1464 C   0  0  0  0  0  0
  -29.0800  -23.7270   19.6322 C   0  0  0  0  0  0
  -29.8220  -22.1134   21.8820 C   0  0  0  0  0  0
  -28.8093  -22.1728   19.5886 C   0  0  0  0  0  0
  -28.3595  -25.6121   21.1800 N   0  0  0  0  0  0
  -29.5611  -21.4133   20.6098 N   0  0  0  0  0  0
  -29.7723  -15.6215   20.8486 N   0  0  0  0  0  0
  -28.5805  -23.6316   23.2892 O   0  0  0  0  0  0
  -31.4827  -12.5102   19.1364 H   0  0  0  0  0  0
  -30.3842  -11.3724   19.8690 H   0  0  0  0  0  0
  -29.7659  -11.7594   17.4633 H   0  0  0  0  0  0
  -29.6519  -13.4781   17.7446 H   0  0  0  0  0  0
  -27.8547  -11.2923   18.8432 H   0  0  0  0  0  0
  -27.3770  -12.5928   17.7858 H   0  0  0  0  0  0
  -27.6773  -14.2454   19.5325 H   0  0  0  0  0  0
  -28.7069  -12.0038   21.3470 H   0  0  0  0  0  0
  -28.4499  -13.6450   21.8583 H   0  0  0  0  0  0
  -25.2768   -9.5665   22.4753 H   0  0  0  0  0  0
  -24.0002   -7.4630   22.7478 H   0  0  0  0  0  0
  -21.0822   -8.8770   19.8970 H   0  0  0  0  0  0
  -22.3681  -10.9677   19.6180 H   0  0  0  0  0  0
  -21.1989   -7.6138   23.9704 H   0  0  0  0  0  0
  -21.1495   -6.0517   25.9073 H   0  0  0  0  0  0
  -22.0596   -2.7593   23.2858 H   0  0  0  0  0  0
  -22.4099  -11.9928   22.4842 H   0  0  0  0  0  0
  -21.1118  -13.1310   22.2622 H   0  0  0  0  0  0
  -24.6613  -15.8412   20.5277 H   0  0  0  0  0  0
  -26.2756  -15.6306   20.0820 H   0  0  0  0  0  0
  -26.7147  -32.5482   23.1132 H   0  0  0  0  0  0
  -25.0061  -33.9751   25.0445 H   0  0  0  0  0  0
  -22.7077  -31.3026   21.4018 H   0  0  0  0  0  0
  -23.3762  -35.9629   23.3259 H   0  0  0  0  0  0
  -24.3604  -36.8954   22.2055 H   0  0  0  0  0  0
  -23.7235  -37.6491   23.6667 H   0  0  0  0  0  0
  -26.0803  -31.5653   20.6029 H   0  0  0  0  0  0
  -26.8335  -30.8552   22.0013 H   0  0  0  0  0  0
  -28.1207  -29.0221   21.1919 H   0  0  0  0  0  0
  -26.0471  -25.9323   19.0258 H   0  0  0  0  0  0
  -23.9823  -27.2888   19.0312 H   0  0  0  0  0  0
  -23.7484  -30.5898   19.4045 H   0  0  0  0  0  0
  -22.7523  -29.2413   19.8611 H   0  0  0  0  0  0
  -25.1277  -36.1947   25.0823 H   0  0  0  0  0  0
  -20.9976  -28.3248   24.1407 H   0  0  0  0  0  0
  -20.5635  -26.2284   23.3622 H   0  0  0  0  0  0
  -21.6644  -26.7397   22.1245 H   0  0  0  0  0  0
  -19.6916  -25.6274   21.1237 H   0  0  0  0  0  0
  -19.6701  -27.3174   20.6737 H   0  0  0  0  0  0
  -17.4203  -26.6667   21.4017 H   0  0  0  0  0  0
  -18.0329  -26.0051   22.9005 H   0  0  0  0  0  0
  -19.7937  -30.7252   24.2274 H   0  0  0  0  0  0
  -17.5016  -31.6252   24.5164 H   0  0  0  0  0  0
  -15.5356  -30.2983   23.7628 H   0  0  0  0  0  0
  -15.8677  -28.0806   22.7064 H   0  0  0  0  0  0
  -24.5895  -30.7098   25.7851 H   0  0  0  0  0  0
  -24.8913  -32.2950   26.4864 H   0  0  0  0  0  0
  -25.8061  -30.9000   27.0278 H   0  0  0  0  0  0
  -26.2820  -29.6789   24.1184 H   0  0  0  0  0  0
  -27.3952  -29.7238   25.4658 H   0  0  0  0  0  0
  -27.8708  -30.4273   23.9376 H   0  0  0  0  0  0
  -27.2718  -33.3591   26.2083 H   0  0  0  0  0  0
  -28.3840  -32.6872   25.0247 H   0  0  0  0  0  0
  -28.0781  -31.8394   26.5327 H   0  0  0  0  0  0
  -28.2569  -38.0123   24.7572 H   0  0  0  0  0  0
  -28.1147  -36.2665   24.6141 H   0  0  0  0  0  0
  -27.2348  -37.1273   25.8849 H   0  0  0  0  0  0
  -20.9335  -29.8763   21.6914 H   0  0  0  0  0  0
  -26.0169  -38.2852   24.1498 H   0  0  0  0  0  0
  -31.4846  -19.8743   21.7812 H   0  0  0  0  0  0
  -27.9005  -19.5914   19.3999 H   0  0  0  0  0  0
  -31.6308  -17.4233   21.8587 H   0  0  0  0  0  0
  -28.0278  -17.1578   19.5119 H   0  0  0  0  0  0
  -30.1225  -23.9260   19.3839 H   0  0  0  0  0  0
  -28.4831  -24.2135   18.8606 H   0  0  0  0  0  0
  -29.6433  -21.4311   22.7137 H   0  0  0  0  0  0
  -30.8778  -22.3811   21.9233 H   0  0  0  0  0  0
  -29.0724  -21.7953   18.5990 H   0  0  0  0  0  0
  -27.7410  -21.9843   19.7130 H   0  0  0  0  0  0
  -28.8437  -15.2768   21.0375 H   0  0  0  0  0  0
  1 25  1  0  0  0
  1 30  2  0  0  0
  1 84  1  0  0  0
  2  3  1  0  0  0
  2 25  1  0  0  0
  2 86  1  0  0  0
  2 87  1  0  0  0
  3  4  1  0  0  0
  3 88  1  0  0  0
  3 89  1  0  0  0
  4  5  1  0  0  0
  4 90  1  0  0  0
  4 91  1  0  0  0
  5  6  1  0  0  0
  5 26  1  0  0  0
  5 92  1  0  0  0
  6 25  1  0  0  0
  6 93  1  0  0  0
  6 94  1  0  0  0
  7  8  2  0  0  0
  7 26  1  0  0  0
  7 29  1  0  0  0
  8  9  1  0  0  0
  8 22  1  0  0  0
  9 10  1  0  0  0
  9 27  2  0  0  0
 10 11  2  0  0  0
 10 15  1  0  0  0
 11 12  1  0  0  0
 11 95  1  0  0  0
 12 13  2  0  0  0
 12 96  1  0  0  0
 13 14  1  0  0  0
 13 31  1  0  0  0
 14 15  2  0  0  0
 14 97  1  0  0  0
 15 98  1  0  0  0
 16 17  2  0  0  0
 16 21  1  0  0  0
 16 31  1  0  0  0
 17 18  1  0  0  0
 17 99  1  0  0  0
 18 19  2  0  0  0
 18100  1  0  0  0
 19 20  1  0  0  0
 19 24  1  0  0  0
 20 21  2  0  0  0
 20101  1  0  0  0
 21 23  1  0  0  0
 22 28  1  0  0  0
 22 32  2  0  0  0
 26 27  1  0  0  0
 28102  1  0  0  0
 28103  1  0  0  0
 29104  1  0  0  0
 29105  1  0  0  0
 33 34  1  0  0  0
 33 66  1  0  0  0
 33 70  2  0  0  0
 34 36  1  0  0  0
 34 59  1  0  0  0
 34106  1  0  0  0
 35 44  2  0  0  0
 35 45  1  0  0  0
 35 68  1  0  0  0
 36 56  1  0  0  0
 36107  1  0  0  0
 37 39  1  0  0  0
 37 47  1  0  0  0
 37 66  1  0  0  0
 37108  1  0  0  0
 38 43  2  0  0  0
 38 46  1  0  0  0
 38 47  1  0  0  0
 39 64  1  0  0  0
 39 67  2  0  0  0
 40 52  1  0  0  0
 40 53  2  0  0  0
 40 58  1  0  0  0
 41109  1  0  0  0
 41110  1  0  0  0
 41111  1  0  0  0
 41 48  1  0  0  0
 42 43  1  0  0  0
 42 66  1  0  0  0
 42112  1  0  0  0
 42113  1  0  0  0
 43 44  1  0  0  0
 44114  1  0  0  0
 45 46  2  0  0  0
 45115  1  0  0  0
 46116  1  0  0  0
 47117  1  0  0  0
 47118  1  0  0  0
 48 56  1  0  0  0
 48 65  1  0  0  0
 48119  1  0  0  0
 49 50  1  0  0  0
 49 53  1  0  0  0
 49 64  1  0  0  0
 49120  1  0  0  0
 50 51  1  0  0  0
 50121  1  0  0  0
 50122  1  0  0  0
 51 52  1  0  0  0
 51123  1  0  0  0
 51124  1  0  0  0
 52125  1  0  0  0
 52126  1  0  0  0
 53 54  1  0  0  0
 54 55  2  0  0  0
 54127  1  0  0  0
 55 57  1  0  0  0
 55128  1  0  0  0
 56 69  2  0  0  0
 57 58  2  0  0  0
 57129  1  0  0  0
 58130  1  0  0  0
 59 60  1  0  0  0
 59 61  1  0  0  0
 59 62  1  0  0  0
 60131  1  0  0  0
 60132  1  0  0  0
 60133  1  0  0  0
 61134  1  0  0  0
 61135  1  0  0  0
 61136  1  0  0  0
 62137  1  0  0  0
 62138  1  0  0  0
 62139  1  0  0  0
 63 65  1  0  0  0
 63140  1  0  0  0
 63141  1  0  0  0
 63142  1  0  0  0
 64143  1  0  0  0
 65144  1  0  0  0
 68 82  1  0  0  0
 71 73  2  0  0  0
 71 75  1  0  0  0
 71145  1  0  0  0
 72 74  1  0  0  0
 72 75  2  0  0  0
 72146  1  0  0  0
 73 76  1  0  0  0
 73147  1  0  0  0
 74 76  2  0  0  0
 74148  1  0  0  0
 75 83  1  0  0  0
 76 84  1  0  0  0
 77 78  1  0  0  0
 77 79  1  0  0  0
 77 82  2  0  0  0
 78 80  1  0  0  0
 78 85  2  0  0  0
 79 81  1  0  0  0
 79149  1  0  0  0
 79150  1  0  0  0
 80 83  1  0  0  0
 80151  1  0  0  0
 80152  1  0  0  0
 81 83  1  0  0  0
 81153  1  0  0  0
 81154  1  0  0  0
 84155  1  0  0  0
M  ISO  4   1 100  68 101  82 101  84 100
M  END
> <chiral flag>
0

> <version>
0

> <s_m_source_file>
/data/baiqing/PycharmProjects/Reinvent-master-3.2/result/LINK_invent/BTK/process_docking_weight1_custom_product_contain_oxygen_bond_distance_aromatic_linkinvent_7_9_3/rearranged_h_0085.sdf

> <i_m_source_file_index>
79

> <r_mmod_Potential_Energy-OPLS-2005>
65.9455337524414

> <r_mmod_Stretch_Energy-OPLS-2005>
64.2434768676758

> <r_mmod_Bend_Energy-OPLS-2005>
137.468017578125

> <r_mmod_Torsional_Energy-OPLS-2005>
242.795608520508

> <r_mmod_Improper_Torsional_Energy-OPLS-2005>
6.89229822158813

> <r_mmod_Van_der_Waal_Energy-OPLS-2005>
147.251770019531

> <r_mmod_Electrostatic_Energy-OPLS-2005>
-315.460632324219

> <r_mmod_Solvation_Energy-OPLS-2005>
-253.112426757812

> <b_mmod_Minimization_Converged-OPLS-2005>
0

> <r_mmod_RMS_Derivative-OPLS-2005>
1.20876932144165

$$$$
80
                    3D
 Structure written by MMmdl.
153162  0  0  1  0            999 V2000
  -30.6190  -14.6620   20.4990 C   0  0  0  0  0  0
  -30.4469  -12.4109   19.4469 C   0  0  0  0  0  0
  -29.5096  -12.5140   18.2222 C   0  0  0  0  0  0
  -28.0333  -12.3508   18.6357 C   0  0  0  0  0  0
  -27.6559  -13.2189   19.8655 C   0  0  2  0  0  0
  -28.7050  -13.0754   20.9922 C   0  0  0  0  0  0
  -25.2565  -13.8168   20.5690 C   0  0  0  0  0  0
  -24.1827  -13.0431   20.9161 C   0  0  0  0  0  0
  -24.6398  -11.6905   20.8729 C   0  0  0  0  0  0
  -23.9065  -10.4292   21.0395 C   0  0  0  0  0  0
  -24.3616   -9.4205   21.9176 C   0  0  0  0  0  0
  -23.6293   -8.2239   22.0746 C   0  0  0  0  0  0
  -22.4275   -8.0278   21.3542 C   0  0  0  0  0  0
  -21.9897   -9.0258   20.4656 C   0  0  0  0  0  0
  -22.7226  -10.2141   20.3059 C   0  0  0  0  0  0
  -21.6849   -6.0728   22.5277 C   0  0  0  0  0  0
  -21.4009   -6.5636   23.8207 C   0  0  0  0  0  0
  -21.3662   -5.6789   24.9174 C   0  0  0  0  0  0
  -21.6044   -4.3052   24.7227 C   0  0  0  0  0  0
  -21.8826   -3.8139   23.4346 C   0  0  0  0  0  0
  -21.9195   -4.6954   22.3401 C   0  0  0  0  0  0
  -22.7852  -13.5235   21.1835 C   0  0  0  0  0  0
  -22.1667   -4.2144   21.0978 F   0  0  0  0  0  0
  -21.5631   -3.4533   25.7731 F   0  0  0  0  0  0
  -30.0178  -13.4293   20.4269 N   0  0  0  0  0  0
  -26.3011  -12.9359   20.3344 N   0  0  0  0  0  0
  -25.9334  -11.6511   20.5760 N   0  0  0  0  0  0
  -22.0490  -12.8253   22.0411 N   0  0  0  0  0  0
  -25.4257  -15.1889   20.4165 N   0  0  0  0  0  0
  -31.7806  -14.8277   20.1170 O   0  0  0  0  0  0
  -21.6639   -6.8876   21.4242 O   0  0  0  0  0  0
  -22.3532  -14.5538   20.6677 O   0  0  0  0  0  0
  -24.6286  -31.8599   23.2050 C   0  0  0  0  0  0
  -25.9128  -32.4776   23.8378 C   0  0  1  0  0  0
  -27.2111  -27.2971   20.1022 C   0  0  0  0  0  0
  -25.5928  -33.8581   24.2276 N   0  0  0  0  0  0
  -23.4225  -30.4885   21.5487 C   0  0  2  0  0  0
  -24.8660  -28.9524   20.1062 C   0  0  0  0  0  0
  -22.7487  -29.4627   22.4918 C   0  0  0  0  0  0
  -18.0292  -28.1384   22.8487 C   0  0  0  0  0  0
  -24.1496  -36.7303   23.2644 C   0  0  0  0  0  0
  -25.9713  -30.7786   21.3880 C   0  0  0  0  0  0
  -26.0397  -29.4104   20.7182 C   0  0  0  0  0  0
  -27.2149  -28.5947   20.7104 C   0  0  0  0  0  0
  -26.0108  -26.9144   19.4524 C   0  0  0  0  0  0
  -24.8547  -27.7090   19.4658 C   0  0  0  0  0  0
  -23.6377  -29.8364   20.1606 C   0  0  0  0  0  0
  -25.4120  -36.3085   24.0326 C   0  0  1  0  0  0
  -20.5895  -28.3690   23.1277 C   0  0  2  0  0  0
  -20.6762  -26.9401   22.5433 C   0  0  0  0  0  0
  -19.5751  -26.6369   21.5222 C   0  0  0  0  0  0
  -18.1926  -26.7929   22.1618 C   0  0  0  0  0  0
  -19.1546  -28.8851   23.2879 C   0  0  0  0  0  0
  -18.9467  -30.1451   23.8893 C   0  0  0  0  0  0
  -17.6466  -30.6587   24.0556 C   0  0  0  0  0  0
  -25.9061  -34.9452   23.5104 C   0  0  0  0  0  0
  -16.5357  -29.9081   23.6328 C   0  0  0  0  0  0
  -16.7279  -28.6500   23.0348 C   0  0  0  0  0  0
  -26.4483  -31.6606   25.0772 C   0  0  0  0  0  0
  -25.3702  -31.3823   26.1506 C   0  0  0  0  0  0
  -27.0285  -30.2982   24.6314 C   0  0  0  0  0  0
  -27.6070  -32.4337   25.7497 C   0  0  0  0  0  0
  -27.5592  -37.1801   24.8457 C   0  0  0  0  0  0
  -21.4199  -29.3035   22.3656 N   0  0  0  0  0  0
  -26.4301  -37.3775   23.9403 N   0  0  0  0  0  0
  -24.6929  -31.0595   22.1019 N   0  0  0  0  0  0
  -23.4208  -28.8155   23.2988 O   0  0  0  0  0  0
  -28.2961  -26.3932   20.1673 O   0  0  0  0  0  0
  -26.5633  -34.8917   22.4672 O   0  0  0  0  0  0
  -23.5439  -32.1413   23.7350 O   0  0  0  0  0  0
  -30.9247  -19.3579   20.2000 C   0  0  0  0  0  0
  -30.9863  -17.9296   20.2876 C   0  0  0  0  0  0
  -30.2997  -23.7888   20.6056 C   0  0  0  0  0  0
  -28.6549  -19.3316   20.9735 C   0  0  0  0  0  0
  -28.6157  -22.4100   20.1653 C   0  0  0  0  0  0
  -28.9302  -23.7705   20.2152 C   0  0  0  0  0  0
  -29.7633  -20.1098   20.5494 C   0  0  0  0  0  0
  -29.8733  -17.1626   20.7265 C   0  0  0  0  0  0
  -28.7113  -17.9087   21.0612 C   0  0  0  0  0  0
  -30.7301  -22.4934   20.7661 C   0  0  0  0  0  0
  -27.9778  -24.9674   19.8690 C   0  0  0  0  0  0
  -29.7097  -21.5817   20.4935 N   0  0  0  0  0  0
  -29.8024  -15.7021   20.8602 N   0  0  0  0  0  0
  -31.9654  -22.0742   21.1506 O   0  0  0  0  0  0
  -27.6137  -17.2334   21.4790 F   0  0  0  0  0  0
  -31.4834  -12.5540   19.1335 H   0  0  0  0  0  0
  -30.4025  -11.4139   19.8880 H   0  0  0  0  0  0
  -29.7753  -11.7603   17.4798 H   0  0  0  0  0  0
  -29.6464  -13.4822   17.7366 H   0  0  0  0  0  0
  -27.8686  -11.2974   18.8631 H   0  0  0  0  0  0
  -27.3792  -12.5848   17.7954 H   0  0  0  0  0  0
  -27.6712  -14.2543   19.5251 H   0  0  0  0  0  0
  -28.7240  -12.0529   21.3716 H   0  0  0  0  0  0
  -28.4484  -13.7038   21.8459 H   0  0  0  0  0  0
  -25.2765   -9.5684   22.4742 H   0  0  0  0  0  0
  -24.0012   -7.4625   22.7456 H   0  0  0  0  0  0
  -21.0814   -8.8786   19.8974 H   0  0  0  0  0  0
  -22.3675  -10.9683   19.6174 H   0  0  0  0  0  0
  -21.1998   -7.6142   23.9712 H   0  0  0  0  0  0
  -21.1479   -6.0514   25.9078 H   0  0  0  0  0  0
  -22.0602   -2.7602   23.2839 H   0  0  0  0  0  0
  -22.4090  -11.9934   22.4844 H   0  0  0  0  0  0
  -21.1122  -13.1325   22.2630 H   0  0  0  0  0  0
  -24.6665  -15.8434   20.5691 H   0  0  0  0  0  0
  -26.3028  -15.6500   20.2081 H   0  0  0  0  0  0
  -26.7200  -32.5419   23.1126 H   0  0  0  0  0  0
  -25.0023  -33.9723   25.0383 H   0  0  0  0  0  0
  -22.7175  -31.3112   21.4118 H   0  0  0  0  0  0
  -23.3720  -35.9685   23.3388 H   0  0  0  0  0  0
  -24.3573  -36.8828   22.2044 H   0  0  0  0  0  0
  -23.7309  -37.6559   23.6602 H   0  0  0  0  0  0
  -26.1259  -31.5503   20.6326 H   0  0  0  0  0  0
  -26.8424  -30.8073   22.0316 H   0  0  0  0  0  0
  -28.1100  -28.9385   21.2095 H   0  0  0  0  0  0
  -25.9135  -25.9758   18.9295 H   0  0  0  0  0  0
  -23.9581  -27.3539   18.9764 H   0  0  0  0  0  0
  -23.7616  -30.6208   19.4130 H   0  0  0  0  0  0
  -22.7548  -29.2739   19.8517 H   0  0  0  0  0  0
  -25.1306  -36.1945   25.0820 H   0  0  0  0  0  0
  -20.9998  -28.3277   24.1397 H   0  0  0  0  0  0
  -20.5627  -26.2313   23.3652 H   0  0  0  0  0  0
  -21.6641  -26.7400   22.1258 H   0  0  0  0  0  0
  -19.6905  -25.6273   21.1269 H   0  0  0  0  0  0
  -19.6696  -27.3170   20.6746 H   0  0  0  0  0  0
  -17.4206  -26.6697   21.4004 H   0  0  0  0  0  0
  -18.0299  -26.0072   22.9015 H   0  0  0  0  0  0
  -19.7942  -30.7263   24.2266 H   0  0  0  0  0  0
  -17.5023  -31.6271   24.5156 H   0  0  0  0  0  0
  -15.5353  -30.2974   23.7661 H   0  0  0  0  0  0
  -15.8686  -28.0820   22.7049 H   0  0  0  0  0  0
  -24.5864  -30.7164   25.7878 H   0  0  0  0  0  0
  -24.8903  -32.3019   26.4867 H   0  0  0  0  0  0
  -25.8009  -30.9066   27.0326 H   0  0  0  0  0  0
  -26.2865  -29.6758   24.1295 H   0  0  0  0  0  0
  -27.3837  -29.7241   25.4885 H   0  0  0  0  0  0
  -27.8822  -30.4181   23.9640 H   0  0  0  0  0  0
  -27.2694  -33.3610   26.2136 H   0  0  0  0  0  0
  -28.3817  -32.6948   25.0275 H   0  0  0  0  0  0
  -28.0820  -31.8441   26.5347 H   0  0  0  0  0  0
  -28.2653  -38.0056   24.7452 H   0  0  0  0  0  0
  -28.1039  -36.2590   24.6323 H   0  0  0  0  0  0
  -27.2327  -37.1518   25.8868 H   0  0  0  0  0  0
  -20.9369  -29.8771   21.6884 H   0  0  0  0  0  0
  -26.0190  -38.2863   24.1367 H   0  0  0  0  0  0
  -31.8010  -19.8853   19.8549 H   0  0  0  0  0  0
  -31.9059  -17.4350   20.0110 H   0  0  0  0  0  0
  -30.9035  -24.6747   20.7496 H   0  0  0  0  0  0
  -27.7377  -19.8271   21.2531 H   0  0  0  0  0  0
  -27.6762  -21.9424   19.9012 H   0  0  0  0  0  0
  -27.0414  -24.7067   20.3648 H   0  0  0  0  0  0
  -27.8017  -24.8897   18.7948 H   0  0  0  0  0  0
  -28.8974  -15.3886   21.1783 H   0  0  0  0  0  0
  -32.5136  -22.8469   21.2492 H   0  0  0  0  0  0
  1 25  1  0  0  0
  1 30  2  0  0  0
  1 83  1  0  0  0
  2  3  1  0  0  0
  2 25  1  0  0  0
  2 86  1  0  0  0
  2 87  1  0  0  0
  3  4  1  0  0  0
  3 88  1  0  0  0
  3 89  1  0  0  0
  4  5  1  0  0  0
  4 90  1  0  0  0
  4 91  1  0  0  0
  5  6  1  0  0  0
  5 26  1  0  0  0
  5 92  1  0  0  0
  6 25  1  0  0  0
  6 93  1  0  0  0
  6 94  1  0  0  0
  7  8  2  0  0  0
  7 26  1  0  0  0
  7 29  1  0  0  0
  8  9  1  0  0  0
  8 22  1  0  0  0
  9 10  1  0  0  0
  9 27  2  0  0  0
 10 11  2  0  0  0
 10 15  1  0  0  0
 11 12  1  0  0  0
 11 95  1  0  0  0
 12 13  2  0  0  0
 12 96  1  0  0  0
 13 14  1  0  0  0
 13 31  1  0  0  0
 14 15  2  0  0  0
 14 97  1  0  0  0
 15 98  1  0  0  0
 16 17  2  0  0  0
 16 21  1  0  0  0
 16 31  1  0  0  0
 17 18  1  0  0  0
 17 99  1  0  0  0
 18 19  2  0  0  0
 18100  1  0  0  0
 19 20  1  0  0  0
 19 24  1  0  0  0
 20 21  2  0  0  0
 20101  1  0  0  0
 21 23  1  0  0  0
 22 28  1  0  0  0
 22 32  2  0  0  0
 26 27  1  0  0  0
 28102  1  0  0  0
 28103  1  0  0  0
 29104  1  0  0  0
 29105  1  0  0  0
 33 34  1  0  0  0
 33 66  1  0  0  0
 33 70  2  0  0  0
 34 36  1  0  0  0
 34 59  1  0  0  0
 34106  1  0  0  0
 35 44  2  0  0  0
 35 45  1  0  0  0
 35 68  1  0  0  0
 36 56  1  0  0  0
 36107  1  0  0  0
 37 39  1  0  0  0
 37 47  1  0  0  0
 37 66  1  0  0  0
 37108  1  0  0  0
 38 43  2  0  0  0
 38 46  1  0  0  0
 38 47  1  0  0  0
 39 64  1  0  0  0
 39 67  2  0  0  0
 40 52  1  0  0  0
 40 53  2  0  0  0
 40 58  1  0  0  0
 41109  1  0  0  0
 41110  1  0  0  0
 41111  1  0  0  0
 41 48  1  0  0  0
 42 43  1  0  0  0
 42 66  1  0  0  0
 42112  1  0  0  0
 42113  1  0  0  0
 43 44  1  0  0  0
 44114  1  0  0  0
 45 46  2  0  0  0
 45115  1  0  0  0
 46116  1  0  0  0
 47117  1  0  0  0
 47118  1  0  0  0
 48 56  1  0  0  0
 48 65  1  0  0  0
 48119  1  0  0  0
 49 50  1  0  0  0
 49 53  1  0  0  0
 49 64  1  0  0  0
 49120  1  0  0  0
 50 51  1  0  0  0
 50121  1  0  0  0
 50122  1  0  0  0
 51 52  1  0  0  0
 51123  1  0  0  0
 51124  1  0  0  0
 52125  1  0  0  0
 52126  1  0  0  0
 53 54  1  0  0  0
 54 55  2  0  0  0
 54127  1  0  0  0
 55 57  1  0  0  0
 55128  1  0  0  0
 56 69  2  0  0  0
 57 58  2  0  0  0
 57129  1  0  0  0
 58130  1  0  0  0
 59 60  1  0  0  0
 59 61  1  0  0  0
 59 62  1  0  0  0
 60131  1  0  0  0
 60132  1  0  0  0
 60133  1  0  0  0
 61134  1  0  0  0
 61135  1  0  0  0
 61136  1  0  0  0
 62137  1  0  0  0
 62138  1  0  0  0
 62139  1  0  0  0
 63 65  1  0  0  0
 63140  1  0  0  0
 63141  1  0  0  0
 63142  1  0  0  0
 64143  1  0  0  0
 65144  1  0  0  0
 68 81  1  0  0  0
 71 72  2  0  0  0
 71 77  1  0  0  0
 71145  1  0  0  0
 72 78  1  0  0  0
 72146  1  0  0  0
 73 76  1  0  0  0
 73 80  2  0  0  0
 73147  1  0  0  0
 74 77  2  0  0  0
 74 79  1  0  0  0
 74148  1  0  0  0
 75 76  2  0  0  0
 75 82  1  0  0  0
 75149  1  0  0  0
 76 81  1  0  0  0
 77 82  1  0  0  0
 78 79  2  0  0  0
 78 83  1  0  0  0
 79 85  1  0  0  0
 80 82  1  0  0  0
 80 84  1  0  0  0
 81150  1  0  0  0
 81151  1  0  0  0
 83152  1  0  0  0
 84153  1  0  0  0
M  ISO  4   1 100  68 101  81 101  83 100
M  END
> <chiral flag>
0

> <version>
0

> <s_m_source_file>
/data/baiqing/PycharmProjects/Reinvent-master-3.2/result/LINK_invent/BTK/process_docking_weight1_custom_product_contain_oxygen_bond_distance_aromatic_linkinvent_7_9_3/rearranged_h_0085.sdf

> <i_m_source_file_index>
80

> <r_mmod_Potential_Energy-OPLS-2005>
13.3398418426514

> <r_mmod_Stretch_Energy-OPLS-2005>
83.3894958496094

> <r_mmod_Bend_Energy-OPLS-2005>
147.012298583984

> <r_mmod_Torsional_Energy-OPLS-2005>
218.234161376953

> <r_mmod_Improper_Torsional_Energy-OPLS-2005>
3.86583662033081

> <r_mmod_Van_der_Waal_Energy-OPLS-2005>
147.470352172852

> <r_mmod_Electrostatic_Energy-OPLS-2005>
-433.428344726562

> <r_mmod_Solvation_Energy-OPLS-2005>
-214.20964050293

> <b_mmod_Minimization_Converged-OPLS-2005>
0

> <r_mmod_RMS_Derivative-OPLS-2005>
1.62125205993652

$$$$
81
                    3D
 Structure written by MMmdl.
160168  0  0  1  0            999 V2000
  -30.7388  -14.4432   20.7614 C   0  0  0  0  0  0
  -30.4364  -12.3652   19.4043 C   0  0  0  0  0  0
  -29.4997  -12.5655   18.1966 C   0  0  0  0  0  0
  -28.0227  -12.3902   18.6011 C   0  0  0  0  0  0
  -27.6607  -13.2100   19.8625 C   0  0  2  0  0  0
  -28.6900  -12.9702   20.9815 C   0  0  0  0  0  0
  -25.2547  -13.8158   20.5550 C   0  0  0  0  0  0
  -24.1847  -13.0441   20.9144 C   0  0  0  0  0  0
  -24.6412  -11.6907   20.8719 C   0  0  0  0  0  0
  -23.9076  -10.4305   21.0411 C   0  0  0  0  0  0
  -24.3640   -9.4211   21.9171 C   0  0  0  0  0  0
  -23.6322   -8.2247   22.0747 C   0  0  0  0  0  0
  -22.4300   -8.0286   21.3545 C   0  0  0  0  0  0
  -21.9939   -9.0252   20.4635 C   0  0  0  0  0  0
  -22.7256  -10.2141   20.3048 C   0  0  0  0  0  0
  -21.6852   -6.0751   22.5283 C   0  0  0  0  0  0
  -21.4019   -6.5658   23.8219 C   0  0  0  0  0  0
  -21.3653   -5.6810   24.9180 C   0  0  0  0  0  0
  -21.6047   -4.3064   24.7233 C   0  0  0  0  0  0
  -21.8824   -3.8157   23.4351 C   0  0  0  0  0  0
  -21.9194   -4.6979   22.3405 C   0  0  0  0  0  0
  -22.7855  -13.5193   21.1831 C   0  0  0  0  0  0
  -22.1654   -4.2168   21.0971 F   0  0  0  0  0  0
  -21.5638   -3.4542   25.7737 F   0  0  0  0  0  0
  -30.0401  -13.2970   20.4749 N   0  0  0  0  0  0
  -26.3001  -12.9344   20.3217 N   0  0  0  0  0  0
  -25.9329  -11.6496   20.5689 N   0  0  0  0  0  0
  -22.0514  -12.8208   22.0409 N   0  0  0  0  0  0
  -25.4222  -15.1877   20.3843 N   0  0  0  0  0  0
  -31.6962  -14.8131   20.0736 O   0  0  0  0  0  0
  -21.6653   -6.8894   21.4255 O   0  0  0  0  0  0
  -22.3535  -14.5483   20.6655 O   0  0  0  0  0  0
  -24.6169  -31.8648   23.2084 C   0  0  0  0  0  0
  -25.9037  -32.4823   23.8410 C   0  0  1  0  0  0
  -27.2337  -27.3900   20.1386 C   0  0  0  0  0  0
  -25.5888  -33.8628   24.2339 N   0  0  0  0  0  0
  -23.4080  -30.4862   21.5471 C   0  0  2  0  0  0
  -24.8588  -28.9465   20.1144 C   0  0  0  0  0  0
  -22.7430  -29.4641   22.4966 C   0  0  0  0  0  0
  -18.0276  -28.1386   22.8506 C   0  0  0  0  0  0
  -24.1478  -36.7325   23.2639 C   0  0  0  0  0  0
  -25.9383  -30.8229   21.3640 C   0  0  0  0  0  0
  -26.0174  -29.4517   20.7174 C   0  0  0  0  0  0
  -27.2065  -28.6821   20.7226 C   0  0  0  0  0  0
  -26.0621  -26.9152   19.5074 C   0  0  0  0  0  0
  -24.8795  -27.6828   19.4981 C   0  0  0  0  0  0
  -23.6222  -29.8177   20.1614 C   0  0  0  0  0  0
  -25.4101  -36.3126   24.0346 C   0  0  1  0  0  0
  -20.5871  -28.3674   23.1319 C   0  0  2  0  0  0
  -20.6765  -26.9404   22.5429 C   0  0  0  0  0  0
  -19.5739  -26.6387   21.5223 C   0  0  0  0  0  0
  -18.1915  -26.7940   22.1628 C   0  0  0  0  0  0
  -19.1526  -28.8848   23.2907 C   0  0  0  0  0  0
  -18.9450  -30.1458   23.8917 C   0  0  0  0  0  0
  -17.6449  -30.6589   24.0575 C   0  0  0  0  0  0
  -25.9032  -34.9480   23.5146 C   0  0  0  0  0  0
  -16.5342  -29.9096   23.6320 C   0  0  0  0  0  0
  -16.7262  -28.6513   23.0339 C   0  0  0  0  0  0
  -26.4456  -31.6613   25.0747 C   0  0  0  0  0  0
  -25.3727  -31.3716   26.1501 C   0  0  0  0  0  0
  -27.0271  -30.3058   24.6113 C   0  0  0  0  0  0
  -27.6048  -32.4313   25.7489 C   0  0  0  0  0  0
  -27.5592  -37.1804   24.8454 C   0  0  0  0  0  0
  -21.4153  -29.3034   22.3721 N   0  0  0  0  0  0
  -26.4288  -37.3808   23.9428 N   0  0  0  0  0  0
  -24.6725  -31.0735   22.0985 N   0  0  0  0  0  0
  -23.4187  -28.8177   23.3014 O   0  0  0  0  0  0
  -28.3969  -26.6369   20.1842 O   0  0  0  0  0  0
  -26.5587  -34.8927   22.4702 O   0  0  0  0  0  0
  -23.5350  -32.1399   23.7459 O   0  0  0  0  0  0
  -29.9279  -17.4691   19.7585 C   0  0  0  0  0  0
  -30.5193  -18.8460   21.6628 C   0  0  0  0  0  0
  -29.9702  -18.6261   18.9416 C   0  0  0  0  0  0
  -30.5306  -20.0129   20.8590 C   0  0  0  0  0  0
  -30.2149  -17.5526   21.1433 C   0  0  0  0  0  0
  -30.2523  -19.9063   19.4825 C   0  0  0  0  0  0
  -30.0588  -16.3940   22.1302 C   0  0  0  0  0  0
  -30.0991  -22.3268   18.5337 C   0  0  0  0  0  0
  -28.8637  -24.3973   19.2488 C   0  0  0  0  0  0
  -30.6440  -23.0160   17.3026 C   0  0  0  0  0  0
  -30.5177  -14.2554   23.1516 C   0  0  0  0  0  0
  -28.3055  -25.2021   20.4428 C   0  0  0  0  0  0
  -29.3679  -23.0324   19.4647 N   0  0  0  0  0  0
  -30.3699  -15.0687   21.9168 N   0  0  0  0  0  0
  -30.4590  -21.0036   18.5470 N   0  3  0  0  0  0
  -29.6403  -16.7369   23.2464 O   0  0  0  0  0  0
  -28.8694  -24.9238   18.1314 O   0  0  0  0  0  0
  -31.4748  -12.5092   19.1015 H   0  0  0  0  0  0
  -30.3747  -11.3368   19.7634 H   0  0  0  0  0  0
  -29.7534  -11.8625   17.4025 H   0  0  0  0  0  0
  -29.6497  -13.5638   17.7803 H   0  0  0  0  0  0
  -27.8438  -11.3305   18.7812 H   0  0  0  0  0  0
  -27.3759  -12.6774   17.7710 H   0  0  0  0  0  0
  -27.7102  -14.2651   19.5876 H   0  0  0  0  0  0
  -28.6676  -11.9312   21.3149 H   0  0  0  0  0  0
  -28.3796  -13.5565   21.8431 H   0  0  0  0  0  0
  -25.2797   -9.5694   22.4714 H   0  0  0  0  0  0
  -24.0037   -7.4663   22.7477 H   0  0  0  0  0  0
  -21.0865   -8.8761   19.8957 H   0  0  0  0  0  0
  -22.3698  -10.9673   19.6152 H   0  0  0  0  0  0
  -21.2001   -7.6173   23.9727 H   0  0  0  0  0  0
  -21.1468   -6.0537   25.9088 H   0  0  0  0  0  0
  -22.0605   -2.7615   23.2841 H   0  0  0  0  0  0
  -22.4173  -11.9912   22.4848 H   0  0  0  0  0  0
  -21.1116  -13.1214   22.2596 H   0  0  0  0  0  0
  -24.6387  -15.8286   20.4380 H   0  0  0  0  0  0
  -26.2481  -15.6121   19.9800 H   0  0  0  0  0  0
  -26.7119  -32.5535   23.1189 H   0  0  0  0  0  0
  -25.0070  -33.9791   25.0509 H   0  0  0  0  0  0
  -22.6992  -31.3042   21.4040 H   0  0  0  0  0  0
  -23.3757  -35.9634   23.3260 H   0  0  0  0  0  0
  -24.3582  -36.8986   22.2062 H   0  0  0  0  0  0
  -23.7189  -37.6503   23.6677 H   0  0  0  0  0  0
  -26.0441  -31.5815   20.5880 H   0  0  0  0  0  0
  -26.8289  -30.8885   21.9777 H   0  0  0  0  0  0
  -28.0975  -29.0630   21.2028 H   0  0  0  0  0  0
  -26.0552  -25.9509   19.0190 H   0  0  0  0  0  0
  -23.9934  -27.2935   19.0155 H   0  0  0  0  0  0
  -23.7383  -30.5925   19.4025 H   0  0  0  0  0  0
  -22.7458  -29.2421   19.8605 H   0  0  0  0  0  0
  -25.1263  -36.2002   25.0836 H   0  0  0  0  0  0
  -20.9956  -28.3238   24.1440 H   0  0  0  0  0  0
  -20.5670  -26.2279   23.3614 H   0  0  0  0  0  0
  -21.6633  -26.7444   22.1219 H   0  0  0  0  0  0
  -19.6900  -25.6292   21.1250 H   0  0  0  0  0  0
  -19.6686  -27.3202   20.6757 H   0  0  0  0  0  0
  -17.4190  -26.6700   21.4021 H   0  0  0  0  0  0
  -18.0301  -26.0076   22.9017 H   0  0  0  0  0  0
  -19.7914  -30.7272   24.2302 H   0  0  0  0  0  0
  -17.4991  -31.6265   24.5176 H   0  0  0  0  0  0
  -15.5342  -30.3004   23.7621 H   0  0  0  0  0  0
  -15.8663  -28.0840   22.7037 H   0  0  0  0  0  0
  -24.5906  -30.7046   25.7853 H   0  0  0  0  0  0
  -24.8905  -32.2866   26.4954 H   0  0  0  0  0  0
  -25.8095  -30.8898   27.0261 H   0  0  0  0  0  0
  -26.2812  -29.6834   24.1158 H   0  0  0  0  0  0
  -27.4036  -29.7277   25.4562 H   0  0  0  0  0  0
  -27.8648  -30.4382   23.9260 H   0  0  0  0  0  0
  -27.2713  -33.3634   26.2053 H   0  0  0  0  0  0
  -28.3860  -32.6826   25.0308 H   0  0  0  0  0  0
  -28.0702  -31.8435   26.5408 H   0  0  0  0  0  0
  -28.2572  -38.0138   24.7572 H   0  0  0  0  0  0
  -28.1126  -36.2682   24.6188 H   0  0  0  0  0  0
  -27.2330  -37.1346   25.8855 H   0  0  0  0  0  0
  -20.9316  -29.8785   21.6970 H   0  0  0  0  0  0
  -26.0186  -38.2883   24.1456 H   0  0  0  0  0  0
  -29.6699  -16.5245   19.3032 H   0  0  0  0  0  0
  -30.7431  -18.9586   22.7159 H   0  0  0  0  0  0
  -29.8039  -18.5114   17.8802 H   0  0  0  0  0  0
  -30.8045  -20.9619   21.2986 H   0  0  0  0  0  0
  -29.8484  -23.1985   16.5802 H   0  0  0  0  0  0
  -31.4117  -22.4218   16.8072 H   0  0  0  0  0  0
  -31.1182  -23.9627   17.5634 H   0  0  0  0  0  0
  -29.5638  -14.1708   23.6751 H   0  0  0  0  0  0
  -31.2228  -14.7254   23.8408 H   0  0  0  0  0  0
  -30.8805  -13.2412   22.9776 H   0  0  0  0  0  0
  -28.8971  -24.9727   21.3302 H   0  0  0  0  0  0
  -27.2918  -24.8679   20.6611 H   0  0  0  0  0  0
  -29.2352  -22.5765   20.3523 H   0  0  0  0  0  0
  -30.7421  -20.7181   17.6198 H   0  0  0  0  0  0
  1 25  1  0  0  0
  1 30  2  0  0  0
  1 84  1  0  0  0
  2  3  1  0  0  0
  2 25  1  0  0  0
  2 88  1  0  0  0
  2 89  1  0  0  0
  3  4  1  0  0  0
  3 90  1  0  0  0
  3 91  1  0  0  0
  4  5  1  0  0  0
  4 92  1  0  0  0
  4 93  1  0  0  0
  5  6  1  0  0  0
  5 26  1  0  0  0
  5 94  1  0  0  0
  6 25  1  0  0  0
  6 95  1  0  0  0
  6 96  1  0  0  0
  7  8  2  0  0  0
  7 26  1  0  0  0
  7 29  1  0  0  0
  8  9  1  0  0  0
  8 22  1  0  0  0
  9 10  1  0  0  0
  9 27  2  0  0  0
 10 11  2  0  0  0
 10 15  1  0  0  0
 11 12  1  0  0  0
 11 97  1  0  0  0
 12 13  2  0  0  0
 12 98  1  0  0  0
 13 14  1  0  0  0
 13 31  1  0  0  0
 14 15  2  0  0  0
 14 99  1  0  0  0
 15100  1  0  0  0
 16 17  2  0  0  0
 16 21  1  0  0  0
 16 31  1  0  0  0
 17 18  1  0  0  0
 17101  1  0  0  0
 18 19  2  0  0  0
 18102  1  0  0  0
 19 20  1  0  0  0
 19 24  1  0  0  0
 20 21  2  0  0  0
 20103  1  0  0  0
 21 23  1  0  0  0
 22 28  1  0  0  0
 22 32  2  0  0  0
 26 27  1  0  0  0
 28104  1  0  0  0
 28105  1  0  0  0
 29106  1  0  0  0
 29107  1  0  0  0
 33 34  1  0  0  0
 33 66  1  0  0  0
 33 70  2  0  0  0
 34 36  1  0  0  0
 34 59  1  0  0  0
 34108  1  0  0  0
 35 44  2  0  0  0
 35 45  1  0  0  0
 35 68  1  0  0  0
 36 56  1  0  0  0
 36109  1  0  0  0
 37 39  1  0  0  0
 37 47  1  0  0  0
 37 66  1  0  0  0
 37110  1  0  0  0
 38 43  2  0  0  0
 38 46  1  0  0  0
 38 47  1  0  0  0
 39 64  1  0  0  0
 39 67  2  0  0  0
 40 52  1  0  0  0
 40 53  2  0  0  0
 40 58  1  0  0  0
 41111  1  0  0  0
 41112  1  0  0  0
 41113  1  0  0  0
 41 48  1  0  0  0
 42 43  1  0  0  0
 42 66  1  0  0  0
 42114  1  0  0  0
 42115  1  0  0  0
 43 44  1  0  0  0
 44116  1  0  0  0
 45 46  2  0  0  0
 45117  1  0  0  0
 46118  1  0  0  0
 47119  1  0  0  0
 47120  1  0  0  0
 48 56  1  0  0  0
 48 65  1  0  0  0
 48121  1  0  0  0
 49 50  1  0  0  0
 49 53  1  0  0  0
 49 64  1  0  0  0
 49122  1  0  0  0
 50 51  1  0  0  0
 50123  1  0  0  0
 50124  1  0  0  0
 51 52  1  0  0  0
 51125  1  0  0  0
 51126  1  0  0  0
 52127  1  0  0  0
 52128  1  0  0  0
 53 54  1  0  0  0
 54 55  2  0  0  0
 54129  1  0  0  0
 55 57  1  0  0  0
 55130  1  0  0  0
 56 69  2  0  0  0
 57 58  2  0  0  0
 57131  1  0  0  0
 58132  1  0  0  0
 59 60  1  0  0  0
 59 61  1  0  0  0
 59 62  1  0  0  0
 60133  1  0  0  0
 60134  1  0  0  0
 60135  1  0  0  0
 61136  1  0  0  0
 61137  1  0  0  0
 61138  1  0  0  0
 62139  1  0  0  0
 62140  1  0  0  0
 62141  1  0  0  0
 63 65  1  0  0  0
 63142  1  0  0  0
 63143  1  0  0  0
 63144  1  0  0  0
 64145  1  0  0  0
 65146  1  0  0  0
 68 82  1  0  0  0
 71 73  2  0  0  0
 71 75  1  0  0  0
 71147  1  0  0  0
 72 74  1  0  0  0
 72 75  2  0  0  0
 72148  1  0  0  0
 73 76  1  0  0  0
 73149  1  0  0  0
 74 76  2  0  0  0
 74150  1  0  0  0
 75 77  1  0  0  0
 76 85  1  0  0  0
 77 84  1  0  0  0
 77 86  2  0  0  0
 78 80  1  0  0  0
 78 83  1  0  0  0
 78 85  2  0  0  0
 79 82  1  0  0  0
 79 83  1  0  0  0
 79 87  2  0  0  0
 80151  1  0  0  0
 80152  1  0  0  0
 80153  1  0  0  0
 81 84  1  0  0  0
 81154  1  0  0  0
 81155  1  0  0  0
 81156  1  0  0  0
 82157  1  0  0  0
 82158  1  0  0  0
 83159  1  0  0  0
 85160  1  0  0  0
M  CHG  1  85   1
M  ISO  4   1 100  68 101  82 101  84 100
M  END
> <chiral flag>
0

> <version>
0

> <s_m_source_file>
/data/baiqing/PycharmProjects/Reinvent-master-3.2/result/LINK_invent/BTK/process_docking_weight1_custom_product_contain_oxygen_bond_distance_aromatic_linkinvent_7_9_3/rearranged_h_0085.sdf

> <i_m_source_file_index>
81

> <r_mmod_Potential_Energy-OPLS-2005>
98.6209259033203

> <r_mmod_Stretch_Energy-OPLS-2005>
61.7543754577637

> <r_mmod_Bend_Energy-OPLS-2005>
181.849990844727

> <r_mmod_Torsional_Energy-OPLS-2005>
303.473693847656

> <r_mmod_Improper_Torsional_Energy-OPLS-2005>
5.56131267547607

> <r_mmod_Van_der_Waal_Energy-OPLS-2005>
176.786239624023

> <r_mmod_Electrostatic_Energy-OPLS-2005>
-205.832275390625

> <r_mmod_Solvation_Energy-OPLS-2005>
-444.972839355469

> <b_mmod_Minimization_Converged-OPLS-2005>
0

> <r_mmod_RMS_Derivative-OPLS-2005>
3.63619136810303

$$$$
82
                    3D
 Structure written by MMmdl.
155164  0  0  1  0            999 V2000
  -30.6849  -14.6883   20.4747 C   0  0  0  0  0  0
  -30.4111  -12.4237   19.4691 C   0  0  0  0  0  0
  -29.4994  -12.4957   18.2284 C   0  0  0  0  0  0
  -28.0258  -12.3336   18.6441 C   0  0  0  0  0  0
  -27.6368  -13.2381   19.8450 C   0  0  2  0  0  0
  -28.6837  -13.1885   20.9794 C   0  0  0  0  0  0
  -25.2482  -13.8216   20.5702 C   0  0  0  0  0  0
  -24.1785  -13.0447   20.9216 C   0  0  0  0  0  0
  -24.6387  -11.6928   20.8749 C   0  0  0  0  0  0
  -23.9074  -10.4296   21.0402 C   0  0  0  0  0  0
  -24.3625   -9.4211   21.9180 C   0  0  0  0  0  0
  -23.6297   -8.2248   22.0753 C   0  0  0  0  0  0
  -22.4275   -8.0285   21.3549 C   0  0  0  0  0  0
  -21.9914   -9.0258   20.4650 C   0  0  0  0  0  0
  -22.7246  -10.2135   20.3055 C   0  0  0  0  0  0
  -21.6857   -6.0735   22.5278 C   0  0  0  0  0  0
  -21.4022   -6.5640   23.8210 C   0  0  0  0  0  0
  -21.3658   -5.6791   24.9171 C   0  0  0  0  0  0
  -21.6040   -4.3054   24.7224 C   0  0  0  0  0  0
  -21.8820   -3.8147   23.4346 C   0  0  0  0  0  0
  -21.9193   -4.6963   22.3399 C   0  0  0  0  0  0
  -22.7804  -13.5221   21.1870 C   0  0  0  0  0  0
  -22.1661   -4.2148   21.0977 F   0  0  0  0  0  0
  -21.5625   -3.4537   25.7740 F   0  0  0  0  0  0
  -29.9853  -13.5076   20.3846 N   0  0  0  0  0  0
  -26.2914  -12.9439   20.3281 N   0  0  0  0  0  0
  -25.9321  -11.6574   20.5756 N   0  0  0  0  0  0
  -22.0455  -12.8209   22.0428 N   0  0  0  0  0  0
  -25.4151  -15.1941   20.4112 N   0  0  0  0  0  0
  -31.8822  -14.6729   20.1770 O   0  0  0  0  0  0
  -21.6644   -6.8879   21.4241 O   0  0  0  0  0  0
  -22.3486  -14.5518   20.6706 O   0  0  0  0  0  0
  -24.6287  -31.8576   23.2006 C   0  0  0  0  0  0
  -25.9126  -32.4764   23.8342 C   0  0  1  0  0  0
  -27.2171  -27.2938   20.1118 C   0  0  0  0  0  0
  -25.5931  -33.8566   24.2266 N   0  0  0  0  0  0
  -23.4225  -30.4820   21.5444 C   0  0  2  0  0  0
  -24.8664  -28.9353   20.1087 C   0  0  0  0  0  0
  -22.7486  -29.4612   22.4925 C   0  0  0  0  0  0
  -18.0288  -28.1385   22.8483 C   0  0  0  0  0  0
  -24.1491  -36.7288   23.2640 C   0  0  0  0  0  0
  -25.9666  -30.7803   21.3750 C   0  0  0  0  0  0
  -26.0378  -29.4072   20.7135 C   0  0  0  0  0  0
  -27.2145  -28.5973   20.7064 C   0  0  0  0  0  0
  -26.0127  -26.8734   19.5012 C   0  0  0  0  0  0
  -24.8570  -27.6751   19.4938 C   0  0  0  0  0  0
  -23.6369  -29.8190   20.1589 C   0  0  0  0  0  0
  -25.4116  -36.3072   24.0326 C   0  0  1  0  0  0
  -20.5890  -28.3689   23.1278 C   0  0  2  0  0  0
  -20.6778  -26.9408   22.5410 C   0  0  0  0  0  0
  -19.5753  -26.6383   21.5211 C   0  0  0  0  0  0
  -18.1932  -26.7926   22.1623 C   0  0  0  0  0  0
  -19.1540  -28.8855   23.2875 C   0  0  0  0  0  0
  -18.9461  -30.1457   23.8891 C   0  0  0  0  0  0
  -17.6460  -30.6585   24.0562 C   0  0  0  0  0  0
  -25.9056  -34.9443   23.5094 C   0  0  0  0  0  0
  -16.5352  -29.9081   23.6332 C   0  0  0  0  0  0
  -16.7275  -28.6500   23.0347 C   0  0  0  0  0  0
  -26.4501  -31.6584   25.0725 C   0  0  0  0  0  0
  -25.3730  -31.3730   26.1450 C   0  0  0  0  0  0
  -27.0347  -30.3003   24.6201 C   0  0  0  0  0  0
  -27.6054  -32.4328   25.7496 C   0  0  0  0  0  0
  -27.5579  -37.1798   24.8462 C   0  0  0  0  0  0
  -21.4197  -29.3042   22.3672 N   0  0  0  0  0  0
  -26.4291  -37.3768   23.9406 N   0  0  0  0  0  0
  -24.6917  -31.0570   22.0963 N   0  0  0  0  0  0
  -23.4200  -28.8151   23.3010 O   0  0  0  0  0  0
  -28.3245  -26.4240   20.1933 O   0  0  0  0  0  0
  -26.5626  -34.8913   22.4664 O   0  0  0  0  0  0
  -23.5447  -32.1385   23.7322 O   0  0  0  0  0  0
  -30.3885  -19.6767   21.2721 C   0  0  0  0  0  0
  -28.7605  -18.7505   19.7859 C   0  0  0  0  0  0
  -29.9390  -21.0048   20.9866 C   0  0  0  0  0  0
  -28.3010  -20.0820   19.5098 C   0  0  0  0  0  0
  -29.8504  -18.5022   20.6589 C   0  0  0  0  0  0
  -28.9005  -21.2696   20.0533 C   0  0  0  0  0  0
  -28.3179  -25.1510   18.2161 C   0  0  0  0  0  0
  -28.3546  -25.1533   19.5611 C   0  0  0  0  0  0
  -28.5884  -23.8441   20.2917 C   0  0  0  0  0  0
  -30.5872  -17.1372   20.8091 C   0  0  0  0  0  0
  -28.3812  -23.9103   17.3734 C   0  0  0  0  0  0
  -28.0048  -22.6714   18.1919 C   0  0  0  0  0  0
  -28.5439  -22.6414   19.5692 N   0  0  0  0  0  0
  -30.0066  -15.8881   20.6567 N   0  0  0  0  0  0
  -28.8181  -23.8363   21.5059 O   0  0  0  0  0  0
  -31.7807  -17.2434   21.1185 O   0  0  0  0  0  0
  -31.4567  -12.5019   19.1677 H   0  0  0  0  0  0
  -30.3200  -11.4536   19.9606 H   0  0  0  0  0  0
  -29.7738  -11.7211   17.5111 H   0  0  0  0  0  0
  -29.6405  -13.4497   17.7178 H   0  0  0  0  0  0
  -27.8756  -11.2860   18.9072 H   0  0  0  0  0  0
  -27.3688  -12.5288   17.7955 H   0  0  0  0  0  0
  -27.6278  -14.2574   19.4580 H   0  0  0  0  0  0
  -28.7071  -12.2030   21.4469 H   0  0  0  0  0  0
  -28.4314  -13.8972   21.7698 H   0  0  0  0  0  0
  -25.2768   -9.5689   22.4756 H   0  0  0  0  0  0
  -24.0007   -7.4639   22.7472 H   0  0  0  0  0  0
  -21.0845   -8.8777   19.8957 H   0  0  0  0  0  0
  -22.3701  -10.9673   19.6167 H   0  0  0  0  0  0
  -21.2023   -7.6150   23.9714 H   0  0  0  0  0  0
  -21.1478   -6.0522   25.9072 H   0  0  0  0  0  0
  -22.0600   -2.7611   23.2842 H   0  0  0  0  0  0
  -22.4077  -11.9880   22.4829 H   0  0  0  0  0  0
  -21.1069  -13.1226   22.2627 H   0  0  0  0  0  0
  -24.6449  -15.8449   20.5214 H   0  0  0  0  0  0
  -26.2572  -15.6362   20.0677 H   0  0  0  0  0  0
  -26.7190  -32.5415   23.1085 H   0  0  0  0  0  0
  -25.0071  -33.9706   25.0405 H   0  0  0  0  0  0
  -22.7172  -31.3035   21.4023 H   0  0  0  0  0  0
  -23.3749  -35.9623   23.3299 H   0  0  0  0  0  0
  -24.3584  -36.8915   22.2055 H   0  0  0  0  0  0
  -23.7252  -37.6490   23.6670 H   0  0  0  0  0  0
  -26.1044  -31.5445   20.6088 H   0  0  0  0  0  0
  -26.8446  -30.8249   22.0081 H   0  0  0  0  0  0
  -28.1123  -28.9508   21.1939 H   0  0  0  0  0  0
  -25.9295  -25.8968   19.0485 H   0  0  0  0  0  0
  -23.9551  -27.3030   19.0275 H   0  0  0  0  0  0
  -23.7576  -30.5967   19.4037 H   0  0  0  0  0  0
  -22.7552  -29.2516   19.8553 H   0  0  0  0  0  0
  -25.1298  -36.1917   25.0818 H   0  0  0  0  0  0
  -20.9981  -28.3266   24.1399 H   0  0  0  0  0  0
  -20.5680  -26.2295   23.3610 H   0  0  0  0  0  0
  -21.6644  -26.7438   22.1201 H   0  0  0  0  0  0
  -19.6913  -25.6294   21.1239 H   0  0  0  0  0  0
  -19.6690  -27.3195   20.6741 H   0  0  0  0  0  0
  -17.4200  -26.6672   21.4026 H   0  0  0  0  0  0
  -18.0332  -26.0072   22.9024 H   0  0  0  0  0  0
  -19.7936  -30.7277   24.2253 H   0  0  0  0  0  0
  -17.5012  -31.6263   24.5167 H   0  0  0  0  0  0
  -15.5350  -30.2978   23.7661 H   0  0  0  0  0  0
  -15.8677  -28.0821   22.7059 H   0  0  0  0  0  0
  -24.5898  -30.7086   25.7780 H   0  0  0  0  0  0
  -24.8930  -32.2899   26.4880 H   0  0  0  0  0  0
  -25.8050  -30.8902   27.0224 H   0  0  0  0  0  0
  -26.2928  -29.6748   24.1222 H   0  0  0  0  0  0
  -27.4031  -29.7267   25.4718 H   0  0  0  0  0  0
  -27.8805  -30.4280   23.9440 H   0  0  0  0  0  0
  -27.2656  -33.3626   26.2072 H   0  0  0  0  0  0
  -28.3862  -32.6896   25.0323 H   0  0  0  0  0  0
  -28.0728  -31.8460   26.5414 H   0  0  0  0  0  0
  -28.2590  -38.0100   24.7506 H   0  0  0  0  0  0
  -28.1079  -36.2629   24.6286 H   0  0  0  0  0  0
  -27.2297  -37.1445   25.8865 H   0  0  0  0  0  0
  -20.9377  -29.8769   21.6886 H   0  0  0  0  0  0
  -26.0167  -38.2840   24.1406 H   0  0  0  0  0  0
  -31.2306  -19.5723   21.9430 H   0  0  0  0  0  0
  -28.3008  -17.9198   19.2687 H   0  0  0  0  0  0
  -30.4619  -21.8290   21.4518 H   0  0  0  0  0  0
  -27.4823  -20.1701   18.8098 H   0  0  0  0  0  0
  -28.2438  -26.0877   17.6820 H   0  0  0  0  0  0
  -29.3914  -23.8180   16.9724 H   0  0  0  0  0  0
  -27.7082  -24.0124   16.5208 H   0  0  0  0  0  0
  -28.3363  -21.8114   17.6100 H   0  0  0  0  0  0
  -26.9182  -22.5993   18.2631 H   0  0  0  0  0  0
  -29.0024  -15.8593   20.6311 H   0  0  0  0  0  0
  1 25  1  0  0  0
  1 30  2  0  0  0
  1 84  1  0  0  0
  2  3  1  0  0  0
  2 25  1  0  0  0
  2 87  1  0  0  0
  2 88  1  0  0  0
  3  4  1  0  0  0
  3 89  1  0  0  0
  3 90  1  0  0  0
  4  5  1  0  0  0
  4 91  1  0  0  0
  4 92  1  0  0  0
  5  6  1  0  0  0
  5 26  1  0  0  0
  5 93  1  0  0  0
  6 25  1  0  0  0
  6 94  1  0  0  0
  6 95  1  0  0  0
  7  8  2  0  0  0
  7 26  1  0  0  0
  7 29  1  0  0  0
  8  9  1  0  0  0
  8 22  1  0  0  0
  9 10  1  0  0  0
  9 27  2  0  0  0
 10 11  2  0  0  0
 10 15  1  0  0  0
 11 12  1  0  0  0
 11 96  1  0  0  0
 12 13  2  0  0  0
 12 97  1  0  0  0
 13 14  1  0  0  0
 13 31  1  0  0  0
 14 15  2  0  0  0
 14 98  1  0  0  0
 15 99  1  0  0  0
 16 17  2  0  0  0
 16 21  1  0  0  0
 16 31  1  0  0  0
 17 18  1  0  0  0
 17100  1  0  0  0
 18 19  2  0  0  0
 18101  1  0  0  0
 19 20  1  0  0  0
 19 24  1  0  0  0
 20 21  2  0  0  0
 20102  1  0  0  0
 21 23  1  0  0  0
 22 28  1  0  0  0
 22 32  2  0  0  0
 26 27  1  0  0  0
 28103  1  0  0  0
 28104  1  0  0  0
 29105  1  0  0  0
 29106  1  0  0  0
 33 34  1  0  0  0
 33 66  1  0  0  0
 33 70  2  0  0  0
 34 36  1  0  0  0
 34 59  1  0  0  0
 34107  1  0  0  0
 35 44  2  0  0  0
 35 45  1  0  0  0
 35 68  1  0  0  0
 36 56  1  0  0  0
 36108  1  0  0  0
 37 39  1  0  0  0
 37 47  1  0  0  0
 37 66  1  0  0  0
 37109  1  0  0  0
 38 43  2  0  0  0
 38 46  1  0  0  0
 38 47  1  0  0  0
 39 64  1  0  0  0
 39 67  2  0  0  0
 40 52  1  0  0  0
 40 53  2  0  0  0
 40 58  1  0  0  0
 41110  1  0  0  0
 41111  1  0  0  0
 41112  1  0  0  0
 41 48  1  0  0  0
 42 43  1  0  0  0
 42 66  1  0  0  0
 42113  1  0  0  0
 42114  1  0  0  0
 43 44  1  0  0  0
 44115  1  0  0  0
 45 46  2  0  0  0
 45116  1  0  0  0
 46117  1  0  0  0
 47118  1  0  0  0
 47119  1  0  0  0
 48 56  1  0  0  0
 48 65  1  0  0  0
 48120  1  0  0  0
 49 50  1  0  0  0
 49 53  1  0  0  0
 49 64  1  0  0  0
 49121  1  0  0  0
 50 51  1  0  0  0
 50122  1  0  0  0
 50123  1  0  0  0
 51 52  1  0  0  0
 51124  1  0  0  0
 51125  1  0  0  0
 52126  1  0  0  0
 52127  1  0  0  0
 53 54  1  0  0  0
 54 55  2  0  0  0
 54128  1  0  0  0
 55 57  1  0  0  0
 55129  1  0  0  0
 56 69  2  0  0  0
 57 58  2  0  0  0
 57130  1  0  0  0
 58131  1  0  0  0
 59 60  1  0  0  0
 59 61  1  0  0  0
 59 62  1  0  0  0
 60132  1  0  0  0
 60133  1  0  0  0
 60134  1  0  0  0
 61135  1  0  0  0
 61136  1  0  0  0
 61137  1  0  0  0
 62138  1  0  0  0
 62139  1  0  0  0
 62140  1  0  0  0
 63 65  1  0  0  0
 63141  1  0  0  0
 63142  1  0  0  0
 63143  1  0  0  0
 64144  1  0  0  0
 65145  1  0  0  0
 68 78  1  0  0  0
 71 73  2  0  0  0
 71 75  1  0  0  0
 71146  1  0  0  0
 72 74  1  0  0  0
 72 75  2  0  0  0
 72147  1  0  0  0
 73 76  1  0  0  0
 73148  1  0  0  0
 74 76  2  0  0  0
 74149  1  0  0  0
 75 80  1  0  0  0
 76 83  1  0  0  0
 77 78  2  0  0  0
 77 81  1  0  0  0
 77150  1  0  0  0
 78 79  1  0  0  0
 79 83  1  0  0  0
 79 85  2  0  0  0
 80 84  1  0  0  0
 80 86  2  0  0  0
 81 82  1  0  0  0
 81151  1  0  0  0
 81152  1  0  0  0
 82 83  1  0  0  0
 82153  1  0  0  0
 82154  1  0  0  0
 84155  1  0  0  0
M  ISO  4   1 100  68 101  78 101  84 100
M  END
> <chiral flag>
0

> <version>
0

> <s_m_source_file>
/data/baiqing/PycharmProjects/Reinvent-master-3.2/result/LINK_invent/BTK/process_docking_weight1_custom_product_contain_oxygen_bond_distance_aromatic_linkinvent_7_9_3/rearranged_h_0085.sdf

> <i_m_source_file_index>
82

> <r_mmod_Potential_Energy-OPLS-2005>
215.853622436523

> <r_mmod_Stretch_Energy-OPLS-2005>
110.190963745117

> <r_mmod_Bend_Energy-OPLS-2005>
160.156234741211

> <r_mmod_Torsional_Energy-OPLS-2005>
276.712188720703

> <r_mmod_Improper_Torsional_Energy-OPLS-2005>
7.20395374298096

> <r_mmod_Van_der_Waal_Energy-OPLS-2005>
176.917572021484

> <r_mmod_Electrostatic_Energy-OPLS-2005>
-345.709320068359

> <r_mmod_Solvation_Energy-OPLS-2005>
-239.493148803711

> <b_mmod_Minimization_Converged-OPLS-2005>
0

> <r_mmod_RMS_Derivative-OPLS-2005>
0.717095732688904

$$$$
83
                    3D
 Structure written by MMmdl.
155164  0  0  1  0            999 V2000
  -30.5802  -14.6897   20.4848 C   0  0  0  0  0  0
  -30.4458  -12.4225   19.4543 C   0  0  0  0  0  0
  -29.5136  -12.5243   18.2251 C   0  0  0  0  0  0
  -28.0356  -12.3477   18.6333 C   0  0  0  0  0  0
  -27.6509  -13.2159   19.8614 C   0  0  2  0  0  0
  -28.6966  -13.0755   20.9911 C   0  0  0  0  0  0
  -25.2551  -13.8150   20.5681 C   0  0  0  0  0  0
  -24.1827  -13.0423   20.9207 C   0  0  0  0  0  0
  -24.6389  -11.6893   20.8735 C   0  0  0  0  0  0
  -23.9058  -10.4285   21.0403 C   0  0  0  0  0  0
  -24.3611   -9.4206   21.9188 C   0  0  0  0  0  0
  -23.6292   -8.2238   22.0755 C   0  0  0  0  0  0
  -22.4276   -8.0271   21.3541 C   0  0  0  0  0  0
  -21.9909   -9.0244   20.4648 C   0  0  0  0  0  0
  -22.7229  -10.2128   20.3062 C   0  0  0  0  0  0
  -21.6850   -6.0733   22.5280 C   0  0  0  0  0  0
  -21.4009   -6.5631   23.8216 C   0  0  0  0  0  0
  -21.3661   -5.6789   24.9174 C   0  0  0  0  0  0
  -21.6049   -4.3054   24.7224 C   0  0  0  0  0  0
  -21.8816   -3.8145   23.4345 C   0  0  0  0  0  0
  -21.9195   -4.6964   22.3405 C   0  0  0  0  0  0
  -22.7851  -13.5230   21.1864 C   0  0  0  0  0  0
  -22.1659   -4.2156   21.0979 F   0  0  0  0  0  0
  -21.5642   -3.4536   25.7732 F   0  0  0  0  0  0
  -30.0073  -13.4419   20.4291 N   0  0  0  0  0  0
  -26.2971  -12.9328   20.3294 N   0  0  0  0  0  0
  -25.9315  -11.6484   20.5739 N   0  0  0  0  0  0
  -22.0472  -12.8243   22.0415 N   0  0  0  0  0  0
  -25.4249  -15.1871   20.4054 N   0  0  0  0  0  0
  -31.7474  -14.8707   20.1209 O   0  0  0  0  0  0
  -21.6635   -6.8872   21.4241 O   0  0  0  0  0  0
  -22.3554  -14.5537   20.6701 O   0  0  0  0  0  0
  -24.6281  -31.8589   23.1985 C   0  0  0  0  0  0
  -25.9120  -32.4775   23.8339 C   0  0  1  0  0  0
  -27.2286  -27.3016   20.1216 C   0  0  0  0  0  0
  -25.5926  -33.8580   24.2263 N   0  0  0  0  0  0
  -23.4240  -30.4781   21.5424 C   0  0  2  0  0  0
  -24.8732  -28.9262   20.1146 C   0  0  0  0  0  0
  -22.7486  -29.4614   22.4940 C   0  0  0  0  0  0
  -18.0284  -28.1387   22.8501 C   0  0  0  0  0  0
  -24.1478  -36.7270   23.2623 C   0  0  0  0  0  0
  -25.9665  -30.7824   21.3729 C   0  0  0  0  0  0
  -26.0431  -29.4056   20.7194 C   0  0  0  0  0  0
  -27.2268  -28.6052   20.7125 C   0  0  0  0  0  0
  -26.0380  -26.8755   19.4964 C   0  0  0  0  0  0
  -24.8732  -27.6669   19.4933 C   0  0  0  0  0  0
  -23.6410  -29.8076   20.1602 C   0  0  0  0  0  0
  -25.4101  -36.3082   24.0329 C   0  0  1  0  0  0
  -20.5886  -28.3690   23.1284 C   0  0  2  0  0  0
  -20.6764  -26.9413   22.5411 C   0  0  0  0  0  0
  -19.5730  -26.6385   21.5221 C   0  0  0  0  0  0
  -18.1915  -26.7930   22.1642 C   0  0  0  0  0  0
  -19.1539  -28.8863   23.2884 C   0  0  0  0  0  0
  -18.9462  -30.1467   23.8904 C   0  0  0  0  0  0
  -17.6461  -30.6593   24.0564 C   0  0  0  0  0  0
  -25.9068  -34.9460   23.5105 C   0  0  0  0  0  0
  -16.5354  -29.9090   23.6335 C   0  0  0  0  0  0
  -16.7269  -28.6501   23.0370 C   0  0  0  0  0  0
  -26.4482  -31.6595   25.0726 C   0  0  0  0  0  0
  -25.3722  -31.3769   26.1469 C   0  0  0  0  0  0
  -27.0276  -30.2999   24.6198 C   0  0  0  0  0  0
  -27.6078  -32.4297   25.7469 C   0  0  0  0  0  0
  -27.5614  -37.1727   24.8421 C   0  0  0  0  0  0
  -21.4201  -29.3038   22.3684 N   0  0  0  0  0  0
  -26.4243  -37.3821   23.9496 N   0  0  0  0  0  0
  -24.6919  -31.0574   22.0949 N   0  0  0  0  0  0
  -23.4196  -28.8160   23.3037 O   0  0  0  0  0  0
  -28.3257  -26.4232   20.1195 O   0  0  0  0  0  0
  -26.5652  -34.8935   22.4681 O   0  0  0  0  0  0
  -23.5440  -32.1397   23.7292 O   0  0  0  0  0  0
  -30.6432  -19.4500   20.2352 C   0  0  0  0  0  0
  -30.8009  -18.0294   20.3703 C   0  0  0  0  0  0
  -28.4438  -17.8437   20.7046 C   0  0  0  0  0  0
  -28.2708  -19.2560   20.5423 C   0  0  0  0  0  0
  -29.3862  -20.1330   20.3297 C   0  0  0  0  0  0
  -29.6948  -17.1753   20.6164 C   0  0  0  0  0  0
  -28.7714  -23.9211   20.2053 C   0  0  0  0  0  0
  -29.8043  -23.7601   19.2060 C   0  0  0  0  0  0
  -28.5304  -22.5720   20.7749 C   0  0  0  0  0  0
  -28.1266  -25.0926   20.5693 C   0  0  0  0  0  0
  -30.2039  -22.2854   19.1721 C   0  0  0  0  0  0
  -26.8357  -19.7594   20.5457 C   0  0  0  0  0  0
  -29.3026  -21.6149   20.1304 N   0  0  0  0  0  0
  -29.7188  -15.7135   20.8078 N   0  0  0  0  0  0
  -30.3073  -24.6281   18.4852 O   0  0  0  0  0  0
  -27.7674  -22.3364   21.7180 O   0  0  0  0  0  0
  -31.4866  -12.5639   19.1571 H   0  0  0  0  0  0
  -30.3931  -11.4271   19.8972 H   0  0  0  0  0  0
  -29.7894  -11.7797   17.4775 H   0  0  0  0  0  0
  -29.6444  -13.4976   17.7488 H   0  0  0  0  0  0
  -27.8800  -11.2919   18.8621 H   0  0  0  0  0  0
  -27.3819  -12.5745   17.7898 H   0  0  0  0  0  0
  -27.6645  -14.2497   19.5174 H   0  0  0  0  0  0
  -28.7211  -12.0494   21.3622 H   0  0  0  0  0  0
  -28.4352  -13.6948   21.8503 H   0  0  0  0  0  0
  -25.2751   -9.5688   22.4765 H   0  0  0  0  0  0
  -24.0007   -7.4631   22.7471 H   0  0  0  0  0  0
  -21.0848   -8.8752   19.8953 H   0  0  0  0  0  0
  -22.3681  -10.9666   19.6171 H   0  0  0  0  0  0
  -21.1977   -7.6133   23.9720 H   0  0  0  0  0  0
  -21.1496   -6.0514   25.9082 H   0  0  0  0  0  0
  -22.0595   -2.7611   23.2842 H   0  0  0  0  0  0
  -22.4069  -11.9900   22.4812 H   0  0  0  0  0  0
  -21.1092  -13.1291   22.2595 H   0  0  0  0  0  0
  -24.6451  -15.8300   20.4920 H   0  0  0  0  0  0
  -26.2454  -15.6134   19.9961 H   0  0  0  0  0  0
  -26.7196  -32.5436   23.1091 H   0  0  0  0  0  0
  -25.0053  -33.9730   25.0389 H   0  0  0  0  0  0
  -22.7191  -31.2987   21.3945 H   0  0  0  0  0  0
  -23.3834  -35.9493   23.3098 H   0  0  0  0  0  0
  -24.3623  -36.9095   22.2084 H   0  0  0  0  0  0
  -23.7086  -37.6345   23.6773 H   0  0  0  0  0  0
  -26.0990  -31.5428   20.6021 H   0  0  0  0  0  0
  -26.8456  -30.8353   22.0030 H   0  0  0  0  0  0
  -28.1277  -28.9705   21.1837 H   0  0  0  0  0  0
  -26.0039  -25.9067   19.0185 H   0  0  0  0  0  0
  -23.9775  -27.2944   19.0162 H   0  0  0  0  0  0
  -23.7594  -30.5802   19.4002 H   0  0  0  0  0  0
  -22.7617  -29.2353   19.8599 H   0  0  0  0  0  0
  -25.1255  -36.1892   25.0809 H   0  0  0  0  0  0
  -20.9979  -28.3256   24.1404 H   0  0  0  0  0  0
  -20.5677  -26.2300   23.3613 H   0  0  0  0  0  0
  -21.6625  -26.7440   22.1194 H   0  0  0  0  0  0
  -19.6883  -25.6294   21.1252 H   0  0  0  0  0  0
  -19.6652  -27.3199   20.6752 H   0  0  0  0  0  0
  -17.4176  -26.6693   21.4050 H   0  0  0  0  0  0
  -18.0311  -26.0072   22.9041 H   0  0  0  0  0  0
  -19.7937  -30.7292   24.2268 H   0  0  0  0  0  0
  -17.5008  -31.6279   24.5156 H   0  0  0  0  0  0
  -15.5354  -30.2996   23.7655 H   0  0  0  0  0  0
  -15.8666  -28.0819   22.7098 H   0  0  0  0  0  0
  -24.5757  -30.7306   25.7757 H   0  0  0  0  0  0
  -24.9094  -32.2970   26.5054 H   0  0  0  0  0  0
  -25.8011  -30.8748   27.0151 H   0  0  0  0  0  0
  -26.2818  -29.6769   24.1246 H   0  0  0  0  0  0
  -27.3955  -29.7258   25.4711 H   0  0  0  0  0  0
  -27.8714  -30.4240   23.9409 H   0  0  0  0  0  0
  -27.2753  -33.3641   26.1998 H   0  0  0  0  0  0
  -28.3906  -32.6775   25.0289 H   0  0  0  0  0  0
  -28.0704  -31.8430   26.5412 H   0  0  0  0  0  0
  -28.2431  -38.0222   24.7824 H   0  0  0  0  0  0
  -28.1314  -36.2802   24.5792 H   0  0  0  0  0  0
  -27.2404  -37.0815   25.8812 H   0  0  0  0  0  0
  -20.9391  -29.8766   21.6891 H   0  0  0  0  0  0
  -26.0103  -38.2829   24.1740 H   0  0  0  0  0  0
  -31.5421  -20.0211   20.0577 H   0  0  0  0  0  0
  -31.7917  -17.6052   20.2910 H   0  0  0  0  0  0
  -27.5618  -17.2432   20.8821 H   0  0  0  0  0  0
  -27.3616  -25.0640   21.3335 H   0  0  0  0  0  0
  -31.2477  -22.1852   19.4674 H   0  0  0  0  0  0
  -30.0764  -21.8792   18.1690 H   0  0  0  0  0  0
  -26.1402  -18.9679   20.2653 H   0  0  0  0  0  0
  -26.6906  -20.5708   19.8330 H   0  0  0  0  0  0
  -26.5522  -20.1023   21.5401 H   0  0  0  0  0  0
  -28.8305  -15.3406   21.1063 H   0  0  0  0  0  0
  1 25  1  0  0  0
  1 30  2  0  0  0
  1 84  1  0  0  0
  2  3  1  0  0  0
  2 25  1  0  0  0
  2 87  1  0  0  0
  2 88  1  0  0  0
  3  4  1  0  0  0
  3 89  1  0  0  0
  3 90  1  0  0  0
  4  5  1  0  0  0
  4 91  1  0  0  0
  4 92  1  0  0  0
  5  6  1  0  0  0
  5 26  1  0  0  0
  5 93  1  0  0  0
  6 25  1  0  0  0
  6 94  1  0  0  0
  6 95  1  0  0  0
  7  8  2  0  0  0
  7 26  1  0  0  0
  7 29  1  0  0  0
  8  9  1  0  0  0
  8 22  1  0  0  0
  9 10  1  0  0  0
  9 27  2  0  0  0
 10 11  2  0  0  0
 10 15  1  0  0  0
 11 12  1  0  0  0
 11 96  1  0  0  0
 12 13  2  0  0  0
 12 97  1  0  0  0
 13 14  1  0  0  0
 13 31  1  0  0  0
 14 15  2  0  0  0
 14 98  1  0  0  0
 15 99  1  0  0  0
 16 17  2  0  0  0
 16 21  1  0  0  0
 16 31  1  0  0  0
 17 18  1  0  0  0
 17100  1  0  0  0
 18 19  2  0  0  0
 18101  1  0  0  0
 19 20  1  0  0  0
 19 24  1  0  0  0
 20 21  2  0  0  0
 20102  1  0  0  0
 21 23  1  0  0  0
 22 28  1  0  0  0
 22 32  2  0  0  0
 26 27  1  0  0  0
 28103  1  0  0  0
 28104  1  0  0  0
 29105  1  0  0  0
 29106  1  0  0  0
 33 34  1  0  0  0
 33 66  1  0  0  0
 33 70  2  0  0  0
 34 36  1  0  0  0
 34 59  1  0  0  0
 34107  1  0  0  0
 35 44  2  0  0  0
 35 45  1  0  0  0
 35 68  1  0  0  0
 36 56  1  0  0  0
 36108  1  0  0  0
 37 39  1  0  0  0
 37 47  1  0  0  0
 37 66  1  0  0  0
 37109  1  0  0  0
 38 43  2  0  0  0
 38 46  1  0  0  0
 38 47  1  0  0  0
 39 64  1  0  0  0
 39 67  2  0  0  0
 40 52  1  0  0  0
 40 53  2  0  0  0
 40 58  1  0  0  0
 41110  1  0  0  0
 41111  1  0  0  0
 41112  1  0  0  0
 41 48  1  0  0  0
 42 43  1  0  0  0
 42 66  1  0  0  0
 42113  1  0  0  0
 42114  1  0  0  0
 43 44  1  0  0  0
 44115  1  0  0  0
 45 46  2  0  0  0
 45116  1  0  0  0
 46117  1  0  0  0
 47118  1  0  0  0
 47119  1  0  0  0
 48 56  1  0  0  0
 48 65  1  0  0  0
 48120  1  0  0  0
 49 50  1  0  0  0
 49 53  1  0  0  0
 49 64  1  0  0  0
 49121  1  0  0  0
 50 51  1  0  0  0
 50122  1  0  0  0
 50123  1  0  0  0
 51 52  1  0  0  0
 51124  1  0  0  0
 51125  1  0  0  0
 52126  1  0  0  0
 52127  1  0  0  0
 53 54  1  0  0  0
 54 55  2  0  0  0
 54128  1  0  0  0
 55 57  1  0  0  0
 55129  1  0  0  0
 56 69  2  0  0  0
 57 58  2  0  0  0
 57130  1  0  0  0
 58131  1  0  0  0
 59 60  1  0  0  0
 59 61  1  0  0  0
 59 62  1  0  0  0
 60132  1  0  0  0
 60133  1  0  0  0
 60134  1  0  0  0
 61135  1  0  0  0
 61136  1  0  0  0
 61137  1  0  0  0
 62138  1  0  0  0
 62139  1  0  0  0
 62140  1  0  0  0
 63 65  1  0  0  0
 63141  1  0  0  0
 63142  1  0  0  0
 63143  1  0  0  0
 64144  1  0  0  0
 65145  1  0  0  0
 68 80  1  0  0  0
 71 72  2  0  0  0
 71 75  1  0  0  0
 71146  1  0  0  0
 72 76  1  0  0  0
 72147  1  0  0  0
 73 74  1  0  0  0
 73 76  2  0  0  0
 73148  1  0  0  0
 74 75  2  0  0  0
 74 82  1  0  0  0
 75 83  1  0  0  0
 76 84  1  0  0  0
 77 78  1  0  0  0
 77 79  1  0  0  0
 77 80  2  0  0  0
 78 81  1  0  0  0
 78 85  2  0  0  0
 79 83  1  0  0  0
 79 86  2  0  0  0
 80149  1  0  0  0
 81 83  1  0  0  0
 81150  1  0  0  0
 81151  1  0  0  0
 82152  1  0  0  0
 82153  1  0  0  0
 82154  1  0  0  0
 84155  1  0  0  0
M  ISO  4   1 100  68 101  80 101  84 100
M  END
> <chiral flag>
0

> <version>
0

> <s_m_source_file>
/data/baiqing/PycharmProjects/Reinvent-master-3.2/result/LINK_invent/BTK/process_docking_weight1_custom_product_contain_oxygen_bond_distance_aromatic_linkinvent_7_9_3/rearranged_h_0085.sdf

> <i_m_source_file_index>
83

> <r_mmod_Potential_Energy-OPLS-2005>
159.819290161133

> <r_mmod_Stretch_Energy-OPLS-2005>
95.6677932739258

> <r_mmod_Bend_Energy-OPLS-2005>
200.762420654297

> <r_mmod_Torsional_Energy-OPLS-2005>
262.112731933594

> <r_mmod_Improper_Torsional_Energy-OPLS-2005>
4.9360933303833

> <r_mmod_Van_der_Waal_Energy-OPLS-2005>
135.695663452148

> <r_mmod_Electrostatic_Energy-OPLS-2005>
-368.334167480469

> <r_mmod_Solvation_Energy-OPLS-2005>
-233.615646362305

> <b_mmod_Minimization_Converged-OPLS-2005>
0

> <r_mmod_RMS_Derivative-OPLS-2005>
1.5057487487793

$$$$
84
                    3D
 Structure written by MMmdl.
153161  0  0  1  0            999 V2000
  -30.6990  -14.5327   20.5377 C   0  0  0  0  0  0
  -30.4190  -12.3358   19.4374 C   0  0  0  0  0  0
  -29.4957  -12.5021   18.2132 C   0  0  0  0  0  0
  -28.0184  -12.3571   18.6267 C   0  0  0  0  0  0
  -27.6557  -13.2167   19.8680 C   0  0  2  0  0  0
  -28.7005  -13.0483   20.9949 C   0  0  0  0  0  0
  -25.2560  -13.8176   20.5685 C   0  0  0  0  0  0
  -24.1829  -13.0440   20.9189 C   0  0  0  0  0  0
  -24.6399  -11.6909   20.8746 C   0  0  0  0  0  0
  -23.9067  -10.4287   21.0405 C   0  0  0  0  0  0
  -24.3615   -9.4202   21.9185 C   0  0  0  0  0  0
  -23.6288   -8.2240   22.0756 C   0  0  0  0  0  0
  -22.4272   -8.0279   21.3545 C   0  0  0  0  0  0
  -21.9910   -9.0252   20.4647 C   0  0  0  0  0  0
  -22.7240  -10.2128   20.3051 C   0  0  0  0  0  0
  -21.6851   -6.0735   22.5278 C   0  0  0  0  0  0
  -21.4014   -6.5639   23.8211 C   0  0  0  0  0  0
  -21.3658   -5.6791   24.9174 C   0  0  0  0  0  0
  -21.6044   -4.3053   24.7223 C   0  0  0  0  0  0
  -21.8820   -3.8144   23.4344 C   0  0  0  0  0  0
  -21.9194   -4.6962   22.3402 C   0  0  0  0  0  0
  -22.7849  -13.5230   21.1851 C   0  0  0  0  0  0
  -22.1662   -4.2147   21.0978 F   0  0  0  0  0  0
  -21.5626   -3.4536   25.7737 F   0  0  0  0  0  0
  -30.0242  -13.3513   20.4305 N   0  0  0  0  0  0
  -26.2999  -12.9364   20.3349 N   0  0  0  0  0  0
  -25.9330  -11.6516   20.5779 N   0  0  0  0  0  0
  -22.0486  -12.8221   22.0402 N   0  0  0  0  0  0
  -25.4270  -15.1896   20.4094 N   0  0  0  0  0  0
  -31.8464  -14.6547   20.1029 O   0  0  0  0  0  0
  -21.6638   -6.8875   21.4236 O   0  0  0  0  0  0
  -22.3538  -14.5544   20.6709 O   0  0  0  0  0  0
  -24.6183  -31.8659   23.2089 C   0  0  0  0  0  0
  -25.9065  -32.4811   23.8395 C   0  0  1  0  0  0
  -27.2268  -27.3998   20.1072 C   0  0  0  0  0  0
  -25.5917  -33.8613   24.2325 N   0  0  0  0  0  0
  -23.4086  -30.4908   21.5490 C   0  0  2  0  0  0
  -24.8573  -28.9595   20.1078 C   0  0  0  0  0  0
  -22.7437  -29.4658   22.4968 C   0  0  0  0  0  0
  -18.0274  -28.1389   22.8491 C   0  0  0  0  0  0
  -24.1483  -36.7299   23.2636 C   0  0  0  0  0  0
  -25.9423  -30.8228   21.3675 C   0  0  0  0  0  0
  -26.0210  -29.4567   20.7103 C   0  0  0  0  0  0
  -27.2127  -28.6852   20.7074 C   0  0  0  0  0  0
  -26.0495  -26.9382   19.4782 C   0  0  0  0  0  0
  -24.8687  -27.7014   19.4845 C   0  0  0  0  0  0
  -23.6193  -29.8272   20.1621 C   0  0  0  0  0  0
  -25.4105  -36.3106   24.0341 C   0  0  1  0  0  0
  -20.5870  -28.3683   23.1309 C   0  0  2  0  0  0
  -20.6768  -26.9415   22.5415 C   0  0  0  0  0  0
  -19.5742  -26.6392   21.5217 C   0  0  0  0  0  0
  -18.1921  -26.7938   22.1621 C   0  0  0  0  0  0
  -19.1523  -28.8852   23.2896 C   0  0  0  0  0  0
  -18.9451  -30.1458   23.8906 C   0  0  0  0  0  0
  -17.6455  -30.6594   24.0571 C   0  0  0  0  0  0
  -25.9039  -34.9474   23.5127 C   0  0  0  0  0  0
  -16.5343  -29.9095   23.6336 C   0  0  0  0  0  0
  -16.7262  -28.6512   23.0352 C   0  0  0  0  0  0
  -26.4478  -31.6595   25.0731 C   0  0  0  0  0  0
  -25.3737  -31.3702   26.1473 C   0  0  0  0  0  0
  -27.0313  -30.3037   24.6126 C   0  0  0  0  0  0
  -27.6053  -32.4318   25.7494 C   0  0  0  0  0  0
  -27.5586  -37.1796   24.8457 C   0  0  0  0  0  0
  -21.4157  -29.3043   22.3711 N   0  0  0  0  0  0
  -26.4278  -37.3804   23.9433 N   0  0  0  0  0  0
  -24.6747  -31.0742   22.1000 N   0  0  0  0  0  0
  -23.4198  -28.8202   23.3022 O   0  0  0  0  0  0
  -28.3243  -26.5533   20.1672 O   0  0  0  0  0  0
  -26.5600  -34.8931   22.4689 O   0  0  0  0  0  0
  -23.5370  -32.1427   23.7468 O   0  0  0  0  0  0
  -31.0727  -19.7661   21.2435 C   0  0  0  0  0  0
  -29.3775  -18.0256   21.0095 C   0  0  0  0  0  0
  -31.7191  -17.4063   21.1877 C   0  0  0  0  0  0
  -29.7124  -19.4138   21.1064 C   0  0  0  0  0  0
  -32.0665  -18.7702   21.2841 C   0  0  0  0  0  0
  -30.3684  -17.0008   21.0383 C   0  0  0  0  0  0
  -28.6913  -24.1231   20.4437 C   0  0  0  0  0  0
  -28.0482  -25.2963   20.6973 C   0  0  0  0  0  0
  -28.6292  -20.4780   21.1962 C   0  0  0  0  0  0
  -28.1747  -22.8780   21.0447 C   0  0  0  0  0  0
  -33.4018  -19.1383   21.4414 N   0  0  0  0  0  0
  -29.9812  -15.6043   20.9716 N   0  0  0  0  0  0
  -28.9323  -21.7623   20.8458 N   0  0  0  0  0  0
  -27.5075  -20.1114   21.5676 O   0  0  0  0  0  0
  -27.1153  -22.8595   21.6851 O   0  0  0  0  0  0
  -31.4642  -12.4234   19.1365 H   0  0  0  0  0  0
  -30.3170  -11.3359   19.8621 H   0  0  0  0  0  0
  -29.7430  -11.7629   17.4504 H   0  0  0  0  0  0
  -29.6563  -13.4799   17.7557 H   0  0  0  0  0  0
  -27.8404  -11.3031   18.8427 H   0  0  0  0  0  0
  -27.3645  -12.6081   17.7909 H   0  0  0  0  0  0
  -27.6835  -14.2571   19.5432 H   0  0  0  0  0  0
  -28.6885  -12.0267   21.3787 H   0  0  0  0  0  0
  -28.4625  -13.6877   21.8463 H   0  0  0  0  0  0
  -25.2758   -9.5684   22.4764 H   0  0  0  0  0  0
  -23.9994   -7.4635   22.7480 H   0  0  0  0  0  0
  -21.0839   -8.8770   19.8959 H   0  0  0  0  0  0
  -22.3696  -10.9665   19.6155 H   0  0  0  0  0  0
  -21.2004   -7.6146   23.9714 H   0  0  0  0  0  0
  -21.1478   -6.0521   25.9079 H   0  0  0  0  0  0
  -22.0600   -2.7606   23.2843 H   0  0  0  0  0  0
  -22.4075  -11.9858   22.4766 H   0  0  0  0  0  0
  -21.1111  -13.1260   22.2621 H   0  0  0  0  0  0
  -24.6591  -15.8435   20.5168 H   0  0  0  0  0  0
  -26.2738  -15.6278   20.0699 H   0  0  0  0  0  0
  -26.7143  -32.5512   23.1166 H   0  0  0  0  0  0
  -25.0086  -33.9768   25.0484 H   0  0  0  0  0  0
  -22.6989  -31.3093   21.4103 H   0  0  0  0  0  0
  -23.3765  -35.9605   23.3261 H   0  0  0  0  0  0
  -24.3594  -36.8953   22.2060 H   0  0  0  0  0  0
  -23.7197  -37.6480   23.6668 H   0  0  0  0  0  0
  -26.0601  -31.5905   20.6013 H   0  0  0  0  0  0
  -26.8285  -30.8748   21.9886 H   0  0  0  0  0  0
  -28.1053  -29.0553   21.1926 H   0  0  0  0  0  0
  -26.0366  -25.9665   19.0046 H   0  0  0  0  0  0
  -23.9767  -27.3130   19.0118 H   0  0  0  0  0  0
  -23.7273  -30.6042   19.4043 H   0  0  0  0  0  0
  -22.7428  -29.2481   19.8641 H   0  0  0  0  0  0
  -25.1275  -36.1961   25.0831 H   0  0  0  0  0  0
  -20.9959  -28.3242   24.1432 H   0  0  0  0  0  0
  -20.5673  -26.2291   23.3603 H   0  0  0  0  0  0
  -21.6634  -26.7465   22.1202 H   0  0  0  0  0  0
  -19.6902  -25.6304   21.1240 H   0  0  0  0  0  0
  -19.6685  -27.3210   20.6752 H   0  0  0  0  0  0
  -17.4198  -26.6704   21.4017 H   0  0  0  0  0  0
  -18.0313  -26.0073   22.9009 H   0  0  0  0  0  0
  -19.7928  -30.7272   24.2278 H   0  0  0  0  0  0
  -17.5011  -31.6276   24.5170 H   0  0  0  0  0  0
  -15.5344  -30.3002   23.7659 H   0  0  0  0  0  0
  -15.8660  -28.0839   22.7063 H   0  0  0  0  0  0
  -24.5923  -30.7034   25.7809 H   0  0  0  0  0  0
  -24.8909  -32.2847   26.4927 H   0  0  0  0  0  0
  -25.8090  -30.8873   27.0230 H   0  0  0  0  0  0
  -26.2866  -29.6796   24.1171 H   0  0  0  0  0  0
  -27.4064  -29.7280   25.4597 H   0  0  0  0  0  0
  -27.8714  -30.4347   23.9303 H   0  0  0  0  0  0
  -27.2684  -33.3629   26.2067 H   0  0  0  0  0  0
  -28.3872  -32.6855   25.0322 H   0  0  0  0  0  0
  -28.0710  -31.8439   26.5416 H   0  0  0  0  0  0
  -28.2560  -38.0139   24.7586 H   0  0  0  0  0  0
  -28.1129  -36.2680   24.6173 H   0  0  0  0  0  0
  -27.2326  -37.1309   25.8861 H   0  0  0  0  0  0
  -20.9322  -29.8761   21.6930 H   0  0  0  0  0  0
  -26.0161  -38.2866   24.1486 H   0  0  0  0  0  0
  -31.3570  -20.8035   21.3542 H   0  0  0  0  0  0
  -28.3351  -17.7478   20.9282 H   0  0  0  0  0  0
  -32.5076  -16.6716   21.2514 H   0  0  0  0  0  0
  -29.5508  -24.1070   19.7901 H   0  0  0  0  0  0
  -27.1976  -25.3336   21.3680 H   0  0  0  0  0  0
  -33.6223  -20.0633   21.7988 H   0  0  0  0  0  0
  -34.0763  -18.4343   21.7272 H   0  0  0  0  0  0
  -29.0176  -15.3992   21.1863 H   0  0  0  0  0  0
  -29.8293  -21.8970   20.4094 H   0  0  0  0  0  0
  1 25  1  0  0  0
  1 30  2  0  0  0
  1 82  1  0  0  0
  2  3  1  0  0  0
  2 25  1  0  0  0
  2 86  1  0  0  0
  2 87  1  0  0  0
  3  4  1  0  0  0
  3 88  1  0  0  0
  3 89  1  0  0  0
  4  5  1  0  0  0
  4 90  1  0  0  0
  4 91  1  0  0  0
  5  6  1  0  0  0
  5 26  1  0  0  0
  5 92  1  0  0  0
  6 25  1  0  0  0
  6 93  1  0  0  0
  6 94  1  0  0  0
  7  8  2  0  0  0
  7 26  1  0  0  0
  7 29  1  0  0  0
  8  9  1  0  0  0
  8 22  1  0  0  0
  9 10  1  0  0  0
  9 27  2  0  0  0
 10 11  2  0  0  0
 10 15  1  0  0  0
 11 12  1  0  0  0
 11 95  1  0  0  0
 12 13  2  0  0  0
 12 96  1  0  0  0
 13 14  1  0  0  0
 13 31  1  0  0  0
 14 15  2  0  0  0
 14 97  1  0  0  0
 15 98  1  0  0  0
 16 17  2  0  0  0
 16 21  1  0  0  0
 16 31  1  0  0  0
 17 18  1  0  0  0
 17 99  1  0  0  0
 18 19  2  0  0  0
 18100  1  0  0  0
 19 20  1  0  0  0
 19 24  1  0  0  0
 20 21  2  0  0  0
 20101  1  0  0  0
 21 23  1  0  0  0
 22 28  1  0  0  0
 22 32  2  0  0  0
 26 27  1  0  0  0
 28102  1  0  0  0
 28103  1  0  0  0
 29104  1  0  0  0
 29105  1  0  0  0
 33 34  1  0  0  0
 33 66  1  0  0  0
 33 70  2  0  0  0
 34 36  1  0  0  0
 34 59  1  0  0  0
 34106  1  0  0  0
 35 44  2  0  0  0
 35 45  1  0  0  0
 35 68  1  0  0  0
 36 56  1  0  0  0
 36107  1  0  0  0
 37 39  1  0  0  0
 37 47  1  0  0  0
 37 66  1  0  0  0
 37108  1  0  0  0
 38 43  2  0  0  0
 38 46  1  0  0  0
 38 47  1  0  0  0
 39 64  1  0  0  0
 39 67  2  0  0  0
 40 52  1  0  0  0
 40 53  2  0  0  0
 40 58  1  0  0  0
 41109  1  0  0  0
 41110  1  0  0  0
 41111  1  0  0  0
 41 48  1  0  0  0
 42 43  1  0  0  0
 42 66  1  0  0  0
 42112  1  0  0  0
 42113  1  0  0  0
 43 44  1  0  0  0
 44114  1  0  0  0
 45 46  2  0  0  0
 45115  1  0  0  0
 46116  1  0  0  0
 47117  1  0  0  0
 47118  1  0  0  0
 48 56  1  0  0  0
 48 65  1  0  0  0
 48119  1  0  0  0
 49 50  1  0  0  0
 49 53  1  0  0  0
 49 64  1  0  0  0
 49120  1  0  0  0
 50 51  1  0  0  0
 50121  1  0  0  0
 50122  1  0  0  0
 51 52  1  0  0  0
 51123  1  0  0  0
 51124  1  0  0  0
 52125  1  0  0  0
 52126  1  0  0  0
 53 54  1  0  0  0
 54 55  2  0  0  0
 54127  1  0  0  0
 55 57  1  0  0  0
 55128  1  0  0  0
 56 69  2  0  0  0
 57 58  2  0  0  0
 57129  1  0  0  0
 58130  1  0  0  0
 59 60  1  0  0  0
 59 61  1  0  0  0
 59 62  1  0  0  0
 60131  1  0  0  0
 60132  1  0  0  0
 60133  1  0  0  0
 61134  1  0  0  0
 61135  1  0  0  0
 61136  1  0  0  0
 62137  1  0  0  0
 62138  1  0  0  0
 62139  1  0  0  0
 63 65  1  0  0  0
 63140  1  0  0  0
 63141  1  0  0  0
 63142  1  0  0  0
 64143  1  0  0  0
 65144  1  0  0  0
 68 78  1  0  0  0
 71 74  2  0  0  0
 71 75  1  0  0  0
 71145  1  0  0  0
 72 74  1  0  0  0
 72 76  2  0  0  0
 72146  1  0  0  0
 73 75  2  0  0  0
 73 76  1  0  0  0
 73147  1  0  0  0
 74 79  1  0  0  0
 75 81  1  0  0  0
 76 82  1  0  0  0
 77 78  2  0  0  0
 77 80  1  0  0  0
 77148  1  0  0  0
 78149  1  0  0  0
 79 83  1  0  0  0
 79 84  2  0  0  0
 80 83  1  0  0  0
 80 85  2  0  0  0
 81150  1  0  0  0
 81151  1  0  0  0
 82152  1  0  0  0
 83153  1  0  0  0
M  ISO  4   1 100  68 101  78 101  82 100
M  END
> <chiral flag>
0

> <version>
0

> <s_m_source_file>
/data/baiqing/PycharmProjects/Reinvent-master-3.2/result/LINK_invent/BTK/process_docking_weight1_custom_product_contain_oxygen_bond_distance_aromatic_linkinvent_7_9_3/rearranged_h_0085.sdf

> <i_m_source_file_index>
84

> <r_mmod_Potential_Energy-OPLS-2005>
-189.5869140625

> <r_mmod_Stretch_Energy-OPLS-2005>
51.2581367492676

> <r_mmod_Bend_Energy-OPLS-2005>
108.947906494141

> <r_mmod_Torsional_Energy-OPLS-2005>
228.682815551758

> <r_mmod_Improper_Torsional_Energy-OPLS-2005>
7.63623523712158

> <r_mmod_Van_der_Waal_Energy-OPLS-2005>
169.380615234375

> <r_mmod_Electrostatic_Energy-OPLS-2005>
-507.116485595703

> <r_mmod_Solvation_Energy-OPLS-2005>
-273.632476806641

> <b_mmod_Minimization_Converged-OPLS-2005>
0

> <r_mmod_RMS_Derivative-OPLS-2005>
0.914064586162567

$$$$
85
                    3D
 Structure written by MMmdl.
155164  0  0  1  0            999 V2000
  -30.6094  -14.7633   20.4377 C   0  0  0  0  0  0
  -30.4305  -12.4606   19.4953 C   0  0  0  0  0  0
  -29.5174  -12.5172   18.2499 C   0  0  0  0  0  0
  -28.0431  -12.3362   18.6577 C   0  0  0  0  0  0
  -27.6428  -13.2384   19.8555 C   0  0  2  0  0  0
  -28.6829  -13.1852   20.9976 C   0  0  0  0  0  0
  -25.2498  -13.8218   20.5712 C   0  0  0  0  0  0
  -24.1794  -13.0453   20.9215 C   0  0  0  0  0  0
  -24.6396  -11.6935   20.8763 C   0  0  0  0  0  0
  -23.9079  -10.4306   21.0429 C   0  0  0  0  0  0
  -24.3632   -9.4214   21.9200 C   0  0  0  0  0  0
  -23.6302   -8.2246   22.0761 C   0  0  0  0  0  0
  -22.4273   -8.0293   21.3556 C   0  0  0  0  0  0
  -21.9915   -9.0273   20.4659 C   0  0  0  0  0  0
  -22.7252  -10.2150   20.3070 C   0  0  0  0  0  0
  -21.6847   -6.0755   22.5289 C   0  0  0  0  0  0
  -21.4021   -6.5651   23.8229 C   0  0  0  0  0  0
  -21.3657   -5.6800   24.9190 C   0  0  0  0  0  0
  -21.6031   -4.3062   24.7227 C   0  0  0  0  0  0
  -21.8812   -3.8160   23.4346 C   0  0  0  0  0  0
  -21.9190   -4.6986   22.3412 C   0  0  0  0  0  0
  -22.7816  -13.5232   21.1869 C   0  0  0  0  0  0
  -22.1654   -4.2179   21.0990 F   0  0  0  0  0  0
  -21.5622   -3.4542   25.7740 F   0  0  0  0  0  0
  -29.9895  -13.5304   20.4235 N   0  0  0  0  0  0
  -26.2938  -12.9437   20.3301 N   0  0  0  0  0  0
  -25.9327  -11.6573   20.5750 N   0  0  0  0  0  0
  -22.0449  -12.8241   22.0430 N   0  0  0  0  0  0
  -25.4173  -15.1947   20.4143 N   0  0  0  0  0  0
  -31.7899  -14.8459   20.0849 O   0  0  0  0  0  0
  -21.6623   -6.8900   21.4252 O   0  0  0  0  0  0
  -22.3512  -14.5535   20.6705 O   0  0  0  0  0  0
  -24.6355  -31.8549   23.1988 C   0  0  0  0  0  0
  -25.9164  -32.4761   23.8345 C   0  0  1  0  0  0
  -27.2091  -27.2245   20.1269 C   0  0  0  0  0  0
  -25.5947  -33.8566   24.2258 N   0  0  0  0  0  0
  -23.4330  -30.4806   21.5434 C   0  0  2  0  0  0
  -24.8796  -28.9323   20.1080 C   0  0  0  0  0  0
  -22.7523  -29.4603   22.4888 C   0  0  0  0  0  0
  -18.0300  -28.1398   22.8478 C   0  0  0  0  0  0
  -24.1490  -36.7278   23.2634 C   0  0  0  0  0  0
  -25.9853  -30.7552   21.3878 C   0  0  0  0  0  0
  -26.0551  -29.3761   20.7269 C   0  0  0  0  0  0
  -27.2213  -28.5351   20.7293 C   0  0  0  0  0  0
  -26.0088  -26.8769   19.4584 C   0  0  0  0  0  0
  -24.8641  -27.6909   19.4636 C   0  0  0  0  0  0
  -23.6543  -29.8239   20.1574 C   0  0  0  0  0  0
  -25.4118  -36.3064   24.0316 C   0  0  1  0  0  0
  -20.5906  -28.3711   23.1253 C   0  0  2  0  0  0
  -20.6791  -26.9425   22.5401 C   0  0  0  0  0  0
  -19.5768  -26.6387   21.5207 C   0  0  0  0  0  0
  -18.1946  -26.7940   22.1618 C   0  0  0  0  0  0
  -19.1555  -28.8872   23.2862 C   0  0  0  0  0  0
  -18.9476  -30.1470   23.8888 C   0  0  0  0  0  0
  -17.6476  -30.6595   24.0561 C   0  0  0  0  0  0
  -25.9066  -34.9438   23.5084 C   0  0  0  0  0  0
  -16.5366  -29.9093   23.6334 C   0  0  0  0  0  0
  -16.7285  -28.6512   23.0351 C   0  0  0  0  0  0
  -26.4511  -31.6598   25.0749 C   0  0  0  0  0  0
  -25.3711  -31.3770   26.1451 C   0  0  0  0  0  0
  -27.0362  -30.3005   24.6271 C   0  0  0  0  0  0
  -27.6058  -32.4345   25.7528 C   0  0  0  0  0  0
  -27.5576  -37.1792   24.8460 C   0  0  0  0  0  0
  -21.4223  -29.3052   22.3632 N   0  0  0  0  0  0
  -26.4285  -37.3767   23.9407 N   0  0  0  0  0  0
  -24.7041  -31.0485   22.0987 N   0  0  0  0  0  0
  -23.4208  -28.8131   23.2991 O   0  0  0  0  0  0
  -28.2648  -26.2664   20.2090 O   0  0  0  0  0  0
  -26.5640  -34.8910   22.4656 O   0  0  0  0  0  0
  -23.5489  -32.1390   23.7252 O   0  0  0  0  0  0
  -30.2051  -18.4330   17.8812 C   0  0  0  0  0  0
  -29.8749  -19.6735   18.4568 C   0  0  0  0  0  0
  -30.2351  -17.2502   18.6414 C   0  0  0  0  0  0
  -29.5765  -18.5526   20.5958 C   0  0  0  0  0  0
  -29.5589  -19.8053   19.8297 C   0  0  0  0  0  0
  -29.9181  -17.2459   20.0185 C   0  0  0  0  0  0
  -29.7162  -23.2881   21.1913 C   0  0  0  0  0  0
  -28.7476  -23.5054   20.2876 C   0  0  0  0  0  0
  -30.0746  -21.8617   21.2105 C   0  0  0  0  0  0
  -28.4872  -22.1553   19.7182 C   0  0  0  0  0  0
  -30.3961  -24.3105   22.0856 C   0  0  0  0  0  0
  -27.9265  -24.8214   19.8765 C   0  0  0  0  0  0
  -29.3061  -21.2125   20.3067 N   0  0  0  0  0  0
  -29.8663  -15.9152   20.6961 N   0  0  0  0  0  0
  -30.9266  -21.3260   21.9315 O   0  0  0  0  0  0
  -27.6430  -21.8900   18.8535 O   0  0  0  0  0  0
  -31.4751  -12.5726   19.2005 H   0  0  0  0  0  0
  -30.3646  -11.4858   19.9820 H   0  0  0  0  0  0
  -29.8057  -11.7481   17.5313 H   0  0  0  0  0  0
  -29.6468  -13.4741   17.7410 H   0  0  0  0  0  0
  -27.9042  -11.2880   18.9272 H   0  0  0  0  0  0
  -27.3869  -12.5224   17.8064 H   0  0  0  0  0  0
  -27.6353  -14.2591   19.4697 H   0  0  0  0  0  0
  -28.7141  -12.1939   21.4517 H   0  0  0  0  0  0
  -28.4124  -13.8780   21.7961 H   0  0  0  0  0  0
  -25.2786   -9.5682   22.4773 H   0  0  0  0  0  0
  -24.0029   -7.4618   22.7454 H   0  0  0  0  0  0
  -21.0847   -8.8785   19.8953 H   0  0  0  0  0  0
  -22.3716  -10.9692   19.6173 H   0  0  0  0  0  0
  -21.2016   -7.6162   23.9751 H   0  0  0  0  0  0
  -21.1483   -6.0526   25.9100 H   0  0  0  0  0  0
  -22.0588   -2.7622   23.2830 H   0  0  0  0  0  0
  -22.4033  -11.9922   22.4880 H   0  0  0  0  0  0
  -21.1068  -13.1283   22.2616 H   0  0  0  0  0  0
  -24.6466  -15.8451   20.5195 H   0  0  0  0  0  0
  -26.2667  -15.6390   20.0905 H   0  0  0  0  0  0
  -26.7231  -32.5397   23.1084 H   0  0  0  0  0  0
  -25.0080  -33.9721   25.0389 H   0  0  0  0  0  0
  -22.7302  -31.3039   21.3995 H   0  0  0  0  0  0
  -23.3757  -35.9604   23.3291 H   0  0  0  0  0  0
  -24.3575  -36.8915   22.2049 H   0  0  0  0  0  0
  -23.7247  -37.6471   23.6679 H   0  0  0  0  0  0
  -26.1322  -31.5163   20.6196 H   0  0  0  0  0  0
  -26.8596  -30.8004   22.0252 H   0  0  0  0  0  0
  -28.1136  -28.8650   21.2418 H   0  0  0  0  0  0
  -25.9002  -25.9400   18.9337 H   0  0  0  0  0  0
  -23.9665  -27.3494   18.9663 H   0  0  0  0  0  0
  -23.7861  -30.6056   19.4084 H   0  0  0  0  0  0
  -22.7706  -29.2652   19.8441 H   0  0  0  0  0  0
  -25.1302  -36.1898   25.0807 H   0  0  0  0  0  0
  -20.9997  -28.3298   24.1374 H   0  0  0  0  0  0
  -20.5694  -26.2321   23.3607 H   0  0  0  0  0  0
  -21.6663  -26.7455   22.1198 H   0  0  0  0  0  0
  -19.6932  -25.6292   21.1256 H   0  0  0  0  0  0
  -19.6709  -27.3175   20.6720 H   0  0  0  0  0  0
  -17.4209  -26.6671   21.4025 H   0  0  0  0  0  0
  -18.0357  -26.0094   22.9031 H   0  0  0  0  0  0
  -19.7950  -30.7289   24.2250 H   0  0  0  0  0  0
  -17.5031  -31.6277   24.5163 H   0  0  0  0  0  0
  -15.5366  -30.2993   23.7673 H   0  0  0  0  0  0
  -15.8682  -28.0832   22.7070 H   0  0  0  0  0  0
  -24.5874  -30.7141   25.7765 H   0  0  0  0  0  0
  -24.8917  -32.2949   26.4861 H   0  0  0  0  0  0
  -25.7994  -30.8944   27.0242 H   0  0  0  0  0  0
  -26.2962  -29.6754   24.1259 H   0  0  0  0  0  0
  -27.3979  -29.7279   25.4822 H   0  0  0  0  0  0
  -27.8871  -30.4272   23.9574 H   0  0  0  0  0  0
  -27.2662  -33.3643   26.2106 H   0  0  0  0  0  0
  -28.3868  -32.6913   25.0360 H   0  0  0  0  0  0
  -28.0727  -31.8474   26.5446 H   0  0  0  0  0  0
  -28.2581  -38.0099   24.7513 H   0  0  0  0  0  0
  -28.1082  -36.2631   24.6276 H   0  0  0  0  0  0
  -27.2296  -37.1428   25.8861 H   0  0  0  0  0  0
  -20.9403  -29.8783   21.6847 H   0  0  0  0  0  0
  -26.0155  -38.2830   24.1427 H   0  0  0  0  0  0
  -30.4436  -18.3886   16.8280 H   0  0  0  0  0  0
  -29.8832  -20.5437   17.8142 H   0  0  0  0  0  0
  -30.4839  -16.3302   18.1300 H   0  0  0  0  0  0
  -29.3259  -18.5956   21.6463 H   0  0  0  0  0  0
  -29.8880  -25.2734   22.0503 H   0  0  0  0  0  0
  -31.4296  -24.4533   21.7661 H   0  0  0  0  0  0
  -30.4082  -23.9694   23.1212 H   0  0  0  0  0  0
  -26.9461  -24.6086   20.3049 H   0  0  0  0  0  0
  -27.8133  -24.7701   18.7922 H   0  0  0  0  0  0
  -29.0254  -15.7507   21.2280 H   0  0  0  0  0  0
  1 25  1  0  0  0
  1 30  2  0  0  0
  1 84  1  0  0  0
  2  3  1  0  0  0
  2 25  1  0  0  0
  2 87  1  0  0  0
  2 88  1  0  0  0
  3  4  1  0  0  0
  3 89  1  0  0  0
  3 90  1  0  0  0
  4  5  1  0  0  0
  4 91  1  0  0  0
  4 92  1  0  0  0
  5  6  1  0  0  0
  5 26  1  0  0  0
  5 93  1  0  0  0
  6 25  1  0  0  0
  6 94  1  0  0  0
  6 95  1  0  0  0
  7  8  2  0  0  0
  7 26  1  0  0  0
  7 29  1  0  0  0
  8  9  1  0  0  0
  8 22  1  0  0  0
  9 10  1  0  0  0
  9 27  2  0  0  0
 10 11  2  0  0  0
 10 15  1  0  0  0
 11 12  1  0  0  0
 11 96  1  0  0  0
 12 13  2  0  0  0
 12 97  1  0  0  0
 13 14  1  0  0  0
 13 31  1  0  0  0
 14 15  2  0  0  0
 14 98  1  0  0  0
 15 99  1  0  0  0
 16 17  2  0  0  0
 16 21  1  0  0  0
 16 31  1  0  0  0
 17 18  1  0  0  0
 17100  1  0  0  0
 18 19  2  0  0  0
 18101  1  0  0  0
 19 20  1  0  0  0
 19 24  1  0  0  0
 20 21  2  0  0  0
 20102  1  0  0  0
 21 23  1  0  0  0
 22 28  1  0  0  0
 22 32  2  0  0  0
 26 27  1  0  0  0
 28103  1  0  0  0
 28104  1  0  0  0
 29105  1  0  0  0
 29106  1  0  0  0
 33 34  1  0  0  0
 33 66  1  0  0  0
 33 70  2  0  0  0
 34 36  1  0  0  0
 34 59  1  0  0  0
 34107  1  0  0  0
 35 44  2  0  0  0
 35 45  1  0  0  0
 35 68  1  0  0  0
 36 56  1  0  0  0
 36108  1  0  0  0
 37 39  1  0  0  0
 37 47  1  0  0  0
 37 66  1  0  0  0
 37109  1  0  0  0
 38 43  2  0  0  0
 38 46  1  0  0  0
 38 47  1  0  0  0
 39 64  1  0  0  0
 39 67  2  0  0  0
 40 52  1  0  0  0
 40 53  2  0  0  0
 40 58  1  0  0  0
 41110  1  0  0  0
 41111  1  0  0  0
 41112  1  0  0  0
 41 48  1  0  0  0
 42 43  1  0  0  0
 42 66  1  0  0  0
 42113  1  0  0  0
 42114  1  0  0  0
 43 44  1  0  0  0
 44115  1  0  0  0
 45 46  2  0  0  0
 45116  1  0  0  0
 46117  1  0  0  0
 47118  1  0  0  0
 47119  1  0  0  0
 48 56  1  0  0  0
 48 65  1  0  0  0
 48120  1  0  0  0
 49 50  1  0  0  0
 49 53  1  0  0  0
 49 64  1  0  0  0
 49121  1  0  0  0
 50 51  1  0  0  0
 50122  1  0  0  0
 50123  1  0  0  0
 51 52  1  0  0  0
 51124  1  0  0  0
 51125  1  0  0  0
 52126  1  0  0  0
 52127  1  0  0  0
 53 54  1  0  0  0
 54 55  2  0  0  0
 54128  1  0  0  0
 55 57  1  0  0  0
 55129  1  0  0  0
 56 69  2  0  0  0
 57 58  2  0  0  0
 57130  1  0  0  0
 58131  1  0  0  0
 59 60  1  0  0  0
 59 61  1  0  0  0
 59 62  1  0  0  0
 60132  1  0  0  0
 60133  1  0  0  0
 60134  1  0  0  0
 61135  1  0  0  0
 61136  1  0  0  0
 61137  1  0  0  0
 62138  1  0  0  0
 62139  1  0  0  0
 62140  1  0  0  0
 63 65  1  0  0  0
 63141  1  0  0  0
 63142  1  0  0  0
 63143  1  0  0  0
 64144  1  0  0  0
 65145  1  0  0  0
 68 82  1  0  0  0
 71 72  2  0  0  0
 71 73  1  0  0  0
 71146  1  0  0  0
 72 75  1  0  0  0
 72147  1  0  0  0
 73 76  2  0  0  0
 73148  1  0  0  0
 74 75  2  0  0  0
 74 76  1  0  0  0
 74149  1  0  0  0
 75 83  1  0  0  0
 76 84  1  0  0  0
 77 78  2  0  0  0
 77 79  1  0  0  0
 77 81  1  0  0  0
 78 80  1  0  0  0
 78 82  1  0  0  0
 79 83  1  0  0  0
 79 85  2  0  0  0
 80 83  1  0  0  0
 80 86  2  0  0  0
 81150  1  0  0  0
 81151  1  0  0  0
 81152  1  0  0  0
 82153  1  0  0  0
 82154  1  0  0  0
 84155  1  0  0  0
M  ISO  4   1 100  68 101  82 101  84 100
M  END
> <chiral flag>
0

> <version>
0

> <s_m_source_file>
/data/baiqing/PycharmProjects/Reinvent-master-3.2/result/LINK_invent/BTK/process_docking_weight1_custom_product_contain_oxygen_bond_distance_aromatic_linkinvent_7_9_3/rearranged_h_0085.sdf

> <i_m_source_file_index>
85

> <r_mmod_Potential_Energy-OPLS-2005>
299.690704345703

> <r_mmod_Stretch_Energy-OPLS-2005>
142.057327270508

> <r_mmod_Bend_Energy-OPLS-2005>
221.116622924805

> <r_mmod_Torsional_Energy-OPLS-2005>
266.606536865234

> <r_mmod_Improper_Torsional_Energy-OPLS-2005>
5.20569705963135

> <r_mmod_Van_der_Waal_Energy-OPLS-2005>
139.058883666992

> <r_mmod_Electrostatic_Energy-OPLS-2005>
-343.520935058594

> <r_mmod_Solvation_Energy-OPLS-2005>
-236.315979003906

> <b_mmod_Minimization_Converged-OPLS-2005>
0

> <r_mmod_RMS_Derivative-OPLS-2005>
1.79603338241577

$$$$
86
                    3D
 Structure written by MMmdl.
152161  0  0  1  0            999 V2000
  -30.6230  -14.7424   20.5658 C   0  0  0  0  0  0
  -30.4396  -12.4787   19.4723 C   0  0  0  0  0  0
  -29.5134  -12.5350   18.2358 C   0  0  0  0  0  0
  -28.0398  -12.3440   18.6415 C   0  0  0  0  0  0
  -27.6457  -13.2274   19.8524 C   0  0  2  0  0  0
  -28.6821  -13.1163   20.9864 C   0  0  0  0  0  0
  -25.2529  -13.8187   20.5678 C   0  0  0  0  0  0
  -24.1810  -13.0436   20.9180 C   0  0  0  0  0  0
  -24.6393  -11.6913   20.8719 C   0  0  0  0  0  0
  -23.9067  -10.4294   21.0396 C   0  0  0  0  0  0
  -24.3620   -9.4213   21.9178 C   0  0  0  0  0  0
  -23.6295   -8.2247   22.0754 C   0  0  0  0  0  0
  -22.4275   -8.0282   21.3546 C   0  0  0  0  0  0
  -21.9909   -9.0254   20.4648 C   0  0  0  0  0  0
  -22.7237  -10.2133   20.3051 C   0  0  0  0  0  0
  -21.6854   -6.0738   22.5282 C   0  0  0  0  0  0
  -21.4014   -6.5642   23.8216 C   0  0  0  0  0  0
  -21.3660   -5.6795   24.9178 C   0  0  0  0  0  0
  -21.6044   -4.3058   24.7229 C   0  0  0  0  0  0
  -21.8818   -3.8150   23.4351 C   0  0  0  0  0  0
  -21.9192   -4.6966   22.3406 C   0  0  0  0  0  0
  -22.7833  -13.5223   21.1862 C   0  0  0  0  0  0
  -22.1661   -4.2151   21.0983 F   0  0  0  0  0  0
  -21.5629   -3.4541   25.7741 F   0  0  0  0  0  0
  -29.9935  -13.5119   20.4426 N   0  0  0  0  0  0
  -26.2945  -12.9382   20.3242 N   0  0  0  0  0  0
  -25.9316  -11.6528   20.5700 N   0  0  0  0  0  0
  -22.0483  -12.8213   22.0423 N   0  0  0  0  0  0
  -25.4246  -15.1913   20.4150 N   0  0  0  0  0  0
  -31.7231  -14.9111   20.0278 O   0  0  0  0  0  0
  -21.6641   -6.8880   21.4244 O   0  0  0  0  0  0
  -22.3512  -14.5532   20.6714 O   0  0  0  0  0  0
  -24.6327  -31.8541   23.1973 C   0  0  0  0  0  0
  -25.9144  -32.4751   23.8327 C   0  0  1  0  0  0
  -27.2235  -27.2540   20.1324 C   0  0  0  0  0  0
  -25.5931  -33.8555   24.2248 N   0  0  0  0  0  0
  -23.4316  -30.4751   21.5407 C   0  0  2  0  0  0
  -24.8824  -28.9197   20.1116 C   0  0  0  0  0  0
  -22.7516  -29.4593   22.4905 C   0  0  0  0  0  0
  -18.0296  -28.1387   22.8483 C   0  0  0  0  0  0
  -24.1490  -36.7282   23.2642 C   0  0  0  0  0  0
  -25.9789  -30.7636   21.3803 C   0  0  0  0  0  0
  -26.0550  -29.3846   20.7237 C   0  0  0  0  0  0
  -27.2318  -28.5638   20.7245 C   0  0  0  0  0  0
  -26.0314  -26.8595   19.4912 C   0  0  0  0  0  0
  -24.8755  -27.6644   19.4842 C   0  0  0  0  0  0
  -23.6527  -29.8075   20.1579 C   0  0  0  0  0  0
  -25.4119  -36.3068   24.0324 C   0  0  1  0  0  0
  -20.5898  -28.3701   23.1265 C   0  0  2  0  0  0
  -20.6780  -26.9416   22.5408 C   0  0  0  0  0  0
  -19.5756  -26.6382   21.5210 C   0  0  0  0  0  0
  -18.1938  -26.7928   22.1624 C   0  0  0  0  0  0
  -19.1549  -28.8861   23.2866 C   0  0  0  0  0  0
  -18.9469  -30.1459   23.8887 C   0  0  0  0  0  0
  -17.6467  -30.6588   24.0560 C   0  0  0  0  0  0
  -25.9058  -34.9440   23.5091 C   0  0  0  0  0  0
  -16.5357  -29.9085   23.6333 C   0  0  0  0  0  0
  -16.7281  -28.6502   23.0355 C   0  0  0  0  0  0
  -26.4506  -31.6583   25.0724 C   0  0  0  0  0  0
  -25.3721  -31.3736   26.1435 C   0  0  0  0  0  0
  -27.0361  -30.3001   24.6224 C   0  0  0  0  0  0
  -27.6052  -32.4330   25.7501 C   0  0  0  0  0  0
  -27.5577  -37.1802   24.8469 C   0  0  0  0  0  0
  -21.4221  -29.3045   22.3649 N   0  0  0  0  0  0
  -26.4294  -37.3766   23.9401 N   0  0  0  0  0  0
  -24.6999  -31.0490   22.0957 N   0  0  0  0  0  0
  -23.4203  -28.8136   23.3013 O   0  0  0  0  0  0
  -28.2767  -26.3078   20.1599 O   0  0  0  0  0  0
  -26.5634  -34.8916   22.4663 O   0  0  0  0  0  0
  -23.5471  -32.1367   23.7256 O   0  0  0  0  0  0
  -28.8023  -19.4299   21.7745 C   0  0  0  0  0  0
  -29.9320  -19.3976   19.7276 C   0  0  0  0  0  0
  -29.0502  -18.0311   21.9416 C   0  0  0  0  0  0
  -30.1851  -17.9745   19.8741 C   0  0  0  0  0  0
  -29.2268  -20.2291   20.6702 C   0  0  0  0  0  0
  -29.7688  -17.2162   21.0140 C   0  0  0  0  0  0
  -28.4326  -23.7303   20.6401 C   0  0  0  0  0  0
  -28.0862  -22.5415   21.4001 C   0  0  0  0  0  0
  -29.2838  -22.8620   19.8252 C   0  0  0  0  0  0
  -28.0062  -25.0559   20.7948 C   0  0  0  0  0  0
  -30.0080  -15.4369   22.7632 C   0  0  0  0  0  0
  -28.9189  -21.7004   20.6064 N   0  0  0  0  0  0
  -30.0298  -15.7594   21.3226 N   0  0  0  0  0  0
  -27.3474  -22.4053   22.3557 O   0  0  0  0  0  0
  -29.9988  -23.1044   18.8708 O   0  0  0  0  0  0
  -31.4775  -12.6202   19.1668 H   0  0  0  0  0  0
  -30.4046  -11.4901   19.9325 H   0  0  0  0  0  0
  -29.8035  -11.7727   17.5116 H   0  0  0  0  0  0
  -29.6330  -13.4961   17.7330 H   0  0  0  0  0  0
  -27.8982  -11.2919   18.8915 H   0  0  0  0  0  0
  -27.3834  -12.5462   17.7944 H   0  0  0  0  0  0
  -27.6544  -14.2591   19.4992 H   0  0  0  0  0  0
  -28.7230  -12.0968   21.3726 H   0  0  0  0  0  0
  -28.3605  -13.7316   21.8219 H   0  0  0  0  0  0
  -25.2766   -9.5692   22.4749 H   0  0  0  0  0  0
  -24.0007   -7.4641   22.7473 H   0  0  0  0  0  0
  -21.0839   -8.8771   19.8955 H   0  0  0  0  0  0
  -22.3693  -10.9669   19.6159 H   0  0  0  0  0  0
  -21.2006   -7.6151   23.9720 H   0  0  0  0  0  0
  -21.1483   -6.0526   25.9082 H   0  0  0  0  0  0
  -22.0597   -2.7611   23.2851 H   0  0  0  0  0  0
  -22.4103  -11.9875   22.4806 H   0  0  0  0  0  0
  -21.1104  -13.1237   22.2635 H   0  0  0  0  0  0
  -24.6647  -15.8506   20.5424 H   0  0  0  0  0  0
  -26.2888  -15.6334   20.1276 H   0  0  0  0  0  0
  -26.7211  -32.5404   23.1070 H   0  0  0  0  0  0
  -25.0067  -33.9690   25.0386 H   0  0  0  0  0  0
  -22.7287  -31.2978   21.3922 H   0  0  0  0  0  0
  -23.3749  -35.9619   23.3318 H   0  0  0  0  0  0
  -24.3572  -36.8892   22.2052 H   0  0  0  0  0  0
  -23.7251  -37.6491   23.6659 H   0  0  0  0  0  0
  -26.1190  -31.5234   20.6102 H   0  0  0  0  0  0
  -26.8552  -30.8141   22.0148 H   0  0  0  0  0  0
  -28.1288  -28.9105   21.2181 H   0  0  0  0  0  0
  -25.9851  -25.8908   19.0137 H   0  0  0  0  0  0
  -23.9786  -27.3020   19.0008 H   0  0  0  0  0  0
  -23.7790  -30.5835   19.4017 H   0  0  0  0  0  0
  -22.7713  -29.2415   19.8515 H   0  0  0  0  0  0
  -25.1305  -36.1917   25.0818 H   0  0  0  0  0  0
  -20.9991  -28.3281   24.1382 H   0  0  0  0  0  0
  -20.5677  -26.2313   23.3613 H   0  0  0  0  0  0
  -21.6650  -26.7434   22.1203 H   0  0  0  0  0  0
  -19.6919  -25.6291   21.1245 H   0  0  0  0  0  0
  -19.6694  -27.3188   20.6735 H   0  0  0  0  0  0
  -17.4206  -26.6669   21.4029 H   0  0  0  0  0  0
  -18.0343  -26.0072   22.9024 H   0  0  0  0  0  0
  -19.7946  -30.7278   24.2254 H   0  0  0  0  0  0
  -17.5023  -31.6268   24.5163 H   0  0  0  0  0  0
  -15.5359  -30.2982   23.7663 H   0  0  0  0  0  0
  -15.8680  -28.0815   22.7077 H   0  0  0  0  0  0
  -24.5905  -30.7074   25.7760 H   0  0  0  0  0  0
  -24.8898  -32.2905   26.4837 H   0  0  0  0  0  0
  -25.8030  -30.8931   27.0229 H   0  0  0  0  0  0
  -26.2956  -29.6740   24.1231 H   0  0  0  0  0  0
  -27.4022  -29.7270   25.4754 H   0  0  0  0  0  0
  -27.8842  -30.4274   23.9490 H   0  0  0  0  0  0
  -27.2655  -33.3636   26.2063 H   0  0  0  0  0  0
  -28.3873  -32.6885   25.0338 H   0  0  0  0  0  0
  -28.0712  -31.8467   26.5432 H   0  0  0  0  0  0
  -28.2608  -38.0084   24.7493 H   0  0  0  0  0  0
  -28.1057  -36.2614   24.6328 H   0  0  0  0  0  0
  -27.2288  -37.1491   25.8871 H   0  0  0  0  0  0
  -20.9409  -29.8766   21.6847 H   0  0  0  0  0  0
  -26.0174  -38.2845   24.1387 H   0  0  0  0  0  0
  -28.2519  -19.9100   22.5716 H   0  0  0  0  0  0
  -30.3059  -19.8705   18.8312 H   0  0  0  0  0  0
  -28.6560  -17.5965   22.8470 H   0  0  0  0  0  0
  -30.7375  -17.4737   19.0915 H   0  0  0  0  0  0
  -27.3087  -25.2309   21.6032 H   0  0  0  0  0  0
  -28.9897  -15.4415   23.1521 H   0  0  0  0  0  0
  -30.5878  -16.1708   23.3248 H   0  0  0  0  0  0
  -30.4358  -14.4623   23.0124 H   0  0  0  0  0  0
  1 25  1  0  0  0
  1 30  2  0  0  0
  1 83  1  0  0  0
  2  3  1  0  0  0
  2 25  1  0  0  0
  2 86  1  0  0  0
  2 87  1  0  0  0
  3  4  1  0  0  0
  3 88  1  0  0  0
  3 89  1  0  0  0
  4  5  1  0  0  0
  4 90  1  0  0  0
  4 91  1  0  0  0
  5  6  1  0  0  0
  5 26  1  0  0  0
  5 92  1  0  0  0
  6 25  1  0  0  0
  6 93  1  0  0  0
  6 94  1  0  0  0
  7  8  2  0  0  0
  7 26  1  0  0  0
  7 29  1  0  0  0
  8  9  1  0  0  0
  8 22  1  0  0  0
  9 10  1  0  0  0
  9 27  2  0  0  0
 10 11  2  0  0  0
 10 15  1  0  0  0
 11 12  1  0  0  0
 11 95  1  0  0  0
 12 13  2  0  0  0
 12 96  1  0  0  0
 13 14  1  0  0  0
 13 31  1  0  0  0
 14 15  2  0  0  0
 14 97  1  0  0  0
 15 98  1  0  0  0
 16 17  2  0  0  0
 16 21  1  0  0  0
 16 31  1  0  0  0
 17 18  1  0  0  0
 17 99  1  0  0  0
 18 19  2  0  0  0
 18100  1  0  0  0
 19 20  1  0  0  0
 19 24  1  0  0  0
 20 21  2  0  0  0
 20101  1  0  0  0
 21 23  1  0  0  0
 22 28  1  0  0  0
 22 32  2  0  0  0
 26 27  1  0  0  0
 28102  1  0  0  0
 28103  1  0  0  0
 29104  1  0  0  0
 29105  1  0  0  0
 33 34  1  0  0  0
 33 66  1  0  0  0
 33 70  2  0  0  0
 34 36  1  0  0  0
 34 59  1  0  0  0
 34106  1  0  0  0
 35 44  2  0  0  0
 35 45  1  0  0  0
 35 68  1  0  0  0
 36 56  1  0  0  0
 36107  1  0  0  0
 37 39  1  0  0  0
 37 47  1  0  0  0
 37 66  1  0  0  0
 37108  1  0  0  0
 38 43  2  0  0  0
 38 46  1  0  0  0
 38 47  1  0  0  0
 39 64  1  0  0  0
 39 67  2  0  0  0
 40 52  1  0  0  0
 40 53  2  0  0  0
 40 58  1  0  0  0
 41109  1  0  0  0
 41110  1  0  0  0
 41111  1  0  0  0
 41 48  1  0  0  0
 42 43  1  0  0  0
 42 66  1  0  0  0
 42112  1  0  0  0
 42113  1  0  0  0
 43 44  1  0  0  0
 44114  1  0  0  0
 45 46  2  0  0  0
 45115  1  0  0  0
 46116  1  0  0  0
 47117  1  0  0  0
 47118  1  0  0  0
 48 56  1  0  0  0
 48 65  1  0  0  0
 48119  1  0  0  0
 49 50  1  0  0  0
 49 53  1  0  0  0
 49 64  1  0  0  0
 49120  1  0  0  0
 50 51  1  0  0  0
 50121  1  0  0  0
 50122  1  0  0  0
 51 52  1  0  0  0
 51123  1  0  0  0
 51124  1  0  0  0
 52125  1  0  0  0
 52126  1  0  0  0
 53 54  1  0  0  0
 54 55  2  0  0  0
 54127  1  0  0  0
 55 57  1  0  0  0
 55128  1  0  0  0
 56 69  2  0  0  0
 57 58  2  0  0  0
 57129  1  0  0  0
 58130  1  0  0  0
 59 60  1  0  0  0
 59 61  1  0  0  0
 59 62  1  0  0  0
 60131  1  0  0  0
 60132  1  0  0  0
 60133  1  0  0  0
 61134  1  0  0  0
 61135  1  0  0  0
 61136  1  0  0  0
 62137  1  0  0  0
 62138  1  0  0  0
 62139  1  0  0  0
 63 65  1  0  0  0
 63140  1  0  0  0
 63141  1  0  0  0
 63142  1  0  0  0
 64143  1  0  0  0
 65144  1  0  0  0
 68 80  1  0  0  0
 71 73  2  0  0  0
 71 75  1  0  0  0
 71145  1  0  0  0
 72 74  1  0  0  0
 72 75  2  0  0  0
 72146  1  0  0  0
 73 76  1  0  0  0
 73147  1  0  0  0
 74 76  2  0  0  0
 74148  1  0  0  0
 75 82  1  0  0  0
 76 83  1  0  0  0
 77 78  1  0  0  0
 77 79  1  0  0  0
 77 80  2  0  0  0
 78 82  1  0  0  0
 78 84  2  0  0  0
 79 82  1  0  0  0
 79 85  2  0  0  0
 80149  1  0  0  0
 81 83  1  0  0  0
 81150  1  0  0  0
 81151  1  0  0  0
 81152  1  0  0  0
M  ISO  4   1 100  68 101  80 101  83 100
M  END
> <chiral flag>
0

> <version>
0

> <s_m_source_file>
/data/baiqing/PycharmProjects/Reinvent-master-3.2/result/LINK_invent/BTK/process_docking_weight1_custom_product_contain_oxygen_bond_distance_aromatic_linkinvent_7_9_3/rearranged_h_0085.sdf

> <i_m_source_file_index>
86

> <r_mmod_Potential_Energy-OPLS-2005>
377.207000732422

> <r_mmod_Stretch_Energy-OPLS-2005>
130.824203491211

> <r_mmod_Bend_Energy-OPLS-2005>
280.953308105469

> <r_mmod_Torsional_Energy-OPLS-2005>
269.927795410156

> <r_mmod_Improper_Torsional_Energy-OPLS-2005>
2.65186333656311

> <r_mmod_Van_der_Waal_Energy-OPLS-2005>
145.187530517578

> <r_mmod_Electrostatic_Energy-OPLS-2005>
-331.562774658203

> <r_mmod_Solvation_Energy-OPLS-2005>
-209.309707641602

> <b_mmod_Minimization_Converged-OPLS-2005>
0

> <r_mmod_RMS_Derivative-OPLS-2005>
1.24566280841827

$$$$
87
                    3D
 Structure written by MMmdl.
155164  0  0  1  0            999 V2000
  -30.5953  -14.7472   20.4439 C   0  0  0  0  0  0
  -30.4337  -12.4479   19.4842 C   0  0  0  0  0  0
  -29.5158  -12.5020   18.2428 C   0  0  0  0  0  0
  -28.0394  -12.3385   18.6500 C   0  0  0  0  0  0
  -27.6458  -13.2328   19.8566 C   0  0  2  0  0  0
  -28.6868  -13.1571   20.9960 C   0  0  0  0  0  0
  -25.2531  -13.8203   20.5696 C   0  0  0  0  0  0
  -24.1815  -13.0448   20.9184 C   0  0  0  0  0  0
  -24.6405  -11.6925   20.8732 C   0  0  0  0  0  0
  -23.9078  -10.4298   21.0390 C   0  0  0  0  0  0
  -24.3626   -9.4209   21.9166 C   0  0  0  0  0  0
  -23.6291   -8.2253   22.0749 C   0  0  0  0  0  0
  -22.4273   -8.0298   21.3544 C   0  0  0  0  0  0
  -21.9906   -9.0268   20.4639 C   0  0  0  0  0  0
  -22.7249  -10.2138   20.3043 C   0  0  0  0  0  0
  -21.6858   -6.0738   22.5263 C   0  0  0  0  0  0
  -21.4025   -6.5630   23.8200 C   0  0  0  0  0  0
  -21.3661   -5.6779   24.9160 C   0  0  0  0  0  0
  -21.6050   -4.3041   24.7205 C   0  0  0  0  0  0
  -21.8822   -3.8142   23.4318 C   0  0  0  0  0  0
  -21.9193   -4.6966   22.3381 C   0  0  0  0  0  0
  -22.7837  -13.5235   21.1840 C   0  0  0  0  0  0
  -22.1661   -4.2161   21.0956 F   0  0  0  0  0  0
  -21.5623   -3.4513   25.7705 F   0  0  0  0  0  0
  -29.9934  -13.5073   20.4244 N   0  0  0  0  0  0
  -26.2962  -12.9407   20.3297 N   0  0  0  0  0  0
  -25.9334  -11.6543   20.5746 N   0  0  0  0  0  0
  -22.0479  -12.8235   22.0400 N   0  0  0  0  0  0
  -25.4242  -15.1922   20.4129 N   0  0  0  0  0  0
  -31.7659  -14.8639   20.0674 O   0  0  0  0  0  0
  -21.6648   -6.8889   21.4232 O   0  0  0  0  0  0
  -22.3519  -14.5542   20.6685 O   0  0  0  0  0  0
  -24.6328  -31.8560   23.1998 C   0  0  0  0  0  0
  -25.9145  -32.4763   23.8341 C   0  0  1  0  0  0
  -27.2066  -27.2435   20.1267 C   0  0  0  0  0  0
  -25.5935  -33.8567   24.2257 N   0  0  0  0  0  0
  -23.4287  -30.4809   21.5456 C   0  0  2  0  0  0
  -24.8732  -28.9340   20.1058 C   0  0  0  0  0  0
  -22.7509  -29.4608   22.4923 C   0  0  0  0  0  0
  -18.0298  -28.1400   22.8483 C   0  0  0  0  0  0
  -24.1491  -36.7283   23.2635 C   0  0  0  0  0  0
  -25.9777  -30.7616   21.3846 C   0  0  0  0  0  0
  -26.0470  -29.3849   20.7236 C   0  0  0  0  0  0
  -27.2151  -28.5513   20.7262 C   0  0  0  0  0  0
  -26.0133  -26.8831   19.4550 C   0  0  0  0  0  0
  -24.8631  -27.6918   19.4608 C   0  0  0  0  0  0
  -23.6451  -29.8224   20.1590 C   0  0  0  0  0  0
  -25.4119  -36.3072   24.0319 C   0  0  1  0  0  0
  -20.5899  -28.3710   23.1268 C   0  0  2  0  0  0
  -20.6790  -26.9430   22.5405 C   0  0  0  0  0  0
  -19.5760  -26.6390   21.5216 C   0  0  0  0  0  0
  -18.1940  -26.7943   22.1628 C   0  0  0  0  0  0
  -19.1548  -28.8877   23.2868 C   0  0  0  0  0  0
  -18.9468  -30.1476   23.8887 C   0  0  0  0  0  0
  -17.6465  -30.6599   24.0569 C   0  0  0  0  0  0
  -25.9065  -34.9446   23.5094 C   0  0  0  0  0  0
  -16.5359  -29.9094   23.6333 C   0  0  0  0  0  0
  -16.7283  -28.6515   23.0351 C   0  0  0  0  0  0
  -26.4496  -31.6593   25.0739 C   0  0  0  0  0  0
  -25.3702  -31.3754   26.1446 C   0  0  0  0  0  0
  -27.0329  -30.2999   24.6234 C   0  0  0  0  0  0
  -27.6047  -32.4339   25.7513 C   0  0  0  0  0  0
  -27.5582  -37.1796   24.8461 C   0  0  0  0  0  0
  -21.4220  -29.3047   22.3659 N   0  0  0  0  0  0
  -26.4292  -37.3771   23.9411 N   0  0  0  0  0  0
  -24.6991  -31.0507   22.0991 N   0  0  0  0  0  0
  -23.4213  -28.8145   23.3025 O   0  0  0  0  0  0
  -28.2729  -26.3072   20.2205 O   0  0  0  0  0  0
  -26.5643  -34.8916   22.4665 O   0  0  0  0  0  0
  -23.5471  -32.1402   23.7273 O   0  0  0  0  0  0
  -29.3195  -19.5748   18.5395 C   0  0  0  0  0  0
  -29.4202  -18.3141   17.9230 C   0  0  0  0  0  0
  -29.6114  -18.4925   20.6945 C   0  0  0  0  0  0
  -29.3989  -19.7367   19.9445 C   0  0  0  0  0  0
  -29.7409  -17.1718   20.0740 C   0  0  0  0  0  0
  -29.6216  -17.1373   18.6643 C   0  0  0  0  0  0
  -29.7088  -23.7818   21.4842 C   0  0  0  0  0  0
  -30.2171  -21.4140   21.5622 C   0  0  0  0  0  0
  -28.8237  -23.6301   20.4780 C   0  0  0  0  0  0
  -30.4169  -22.6504   22.0591 C   0  0  0  0  0  0
  -28.5938  -22.2147   19.9619 C   0  0  0  0  0  0
  -27.9828  -24.8557   19.9003 C   0  0  0  0  0  0
  -29.3479  -21.1411   20.4880 N   0  0  0  0  0  0
  -29.8414  -15.8645   20.7793 N   0  0  0  0  0  0
  -27.7202  -22.0068   19.1131 O   0  0  0  0  0  0
  -31.2704  -22.8293   23.0729 O   0  0  0  0  0  0
  -29.6468  -15.9582   17.9972 F   0  0  0  0  0  0
  -31.4761  -12.5658   19.1843 H   0  0  0  0  0  0
  -30.3732  -11.4698   19.9615 H   0  0  0  0  0  0
  -29.7924  -11.7202   17.5331 H   0  0  0  0  0  0
  -29.6534  -13.4480   17.7189 H   0  0  0  0  0  0
  -27.8853  -11.2891   18.9023 H   0  0  0  0  0  0
  -27.3904  -12.5449   17.7982 H   0  0  0  0  0  0
  -27.6451  -14.2571   19.4825 H   0  0  0  0  0  0
  -28.7160  -12.1572   21.4303 H   0  0  0  0  0  0
  -28.4208  -13.8344   21.8092 H   0  0  0  0  0  0
  -25.2766   -9.5675   22.4746 H   0  0  0  0  0  0
  -23.9991   -7.4636   22.7465 H   0  0  0  0  0  0
  -21.0840   -8.8789   19.8932 H   0  0  0  0  0  0
  -22.3710  -10.9679   19.6155 H   0  0  0  0  0  0
  -21.2038   -7.6138   23.9706 H   0  0  0  0  0  0
  -21.1478   -6.0504   25.9064 H   0  0  0  0  0  0
  -22.0607   -2.7606   23.2804 H   0  0  0  0  0  0
  -22.4086  -11.9901   22.4801 H   0  0  0  0  0  0
  -21.1096  -13.1265   22.2588 H   0  0  0  0  0  0
  -24.6598  -15.8482   20.5268 H   0  0  0  0  0  0
  -26.2762  -15.6286   20.0836 H   0  0  0  0  0  0
  -26.7213  -32.5392   23.1084 H   0  0  0  0  0  0
  -25.0059  -33.9712   25.0383 H   0  0  0  0  0  0
  -22.7253  -31.3042   21.4043 H   0  0  0  0  0  0
  -23.3761  -35.9606   23.3293 H   0  0  0  0  0  0
  -24.3580  -36.8917   22.2051 H   0  0  0  0  0  0
  -23.7241  -37.6476   23.6674 H   0  0  0  0  0  0
  -26.1186  -31.5226   20.6158 H   0  0  0  0  0  0
  -26.8551  -30.8087   22.0179 H   0  0  0  0  0  0
  -28.1076  -28.8850   21.2363 H   0  0  0  0  0  0
  -25.9211  -25.9459   18.9276 H   0  0  0  0  0  0
  -23.9673  -27.3463   18.9625 H   0  0  0  0  0  0
  -23.7688  -30.6026   19.4072 H   0  0  0  0  0  0
  -22.7611  -29.2597   19.8530 H   0  0  0  0  0  0
  -25.1297  -36.1920   25.0810 H   0  0  0  0  0  0
  -20.9983  -28.3292   24.1392 H   0  0  0  0  0  0
  -20.5705  -26.2321   23.3609 H   0  0  0  0  0  0
  -21.6660  -26.7464   22.1193 H   0  0  0  0  0  0
  -19.6922  -25.6296   21.1257 H   0  0  0  0  0  0
  -19.6691  -27.3189   20.6737 H   0  0  0  0  0  0
  -17.4204  -26.6689   21.4035 H   0  0  0  0  0  0
  -18.0338  -26.0093   22.9031 H   0  0  0  0  0  0
  -19.7940  -30.7303   24.2249 H   0  0  0  0  0  0
  -17.5015  -31.6272   24.5178 H   0  0  0  0  0  0
  -15.5360  -30.2994   23.7659 H   0  0  0  0  0  0
  -15.8685  -28.0831   22.7071 H   0  0  0  0  0  0
  -24.5872  -30.7115   25.7766 H   0  0  0  0  0  0
  -24.8896  -32.2926   26.4856 H   0  0  0  0  0  0
  -25.7992  -30.8930   27.0236 H   0  0  0  0  0  0
  -26.2905  -29.6766   24.1233 H   0  0  0  0  0  0
  -27.3968  -29.7251   25.4762 H   0  0  0  0  0  0
  -27.8812  -30.4266   23.9505 H   0  0  0  0  0  0
  -27.2651  -33.3647   26.2073 H   0  0  0  0  0  0
  -28.3859  -32.6892   25.0341 H   0  0  0  0  0  0
  -28.0711  -31.8478   26.5443 H   0  0  0  0  0  0
  -28.2586  -38.0105   24.7524 H   0  0  0  0  0  0
  -28.1093  -36.2638   24.6267 H   0  0  0  0  0  0
  -27.2304  -37.1420   25.8863 H   0  0  0  0  0  0
  -20.9420  -29.8758   21.6841 H   0  0  0  0  0  0
  -26.0168  -38.2842   24.1420 H   0  0  0  0  0  0
  -29.1933  -20.4293   17.8910 H   0  0  0  0  0  0
  -29.3340  -18.2458   16.8482 H   0  0  0  0  0  0
  -29.6683  -18.5495   21.7716 H   0  0  0  0  0  0
  -29.8689  -24.7736   21.8843 H   0  0  0  0  0  0
  -30.7377  -20.5504   21.9492 H   0  0  0  0  0  0
  -26.9760  -24.6240   20.2476 H   0  0  0  0  0  0
  -27.9689  -24.7579   18.8139 H   0  0  0  0  0  0
  -29.0253  -15.6407   21.3277 H   0  0  0  0  0  0
  -31.2905  -23.7557   23.2809 H   0  0  0  0  0  0
  1 25  1  0  0  0
  1 30  2  0  0  0
  1 84  1  0  0  0
  2  3  1  0  0  0
  2 25  1  0  0  0
  2 88  1  0  0  0
  2 89  1  0  0  0
  3  4  1  0  0  0
  3 90  1  0  0  0
  3 91  1  0  0  0
  4  5  1  0  0  0
  4 92  1  0  0  0
  4 93  1  0  0  0
  5  6  1  0  0  0
  5 26  1  0  0  0
  5 94  1  0  0  0
  6 25  1  0  0  0
  6 95  1  0  0  0
  6 96  1  0  0  0
  7  8  2  0  0  0
  7 26  1  0  0  0
  7 29  1  0  0  0
  8  9  1  0  0  0
  8 22  1  0  0  0
  9 10  1  0  0  0
  9 27  2  0  0  0
 10 11  2  0  0  0
 10 15  1  0  0  0
 11 12  1  0  0  0
 11 97  1  0  0  0
 12 13  2  0  0  0
 12 98  1  0  0  0
 13 14  1  0  0  0
 13 31  1  0  0  0
 14 15  2  0  0  0
 14 99  1  0  0  0
 15100  1  0  0  0
 16 17  2  0  0  0
 16 21  1  0  0  0
 16 31  1  0  0  0
 17 18  1  0  0  0
 17101  1  0  0  0
 18 19  2  0  0  0
 18102  1  0  0  0
 19 20  1  0  0  0
 19 24  1  0  0  0
 20 21  2  0  0  0
 20103  1  0  0  0
 21 23  1  0  0  0
 22 28  1  0  0  0
 22 32  2  0  0  0
 26 27  1  0  0  0
 28104  1  0  0  0
 28105  1  0  0  0
 29106  1  0  0  0
 29107  1  0  0  0
 33 34  1  0  0  0
 33 66  1  0  0  0
 33 70  2  0  0  0
 34 36  1  0  0  0
 34 59  1  0  0  0
 34108  1  0  0  0
 35 44  2  0  0  0
 35 45  1  0  0  0
 35 68  1  0  0  0
 36 56  1  0  0  0
 36109  1  0  0  0
 37 39  1  0  0  0
 37 47  1  0  0  0
 37 66  1  0  0  0
 37110  1  0  0  0
 38 43  2  0  0  0
 38 46  1  0  0  0
 38 47  1  0  0  0
 39 64  1  0  0  0
 39 67  2  0  0  0
 40 52  1  0  0  0
 40 53  2  0  0  0
 40 58  1  0  0  0
 41111  1  0  0  0
 41112  1  0  0  0
 41113  1  0  0  0
 41 48  1  0  0  0
 42 43  1  0  0  0
 42 66  1  0  0  0
 42114  1  0  0  0
 42115  1  0  0  0
 43 44  1  0  0  0
 44116  1  0  0  0
 45 46  2  0  0  0
 45117  1  0  0  0
 46118  1  0  0  0
 47119  1  0  0  0
 47120  1  0  0  0
 48 56  1  0  0  0
 48 65  1  0  0  0
 48121  1  0  0  0
 49 50  1  0  0  0
 49 53  1  0  0  0
 49 64  1  0  0  0
 49122  1  0  0  0
 50 51  1  0  0  0
 50123  1  0  0  0
 50124  1  0  0  0
 51 52  1  0  0  0
 51125  1  0  0  0
 51126  1  0  0  0
 52127  1  0  0  0
 52128  1  0  0  0
 53 54  1  0  0  0
 54 55  2  0  0  0
 54129  1  0  0  0
 55 57  1  0  0  0
 55130  1  0  0  0
 56 69  2  0  0  0
 57 58  2  0  0  0
 57131  1  0  0  0
 58132  1  0  0  0
 59 60  1  0  0  0
 59 61  1  0  0  0
 59 62  1  0  0  0
 60133  1  0  0  0
 60134  1  0  0  0
 60135  1  0  0  0
 61136  1  0  0  0
 61137  1  0  0  0
 61138  1  0  0  0
 62139  1  0  0  0
 62140  1  0  0  0
 62141  1  0  0  0
 63 65  1  0  0  0
 63142  1  0  0  0
 63143  1  0  0  0
 63144  1  0  0  0
 64145  1  0  0  0
 65146  1  0  0  0
 68 82  1  0  0  0
 71 72  2  0  0  0
 71 74  1  0  0  0
 71147  1  0  0  0
 72 76  1  0  0  0
 72148  1  0  0  0
 73 74  2  0  0  0
 73 75  1  0  0  0
 73149  1  0  0  0
 74 83  1  0  0  0
 75 76  2  0  0  0
 75 84  1  0  0  0
 76 87  1  0  0  0
 77 79  2  0  0  0
 77 80  1  0  0  0
 77150  1  0  0  0
 78 80  2  0  0  0
 78 83  1  0  0  0
 78151  1  0  0  0
 79 81  1  0  0  0
 79 82  1  0  0  0
 80 86  1  0  0  0
 81 83  1  0  0  0
 81 85  2  0  0  0
 82152  1  0  0  0
 82153  1  0  0  0
 84154  1  0  0  0
 86155  1  0  0  0
M  ISO  4   1 100  68 101  82 101  84 100
M  END
> <chiral flag>
0

> <version>
0

> <s_m_source_file>
/data/baiqing/PycharmProjects/Reinvent-master-3.2/result/LINK_invent/BTK/process_docking_weight1_custom_product_contain_oxygen_bond_distance_aromatic_linkinvent_7_9_3/rearranged_h_0085.sdf

> <i_m_source_file_index>
87

> <r_mmod_Potential_Energy-OPLS-2005>
227.473709106445

> <r_mmod_Stretch_Energy-OPLS-2005>
145.863342285156

> <r_mmod_Bend_Energy-OPLS-2005>
161.30973815918

> <r_mmod_Torsional_Energy-OPLS-2005>
266.257720947266

> <r_mmod_Improper_Torsional_Energy-OPLS-2005>
5.44143533706665

> <r_mmod_Van_der_Waal_Energy-OPLS-2005>
172.212982177734

> <r_mmod_Electrostatic_Energy-OPLS-2005>
-386.043731689453

> <r_mmod_Solvation_Energy-OPLS-2005>
-232.601333618164

> <b_mmod_Minimization_Converged-OPLS-2005>
0

> <r_mmod_RMS_Derivative-OPLS-2005>
1.63542211055756

$$$$
88
                    3D
 Structure written by MMmdl.
153161  0  0  1  0            999 V2000
  -30.7106  -14.5119   20.5495 C   0  0  0  0  0  0
  -30.4170  -12.3255   19.4371 C   0  0  0  0  0  0
  -29.4953  -12.5003   18.2134 C   0  0  0  0  0  0
  -28.0179  -12.3569   18.6262 C   0  0  0  0  0  0
  -27.6567  -13.2146   19.8691 C   0  0  2  0  0  0
  -28.7000  -13.0402   20.9969 C   0  0  0  0  0  0
  -25.2567  -13.8174   20.5685 C   0  0  0  0  0  0
  -24.1830  -13.0442   20.9190 C   0  0  0  0  0  0
  -24.6393  -11.6912   20.8739 C   0  0  0  0  0  0
  -23.9061  -10.4294   21.0402 C   0  0  0  0  0  0
  -24.3614   -9.4210   21.9181 C   0  0  0  0  0  0
  -23.6291   -8.2245   22.0752 C   0  0  0  0  0  0
  -22.4274   -8.0280   21.3543 C   0  0  0  0  0  0
  -21.9907   -9.0253   20.4648 C   0  0  0  0  0  0
  -22.7233  -10.2134   20.3053 C   0  0  0  0  0  0
  -21.6854   -6.0733   22.5279 C   0  0  0  0  0  0
  -21.4015   -6.5636   23.8212 C   0  0  0  0  0  0
  -21.3659   -5.6790   24.9174 C   0  0  0  0  0  0
  -21.6043   -4.3053   24.7225 C   0  0  0  0  0  0
  -21.8819   -3.8145   23.4347 C   0  0  0  0  0  0
  -21.9195   -4.6961   22.3403 C   0  0  0  0  0  0
  -22.7852  -13.5234   21.1848 C   0  0  0  0  0  0
  -22.1663   -4.2147   21.0980 F   0  0  0  0  0  0
  -21.5629   -3.4537   25.7739 F   0  0  0  0  0  0
  -30.0266  -13.3375   20.4351 N   0  0  0  0  0  0
  -26.3001  -12.9358   20.3347 N   0  0  0  0  0  0
  -25.9323  -11.6511   20.5765 N   0  0  0  0  0  0
  -22.0493  -12.8227   22.0405 N   0  0  0  0  0  0
  -25.4285  -15.1893   20.4080 N   0  0  0  0  0  0
  -31.8489  -14.6383   20.0920 O   0  0  0  0  0  0
  -21.6640   -6.8876   21.4241 O   0  0  0  0  0  0
  -22.3540  -14.5542   20.6698 O   0  0  0  0  0  0
  -24.6179  -31.8665   23.2091 C   0  0  0  0  0  0
  -25.9060  -32.4816   23.8394 C   0  0  1  0  0  0
  -27.2266  -27.4094   20.1011 C   0  0  0  0  0  0
  -25.5906  -33.8614   24.2324 N   0  0  0  0  0  0
  -23.4076  -30.4912   21.5496 C   0  0  2  0  0  0
  -24.8556  -28.9611   20.1078 C   0  0  0  0  0  0
  -22.7432  -29.4652   22.4967 C   0  0  0  0  0  0
  -18.0276  -28.1379   22.8490 C   0  0  0  0  0  0
  -24.1488  -36.7310   23.2637 C   0  0  0  0  0  0
  -25.9406  -30.8252   21.3675 C   0  0  0  0  0  0
  -26.0190  -29.4602   20.7095 C   0  0  0  0  0  0
  -27.2116  -28.6922   20.7036 C   0  0  0  0  0  0
  -26.0501  -26.9423   19.4755 C   0  0  0  0  0  0
  -24.8675  -27.7027   19.4845 C   0  0  0  0  0  0
  -23.6176  -29.8286   20.1625 C   0  0  0  0  0  0
  -25.4107  -36.3108   24.0338 C   0  0  1  0  0  0
  -20.5871  -28.3671   23.1306 C   0  0  2  0  0  0
  -20.6767  -26.9404   22.5416 C   0  0  0  0  0  0
  -19.5746  -26.6387   21.5211 C   0  0  0  0  0  0
  -18.1924  -26.7926   22.1622 C   0  0  0  0  0  0
  -19.1527  -28.8841   23.2896 C   0  0  0  0  0  0
  -18.9455  -30.1447   23.8906 C   0  0  0  0  0  0
  -17.6457  -30.6584   24.0564 C   0  0  0  0  0  0
  -25.9035  -34.9473   23.5127 C   0  0  0  0  0  0
  -16.5347  -29.9086   23.6327 C   0  0  0  0  0  0
  -16.7265  -28.6503   23.0348 C   0  0  0  0  0  0
  -26.4476  -31.6597   25.0729 C   0  0  0  0  0  0
  -25.3736  -31.3710   26.1475 C   0  0  0  0  0  0
  -27.0305  -30.3035   24.6119 C   0  0  0  0  0  0
  -27.6053  -32.4315   25.7489 C   0  0  0  0  0  0
  -27.5582  -37.1807   24.8463 C   0  0  0  0  0  0
  -21.4154  -29.3036   22.3708 N   0  0  0  0  0  0
  -26.4292  -37.3794   23.9412 N   0  0  0  0  0  0
  -24.6735  -31.0749   22.1002 N   0  0  0  0  0  0
  -23.4192  -28.8185   23.3013 O   0  0  0  0  0  0
  -28.3296  -26.5742   20.1523 O   0  0  0  0  0  0
  -26.5596  -34.8923   22.4687 O   0  0  0  0  0  0
  -23.5364  -32.1423   23.7470 O   0  0  0  0  0  0
  -32.1948  -18.6601   21.3924 C   0  0  0  0  0  0
  -31.2331  -19.6873   21.3923 C   0  0  0  0  0  0
  -31.8061  -17.3125   21.2750 C   0  0  0  0  0  0
  -29.4784  -18.0083   21.1263 C   0  0  0  0  0  0
  -29.8614  -19.3791   21.2664 C   0  0  0  0  0  0
  -30.4415  -16.9559   21.1269 C   0  0  0  0  0  0
  -28.7314  -24.1642   20.4439 C   0  0  0  0  0  0
  -28.0762  -25.3254   20.7051 C   0  0  0  0  0  0
  -28.8610  -20.4734   21.3844 C   0  0  0  0  0  0
  -28.2682  -22.9244   21.0873 C   0  0  0  0  0  0
  -30.0173  -15.5761   21.0299 N   0  0  0  0  0  0
  -29.0852  -21.7329   20.8951 N   0  0  0  0  0  0
  -27.7371  -20.1779   22.0483 N   0  3  0  0  0  0
  -27.2366  -22.8541   21.7695 O   0  0  0  0  0  0
  -31.4628  -12.4091   19.1358 H   0  0  0  0  0  0
  -30.3105  -11.3244   19.8576 H   0  0  0  0  0  0
  -29.7420  -11.7641   17.4472 H   0  0  0  0  0  0
  -29.6604  -13.4800   17.7616 H   0  0  0  0  0  0
  -27.8372  -11.3028   18.8397 H   0  0  0  0  0  0
  -27.3661  -12.6125   17.7898 H   0  0  0  0  0  0
  -27.6881  -14.2555   19.5466 H   0  0  0  0  0  0
  -28.6830  -12.0180   21.3779 H   0  0  0  0  0  0
  -28.4612  -13.6768   21.8501 H   0  0  0  0  0  0
  -25.2761   -9.5687   22.4753 H   0  0  0  0  0  0
  -24.0003   -7.4636   22.7469 H   0  0  0  0  0  0
  -21.0838   -8.8770   19.8954 H   0  0  0  0  0  0
  -22.3689  -10.9670   19.6160 H   0  0  0  0  0  0
  -21.2006   -7.6144   23.9713 H   0  0  0  0  0  0
  -21.1479   -6.0521   25.9077 H   0  0  0  0  0  0
  -22.0598   -2.7608   23.2849 H   0  0  0  0  0  0
  -22.4100  -11.9884   22.4790 H   0  0  0  0  0  0
  -21.1110  -13.1255   22.2608 H   0  0  0  0  0  0
  -24.6580  -15.8418   20.5044 H   0  0  0  0  0  0
  -26.2707  -15.6230   20.0523 H   0  0  0  0  0  0
  -26.7134  -32.5522   23.1158 H   0  0  0  0  0  0
  -25.0063  -33.9773   25.0474 H   0  0  0  0  0  0
  -22.6974  -31.3091   21.4117 H   0  0  0  0  0  0
  -23.3749  -35.9644   23.3305 H   0  0  0  0  0  0
  -24.3587  -36.8919   22.2052 H   0  0  0  0  0  0
  -23.7239  -37.6516   23.6647 H   0  0  0  0  0  0
  -26.0594  -31.5934   20.6021 H   0  0  0  0  0  0
  -26.8257  -30.8751   21.9899 H   0  0  0  0  0  0
  -28.1053  -29.0633   21.1855 H   0  0  0  0  0  0
  -26.0419  -25.9714   19.0002 H   0  0  0  0  0  0
  -23.9753  -27.3136   19.0133 H   0  0  0  0  0  0
  -23.7255  -30.6062   19.4055 H   0  0  0  0  0  0
  -22.7411  -29.2502   19.8652 H   0  0  0  0  0  0
  -25.1281  -36.1973   25.0830 H   0  0  0  0  0  0
  -20.9963  -28.3242   24.1427 H   0  0  0  0  0  0
  -20.5671  -26.2277   23.3605 H   0  0  0  0  0  0
  -21.6639  -26.7446   22.1209 H   0  0  0  0  0  0
  -19.6907  -25.6300   21.1234 H   0  0  0  0  0  0
  -19.6684  -27.3202   20.6744 H   0  0  0  0  0  0
  -17.4195  -26.6678   21.4022 H   0  0  0  0  0  0
  -18.0321  -26.0064   22.9013 H   0  0  0  0  0  0
  -19.7932  -30.7260   24.2279 H   0  0  0  0  0  0
  -17.5014  -31.6266   24.5165 H   0  0  0  0  0  0
  -15.5348  -30.2992   23.7646 H   0  0  0  0  0  0
  -15.8665  -28.0825   22.7058 H   0  0  0  0  0  0
  -24.5908  -30.7057   25.7813 H   0  0  0  0  0  0
  -24.8929  -32.2868   26.4923 H   0  0  0  0  0  0
  -25.8089  -30.8880   27.0233 H   0  0  0  0  0  0
  -26.2853  -29.6802   24.1163 H   0  0  0  0  0  0
  -27.4054  -29.7267   25.4584 H   0  0  0  0  0  0
  -27.8699  -30.4345   23.9286 H   0  0  0  0  0  0
  -27.2675  -33.3606   26.2090 H   0  0  0  0  0  0
  -28.3847  -32.6889   25.0305 H   0  0  0  0  0  0
  -28.0737  -31.8424   26.5383 H   0  0  0  0  0  0
  -28.2599  -38.0107   24.7522 H   0  0  0  0  0  0
  -28.1077  -36.2640   24.6268 H   0  0  0  0  0  0
  -27.2306  -37.1440   25.8867 H   0  0  0  0  0  0
  -20.9311  -29.8767   21.6940 H   0  0  0  0  0  0
  -26.0181  -38.2871   24.1415 H   0  0  0  0  0  0
  -33.2416  -18.9035   21.5080 H   0  0  0  0  0  0
  -31.5634  -20.7083   21.5285 H   0  0  0  0  0  0
  -32.5851  -16.5667   21.3201 H   0  0  0  0  0  0
  -28.4301  -17.7605   21.0324 H   0  0  0  0  0  0
  -29.5671  -24.1526   19.7607 H   0  0  0  0  0  0
  -27.2444  -25.3610   21.3997 H   0  0  0  0  0  0
  -29.0569  -15.3827   21.2673 H   0  0  0  0  0  0
  -29.9267  -21.7726   20.3423 H   0  0  0  0  0  0
  -27.6211  -19.2843   22.4984 H   0  0  0  0  0  0
  -27.0676  -20.9198   22.2135 H   0  0  0  0  0  0
  1 25  1  0  0  0
  1 30  2  0  0  0
  1 81  1  0  0  0
  2  3  1  0  0  0
  2 25  1  0  0  0
  2 85  1  0  0  0
  2 86  1  0  0  0
  3  4  1  0  0  0
  3 87  1  0  0  0
  3 88  1  0  0  0
  4  5  1  0  0  0
  4 89  1  0  0  0
  4 90  1  0  0  0
  5  6  1  0  0  0
  5 26  1  0  0  0
  5 91  1  0  0  0
  6 25  1  0  0  0
  6 92  1  0  0  0
  6 93  1  0  0  0
  7  8  2  0  0  0
  7 26  1  0  0  0
  7 29  1  0  0  0
  8  9  1  0  0  0
  8 22  1  0  0  0
  9 10  1  0  0  0
  9 27  2  0  0  0
 10 11  2  0  0  0
 10 15  1  0  0  0
 11 12  1  0  0  0
 11 94  1  0  0  0
 12 13  2  0  0  0
 12 95  1  0  0  0
 13 14  1  0  0  0
 13 31  1  0  0  0
 14 15  2  0  0  0
 14 96  1  0  0  0
 15 97  1  0  0  0
 16 17  2  0  0  0
 16 21  1  0  0  0
 16 31  1  0  0  0
 17 18  1  0  0  0
 17 98  1  0  0  0
 18 19  2  0  0  0
 18 99  1  0  0  0
 19 20  1  0  0  0
 19 24  1  0  0  0
 20 21  2  0  0  0
 20100  1  0  0  0
 21 23  1  0  0  0
 22 28  1  0  0  0
 22 32  2  0  0  0
 26 27  1  0  0  0
 28101  1  0  0  0
 28102  1  0  0  0
 29103  1  0  0  0
 29104  1  0  0  0
 33 34  1  0  0  0
 33 66  1  0  0  0
 33 70  2  0  0  0
 34 36  1  0  0  0
 34 59  1  0  0  0
 34105  1  0  0  0
 35 44  2  0  0  0
 35 45  1  0  0  0
 35 68  1  0  0  0
 36 56  1  0  0  0
 36106  1  0  0  0
 37 39  1  0  0  0
 37 47  1  0  0  0
 37 66  1  0  0  0
 37107  1  0  0  0
 38 43  2  0  0  0
 38 46  1  0  0  0
 38 47  1  0  0  0
 39 64  1  0  0  0
 39 67  2  0  0  0
 40 52  1  0  0  0
 40 53  2  0  0  0
 40 58  1  0  0  0
 41108  1  0  0  0
 41109  1  0  0  0
 41110  1  0  0  0
 41 48  1  0  0  0
 42 43  1  0  0  0
 42 66  1  0  0  0
 42111  1  0  0  0
 42112  1  0  0  0
 43 44  1  0  0  0
 44113  1  0  0  0
 45 46  2  0  0  0
 45114  1  0  0  0
 46115  1  0  0  0
 47116  1  0  0  0
 47117  1  0  0  0
 48 56  1  0  0  0
 48 65  1  0  0  0
 48118  1  0  0  0
 49 50  1  0  0  0
 49 53  1  0  0  0
 49 64  1  0  0  0
 49119  1  0  0  0
 50 51  1  0  0  0
 50120  1  0  0  0
 50121  1  0  0  0
 51 52  1  0  0  0
 51122  1  0  0  0
 51123  1  0  0  0
 52124  1  0  0  0
 52125  1  0  0  0
 53 54  1  0  0  0
 54 55  2  0  0  0
 54126  1  0  0  0
 55 57  1  0  0  0
 55127  1  0  0  0
 56 69  2  0  0  0
 57 58  2  0  0  0
 57128  1  0  0  0
 58129  1  0  0  0
 59 60  1  0  0  0
 59 61  1  0  0  0
 59 62  1  0  0  0
 60130  1  0  0  0
 60131  1  0  0  0
 60132  1  0  0  0
 61133  1  0  0  0
 61134  1  0  0  0
 61135  1  0  0  0
 62136  1  0  0  0
 62137  1  0  0  0
 62138  1  0  0  0
 63 65  1  0  0  0
 63139  1  0  0  0
 63140  1  0  0  0
 63141  1  0  0  0
 64142  1  0  0  0
 65143  1  0  0  0
 68 78  1  0  0  0
 71 72  2  0  0  0
 71 73  1  0  0  0
 71144  1  0  0  0
 72 75  1  0  0  0
 72145  1  0  0  0
 73 76  2  0  0  0
 73146  1  0  0  0
 74 75  2  0  0  0
 74 76  1  0  0  0
 74147  1  0  0  0
 75 79  1  0  0  0
 76 81  1  0  0  0
 77 78  2  0  0  0
 77 80  1  0  0  0
 77148  1  0  0  0
 78149  1  0  0  0
 79 82  1  0  0  0
 79 83  2  0  0  0
 80 82  1  0  0  0
 80 84  2  0  0  0
 81150  1  0  0  0
 82151  1  0  0  0
 83152  1  0  0  0
 83153  1  0  0  0
M  CHG  1  83   1
M  ISO  4   1 100  68 101  78 101  81 100
M  END
> <chiral flag>
0

> <version>
0

> <s_m_source_file>
/data/baiqing/PycharmProjects/Reinvent-master-3.2/result/LINK_invent/BTK/process_docking_weight1_custom_product_contain_oxygen_bond_distance_aromatic_linkinvent_7_9_3/rearranged_h_0085.sdf

> <i_m_source_file_index>
88

> <r_mmod_Potential_Energy-OPLS-2005>
-327.333862304688

> <r_mmod_Stretch_Energy-OPLS-2005>
48.3747406005859

> <r_mmod_Bend_Energy-OPLS-2005>
108.045135498047

> <r_mmod_Torsional_Energy-OPLS-2005>
212.050476074219

> <r_mmod_Improper_Torsional_Energy-OPLS-2005>
4.75299310684204

> <r_mmod_Van_der_Waal_Energy-OPLS-2005>
175.821975708008

> <r_mmod_Electrostatic_Energy-OPLS-2005>
-450.543334960938

> <r_mmod_Solvation_Energy-OPLS-2005>
-447.629608154297

> <b_mmod_Minimization_Converged-OPLS-2005>
0

> <r_mmod_RMS_Derivative-OPLS-2005>
0.372897505760193

$$$$
89
                    3D
 Structure written by MMmdl.
154163  0  0  1  0            999 V2000
  -30.6239  -14.5951   20.5739 C   0  0  0  0  0  0
  -30.4395  -12.3811   19.4513 C   0  0  0  0  0  0
  -29.5050  -12.5328   18.2275 C   0  0  0  0  0  0
  -28.0261  -12.3701   18.6313 C   0  0  0  0  0  0
  -27.6603  -13.2124   19.8801 C   0  0  2  0  0  0
  -28.6991  -13.0120   21.0069 C   0  0  0  0  0  0
  -25.2573  -13.8154   20.5668 C   0  0  0  0  0  0
  -24.1822  -13.0434   20.9162 C   0  0  0  0  0  0
  -24.6374  -11.6899   20.8701 C   0  0  0  0  0  0
  -23.9025  -10.4283   21.0368 C   0  0  0  0  0  0
  -24.3585   -9.4200   21.9145 C   0  0  0  0  0  0
  -23.6268   -8.2227   22.0710 C   0  0  0  0  0  0
  -22.4246   -8.0258   21.3518 C   0  0  0  0  0  0
  -21.9868   -9.0235   20.4628 C   0  0  0  0  0  0
  -22.7180  -10.2126   20.3032 C   0  0  0  0  0  0
  -21.6850   -6.0712   22.5275 C   0  0  0  0  0  0
  -21.4026   -6.5628   23.8211 C   0  0  0  0  0  0
  -21.3654   -5.6783   24.9175 C   0  0  0  0  0  0
  -21.6044   -4.3040   24.7227 C   0  0  0  0  0  0
  -21.8821   -3.8129   23.4350 C   0  0  0  0  0  0
  -21.9192   -4.6945   22.3400 C   0  0  0  0  0  0
  -22.7853  -13.5223   21.1858 C   0  0  0  0  0  0
  -22.1655   -4.2126   21.0985 F   0  0  0  0  0  0
  -21.5622   -3.4520   25.7733 F   0  0  0  0  0  0
  -30.0249  -13.3669   20.4689 N   0  0  0  0  0  0
  -26.3013  -12.9339   20.3379 N   0  0  0  0  0  0
  -25.9315  -11.6494   20.5765 N   0  0  0  0  0  0
  -22.0494  -12.8226   22.0433 N   0  0  0  0  0  0
  -25.4315  -15.1856   20.4055 N   0  0  0  0  0  0
  -31.7222  -14.8293   20.0572 O   0  0  0  0  0  0
  -21.6622   -6.8848   21.4229 O   0  0  0  0  0  0
  -22.3529  -14.5520   20.6708 O   0  0  0  0  0  0
  -24.6243  -31.8608   23.2049 C   0  0  0  0  0  0
  -25.9106  -32.4767   23.8374 C   0  0  1  0  0  0
  -27.2225  -27.3471   20.1174 C   0  0  0  0  0  0
  -25.5965  -33.8573   24.2303 N   0  0  0  0  0  0
  -23.4179  -30.4841   21.5438 C   0  0  2  0  0  0
  -24.8667  -28.9414   20.1109 C   0  0  0  0  0  0
  -22.7466  -29.4630   22.4930 C   0  0  0  0  0  0
  -18.0270  -28.1379   22.8480 C   0  0  0  0  0  0
  -24.1488  -36.7281   23.2615 C   0  0  0  0  0  0
  -25.9569  -30.7984   21.3744 C   0  0  0  0  0  0
  -26.0332  -29.4279   20.7186 C   0  0  0  0  0  0
  -27.2185  -28.6388   20.7172 C   0  0  0  0  0  0
  -26.0425  -26.9020   19.4903 C   0  0  0  0  0  0
  -24.8703  -27.6817   19.4898 C   0  0  0  0  0  0
  -23.6337  -29.8192   20.1587 C   0  0  0  0  0  0
  -25.4091  -36.3071   24.0344 C   0  0  1  0  0  0
  -20.5873  -28.3693   23.1273 C   0  0  2  0  0  0
  -20.6749  -26.9419   22.5400 C   0  0  0  0  0  0
  -19.5740  -26.6393   21.5198 C   0  0  0  0  0  0
  -18.1920  -26.7926   22.1620 C   0  0  0  0  0  0
  -19.1525  -28.8853   23.2874 C   0  0  0  0  0  0
  -18.9447  -30.1449   23.8900 C   0  0  0  0  0  0
  -17.6450  -30.6588   24.0553 C   0  0  0  0  0  0
  -25.9059  -34.9449   23.5118 C   0  0  0  0  0  0
  -16.5341  -29.9082   23.6333 C   0  0  0  0  0  0
  -16.7255  -28.6497   23.0357 C   0  0  0  0  0  0
  -26.4493  -31.6569   25.0743 C   0  0  0  0  0  0
  -25.3801  -31.3877   26.1586 C   0  0  0  0  0  0
  -27.0129  -30.2886   24.6233 C   0  0  0  0  0  0
  -27.6202  -32.4194   25.7391 C   0  0  0  0  0  0
  -27.5621  -37.1717   24.8408 C   0  0  0  0  0  0
  -21.4180  -29.3050   22.3678 N   0  0  0  0  0  0
  -26.4230  -37.3805   23.9508 N   0  0  0  0  0  0
  -24.6846  -31.0643   22.0975 N   0  0  0  0  0  0
  -23.4188  -28.8173   23.3011 O   0  0  0  0  0  0
  -28.2985  -26.4658   20.1404 O   0  0  0  0  0  0
  -26.5610  -34.8922   22.4668 O   0  0  0  0  0  0
  -23.5417  -32.1396   23.7395 O   0  0  0  0  0  0
  -29.2801  -19.1451   22.2520 C   0  0  0  0  0  0
  -29.7489  -19.1493   19.9062 C   0  0  0  0  0  0
  -29.5014  -17.7426   22.2995 C   0  0  0  0  0  0
  -30.0054  -17.7411   19.9536 C   0  0  0  0  0  0
  -29.3505  -19.9111   21.0493 C   0  0  0  0  0  0
  -29.8605  -16.9962   21.1535 C   0  0  0  0  0  0
  -28.4509  -22.0054   22.1094 C   0  0  0  0  0  0
  -29.2352  -22.1834   19.9008 C   0  0  0  0  0  0
  -28.1470  -23.3275   22.1929 C   0  0  0  0  0  0
  -28.9809  -23.5303   19.8295 C   0  0  0  0  0  0
  -28.4094  -24.2304   21.0309 C   0  0  0  0  0  0
  -28.0942  -25.4906   21.1817 N   0  0  0  0  0  0
  -29.0292  -21.3296   21.0145 N   0  0  0  0  0  0
  -29.9191  -15.5441   21.2537 N   0  0  0  0  0  0
  -27.6041  -23.7983   23.3287 O   0  0  0  0  0  0
  -29.2351  -24.1851   18.6868 O   0  0  0  0  0  0
  -31.4797  -12.5181   19.1508 H   0  0  0  0  0  0
  -30.3809  -11.3716   19.8602 H   0  0  0  0  0  0
  -29.7643  -11.8022   17.4610 H   0  0  0  0  0  0
  -29.6483  -13.5168   17.7771 H   0  0  0  0  0  0
  -27.8471  -11.3143   18.8324 H   0  0  0  0  0  0
  -27.3727  -12.6337   17.7981 H   0  0  0  0  0  0
  -27.6980  -14.2591   19.5774 H   0  0  0  0  0  0
  -28.7004  -11.9724   21.3358 H   0  0  0  0  0  0
  -28.4279  -13.5933   21.8888 H   0  0  0  0  0  0
  -25.2716   -9.5685   22.4736 H   0  0  0  0  0  0
  -23.9972   -7.4615   22.7433 H   0  0  0  0  0  0
  -21.0777   -8.8749   19.8965 H   0  0  0  0  0  0
  -22.3583  -10.9669   19.6165 H   0  0  0  0  0  0
  -21.2033   -7.6141   23.9708 H   0  0  0  0  0  0
  -21.1478   -6.0511   25.9077 H   0  0  0  0  0  0
  -22.0608   -2.7592   23.2845 H   0  0  0  0  0  0
  -22.4076  -11.9869   22.4807 H   0  0  0  0  0  0
  -21.1139  -13.1302   22.2694 H   0  0  0  0  0  0
  -24.6666  -15.8443   20.4993 H   0  0  0  0  0  0
  -26.2984  -15.6206   20.1122 H   0  0  0  0  0  0
  -26.7183  -32.5426   23.1142 H   0  0  0  0  0  0
  -25.0165  -33.9723   25.0484 H   0  0  0  0  0  0
  -22.7117  -31.3041   21.4007 H   0  0  0  0  0  0
  -23.3858  -35.9485   23.2988 H   0  0  0  0  0  0
  -24.3677  -36.9194   22.2100 H   0  0  0  0  0  0
  -23.7069  -37.6326   23.6798 H   0  0  0  0  0  0
  -26.0900  -31.5626   20.6081 H   0  0  0  0  0  0
  -26.8374  -30.8443   22.0031 H   0  0  0  0  0  0
  -28.1150  -29.0024   21.1992 H   0  0  0  0  0  0
  -26.0261  -25.9248   19.0279 H   0  0  0  0  0  0
  -23.9762  -27.3000   19.0166 H   0  0  0  0  0  0
  -23.7529  -30.5930   19.3998 H   0  0  0  0  0  0
  -22.7558  -29.2452   19.8581 H   0  0  0  0  0  0
  -25.1234  -36.1876   25.0821 H   0  0  0  0  0  0
  -20.9952  -28.3250   24.1396 H   0  0  0  0  0  0
  -20.5617  -26.2317   23.3602 H   0  0  0  0  0  0
  -21.6621  -26.7426   22.1210 H   0  0  0  0  0  0
  -19.6897  -25.6297   21.1243 H   0  0  0  0  0  0
  -19.6672  -27.3191   20.6713 H   0  0  0  0  0  0
  -17.4181  -26.6643   21.4042 H   0  0  0  0  0  0
  -18.0353  -26.0073   22.9030 H   0  0  0  0  0  0
  -19.7916  -30.7251   24.2291 H   0  0  0  0  0  0
  -17.5005  -31.6276   24.5138 H   0  0  0  0  0  0
  -15.5343  -30.2988   23.7664 H   0  0  0  0  0  0
  -15.8644  -28.0818   22.7088 H   0  0  0  0  0  0
  -24.5660  -30.7600   25.7963 H   0  0  0  0  0  0
  -24.9427  -32.3151   26.5294 H   0  0  0  0  0  0
  -25.8110  -30.8737   27.0187 H   0  0  0  0  0  0
  -26.2570  -29.6744   24.1327 H   0  0  0  0  0  0
  -27.3734  -29.7109   25.4755 H   0  0  0  0  0  0
  -27.8565  -30.3974   23.9425 H   0  0  0  0  0  0
  -27.3034  -33.3668   26.1757 H   0  0  0  0  0  0
  -28.4089  -32.6407   25.0191 H   0  0  0  0  0  0
  -28.0721  -31.8377   26.5435 H   0  0  0  0  0  0
  -28.2435  -38.0209   24.7756 H   0  0  0  0  0  0
  -28.1315  -36.2790   24.5782 H   0  0  0  0  0  0
  -27.2442  -37.0812   25.8808 H   0  0  0  0  0  0
  -20.9367  -29.8785   21.6896 H   0  0  0  0  0  0
  -26.0102  -38.2818   24.1736 H   0  0  0  0  0  0
  -29.0426  -19.5984   23.1989 H   0  0  0  0  0  0
  -29.8378  -19.6235   18.9422 H   0  0  0  0  0  0
  -29.3770  -17.2407   23.2497 H   0  0  0  0  0  0
  -30.2670  -17.2307   19.0380 H   0  0  0  0  0  0
  -28.2076  -21.3842   22.9541 H   0  0  0  0  0  0
  -29.6424  -21.6807   19.0382 H   0  0  0  0  0  0
  -29.2130  -15.1419   21.8543 H   0  0  0  0  0  0
  -27.5255  -23.0712   23.9325 H   0  0  0  0  0  0
  -29.5101  -23.5440   18.0456 H   0  0  0  0  0  0
  1 25  1  0  0  0
  1 30  2  0  0  0
  1 84  1  0  0  0
  2  3  1  0  0  0
  2 25  1  0  0  0
  2 87  1  0  0  0
  2 88  1  0  0  0
  3  4  1  0  0  0
  3 89  1  0  0  0
  3 90  1  0  0  0
  4  5  1  0  0  0
  4 91  1  0  0  0
  4 92  1  0  0  0
  5  6  1  0  0  0
  5 26  1  0  0  0
  5 93  1  0  0  0
  6 25  1  0  0  0
  6 94  1  0  0  0
  6 95  1  0  0  0
  7  8  2  0  0  0
  7 26  1  0  0  0
  7 29  1  0  0  0
  8  9  1  0  0  0
  8 22  1  0  0  0
  9 10  1  0  0  0
  9 27  2  0  0  0
 10 11  2  0  0  0
 10 15  1  0  0  0
 11 12  1  0  0  0
 11 96  1  0  0  0
 12 13  2  0  0  0
 12 97  1  0  0  0
 13 14  1  0  0  0
 13 31  1  0  0  0
 14 15  2  0  0  0
 14 98  1  0  0  0
 15 99  1  0  0  0
 16 17  2  0  0  0
 16 21  1  0  0  0
 16 31  1  0  0  0
 17 18  1  0  0  0
 17100  1  0  0  0
 18 19  2  0  0  0
 18101  1  0  0  0
 19 20  1  0  0  0
 19 24  1  0  0  0
 20 21  2  0  0  0
 20102  1  0  0  0
 21 23  1  0  0  0
 22 28  1  0  0  0
 22 32  2  0  0  0
 26 27  1  0  0  0
 28103  1  0  0  0
 28104  1  0  0  0
 29105  1  0  0  0
 29106  1  0  0  0
 33 34  1  0  0  0
 33 66  1  0  0  0
 33 70  2  0  0  0
 34 36  1  0  0  0
 34 59  1  0  0  0
 34107  1  0  0  0
 35 44  2  0  0  0
 35 45  1  0  0  0
 35 68  1  0  0  0
 36 56  1  0  0  0
 36108  1  0  0  0
 37 39  1  0  0  0
 37 47  1  0  0  0
 37 66  1  0  0  0
 37109  1  0  0  0
 38 43  2  0  0  0
 38 46  1  0  0  0
 38 47  1  0  0  0
 39 64  1  0  0  0
 39 67  2  0  0  0
 40 52  1  0  0  0
 40 53  2  0  0  0
 40 58  1  0  0  0
 41110  1  0  0  0
 41111  1  0  0  0
 41112  1  0  0  0
 41 48  1  0  0  0
 42 43  1  0  0  0
 42 66  1  0  0  0
 42113  1  0  0  0
 42114  1  0  0  0
 43 44  1  0  0  0
 44115  1  0  0  0
 45 46  2  0  0  0
 45116  1  0  0  0
 46117  1  0  0  0
 47118  1  0  0  0
 47119  1  0  0  0
 48 56  1  0  0  0
 48 65  1  0  0  0
 48120  1  0  0  0
 49 50  1  0  0  0
 49 53  1  0  0  0
 49 64  1  0  0  0
 49121  1  0  0  0
 50 51  1  0  0  0
 50122  1  0  0  0
 50123  1  0  0  0
 51 52  1  0  0  0
 51124  1  0  0  0
 51125  1  0  0  0
 52126  1  0  0  0
 52127  1  0  0  0
 53 54  1  0  0  0
 54 55  2  0  0  0
 54128  1  0  0  0
 55 57  1  0  0  0
 55129  1  0  0  0
 56 69  2  0  0  0
 57 58  2  0  0  0
 57130  1  0  0  0
 58131  1  0  0  0
 59 60  1  0  0  0
 59 61  1  0  0  0
 59 62  1  0  0  0
 60132  1  0  0  0
 60133  1  0  0  0
 60134  1  0  0  0
 61135  1  0  0  0
 61136  1  0  0  0
 61137  1  0  0  0
 62138  1  0  0  0
 62139  1  0  0  0
 62140  1  0  0  0
 63 65  1  0  0  0
 63141  1  0  0  0
 63142  1  0  0  0
 63143  1  0  0  0
 64144  1  0  0  0
 65145  1  0  0  0
 68 82  1  0  0  0
 71 73  2  0  0  0
 71 75  1  0  0  0
 71146  1  0  0  0
 72 74  1  0  0  0
 72 75  2  0  0  0
 72147  1  0  0  0
 73 76  1  0  0  0
 73148  1  0  0  0
 74 76  2  0  0  0
 74149  1  0  0  0
 75 83  1  0  0  0
 76 84  1  0  0  0
 77 79  2  0  0  0
 77 83  1  0  0  0
 77150  1  0  0  0
 78 80  2  0  0  0
 78 83  1  0  0  0
 78151  1  0  0  0
 79 81  1  0  0  0
 79 85  1  0  0  0
 80 81  1  0  0  0
 80 86  1  0  0  0
 81 82  2  0  0  0
 84152  1  0  0  0
 85153  1  0  0  0
 86154  1  0  0  0
M  ISO  4   1 100  68 101  82 101  84 100
M  END
> <chiral flag>
0

> <version>
0

> <s_m_source_file>
/data/baiqing/PycharmProjects/Reinvent-master-3.2/result/LINK_invent/BTK/process_docking_weight1_custom_product_contain_oxygen_bond_distance_aromatic_linkinvent_7_9_3/rearranged_h_0085.sdf

> <i_m_source_file_index>
89

> <r_mmod_Potential_Energy-OPLS-2005>
80.6145324707031

> <r_mmod_Stretch_Energy-OPLS-2005>
74.8662033081055

> <r_mmod_Bend_Energy-OPLS-2005>
151.923217773438

> <r_mmod_Torsional_Energy-OPLS-2005>
205.203048706055

> <r_mmod_Improper_Torsional_Energy-OPLS-2005>
2.96376276016235

> <r_mmod_Van_der_Waal_Energy-OPLS-2005>
169.072845458984

> <r_mmod_Electrostatic_Energy-OPLS-2005>
-300.669952392578

> <r_mmod_Solvation_Energy-OPLS-2005>
-263.040069580078

> <b_mmod_Minimization_Converged-OPLS-2005>
0

> <r_mmod_RMS_Derivative-OPLS-2005>
2.79864883422852

$$$$
90
                    3D
 Structure written by MMmdl.
155164  0  0  1  0            999 V2000
  -30.5628  -14.8721   20.4343 C   0  0  0  0  0  0
  -30.4438  -12.5419   19.4719 C   0  0  0  0  0  0
  -29.5150  -12.5147   18.2371 C   0  0  0  0  0  0
  -28.0459  -12.3137   18.6600 C   0  0  0  0  0  0
  -27.6326  -13.2373   19.8361 C   0  0  2  0  0  0
  -28.6816  -13.2338   20.9673 C   0  0  0  0  0  0
  -25.2482  -13.8195   20.5702 C   0  0  0  0  0  0
  -24.1789  -13.0431   20.9225 C   0  0  0  0  0  0
  -24.6391  -11.6913   20.8754 C   0  0  0  0  0  0
  -23.9072  -10.4289   21.0409 C   0  0  0  0  0  0
  -24.3621   -9.4204   21.9186 C   0  0  0  0  0  0
  -23.6295   -8.2240   22.0753 C   0  0  0  0  0  0
  -22.4277   -8.0279   21.3544 C   0  0  0  0  0  0
  -21.9914   -9.0254   20.4646 C   0  0  0  0  0  0
  -22.7243  -10.2132   20.3057 C   0  0  0  0  0  0
  -21.6854   -6.0734   22.5278 C   0  0  0  0  0  0
  -21.4015   -6.5639   23.8212 C   0  0  0  0  0  0
  -21.3659   -5.6791   24.9174 C   0  0  0  0  0  0
  -21.6044   -4.3054   24.7225 C   0  0  0  0  0  0
  -21.8819   -3.8146   23.4346 C   0  0  0  0  0  0
  -21.9192   -4.6962   22.3402 C   0  0  0  0  0  0
  -22.7810  -13.5211   21.1880 C   0  0  0  0  0  0
  -22.1663   -4.2148   21.0980 F   0  0  0  0  0  0
  -21.5628   -3.4537   25.7738 F   0  0  0  0  0  0
  -29.9606  -13.6264   20.3625 N   0  0  0  0  0  0
  -26.2902  -12.9408   20.3241 N   0  0  0  0  0  0
  -25.9321  -11.6548   20.5739 N   0  0  0  0  0  0
  -22.0457  -12.8203   22.0435 N   0  0  0  0  0  0
  -25.4135  -15.1925   20.4117 N   0  0  0  0  0  0
  -31.7771  -14.9554   20.2295 O   0  0  0  0  0  0
  -21.6640   -6.8877   21.4240 O   0  0  0  0  0  0
  -22.3496  -14.5514   20.6720 O   0  0  0  0  0  0
  -24.6414  -31.8478   23.1919 C   0  0  0  0  0  0
  -25.9199  -32.4716   23.8296 C   0  0  1  0  0  0
  -27.2225  -27.1796   20.1235 C   0  0  0  0  0  0
  -25.5955  -33.8519   24.2212 N   0  0  0  0  0  0
  -23.4423  -30.4707   21.5379 C   0  0  2  0  0  0
  -24.8891  -28.9066   20.1121 C   0  0  0  0  0  0
  -22.7557  -29.4571   22.4874 C   0  0  0  0  0  0
  -18.0303  -28.1394   22.8479 C   0  0  0  0  0  0
  -24.1491  -36.7264   23.2642 C   0  0  0  0  0  0
  -25.9978  -30.7349   21.3840 C   0  0  0  0  0  0
  -26.0699  -29.3515   20.7208 C   0  0  0  0  0  0
  -27.2379  -28.5035   20.7124 C   0  0  0  0  0  0
  -25.9951  -26.8131   19.5234 C   0  0  0  0  0  0
  -24.8609  -27.6465   19.5018 C   0  0  0  0  0  0
  -23.6659  -29.8056   20.1557 C   0  0  0  0  0  0
  -25.4122  -36.3044   24.0318 C   0  0  1  0  0  0
  -20.5916  -28.3719   23.1240 C   0  0  2  0  0  0
  -20.6790  -26.9425   22.5402 C   0  0  0  0  0  0
  -19.5761  -26.6382   21.5212 C   0  0  0  0  0  0
  -18.1943  -26.7932   22.1625 C   0  0  0  0  0  0
  -19.1560  -28.8873   23.2853 C   0  0  0  0  0  0
  -18.9476  -30.1470   23.8877 C   0  0  0  0  0  0
  -17.6473  -30.6591   24.0559 C   0  0  0  0  0  0
  -25.9071  -34.9418   23.5071 C   0  0  0  0  0  0
  -16.5364  -29.9084   23.6335 C   0  0  0  0  0  0
  -16.7288  -28.6502   23.0356 C   0  0  0  0  0  0
  -26.4526  -31.6572   25.0725 C   0  0  0  0  0  0
  -25.3716  -31.3752   26.1424 C   0  0  0  0  0  0
  -27.0390  -30.2973   24.6286 C   0  0  0  0  0  0
  -27.6056  -32.4337   25.7511 C   0  0  0  0  0  0
  -27.5576  -37.1790   24.8466 C   0  0  0  0  0  0
  -21.4253  -29.3051   22.3618 N   0  0  0  0  0  0
  -26.4288  -37.3753   23.9407 N   0  0  0  0  0  0
  -24.7138  -31.0372   22.0934 N   0  0  0  0  0  0
  -23.4215  -28.8112   23.3007 O   0  0  0  0  0  0
  -28.2777  -26.1982   20.1822 O   0  0  0  0  0  0
  -26.5651  -34.8908   22.4646 O   0  0  0  0  0  0
  -23.5541  -32.1335   23.7161 O   0  0  0  0  0  0
  -29.3267  -18.6741   20.1541 C   0  0  0  0  0  0
  -30.6318  -20.1496   21.5267 C   0  0  0  0  0  0
  -31.0488  -17.8313   21.6059 C   0  0  0  0  0  0
  -29.6138  -20.0655   20.5538 C   0  0  0  0  0  0
  -30.0401  -17.4957   20.6817 C   0  0  0  0  0  0
  -28.5934  -23.6699   19.3888 C   0  0  0  0  0  0
  -28.9615  -22.6786   20.4764 C   0  0  0  0  0  0
  -28.3552  -25.0734   19.2713 C   0  0  0  0  0  0
  -28.5077  -22.7947   18.1482 C   0  0  0  0  0  0
  -28.5364  -21.3336   18.6175 C   0  0  0  0  0  0
  -28.2527  -25.6299   17.8462 C   0  0  0  0  0  0
  -31.3230  -19.0914   22.0201 N   0  0  0  0  0  0
  -29.0342  -21.3522   19.9841 N   0  0  0  0  0  0
  -29.7540  -16.0277   20.4267 N   0  0  0  0  0  0
  -29.1946  -22.9645   21.6526 O   0  0  0  0  0  0
  -31.4764  -12.7032   19.1580 H   0  0  0  0  0  0
  -30.4321  -11.5824   19.9913 H   0  0  0  0  0  0
  -29.8196  -11.7229   17.5513 H   0  0  0  0  0  0
  -29.6120  -13.4512   17.6854 H   0  0  0  0  0  0
  -27.9304  -11.2702   18.9554 H   0  0  0  0  0  0
  -27.3815  -12.4632   17.8080 H   0  0  0  0  0  0
  -27.6031  -14.2443   19.4205 H   0  0  0  0  0  0
  -28.7547  -12.2506   21.4345 H   0  0  0  0  0  0
  -28.3989  -13.9327   21.7563 H   0  0  0  0  0  0
  -25.2765   -9.5681   22.4762 H   0  0  0  0  0  0
  -24.0003   -7.4630   22.7472 H   0  0  0  0  0  0
  -21.0845   -8.8773   19.8953 H   0  0  0  0  0  0
  -22.3700  -10.9672   19.6167 H   0  0  0  0  0  0
  -21.2010   -7.6147   23.9716 H   0  0  0  0  0  0
  -21.1481   -6.0521   25.9076 H   0  0  0  0  0  0
  -22.0599   -2.7608   23.2846 H   0  0  0  0  0  0
  -22.4079  -11.9871   22.4831 H   0  0  0  0  0  0
  -21.1071  -13.1223   22.2634 H   0  0  0  0  0  0
  -24.6402  -15.8394   20.5230 H   0  0  0  0  0  0
  -26.2508  -15.6384   20.0621 H   0  0  0  0  0  0
  -26.7266  -32.5332   23.1029 H   0  0  0  0  0  0
  -25.0085  -33.9639   25.0347 H   0  0  0  0  0  0
  -22.7433  -31.2961   21.3880 H   0  0  0  0  0  0
  -23.3755  -35.9594   23.3298 H   0  0  0  0  0  0
  -24.3575  -36.8901   22.2058 H   0  0  0  0  0  0
  -23.7244  -37.6459   23.6681 H   0  0  0  0  0  0
  -26.1511  -31.4940   20.6156 H   0  0  0  0  0  0
  -26.8690  -30.7806   22.0260 H   0  0  0  0  0  0
  -28.1399  -28.8407   21.2034 H   0  0  0  0  0  0
  -25.8766  -25.8308   19.0918 H   0  0  0  0  0  0
  -23.9523  -27.2894   19.0368 H   0  0  0  0  0  0
  -23.8020  -30.5823   19.4023 H   0  0  0  0  0  0
  -22.7805  -29.2485   19.8441 H   0  0  0  0  0  0
  -25.1309  -36.1876   25.0810 H   0  0  0  0  0  0
  -21.0009  -28.3305   24.1361 H   0  0  0  0  0  0
  -20.5689  -26.2332   23.3619 H   0  0  0  0  0  0
  -21.6655  -26.7437   22.1197 H   0  0  0  0  0  0
  -19.6923  -25.6287   21.1255 H   0  0  0  0  0  0
  -19.6695  -27.3180   20.6732 H   0  0  0  0  0  0
  -17.4212  -26.6676   21.4029 H   0  0  0  0  0  0
  -18.0345  -26.0079   22.9028 H   0  0  0  0  0  0
  -19.7951  -30.7291   24.2240 H   0  0  0  0  0  0
  -17.5025  -31.6269   24.5163 H   0  0  0  0  0  0
  -15.5363  -30.2979   23.7669 H   0  0  0  0  0  0
  -15.8689  -28.0813   22.7084 H   0  0  0  0  0  0
  -24.5896  -30.7100   25.7745 H   0  0  0  0  0  0
  -24.8904  -32.2932   26.4808 H   0  0  0  0  0  0
  -25.8003  -30.8952   27.0230 H   0  0  0  0  0  0
  -26.3005  -29.6700   24.1282 H   0  0  0  0  0  0
  -27.4003  -29.7266   25.4852 H   0  0  0  0  0  0
  -27.8912  -30.4219   23.9602 H   0  0  0  0  0  0
  -27.2646  -33.3650   26.2045 H   0  0  0  0  0  0
  -28.3890  -32.6879   25.0358 H   0  0  0  0  0  0
  -28.0701  -31.8494   26.5465 H   0  0  0  0  0  0
  -28.2591  -38.0089   24.7507 H   0  0  0  0  0  0
  -28.1074  -36.2618   24.6300 H   0  0  0  0  0  0
  -27.2293  -37.1448   25.8869 H   0  0  0  0  0  0
  -20.9457  -29.8772   21.6808 H   0  0  0  0  0  0
  -26.0158  -38.2823   24.1405 H   0  0  0  0  0  0
  -28.5475  -18.5084   19.4251 H   0  0  0  0  0  0
  -30.9621  -21.1088   21.8949 H   0  0  0  0  0  0
  -31.6334  -17.0570   22.0806 H   0  0  0  0  0  0
  -29.3723  -22.9911   17.5128 H   0  0  0  0  0  0
  -27.6064  -22.9939   17.5677 H   0  0  0  0  0  0
  -29.1626  -20.7220   17.9660 H   0  0  0  0  0  0
  -27.5314  -20.9079   18.6122 H   0  0  0  0  0  0
  -29.0773  -25.2700   17.2311 H   0  0  0  0  0  0
  -28.3187  -26.7173   17.8141 H   0  0  0  0  0  0
  -27.3193  -25.3333   17.3679 H   0  0  0  0  0  0
  -28.7790  -15.8139   20.2836 H   0  0  0  0  0  0
  1 25  1  0  0  0
  1 30  2  0  0  0
  1 84  1  0  0  0
  2  3  1  0  0  0
  2 25  1  0  0  0
  2 86  1  0  0  0
  2 87  1  0  0  0
  3  4  1  0  0  0
  3 88  1  0  0  0
  3 89  1  0  0  0
  4  5  1  0  0  0
  4 90  1  0  0  0
  4 91  1  0  0  0
  5  6  1  0  0  0
  5 26  1  0  0  0
  5 92  1  0  0  0
  6 25  1  0  0  0
  6 93  1  0  0  0
  6 94  1  0  0  0
  7  8  2  0  0  0
  7 26  1  0  0  0
  7 29  1  0  0  0
  8  9  1  0  0  0
  8 22  1  0  0  0
  9 10  1  0  0  0
  9 27  2  0  0  0
 10 11  2  0  0  0
 10 15  1  0  0  0
 11 12  1  0  0  0
 11 95  1  0  0  0
 12 13  2  0  0  0
 12 96  1  0  0  0
 13 14  1  0  0  0
 13 31  1  0  0  0
 14 15  2  0  0  0
 14 97  1  0  0  0
 15 98  1  0  0  0
 16 17  2  0  0  0
 16 21  1  0  0  0
 16 31  1  0  0  0
 17 18  1  0  0  0
 17 99  1  0  0  0
 18 19  2  0  0  0
 18100  1  0  0  0
 19 20  1  0  0  0
 19 24  1  0  0  0
 20 21  2  0  0  0
 20101  1  0  0  0
 21 23  1  0  0  0
 22 28  1  0  0  0
 22 32  2  0  0  0
 26 27  1  0  0  0
 28102  1  0  0  0
 28103  1  0  0  0
 29104  1  0  0  0
 29105  1  0  0  0
 33 34  1  0  0  0
 33 66  1  0  0  0
 33 70  2  0  0  0
 34 36  1  0  0  0
 34 59  1  0  0  0
 34106  1  0  0  0
 35 44  2  0  0  0
 35 45  1  0  0  0
 35 68  1  0  0  0
 36 56  1  0  0  0
 36107  1  0  0  0
 37 39  1  0  0  0
 37 47  1  0  0  0
 37 66  1  0  0  0
 37108  1  0  0  0
 38 43  2  0  0  0
 38 46  1  0  0  0
 38 47  1  0  0  0
 39 64  1  0  0  0
 39 67  2  0  0  0
 40 52  1  0  0  0
 40 53  2  0  0  0
 40 58  1  0  0  0
 41109  1  0  0  0
 41110  1  0  0  0
 41111  1  0  0  0
 41 48  1  0  0  0
 42 43  1  0  0  0
 42 66  1  0  0  0
 42112  1  0  0  0
 42113  1  0  0  0
 43 44  1  0  0  0
 44114  1  0  0  0
 45 46  2  0  0  0
 45115  1  0  0  0
 46116  1  0  0  0
 47117  1  0  0  0
 47118  1  0  0  0
 48 56  1  0  0  0
 48 65  1  0  0  0
 48119  1  0  0  0
 49 50  1  0  0  0
 49 53  1  0  0  0
 49 64  1  0  0  0
 49120  1  0  0  0
 50 51  1  0  0  0
 50121  1  0  0  0
 50122  1  0  0  0
 51 52  1  0  0  0
 51123  1  0  0  0
 51124  1  0  0  0
 52125  1  0  0  0
 52126  1  0  0  0
 53 54  1  0  0  0
 54 55  2  0  0  0
 54127  1  0  0  0
 55 57  1  0  0  0
 55128  1  0  0  0
 56 69  2  0  0  0
 57 58  2  0  0  0
 57129  1  0  0  0
 58130  1  0  0  0
 59 60  1  0  0  0
 59 61  1  0  0  0
 59 62  1  0  0  0
 60131  1  0  0  0
 60132  1  0  0  0
 60133  1  0  0  0
 61134  1  0  0  0
 61135  1  0  0  0
 61136  1  0  0  0
 62137  1  0  0  0
 62138  1  0  0  0
 62139  1  0  0  0
 63 65  1  0  0  0
 63140  1  0  0  0
 63141  1  0  0  0
 63142  1  0  0  0
 64143  1  0  0  0
 65144  1  0  0  0
 68 78  1  0  0  0
 71 74  2  0  0  0
 71 75  1  0  0  0
 71145  1  0  0  0
 72 74  1  0  0  0
 72 82  2  0  0  0
 72146  1  0  0  0
 73 75  2  0  0  0
 73 82  1  0  0  0
 73147  1  0  0  0
 74 83  1  0  0  0
 75 84  1  0  0  0
 76 77  1  0  0  0
 76 78  2  0  0  0
 76 79  1  0  0  0
 77 83  1  0  0  0
 77 85  2  0  0  0
 78 81  1  0  0  0
 79 80  1  0  0  0
 79148  1  0  0  0
 79149  1  0  0  0
 80 83  1  0  0  0
 80150  1  0  0  0
 80151  1  0  0  0
 81152  1  0  0  0
 81153  1  0  0  0
 81154  1  0  0  0
 84155  1  0  0  0
M  ISO  4   1 100  68 101  78 101  84 100
M  END
> <chiral flag>
0

> <version>
0

> <s_m_source_file>
/data/baiqing/PycharmProjects/Reinvent-master-3.2/result/LINK_invent/BTK/process_docking_weight1_custom_product_contain_oxygen_bond_distance_aromatic_linkinvent_7_9_3/rearranged_h_0085.sdf

> <i_m_source_file_index>
90

> <r_mmod_Potential_Energy-OPLS-2005>
314.919860839844

> <r_mmod_Stretch_Energy-OPLS-2005>
188.754043579102

> <r_mmod_Bend_Energy-OPLS-2005>
266.905487060547

> <r_mmod_Torsional_Energy-OPLS-2005>
282.756958007812

> <r_mmod_Improper_Torsional_Energy-OPLS-2005>
8.4282169342041

> <r_mmod_Van_der_Waal_Energy-OPLS-2005>
145.327819824219

> <r_mmod_Electrostatic_Energy-OPLS-2005>
-495.482238769531

> <r_mmod_Solvation_Energy-OPLS-2005>
-236.180999755859

> <b_mmod_Minimization_Converged-OPLS-2005>
0

> <r_mmod_RMS_Derivative-OPLS-2005>
0.208012327551842

$$$$
